MODEL 1
REMARK VINA RESULT:    10.391      0.000      0.000
REMARK INTER + INTRA:          25.363
REMARK INTER:                  26.186
REMARK INTRA:                  -0.822
REMARK UNBOUND:                -0.822
REMARK SMILES CCCCCCCCCCCCCCCCCCCCCCCCCCCC(=O)[O-]
REMARK SMILES IDX 15 1 16 2 17 3 18 4 19 5 20 6 21 7 22 8 23 9 24 10 25 11
REMARK SMILES IDX 26 12 27 13 28 14 29 15 30 16 14 17 13 18 12 19 11 20 10 21
REMARK SMILES IDX 9 22 8 23 7 24 6 25 5 26 4 27 3 28 2 29 1 30
REMARK H PARENT
REMARK Flexibility Score: inf
ROOT
ATOM      1  C   UNL     1       4.399  29.243  18.661  1.00  0.00     0.000 C 
ENDROOT
BRANCH   1   2
ATOM      2  C   UNL     1       3.575  27.993  18.306  1.00  0.00     0.000 C 
BRANCH   2   3
ATOM      3  C   UNL     1       2.572  28.259  17.162  1.00  0.00     0.000 C 
BRANCH   3   4
ATOM      4  C   UNL     1       2.531  27.154  16.091  1.00  0.00     0.000 C 
BRANCH   4   5
ATOM      5  C   UNL     1       3.886  26.818  15.445  1.00  0.00     0.000 C 
BRANCH   5   6
ATOM      6  C   UNL     1       3.999  25.399  14.854  1.00  0.00     0.000 C 
BRANCH   6   7
ATOM      7  C   UNL     1       5.215  25.191  13.922  1.00  0.00     0.000 C 
BRANCH   7   8
ATOM      8  C   UNL     1       4.898  25.233  12.410  1.00  0.00     0.000 C 
BRANCH   8   9
ATOM      9  C   UNL     1       5.981  25.865  11.514  1.00  0.00     0.000 C 
BRANCH   9  10
ATOM     10  C   UNL     1       5.569  25.962  10.034  1.00  0.00     0.000 C 
BRANCH  10  11
ATOM     11  C   UNL     1       5.893  27.337   9.427  1.00  0.00     0.000 C 
BRANCH  11  12
ATOM     12  C   UNL     1       4.662  28.260   9.382  1.00  0.00     0.006 C 
BRANCH  12  13
ATOM     13  C   UNL     1       3.403  27.521   8.907  1.00  0.00     0.053 C 
BRANCH  13  14
ATOM     14  C   UNL     1       2.370  28.463   8.369  1.00  0.00     0.041 C 
ATOM     15  O   UNL     1       2.715  29.578   7.894  1.00  0.00    -0.550 OA
ATOM     16  O   UNL     1       1.028  28.099   8.359  1.00  0.00    -0.550 OA
ENDBRANCH  13  14
ENDBRANCH  12  13
ENDBRANCH  11  12
ENDBRANCH  10  11
ENDBRANCH   9  10
ENDBRANCH   8   9
ENDBRANCH   7   8
ENDBRANCH   6   7
ENDBRANCH   5   6
ENDBRANCH   4   5
ENDBRANCH   3   4
ENDBRANCH   2   3
ENDBRANCH   1   2
BRANCH   1  17
ATOM     17  C   UNL     1       5.848  28.915  19.053  1.00  0.00     0.000 C 
BRANCH  17  18
ATOM     18  C   UNL     1       6.686  30.175  19.345  1.00  0.00     0.000 C 
BRANCH  18  19
ATOM     19  C   UNL     1       8.173  30.014  18.968  1.00  0.00     0.000 C 
BRANCH  19  20
ATOM     20  C   UNL     1       9.129  30.939  19.745  1.00  0.00     0.000 C 
BRANCH  20  21
ATOM     21  C   UNL     1      10.526  31.125  19.123  1.00  0.00     0.000 C 
BRANCH  21  22
ATOM     22  C   UNL     1      11.700  31.066  20.118  1.00  0.00    -0.000 C 
BRANCH  22  23
ATOM     23  C   UNL     1      13.053  30.819  19.434  1.00  0.00    -0.000 C 
BRANCH  23  24
ATOM     24  C   UNL     1      14.211  31.058  20.414  1.00  0.00    -0.000 C 
BRANCH  24  25
ATOM     25  C   UNL     1      14.666  29.771  21.122  1.00  0.00    -0.000 C 
BRANCH  25  26
ATOM     26  C   UNL     1      13.556  28.708  21.181  1.00  0.00    -0.000 C 
BRANCH  26  27
ATOM     27  C   UNL     1      13.936  27.496  22.048  1.00  0.00    -0.000 C 
BRANCH  27  28
ATOM     28  C   UNL     1      13.416  27.545  23.498  1.00  0.00    -0.000 C 
BRANCH  28  29
ATOM     29  C   UNL     1      13.768  26.291  24.326  1.00  0.00    -0.003 C 
ATOM     30  C   UNL     1      15.118  25.692  23.931  1.00  0.00     0.004 C 
ENDBRANCH  28  29
ENDBRANCH  27  28
ENDBRANCH  26  27
ENDBRANCH  25  26
ENDBRANCH  24  25
ENDBRANCH  23  24
ENDBRANCH  22  23
ENDBRANCH  21  22
ENDBRANCH  20  21
ENDBRANCH  19  20
ENDBRANCH  18  19
ENDBRANCH  17  18
ENDBRANCH   1  17
TORSDOF 26
ENDMDL
MODEL 2
REMARK VINA RESULT:    10.857      5.667     13.185
REMARK INTER + INTRA:          26.536
REMARK INTER:                  27.995
REMARK INTRA:                  -1.459
REMARK UNBOUND:                -0.822
REMARK SMILES CCCCCCCCCCCCCCCCCCCCCCCCCCCC(=O)[O-]
REMARK SMILES IDX 15 1 16 2 17 3 18 4 19 5 20 6 21 7 22 8 23 9 24 10 25 11
REMARK SMILES IDX 26 12 27 13 28 14 29 15 30 16 14 17 13 18 12 19 11 20 10 21
REMARK SMILES IDX 9 22 8 23 7 24 6 25 5 26 4 27 3 28 2 29 1 30
REMARK H PARENT
REMARK Flexibility Score: inf
ROOT
ATOM      1  C   UNL     1       8.434  30.343  19.664  1.00  0.00     0.000 C 
ENDROOT
BRANCH   1   2
ATOM      2  C   UNL     1       9.848  30.749  19.214  1.00  0.00     0.000 C 
BRANCH   2   3
ATOM      3  C   UNL     1      10.769  31.082  20.408  1.00  0.00     0.000 C 
BRANCH   3   4
ATOM      4  C   UNL     1      12.268  31.125  20.054  1.00  0.00     0.000 C 
BRANCH   4   5
ATOM      5  C   UNL     1      12.590  30.998  18.555  1.00  0.00     0.000 C 
BRANCH   5   6
ATOM      6  C   UNL     1      12.911  29.571  18.070  1.00  0.00     0.000 C 
BRANCH   6   7
ATOM      7  C   UNL     1      14.373  29.130  18.306  1.00  0.00     0.000 C 
BRANCH   7   8
ATOM      8  C   UNL     1      14.585  28.174  19.502  1.00  0.00     0.000 C 
BRANCH   8   9
ATOM      9  C   UNL     1      15.115  28.823  20.796  1.00  0.00     0.000 C 
BRANCH   9  10
ATOM     10  C   UNL     1      14.082  28.841  21.937  1.00  0.00     0.000 C 
BRANCH  10  11
ATOM     11  C   UNL     1      13.823  27.439  22.510  1.00  0.00     0.000 C 
BRANCH  11  12
ATOM     12  C   UNL     1      14.356  27.288  23.947  1.00  0.00     0.006 C 
BRANCH  12  13
ATOM     13  C   UNL     1      13.347  27.780  24.993  1.00  0.00     0.053 C 
BRANCH  13  14
ATOM     14  C   UNL     1      13.860  28.966  25.751  1.00  0.00     0.041 C 
ATOM     15  O   UNL     1      14.117  30.041  25.146  1.00  0.00    -0.550 OA
ATOM     16  O   UNL     1      14.022  28.899  27.130  1.00  0.00    -0.550 OA
ENDBRANCH  13  14
ENDBRANCH  12  13
ENDBRANCH  11  12
ENDBRANCH  10  11
ENDBRANCH   9  10
ENDBRANCH   8   9
ENDBRANCH   7   8
ENDBRANCH   6   7
ENDBRANCH   5   6
ENDBRANCH   4   5
ENDBRANCH   3   4
ENDBRANCH   2   3
ENDBRANCH   1   2
BRANCH   1  17
ATOM     17  C   UNL     1       7.444  30.220  18.496  1.00  0.00     0.000 C 
BRANCH  17  18
ATOM     18  C   UNL     1       6.443  29.062  18.682  1.00  0.00     0.000 C 
BRANCH  18  19
ATOM     19  C   UNL     1       5.187  29.469  19.478  1.00  0.00     0.000 C 
BRANCH  19  20
ATOM     20  C   UNL     1       3.875  28.853  18.953  1.00  0.00     0.000 C 
BRANCH  20  21
ATOM     21  C   UNL     1       3.907  28.370  17.491  1.00  0.00     0.000 C 
BRANCH  21  22
ATOM     22  C   UNL     1       2.619  27.686  16.998  1.00  0.00    -0.000 C 
BRANCH  22  23
ATOM     23  C   UNL     1       2.874  26.310  16.365  1.00  0.00    -0.000 C 
BRANCH  23  24
ATOM     24  C   UNL     1       3.657  26.450  15.051  1.00  0.00    -0.000 C 
BRANCH  24  25
ATOM     25  C   UNL     1       4.382  25.156  14.650  1.00  0.00    -0.000 C 
BRANCH  25  26
ATOM     26  C   UNL     1       5.500  25.401  13.622  1.00  0.00    -0.000 C 
BRANCH  26  27
ATOM     27  C   UNL     1       5.112  24.956  12.202  1.00  0.00    -0.000 C 
BRANCH  27  28
ATOM     28  C   UNL     1       5.890  25.651  11.067  1.00  0.00    -0.000 C 
BRANCH  28  29
ATOM     29  C   UNL     1       5.006  26.533  10.159  1.00  0.00    -0.003 C 
ATOM     30  C   UNL     1       5.733  27.790   9.682  1.00  0.00     0.004 C 
ENDBRANCH  28  29
ENDBRANCH  27  28
ENDBRANCH  26  27
ENDBRANCH  25  26
ENDBRANCH  24  25
ENDBRANCH  23  24
ENDBRANCH  22  23
ENDBRANCH  21  22
ENDBRANCH  20  21
ENDBRANCH  19  20
ENDBRANCH  18  19
ENDBRANCH  17  18
ENDBRANCH   1  17
TORSDOF 26
ENDMDL
MODEL 3
REMARK VINA RESULT:    11.307      3.488      5.208
REMARK INTER + INTRA:          27.672
REMARK INTER:                  28.544
REMARK INTRA:                  -0.872
REMARK UNBOUND:                -0.822
REMARK SMILES CCCCCCCCCCCCCCCCCCCCCCCCCCCC(=O)[O-]
REMARK SMILES IDX 15 1 16 2 17 3 18 4 19 5 20 6 21 7 22 8 23 9 24 10 25 11
REMARK SMILES IDX 26 12 27 13 28 14 29 15 30 16 14 17 13 18 12 19 11 20 10 21
REMARK SMILES IDX 9 22 8 23 7 24 6 25 5 26 4 27 3 28 2 29 1 30
REMARK H PARENT
REMARK Flexibility Score: inf
ROOT
ATOM      1  C   UNL     1       9.495  22.115  17.167  1.00  0.00     0.000 C 
ENDROOT
BRANCH   1   2
ATOM      2  C   UNL     1       8.406  23.197  17.057  1.00  0.00     0.000 C 
BRANCH   2   3
ATOM      3  C   UNL     1       7.171  22.706  16.271  1.00  0.00     0.000 C 
BRANCH   3   4
ATOM      4  C   UNL     1       6.271  23.838  15.740  1.00  0.00     0.000 C 
BRANCH   4   5
ATOM      5  C   UNL     1       5.884  23.724  14.256  1.00  0.00     0.000 C 
BRANCH   5   6
ATOM      6  C   UNL     1       5.713  25.065  13.516  1.00  0.00     0.000 C 
BRANCH   6   7
ATOM      7  C   UNL     1       5.048  24.947  12.126  1.00  0.00     0.000 C 
BRANCH   7   8
ATOM      8  C   UNL     1       5.243  26.169  11.200  1.00  0.00     0.000 C 
BRANCH   8   9
ATOM      9  C   UNL     1       5.797  25.865   9.794  1.00  0.00     0.000 C 
BRANCH   9  10
ATOM     10  C   UNL     1       6.209  27.126   9.014  1.00  0.00     0.000 C 
BRANCH  10  11
ATOM     11  C   UNL     1       5.099  27.615   8.068  1.00  0.00     0.000 C 
BRANCH  11  12
ATOM     12  C   UNL     1       3.806  27.974   8.823  1.00  0.00     0.006 C 
BRANCH  12  13
ATOM     13  C   UNL     1       3.084  29.174   8.195  1.00  0.00     0.053 C 
BRANCH  13  14
ATOM     14  C   UNL     1       1.598  28.986   8.175  1.00  0.00     0.041 C 
ATOM     15  O   UNL     1       1.097  27.866   8.459  1.00  0.00    -0.550 OA
ATOM     16  O   UNL     1       0.762  30.056   7.875  1.00  0.00    -0.550 OA
ENDBRANCH  13  14
ENDBRANCH  12  13
ENDBRANCH  11  12
ENDBRANCH  10  11
ENDBRANCH   9  10
ENDBRANCH   8   9
ENDBRANCH   7   8
ENDBRANCH   6   7
ENDBRANCH   5   6
ENDBRANCH   4   5
ENDBRANCH   3   4
ENDBRANCH   2   3
ENDBRANCH   1   2
BRANCH   1  17
ATOM     17  C   UNL     1      10.596  22.472  18.178  1.00  0.00     0.000 C 
BRANCH  17  18
ATOM     18  C   UNL     1      11.306  21.229  18.749  1.00  0.00     0.000 C 
BRANCH  18  19
ATOM     19  C   UNL     1      12.516  21.579  19.639  1.00  0.00     0.000 C 
BRANCH  19  20
ATOM     20  C   UNL     1      13.190  22.921  19.296  1.00  0.00     0.000 C 
BRANCH  20  21
ATOM     21  C   UNL     1      14.530  23.192  20.006  1.00  0.00     0.000 C 
BRANCH  21  22
ATOM     22  C   UNL     1      15.112  24.601  19.790  1.00  0.00    -0.000 C 
BRANCH  22  23
ATOM     23  C   UNL     1      14.244  25.710  20.403  1.00  0.00    -0.000 C 
BRANCH  23  24
ATOM     24  C   UNL     1      15.098  26.932  20.771  1.00  0.00    -0.000 C 
BRANCH  24  25
ATOM     25  C   UNL     1      14.776  28.164  19.910  1.00  0.00    -0.000 C 
BRANCH  25  26
ATOM     26  C   UNL     1      15.064  29.486  20.642  1.00  0.00    -0.000 C 
BRANCH  26  27
ATOM     27  C   UNL     1      13.826  30.053  21.357  1.00  0.00    -0.000 C 
BRANCH  27  28
ATOM     28  C   UNL     1      13.723  29.702  22.855  1.00  0.00    -0.000 C 
BRANCH  28  29
ATOM     29  C   UNL     1      15.059  29.251  23.480  1.00  0.00    -0.003 C 
ATOM     30  C   UNL     1      14.915  28.876  24.955  1.00  0.00     0.004 C 
ENDBRANCH  28  29
ENDBRANCH  27  28
ENDBRANCH  26  27
ENDBRANCH  25  26
ENDBRANCH  24  25
ENDBRANCH  23  24
ENDBRANCH  22  23
ENDBRANCH  21  22
ENDBRANCH  20  21
ENDBRANCH  19  20
ENDBRANCH  18  19
ENDBRANCH  17  18
ENDBRANCH   1  17
TORSDOF 26
ENDMDL
MODEL 4
REMARK VINA RESULT:    11.768      3.317      5.606
REMARK INTER + INTRA:          28.832
REMARK INTER:                  29.853
REMARK INTRA:                  -1.022
REMARK UNBOUND:                -0.822
REMARK SMILES CCCCCCCCCCCCCCCCCCCCCCCCCCCC(=O)[O-]
REMARK SMILES IDX 15 1 16 2 17 3 18 4 19 5 20 6 21 7 22 8 23 9 24 10 25 11
REMARK SMILES IDX 26 12 27 13 28 14 29 15 30 16 14 17 13 18 12 19 11 20 10 21
REMARK SMILES IDX 9 22 8 23 7 24 6 25 5 26 4 27 3 28 2 29 1 30
REMARK H PARENT
REMARK Flexibility Score: inf
ROOT
ATOM      1  C   UNL     1       9.489  22.504  17.344  1.00  0.00     0.000 C 
ENDROOT
BRANCH   1   2
ATOM      2  C   UNL     1       8.173  23.278  17.151  1.00  0.00     0.000 C 
BRANCH   2   3
ATOM      3  C   UNL     1       7.238  22.595  16.129  1.00  0.00     0.000 C 
BRANCH   3   4
ATOM      4  C   UNL     1       6.215  23.546  15.478  1.00  0.00     0.000 C 
BRANCH   4   5
ATOM      5  C   UNL     1       6.587  24.043  14.071  1.00  0.00     0.000 C 
BRANCH   5   6
ATOM      6  C   UNL     1       5.480  24.821  13.334  1.00  0.00     0.000 C 
BRANCH   6   7
ATOM      7  C   UNL     1       5.483  24.638  11.800  1.00  0.00     0.000 C 
BRANCH   7   8
ATOM      8  C   UNL     1       5.194  25.919  10.985  1.00  0.00     0.000 C 
BRANCH   8   9
ATOM      9  C   UNL     1       5.724  25.930   9.537  1.00  0.00     0.000 C 
BRANCH   9  10
ATOM     10  C   UNL     1       5.578  27.295   8.843  1.00  0.00     0.000 C 
BRANCH  10  11
ATOM     11  C   UNL     1       4.827  28.315   9.715  1.00  0.00     0.000 C 
BRANCH  11  12
ATOM     12  C   UNL     1       4.413  29.568   8.922  1.00  0.00     0.006 C 
BRANCH  12  13
ATOM     13  C   UNL     1       3.310  29.265   7.898  1.00  0.00     0.053 C 
BRANCH  13  14
ATOM     14  C   UNL     1       1.950  29.252   8.528  1.00  0.00     0.041 C 
ATOM     15  O   UNL     1       1.754  29.838   9.625  1.00  0.00    -0.550 OA
ATOM     16  O   UNL     1       0.889  28.622   7.887  1.00  0.00    -0.550 OA
ENDBRANCH  13  14
ENDBRANCH  12  13
ENDBRANCH  11  12
ENDBRANCH  10  11
ENDBRANCH   9  10
ENDBRANCH   8   9
ENDBRANCH   7   8
ENDBRANCH   6   7
ENDBRANCH   5   6
ENDBRANCH   4   5
ENDBRANCH   3   4
ENDBRANCH   2   3
ENDBRANCH   1   2
BRANCH   1  17
ATOM     17  C   UNL     1      10.251  22.923  18.610  1.00  0.00     0.000 C 
BRANCH  17  18
ATOM     18  C   UNL     1      11.223  21.835  19.107  1.00  0.00     0.000 C 
BRANCH  18  19
ATOM     19  C   UNL     1      12.426  22.407  19.885  1.00  0.00     0.000 C 
BRANCH  19  20
ATOM     20  C   UNL     1      13.618  22.818  18.999  1.00  0.00     0.000 C 
BRANCH  20  21
ATOM     21  C   UNL     1      14.974  22.930  19.720  1.00  0.00     0.000 C 
BRANCH  21  22
ATOM     22  C   UNL     1      15.036  23.985  20.840  1.00  0.00    -0.000 C 
BRANCH  22  23
ATOM     23  C   UNL     1      15.124  25.422  20.306  1.00  0.00    -0.000 C 
BRANCH  23  24
ATOM     24  C   UNL     1      15.077  26.437  21.458  1.00  0.00    -0.000 C 
BRANCH  24  25
ATOM     25  C   UNL     1      13.910  27.429  21.330  1.00  0.00    -0.000 C 
BRANCH  25  26
ATOM     26  C   UNL     1      14.316  28.726  20.609  1.00  0.00    -0.000 C 
BRANCH  26  27
ATOM     27  C   UNL     1      13.125  29.665  20.354  1.00  0.00    -0.000 C 
BRANCH  27  28
ATOM     28  C   UNL     1      13.184  30.445  19.026  1.00  0.00    -0.000 C 
BRANCH  28  29
ATOM     29  C   UNL     1      13.407  29.548  17.790  1.00  0.00    -0.003 C 
ATOM     30  C   UNL     1      13.270  30.321  16.478  1.00  0.00     0.004 C 
ENDBRANCH  28  29
ENDBRANCH  27  28
ENDBRANCH  26  27
ENDBRANCH  25  26
ENDBRANCH  24  25
ENDBRANCH  23  24
ENDBRANCH  22  23
ENDBRANCH  21  22
ENDBRANCH  20  21
ENDBRANCH  19  20
ENDBRANCH  18  19
ENDBRANCH  17  18
ENDBRANCH   1  17
TORSDOF 26
ENDMDL
MODEL 5
REMARK VINA RESULT:    12.398      5.288     13.089
REMARK INTER + INTRA:          30.420
REMARK INTER:                  30.987
REMARK INTRA:                  -0.566
REMARK UNBOUND:                -0.822
REMARK SMILES CCCCCCCCCCCCCCCCCCCCCCCCCCCC(=O)[O-]
REMARK SMILES IDX 15 1 16 2 17 3 18 4 19 5 20 6 21 7 22 8 23 9 24 10 25 11
REMARK SMILES IDX 26 12 27 13 28 14 29 15 30 16 14 17 13 18 12 19 11 20 10 21
REMARK SMILES IDX 9 22 8 23 7 24 6 25 5 26 4 27 3 28 2 29 1 30
REMARK H PARENT
REMARK Flexibility Score: inf
ROOT
ATOM      1  C   UNL     1       2.654  27.889  17.744  1.00  0.00     0.000 C 
ENDROOT
BRANCH   1   2
ATOM      2  C   UNL     1       4.084  28.373  18.047  1.00  0.00     0.000 C 
BRANCH   2   3
ATOM      3  C   UNL     1       4.183  29.079  19.417  1.00  0.00     0.000 C 
BRANCH   3   4
ATOM      4  C   UNL     1       5.606  29.542  19.785  1.00  0.00     0.000 C 
BRANCH   4   5
ATOM      5  C   UNL     1       6.696  29.180  18.762  1.00  0.00     0.000 C 
BRANCH   5   6
ATOM      6  C   UNL     1       7.778  30.256  18.545  1.00  0.00     0.000 C 
BRANCH   6   7
ATOM      7  C   UNL     1       9.117  29.969  19.260  1.00  0.00     0.000 C 
BRANCH   7   8
ATOM      8  C   UNL     1      10.142  31.125  19.223  1.00  0.00     0.000 C 
BRANCH   8   9
ATOM      9  C   UNL     1      11.593  30.727  18.886  1.00  0.00     0.000 C 
BRANCH   9  10
ATOM     10  C   UNL     1      12.189  29.702  19.868  1.00  0.00     0.000 C 
BRANCH  10  11
ATOM     11  C   UNL     1      12.208  30.224  21.314  1.00  0.00     0.000 C 
BRANCH  11  12
ATOM     12  C   UNL     1      13.489  29.817  22.064  1.00  0.00     0.006 C 
BRANCH  12  13
ATOM     13  C   UNL     1      13.264  29.711  23.579  1.00  0.00     0.053 C 
BRANCH  13  14
ATOM     14  C   UNL     1      13.705  28.384  24.119  1.00  0.00     0.041 C 
ATOM     15  O   UNL     1      12.855  27.567  24.563  1.00  0.00    -0.550 OA
ATOM     16  O   UNL     1      15.050  28.034  24.102  1.00  0.00    -0.550 OA
ENDBRANCH  13  14
ENDBRANCH  12  13
ENDBRANCH  11  12
ENDBRANCH  10  11
ENDBRANCH   9  10
ENDBRANCH   8   9
ENDBRANCH   7   8
ENDBRANCH   6   7
ENDBRANCH   5   6
ENDBRANCH   4   5
ENDBRANCH   3   4
ENDBRANCH   2   3
ENDBRANCH   1   2
BRANCH   1  17
ATOM     17  C   UNL     1       2.421  27.606  16.252  1.00  0.00     0.000 C 
BRANCH  17  18
ATOM     18  C   UNL     1       3.142  26.333  15.767  1.00  0.00     0.000 C 
BRANCH  18  19
ATOM     19  C   UNL     1       4.501  26.626  15.098  1.00  0.00     0.000 C 
BRANCH  19  20
ATOM     20  C   UNL     1       5.170  25.395  14.456  1.00  0.00     0.000 C 
BRANCH  20  21
ATOM     21  C   UNL     1       4.300  24.612  13.455  1.00  0.00     0.000 C 
BRANCH  21  22
ATOM     22  C   UNL     1       4.819  24.599  12.005  1.00  0.00    -0.000 C 
BRANCH  22  23
ATOM     23  C   UNL     1       5.453  25.934  11.583  1.00  0.00    -0.000 C 
BRANCH  23  24
ATOM     24  C   UNL     1       5.734  25.952  10.073  1.00  0.00    -0.000 C 
BRANCH  24  25
ATOM     25  C   UNL     1       5.597  27.354   9.460  1.00  0.00    -0.000 C 
BRANCH  25  26
ATOM     26  C   UNL     1       5.115  27.314   7.999  1.00  0.00    -0.000 C 
BRANCH  26  27
ATOM     27  C   UNL     1       3.583  27.373   7.875  1.00  0.00    -0.000 C 
BRANCH  27  28
ATOM     28  C   UNL     1       2.895  28.401   8.793  1.00  0.00    -0.000 C 
BRANCH  28  29
ATOM     29  C   UNL     1       3.819  29.557   9.233  1.00  0.00    -0.003 C 
ATOM     30  C   UNL     1       3.162  30.926   9.062  1.00  0.00     0.004 C 
ENDBRANCH  28  29
ENDBRANCH  27  28
ENDBRANCH  26  27
ENDBRANCH  25  26
ENDBRANCH  24  25
ENDBRANCH  23  24
ENDBRANCH  22  23
ENDBRANCH  21  22
ENDBRANCH  20  21
ENDBRANCH  19  20
ENDBRANCH  18  19
ENDBRANCH  17  18
ENDBRANCH   1  17
TORSDOF 26
ENDMDL
MODEL 6
REMARK VINA RESULT:    12.858      4.089      5.258
REMARK INTER + INTRA:          31.580
REMARK INTER:                  32.150
REMARK INTRA:                  -0.570
REMARK UNBOUND:                -0.822
REMARK SMILES CCCCCCCCCCCCCCCCCCCCCCCCCCCC(=O)[O-]
REMARK SMILES IDX 15 1 16 2 17 3 18 4 19 5 20 6 21 7 22 8 23 9 24 10 25 11
REMARK SMILES IDX 26 12 27 13 28 14 29 15 30 16 14 17 13 18 12 19 11 20 10 21
REMARK SMILES IDX 9 22 8 23 7 24 6 25 5 26 4 27 3 28 2 29 1 30
REMARK H PARENT
REMARK Flexibility Score: inf
ROOT
ATOM      1  C   UNL     1       8.164  23.182  17.785  1.00  0.00     0.000 C 
ENDROOT
BRANCH   1   2
ATOM      2  C   UNL     1       7.001  22.990  16.796  1.00  0.00     0.000 C 
BRANCH   2   3
ATOM      3  C   UNL     1       7.469  23.045  15.326  1.00  0.00     0.000 C 
BRANCH   3   4
ATOM      4  C   UNL     1       6.320  23.118  14.302  1.00  0.00     0.000 C 
BRANCH   4   5
ATOM      5  C   UNL     1       6.052  24.516  13.720  1.00  0.00     0.000 C 
BRANCH   5   6
ATOM      6  C   UNL     1       5.568  24.538  12.257  1.00  0.00     0.000 C 
BRANCH   6   7
ATOM      7  C   UNL     1       5.079  25.919  11.765  1.00  0.00     0.000 C 
BRANCH   7   8
ATOM      8  C   UNL     1       5.805  26.466  10.515  1.00  0.00     0.000 C 
BRANCH   8   9
ATOM      9  C   UNL     1       4.939  26.625   9.250  1.00  0.00     0.000 C 
BRANCH   9  10
ATOM     10  C   UNL     1       5.343  27.829   8.381  1.00  0.00     0.000 C 
BRANCH  10  11
ATOM     11  C   UNL     1       4.850  29.162   8.966  1.00  0.00     0.000 C 
BRANCH  11  12
ATOM     12  C   UNL     1       4.599  30.221   7.877  1.00  0.00     0.006 C 
BRANCH  12  13
ATOM     13  C   UNL     1       3.265  30.953   8.079  1.00  0.00     0.053 C 
BRANCH  13  14
ATOM     14  C   UNL     1       2.265  30.105   8.803  1.00  0.00     0.041 C 
ATOM     15  O   UNL     1       2.406  29.867  10.032  1.00  0.00    -0.550 OA
ATOM     16  O   UNL     1       1.156  29.603   8.131  1.00  0.00    -0.550 OA
ENDBRANCH  13  14
ENDBRANCH  12  13
ENDBRANCH  11  12
ENDBRANCH  10  11
ENDBRANCH   9  10
ENDBRANCH   8   9
ENDBRANCH   7   8
ENDBRANCH   6   7
ENDBRANCH   5   6
ENDBRANCH   4   5
ENDBRANCH   3   4
ENDBRANCH   2   3
ENDBRANCH   1   2
BRANCH   1  17
ATOM     17  C   UNL     1       9.328  22.209  17.538  1.00  0.00     0.000 C 
BRANCH  17  18
ATOM     18  C   UNL     1      10.678  22.757  18.040  1.00  0.00     0.000 C 
BRANCH  18  19
ATOM     19  C   UNL     1      11.277  21.927  19.195  1.00  0.00     0.000 C 
BRANCH  19  20
ATOM     20  C   UNL     1      12.487  22.583  19.887  1.00  0.00     0.000 C 
BRANCH  20  21
ATOM     21  C   UNL     1      13.867  22.180  19.333  1.00  0.00     0.000 C 
BRANCH  21  22
ATOM     22  C   UNL     1      15.050  23.024  19.843  1.00  0.00    -0.000 C 
BRANCH  22  23
ATOM     23  C   UNL     1      14.875  24.526  19.574  1.00  0.00    -0.000 C 
BRANCH  23  24
ATOM     24  C   UNL     1      15.098  25.341  20.856  1.00  0.00    -0.000 C 
BRANCH  24  25
ATOM     25  C   UNL     1      14.128  26.527  20.984  1.00  0.00    -0.000 C 
BRANCH  25  26
ATOM     26  C   UNL     1      13.661  26.752  22.433  1.00  0.00    -0.000 C 
BRANCH  26  27
ATOM     27  C   UNL     1      14.637  26.173  23.471  1.00  0.00    -0.000 C 
BRANCH  27  28
ATOM     28  C   UNL     1      14.066  26.037  24.895  1.00  0.00    -0.000 C 
BRANCH  28  29
ATOM     29  C   UNL     1      15.017  25.322  25.880  1.00  0.00    -0.003 C 
ATOM     30  C   UNL     1      14.709  23.831  26.007  1.00  0.00     0.004 C 
ENDBRANCH  28  29
ENDBRANCH  27  28
ENDBRANCH  26  27
ENDBRANCH  25  26
ENDBRANCH  24  25
ENDBRANCH  23  24
ENDBRANCH  22  23
ENDBRANCH  21  22
ENDBRANCH  20  21
ENDBRANCH  19  20
ENDBRANCH  18  19
ENDBRANCH  17  18
ENDBRANCH   1  17
TORSDOF 26
ENDMDL
