MODEL 1
REMARK VINA RESULT:    -3.822      0.000      0.000
REMARK INTER + INTRA:          -8.850
REMARK INTER:                  -6.726
REMARK INTRA:                  -2.124
REMARK UNBOUND:                -2.124
REMARK SMILES CCCCCCCCCCCCCCC(=O)[O-]
REMARK SMILES IDX 9 1 10 2 11 3 12 4 13 5 14 6 15 7 16 8 17 9 8 10 7 11 6 12
REMARK SMILES IDX 5 13 4 14 3 15 2 16 1 17
REMARK H PARENT
REMARK Flexibility Score: inf
ROOT
ATOM      1  C   UNL     1      49.960  -1.068  71.857  1.00  0.00     0.000 C 
ENDROOT
BRANCH   1   2
ATOM      2  C   UNL     1      51.022  -0.303  72.662  1.00  0.00     0.000 C 
BRANCH   2   3
ATOM      3  C   UNL     1      52.018  -1.240  73.368  1.00  0.00     0.000 C 
BRANCH   3   4
ATOM      4  C   UNL     1      53.221  -1.598  72.480  1.00  0.00     0.000 C 
BRANCH   4   5
ATOM      5  C   UNL     1      53.487  -3.110  72.424  1.00  0.00     0.006 C 
BRANCH   5   6
ATOM      6  C   UNL     1      52.633  -3.854  73.456  1.00  0.00     0.053 C 
BRANCH   6   7
ATOM      7  C   UNL     1      53.499  -4.667  74.366  1.00  0.00     0.041 C 
ATOM      8  O   UNL     1      53.333  -5.911  74.454  1.00  0.00    -0.550 OA
ATOM      9  O   UNL     1      54.525  -4.057  75.077  1.00  0.00    -0.550 OA
ENDBRANCH   6   7
ENDBRANCH   5   6
ENDBRANCH   4   5
ENDBRANCH   3   4
ENDBRANCH   2   3
ENDBRANCH   1   2
BRANCH   1  10
ATOM     10  C   UNL     1      48.538  -0.532  72.089  1.00  0.00     0.000 C 
BRANCH  10  11
ATOM     11  C   UNL     1      48.536   0.563  73.167  1.00  0.00    -0.000 C 
BRANCH  11  12
ATOM     12  C   UNL     1      47.765   0.152  74.434  1.00  0.00    -0.000 C 
BRANCH  12  13
ATOM     13  C   UNL     1      48.645  -0.196  75.653  1.00  0.00    -0.000 C 
BRANCH  13  14
ATOM     14  C   UNL     1      49.239  -1.617  75.648  1.00  0.00    -0.000 C 
BRANCH  14  15
ATOM     15  C   UNL     1      48.247  -2.678  75.142  1.00  0.00    -0.000 C 
BRANCH  15  16
ATOM     16  C   UNL     1      48.932  -3.773  74.310  1.00  0.00    -0.003 C 
ATOM     17  C   UNL     1      48.172  -4.102  73.024  1.00  0.00     0.004 C 
ENDBRANCH  15  16
ENDBRANCH  14  15
ENDBRANCH  13  14
ENDBRANCH  12  13
ENDBRANCH  11  12
ENDBRANCH  10  11
ENDBRANCH   1  10
TORSDOF 13
ENDMDL
MODEL 2
REMARK VINA RESULT:    -3.817      8.828     10.441
REMARK INTER + INTRA:          -8.842
REMARK INTER:                  -8.142
REMARK INTRA:                  -0.699
REMARK UNBOUND:                -2.124
REMARK SMILES CCCCCCCCCCCCCCC(=O)[O-]
REMARK SMILES IDX 9 1 10 2 11 3 12 4 13 5 14 6 15 7 16 8 17 9 8 10 7 11 6 12
REMARK SMILES IDX 5 13 4 14 3 15 2 16 1 17
REMARK H PARENT
REMARK Flexibility Score: inf
ROOT
ATOM      1  C   UNL     1      54.021  -3.047  82.080  1.00  0.00     0.000 C 
ENDROOT
BRANCH   1   2
ATOM      2  C   UNL     1      55.297  -3.860  82.346  1.00  0.00     0.000 C 
BRANCH   2   3
ATOM      3  C   UNL     1      56.436  -3.001  82.925  1.00  0.00     0.000 C 
BRANCH   3   4
ATOM      4  C   UNL     1      57.449  -3.830  83.730  1.00  0.00     0.000 C 
BRANCH   4   5
ATOM      5  C   UNL     1      58.871  -3.751  83.155  1.00  0.00     0.006 C 
BRANCH   5   6
ATOM      6  C   UNL     1      58.922  -2.802  81.953  1.00  0.00     0.053 C 
BRANCH   6   7
ATOM      7  C   UNL     1      59.949  -1.736  82.170  1.00  0.00     0.041 C 
ATOM      8  O   UNL     1      60.208  -0.910  81.255  1.00  0.00    -0.550 OA
ATOM      9  O   UNL     1      60.584  -1.621  83.400  1.00  0.00    -0.550 OA
ENDBRANCH   6   7
ENDBRANCH   5   6
ENDBRANCH   4   5
ENDBRANCH   3   4
ENDBRANCH   2   3
ENDBRANCH   1   2
BRANCH   1  10
ATOM     10  C   UNL     1      52.895  -3.893  81.463  1.00  0.00     0.000 C 
BRANCH  10  11
ATOM     11  C   UNL     1      51.537  -3.195  81.623  1.00  0.00    -0.000 C 
BRANCH  11  12
ATOM     12  C   UNL     1      51.411  -2.429  82.953  1.00  0.00    -0.000 C 
BRANCH  12  13
ATOM     13  C   UNL     1      50.091  -1.652  83.139  1.00  0.00    -0.000 C 
BRANCH  13  14
ATOM     14  C   UNL     1      48.899  -2.179  82.320  1.00  0.00    -0.000 C 
BRANCH  14  15
ATOM     15  C   UNL     1      47.910  -3.002  83.163  1.00  0.00    -0.000 C 
BRANCH  15  16
ATOM     16  C   UNL     1      48.233  -2.949  84.665  1.00  0.00    -0.003 C 
ATOM     17  C   UNL     1      47.131  -3.561  85.530  1.00  0.00     0.004 C 
ENDBRANCH  15  16
ENDBRANCH  14  15
ENDBRANCH  13  14
ENDBRANCH  12  13
ENDBRANCH  11  12
ENDBRANCH  10  11
ENDBRANCH   1  10
TORSDOF 13
ENDMDL
MODEL 3
REMARK VINA RESULT:    -3.799      3.145      5.620
REMARK INTER + INTRA:          -8.810
REMARK INTER:                  -6.948
REMARK INTRA:                  -1.862
REMARK UNBOUND:                -2.124
REMARK SMILES CCCCCCCCCCCCCCC(=O)[O-]
REMARK SMILES IDX 9 1 10 2 11 3 12 4 13 5 14 6 15 7 16 8 17 9 8 10 7 11 6 12
REMARK SMILES IDX 5 13 4 14 3 15 2 16 1 17
REMARK H PARENT
REMARK Flexibility Score: inf
ROOT
ATOM      1  C   UNL     1      49.320  -3.591  75.054  1.00  0.00     0.000 C 
ENDROOT
BRANCH   1   2
ATOM      2  C   UNL     1      50.196  -4.280  73.995  1.00  0.00     0.000 C 
BRANCH   2   3
ATOM      3  C   UNL     1      49.455  -4.494  72.663  1.00  0.00     0.000 C 
BRANCH   3   4
ATOM      4  C   UNL     1      47.939  -4.271  72.789  1.00  0.00     0.000 C 
BRANCH   4   5
ATOM      5  C   UNL     1      47.131  -5.562  72.580  1.00  0.00     0.006 C 
BRANCH   5   6
ATOM      6  C   UNL     1      46.014  -5.681  73.622  1.00  0.00     0.053 C 
BRANCH   6   7
ATOM      7  C   UNL     1      45.731  -7.119  73.924  1.00  0.00     0.041 C 
ATOM      8  O   UNL     1      46.679  -7.930  74.091  1.00  0.00    -0.550 OA
ATOM      9  O   UNL     1      44.420  -7.554  74.072  1.00  0.00    -0.550 OA
ENDBRANCH   6   7
ENDBRANCH   5   6
ENDBRANCH   4   5
ENDBRANCH   3   4
ENDBRANCH   2   3
ENDBRANCH   1   2
BRANCH   1  10
ATOM     10  C   UNL     1      49.786  -2.161  75.371  1.00  0.00     0.000 C 
BRANCH  10  11
ATOM     11  C   UNL     1      48.635  -1.160  75.195  1.00  0.00    -0.000 C 
BRANCH  11  12
ATOM     12  C   UNL     1      48.916  -0.112  74.103  1.00  0.00    -0.000 C 
BRANCH  12  13
ATOM     13  C   UNL     1      48.771  -0.621  72.654  1.00  0.00    -0.000 C 
BRANCH  13  14
ATOM     14  C   UNL     1      50.095  -0.876  71.912  1.00  0.00    -0.000 C 
BRANCH  14  15
ATOM     15  C   UNL     1      51.213   0.093  72.335  1.00  0.00    -0.000 C 
BRANCH  15  16
ATOM     16  C   UNL     1      52.606  -0.552  72.269  1.00  0.00    -0.003 C 
ATOM     17  C   UNL     1      52.634  -1.964  72.854  1.00  0.00     0.004 C 
ENDBRANCH  15  16
ENDBRANCH  14  15
ENDBRANCH  13  14
ENDBRANCH  12  13
ENDBRANCH  11  12
ENDBRANCH  10  11
ENDBRANCH   1  10
TORSDOF 13
ENDMDL
MODEL 4
REMARK VINA RESULT:    -3.777      2.151      3.439
REMARK INTER + INTRA:          -8.773
REMARK INTER:                  -7.824
REMARK INTRA:                  -0.949
REMARK UNBOUND:                -2.124
REMARK SMILES CCCCCCCCCCCCCCC(=O)[O-]
REMARK SMILES IDX 9 1 10 2 11 3 12 4 13 5 14 6 15 7 16 8 17 9 8 10 7 11 6 12
REMARK SMILES IDX 5 13 4 14 3 15 2 16 1 17
REMARK H PARENT
REMARK Flexibility Score: inf
ROOT
ATOM      1  C   UNL     1      49.628  -0.808  72.014  1.00  0.00     0.000 C 
ENDROOT
BRANCH   1   2
ATOM      2  C   UNL     1      50.755  -0.334  72.945  1.00  0.00     0.000 C 
BRANCH   2   3
ATOM      3  C   UNL     1      51.974   0.201  72.173  1.00  0.00     0.000 C 
BRANCH   3   4
ATOM      4  C   UNL     1      53.142  -0.797  72.148  1.00  0.00     0.000 C 
BRANCH   4   5
ATOM      5  C   UNL     1      53.076  -1.815  73.298  1.00  0.00     0.006 C 
BRANCH   5   6
ATOM      6  C   UNL     1      53.557  -3.194  72.835  1.00  0.00     0.053 C 
BRANCH   6   7
ATOM      7  C   UNL     1      53.861  -4.066  74.013  1.00  0.00     0.041 C 
ATOM      8  O   UNL     1      53.145  -5.072  74.257  1.00  0.00    -0.550 OA
ATOM      9  O   UNL     1      54.965  -3.796  74.812  1.00  0.00    -0.550 OA
ENDBRANCH   6   7
ENDBRANCH   5   6
ENDBRANCH   4   5
ENDBRANCH   3   4
ENDBRANCH   2   3
ENDBRANCH   1   2
BRANCH   1  10
ATOM     10  C   UNL     1      48.943  -2.089  72.515  1.00  0.00     0.000 C 
BRANCH  10  11
ATOM     11  C   UNL     1      49.903  -3.286  72.441  1.00  0.00    -0.000 C 
BRANCH  11  12
ATOM     12  C   UNL     1      49.179  -4.641  72.544  1.00  0.00    -0.000 C 
BRANCH  12  13
ATOM     13  C   UNL     1      47.732  -4.571  73.077  1.00  0.00    -0.000 C 
BRANCH  13  14
ATOM     14  C   UNL     1      47.097  -5.929  73.428  1.00  0.00    -0.000 C 
BRANCH  14  15
ATOM     15  C   UNL     1      46.476  -6.631  72.209  1.00  0.00    -0.000 C 
BRANCH  15  16
ATOM     16  C   UNL     1      46.322  -8.146  72.418  1.00  0.00    -0.003 C 
ATOM     17  C   UNL     1      46.360  -8.932  71.108  1.00  0.00     0.004 C 
ENDBRANCH  15  16
ENDBRANCH  14  15
ENDBRANCH  13  14
ENDBRANCH  12  13
ENDBRANCH  11  12
ENDBRANCH  10  11
ENDBRANCH   1  10
TORSDOF 13
ENDMDL
MODEL 5
REMARK VINA RESULT:    -3.742      1.139      2.539
REMARK INTER + INTRA:          -8.711
REMARK INTER:                  -6.788
REMARK INTRA:                  -1.923
REMARK UNBOUND:                -2.124
REMARK SMILES CCCCCCCCCCCCCCC(=O)[O-]
REMARK SMILES IDX 9 1 10 2 11 3 12 4 13 5 14 6 15 7 16 8 17 9 8 10 7 11 6 12
REMARK SMILES IDX 5 13 4 14 3 15 2 16 1 17
REMARK H PARENT
REMARK Flexibility Score: inf
ROOT
ATOM      1  C   UNL     1      50.792  -0.173  72.744  1.00  0.00     0.000 C 
ENDROOT
BRANCH   1   2
ATOM      2  C   UNL     1      51.935   0.438  71.918  1.00  0.00     0.000 C 
BRANCH   2   3
ATOM      3  C   UNL     1      53.218  -0.412  71.965  1.00  0.00     0.000 C 
BRANCH   3   4
ATOM      4  C   UNL     1      53.178  -1.480  73.070  1.00  0.00     0.000 C 
BRANCH   4   5
ATOM      5  C   UNL     1      53.253  -2.911  72.514  1.00  0.00     0.006 C 
BRANCH   5   6
ATOM      6  C   UNL     1      52.597  -3.906  73.477  1.00  0.00     0.053 C 
BRANCH   6   7
ATOM      7  C   UNL     1      53.628  -4.551  74.348  1.00  0.00     0.041 C 
ATOM      8  O   UNL     1      54.821  -4.642  73.955  1.00  0.00    -0.550 OA
ATOM      9  O   UNL     1      53.283  -5.005  75.614  1.00  0.00    -0.550 OA
ENDBRANCH   6   7
ENDBRANCH   5   6
ENDBRANCH   4   5
ENDBRANCH   3   4
ENDBRANCH   2   3
ENDBRANCH   1   2
BRANCH   1  10
ATOM     10  C   UNL     1      49.726  -0.852  71.871  1.00  0.00     0.000 C 
BRANCH  10  11
ATOM     11  C   UNL     1      49.039  -1.993  72.637  1.00  0.00    -0.000 C 
BRANCH  11  12
ATOM     12  C   UNL     1      49.424  -2.031  74.127  1.00  0.00    -0.000 C 
BRANCH  12  13
ATOM     13  C   UNL     1      48.238  -1.978  75.112  1.00  0.00    -0.000 C 
BRANCH  13  14
ATOM     14  C   UNL     1      48.336  -0.892  76.199  1.00  0.00    -0.000 C 
BRANCH  14  15
ATOM     15  C   UNL     1      48.561   0.515  75.619  1.00  0.00    -0.000 C 
BRANCH  15  16
ATOM     16  C   UNL     1      47.446   0.936  74.649  1.00  0.00    -0.003 C 
ATOM     17  C   UNL     1      47.907   1.984  73.636  1.00  0.00     0.004 C 
ENDBRANCH  15  16
ENDBRANCH  14  15
ENDBRANCH  13  14
ENDBRANCH  12  13
ENDBRANCH  11  12
ENDBRANCH  10  11
ENDBRANCH   1  10
TORSDOF 13
ENDMDL
MODEL 6
REMARK VINA RESULT:    -3.715      3.090      5.491
REMARK INTER + INTRA:          -8.662
REMARK INTER:                  -7.166
REMARK INTRA:                  -1.496
REMARK UNBOUND:                -2.124
REMARK SMILES CCCCCCCCCCCCCCC(=O)[O-]
REMARK SMILES IDX 9 1 10 2 11 3 12 4 13 5 14 6 15 7 16 8 17 9 8 10 7 11 6 12
REMARK SMILES IDX 5 13 4 14 3 15 2 16 1 17
REMARK H PARENT
REMARK Flexibility Score: inf
ROOT
ATOM      1  C   UNL     1      48.806  -2.350  72.897  1.00  0.00     0.000 C 
ENDROOT
BRANCH   1   2
ATOM      2  C   UNL     1      49.629  -3.532  72.362  1.00  0.00     0.000 C 
BRANCH   2   3
ATOM      3  C   UNL     1      48.960  -4.891  72.637  1.00  0.00     0.000 C 
BRANCH   3   4
ATOM      4  C   UNL     1      47.496  -4.748  73.083  1.00  0.00     0.000 C 
BRANCH   4   5
ATOM      5  C   UNL     1      46.789  -6.103  73.241  1.00  0.00     0.006 C 
BRANCH   5   6
ATOM      6  C   UNL     1      46.544  -6.755  71.877  1.00  0.00     0.053 C 
BRANCH   6   7
ATOM      7  C   UNL     1      47.089  -8.148  71.856  1.00  0.00     0.041 C 
ATOM      8  O   UNL     1      46.331  -9.121  71.600  1.00  0.00    -0.550 OA
ATOM      9  O   UNL     1      48.444  -8.368  72.067  1.00  0.00    -0.550 OA
ENDBRANCH   6   7
ENDBRANCH   5   6
ENDBRANCH   4   5
ENDBRANCH   3   4
ENDBRANCH   2   3
ENDBRANCH   1   2
BRANCH   1  10
ATOM     10  C   UNL     1      49.212  -1.009  72.264  1.00  0.00     0.000 C 
BRANCH  10  11
ATOM     11  C   UNL     1      50.380  -0.374  73.032  1.00  0.00    -0.000 C 
BRANCH  11  12
ATOM     12  C   UNL     1      51.529   0.074  72.110  1.00  0.00    -0.000 C 
BRANCH  12  13
ATOM     13  C   UNL     1      52.890  -0.598  72.386  1.00  0.00    -0.000 C 
BRANCH  13  14
ATOM     14  C   UNL     1      52.824  -2.099  72.723  1.00  0.00    -0.000 C 
BRANCH  14  15
ATOM     15  C   UNL     1      53.415  -2.428  74.105  1.00  0.00    -0.000 C 
BRANCH  15  16
ATOM     16  C   UNL     1      52.509  -3.361  74.924  1.00  0.00    -0.003 C 
ATOM     17  C   UNL     1      51.385  -2.614  75.643  1.00  0.00     0.004 C 
ENDBRANCH  15  16
ENDBRANCH  14  15
ENDBRANCH  13  14
ENDBRANCH  12  13
ENDBRANCH  11  12
ENDBRANCH  10  11
ENDBRANCH   1  10
TORSDOF 13
ENDMDL
MODEL 7
REMARK VINA RESULT:    -3.699      7.255      9.042
REMARK INTER + INTRA:          -8.634
REMARK INTER:                  -7.083
REMARK INTRA:                  -1.551
REMARK UNBOUND:                -2.124
REMARK SMILES CCCCCCCCCCCCCCC(=O)[O-]
REMARK SMILES IDX 9 1 10 2 11 3 12 4 13 5 14 6 15 7 16 8 17 9 8 10 7 11 6 12
REMARK SMILES IDX 5 13 4 14 3 15 2 16 1 17
REMARK H PARENT
REMARK Flexibility Score: inf
ROOT
ATOM      1  C   UNL     1      48.276  -3.489  81.551  1.00  0.00     0.000 C 
ENDROOT
BRANCH   1   2
ATOM      2  C   UNL     1      47.510  -3.658  80.229  1.00  0.00     0.000 C 
BRANCH   2   3
ATOM      3  C   UNL     1      48.312  -4.448  79.179  1.00  0.00     0.000 C 
BRANCH   3   4
ATOM      4  C   UNL     1      48.979  -5.701  79.766  1.00  0.00     0.000 C 
BRANCH   4   5
ATOM      5  C   UNL     1      50.210  -6.149  78.962  1.00  0.00     0.006 C 
BRANCH   5   6
ATOM      6  C   UNL     1      51.474  -5.437  79.454  1.00  0.00     0.053 C 
BRANCH   6   7
ATOM      7  C   UNL     1      52.576  -6.423  79.682  1.00  0.00     0.041 C 
ATOM      8  O   UNL     1      52.655  -7.460  78.973  1.00  0.00    -0.550 OA
ATOM      9  O   UNL     1      53.547  -6.171  80.643  1.00  0.00    -0.550 OA
ENDBRANCH   6   7
ENDBRANCH   5   6
ENDBRANCH   4   5
ENDBRANCH   3   4
ENDBRANCH   2   3
ENDBRANCH   1   2
BRANCH   1  10
ATOM     10  C   UNL     1      49.292  -2.336  81.504  1.00  0.00     0.000 C 
BRANCH  10  11
ATOM     11  C   UNL     1      50.565  -2.700  82.283  1.00  0.00    -0.000 C 
BRANCH  11  12
ATOM     12  C   UNL     1      50.587  -2.107  83.703  1.00  0.00    -0.000 C 
BRANCH  12  13
ATOM     13  C   UNL     1      50.520  -3.142  84.846  1.00  0.00    -0.000 C 
BRANCH  13  14
ATOM     14  C   UNL     1      49.334  -2.974  85.813  1.00  0.00    -0.000 C 
BRANCH  14  15
ATOM     15  C   UNL     1      48.024  -3.564  85.262  1.00  0.00    -0.000 C 
BRANCH  15  16
ATOM     16  C   UNL     1      46.833  -2.608  85.430  1.00  0.00    -0.003 C 
ATOM     17  C   UNL     1      46.956  -1.350  84.570  1.00  0.00     0.004 C 
ENDBRANCH  15  16
ENDBRANCH  14  15
ENDBRANCH  13  14
ENDBRANCH  12  13
ENDBRANCH  11  12
ENDBRANCH  10  11
ENDBRANCH   1  10
TORSDOF 13
ENDMDL
MODEL 8
REMARK VINA RESULT:    -3.677      2.364      5.122
REMARK INTER + INTRA:          -8.596
REMARK INTER:                  -6.467
REMARK INTRA:                  -2.129
REMARK UNBOUND:                -2.124
REMARK SMILES CCCCCCCCCCCCCCC(=O)[O-]
REMARK SMILES IDX 9 1 10 2 11 3 12 4 13 5 14 6 15 7 16 8 17 9 8 10 7 11 6 12
REMARK SMILES IDX 5 13 4 14 3 15 2 16 1 17
REMARK H PARENT
REMARK Flexibility Score: inf
ROOT
ATOM      1  C   UNL     1      49.895  -3.358  74.345  1.00  0.00     0.000 C 
ENDROOT
BRANCH   1   2
ATOM      2  C   UNL     1      48.366  -3.465  74.228  1.00  0.00     0.000 C 
BRANCH   2   3
ATOM      3  C   UNL     1      47.918  -4.104  72.902  1.00  0.00     0.000 C 
BRANCH   3   4
ATOM      4  C   UNL     1      47.069  -5.368  73.113  1.00  0.00     0.000 C 
BRANCH   4   5
ATOM      5  C   UNL     1      47.846  -6.660  72.819  1.00  0.00     0.006 C 
BRANCH   5   6
ATOM      6  C   UNL     1      47.779  -7.622  74.010  1.00  0.00     0.053 C 
BRANCH   6   7
ATOM      7  C   UNL     1      48.499  -7.046  75.190  1.00  0.00     0.041 C 
ATOM      8  O   UNL     1      49.748  -6.901  75.160  1.00  0.00    -0.550 OA
ATOM      9  O   UNL     1      47.782  -6.621  76.301  1.00  0.00    -0.550 OA
ENDBRANCH   6   7
ENDBRANCH   5   6
ENDBRANCH   4   5
ENDBRANCH   3   4
ENDBRANCH   2   3
ENDBRANCH   1   2
BRANCH   1  10
ATOM     10  C   UNL     1      50.630  -4.114  73.227  1.00  0.00     0.000 C 
BRANCH  10  11
ATOM     11  C   UNL     1      51.876  -3.339  72.771  1.00  0.00    -0.000 C 
BRANCH  11  12
ATOM     12  C   UNL     1      52.031  -1.984  73.484  1.00  0.00    -0.000 C 
BRANCH  12  13
ATOM     13  C   UNL     1      52.376  -0.795  72.563  1.00  0.00    -0.000 C 
BRANCH  13  14
ATOM     14  C   UNL     1      51.228   0.203  72.323  1.00  0.00    -0.000 C 
BRANCH  14  15
ATOM     15  C   UNL     1      50.167   0.173  73.437  1.00  0.00    -0.000 C 
BRANCH  15  16
ATOM     16  C   UNL     1      48.738   0.059  72.884  1.00  0.00    -0.003 C 
ATOM     17  C   UNL     1      48.660  -0.790  71.614  1.00  0.00     0.004 C 
ENDBRANCH  15  16
ENDBRANCH  14  15
ENDBRANCH  13  14
ENDBRANCH  12  13
ENDBRANCH  11  12
ENDBRANCH  10  11
ENDBRANCH   1  10
TORSDOF 13
ENDMDL
MODEL 9
REMARK VINA RESULT:    -3.671      1.908      3.053
REMARK INTER + INTRA:          -8.585
REMARK INTER:                  -7.194
REMARK INTRA:                  -1.391
REMARK UNBOUND:                -2.124
REMARK SMILES CCCCCCCCCCCCCCC(=O)[O-]
REMARK SMILES IDX 9 1 10 2 11 3 12 4 13 5 14 6 15 7 16 8 17 9 8 10 7 11 6 12
REMARK SMILES IDX 5 13 4 14 3 15 2 16 1 17
REMARK H PARENT
REMARK Flexibility Score: inf
ROOT
ATOM      1  C   UNL     1      52.950  -0.788  72.257  1.00  0.00     0.000 C 
ENDROOT
BRANCH   1   2
ATOM      2  C   UNL     1      53.183  -1.723  73.454  1.00  0.00     0.000 C 
BRANCH   2   3
ATOM      3  C   UNL     1      53.465  -3.174  73.025  1.00  0.00     0.000 C 
BRANCH   3   4
ATOM      4  C   UNL     1      52.786  -4.203  73.942  1.00  0.00     0.000 C 
BRANCH   4   5
ATOM      5  C   UNL     1      53.796  -5.049  74.734  1.00  0.00     0.006 C 
BRANCH   5   6
ATOM      6  C   UNL     1      55.234  -4.670  74.366  1.00  0.00     0.053 C 
BRANCH   6   7
ATOM      7  C   UNL     1      56.067  -5.898  74.176  1.00  0.00     0.041 C 
ATOM      8  O   UNL     1      56.387  -6.606  75.166  1.00  0.00    -0.550 OA
ATOM      9  O   UNL     1      56.446  -6.289  72.898  1.00  0.00    -0.550 OA
ENDBRANCH   6   7
ENDBRANCH   5   6
ENDBRANCH   4   5
ENDBRANCH   3   4
ENDBRANCH   2   3
ENDBRANCH   1   2
BRANCH   1  10
ATOM     10  C   UNL     1      51.549  -0.156  72.261  1.00  0.00     0.000 C 
BRANCH  10  11
ATOM     11  C   UNL     1      50.669  -0.784  73.353  1.00  0.00    -0.000 C 
BRANCH  11  12
ATOM     12  C   UNL     1      49.488  -1.588  72.779  1.00  0.00    -0.000 C 
BRANCH  12  13
ATOM     13  C   UNL     1      49.872  -2.910  72.083  1.00  0.00    -0.000 C 
BRANCH  13  14
ATOM     14  C   UNL     1      49.368  -4.188  72.778  1.00  0.00    -0.000 C 
BRANCH  14  15
ATOM     15  C   UNL     1      47.834  -4.280  72.821  1.00  0.00    -0.000 C 
BRANCH  15  16
ATOM     16  C   UNL     1      47.300  -4.552  74.236  1.00  0.00    -0.003 C 
ATOM     17  C   UNL     1      48.119  -3.854  75.322  1.00  0.00     0.004 C 
ENDBRANCH  15  16
ENDBRANCH  14  15
ENDBRANCH  13  14
ENDBRANCH  12  13
ENDBRANCH  11  12
ENDBRANCH  10  11
ENDBRANCH   1  10
TORSDOF 13
ENDMDL
