MODEL 1
REMARK VINA RESULT:    -2.102      0.000      0.000
REMARK INTER + INTRA:          -2.503
REMARK INTER:                  -2.286
REMARK INTRA:                  -0.218
REMARK UNBOUND:                -0.218
REMARK SMILES O=C([O-])c1ccccc1O
REMARK SMILES IDX 4 1 9 2 5 3 8 4 6 5 7 6 2 7 1 8 3 9 10 10
REMARK H PARENT 10 11
REMARK Flexibility Score: inf
ROOT
ATOM      1  C   UNL     1      10.991   2.050   7.759  1.00  0.00     0.039 A 
ATOM      2  C   UNL     1      11.519   3.279   7.281  1.00  0.00     0.124 A 
ATOM      3  C   UNL     1      11.602   0.848   7.361  1.00  0.00     0.014 A 
ATOM      4  C   UNL     1      12.667   3.274   6.479  1.00  0.00     0.047 A 
ATOM      5  C   UNL     1      12.735   0.860   6.544  1.00  0.00     0.001 A 
ATOM      6  C   UNL     1      13.272   2.071   6.111  1.00  0.00     0.004 A 
ENDROOT
BRANCH   1   7
ATOM      7  C   UNL     1       9.842   1.979   8.689  1.00  0.00     0.075 C 
ATOM      8  O   UNL     1       9.376   3.019   9.222  1.00  0.00    -0.545 OA
ATOM      9  O   UNL     1       9.306   0.745   9.038  1.00  0.00    -0.545 OA
ENDBRANCH   1   7
BRANCH   2  10
ATOM     10  O   UNL     1      10.920   4.512   7.548  1.00  0.00    -0.507 OA
ATOM     11  H   UNL     1      11.441   5.366   7.697  1.00  0.00     0.293 HD
ENDBRANCH   2  10
TORSDOF 2
ENDMDL
MODEL 2
REMARK VINA RESULT:    -1.772      1.110      1.444
REMARK INTER + INTRA:          -2.146
REMARK INTER:                  -1.906
REMARK INTRA:                  -0.239
REMARK UNBOUND:                -0.218
REMARK SMILES O=C([O-])c1ccccc1O
REMARK SMILES IDX 4 1 9 2 5 3 8 4 6 5 7 6 2 7 1 8 3 9 10 10
REMARK H PARENT 10 11
REMARK Flexibility Score: inf
ROOT
ATOM      1  C   UNL     1      11.277   2.678   7.457  1.00  0.00     0.039 A 
ATOM      2  C   UNL     1      12.516   3.326   7.204  1.00  0.00     0.124 A 
ATOM      3  C   UNL     1      11.173   1.296   7.220  1.00  0.00     0.014 A 
ATOM      4  C   UNL     1      13.619   2.570   6.786  1.00  0.00     0.047 A 
ATOM      5  C   UNL     1      12.277   0.562   6.784  1.00  0.00     0.001 A 
ATOM      6  C   UNL     1      13.501   1.196   6.576  1.00  0.00     0.004 A 
ENDROOT
BRANCH   1   7
ATOM      7  C   UNL     1      10.095   3.390   7.993  1.00  0.00     0.075 C 
ATOM      8  O   UNL     1       9.651   4.423   7.427  1.00  0.00    -0.545 OA
ATOM      9  O   UNL     1       9.502   2.960   9.173  1.00  0.00    -0.545 OA
ENDBRANCH   1   7
BRANCH   2  10
ATOM     10  O   UNL     1      12.683   4.708   7.320  1.00  0.00    -0.507 OA
ATOM     11  H   UNL     1      11.959   5.332   7.649  1.00  0.00     0.293 HD
ENDBRANCH   2  10
TORSDOF 2
ENDMDL
MODEL 3
REMARK VINA RESULT:    -1.708      2.591      3.835
REMARK INTER + INTRA:          -2.075
REMARK INTER:                  -1.842
REMARK INTRA:                  -0.233
REMARK UNBOUND:                -0.218
REMARK SMILES O=C([O-])c1ccccc1O
REMARK SMILES IDX 4 1 9 2 5 3 8 4 6 5 7 6 2 7 1 8 3 9 10 10
REMARK H PARENT 10 11
REMARK Flexibility Score: inf
ROOT
ATOM      1  C   UNL     1      12.776   2.541   7.439  1.00  0.00     0.039 A 
ATOM      2  C   UNL     1      11.531   1.898   7.208  1.00  0.00     0.124 A 
ATOM      3  C   UNL     1      12.875   3.927   7.227  1.00  0.00     0.014 A 
ATOM      4  C   UNL     1      10.417   2.661   6.836  1.00  0.00     0.047 A 
ATOM      5  C   UNL     1      11.759   4.670   6.836  1.00  0.00     0.001 A 
ATOM      6  C   UNL     1      10.529   4.040   6.650  1.00  0.00     0.004 A 
ENDROOT
BRANCH   1   7
ATOM      7  C   UNL     1      13.972   1.818   7.928  1.00  0.00     0.075 C 
ATOM      8  O   UNL     1      14.430   0.827   7.302  1.00  0.00    -0.545 OA
ATOM      9  O   UNL     1      14.565   2.189   9.128  1.00  0.00    -0.545 OA
ENDBRANCH   1   7
BRANCH   2  10
ATOM     10  O   UNL     1      11.366   0.514   7.302  1.00  0.00    -0.507 OA
ATOM     11  H   UNL     1      11.608  -0.023   8.124  1.00  0.00     0.293 HD
ENDBRANCH   2  10
TORSDOF 2
ENDMDL
MODEL 4
REMARK VINA RESULT:    -1.486      0.962      2.449
REMARK INTER + INTRA:          -1.834
REMARK INTER:                  -1.583
REMARK INTRA:                  -0.251
REMARK UNBOUND:                -0.218
REMARK SMILES O=C([O-])c1ccccc1O
REMARK SMILES IDX 4 1 9 2 5 3 8 4 6 5 7 6 2 7 1 8 3 9 10 10
REMARK H PARENT 10 11
REMARK Flexibility Score: inf
ROOT
ATOM      1  C   UNL     1      11.371   2.735   7.249  1.00  0.00     0.039 A 
ATOM      2  C   UNL     1      11.287   1.339   7.494  1.00  0.00     0.124 A 
ATOM      3  C   UNL     1      12.504   3.243   6.589  1.00  0.00     0.014 A 
ATOM      4  C   UNL     1      12.299   0.492   7.021  1.00  0.00     0.047 A 
ATOM      5  C   UNL     1      13.513   2.387   6.143  1.00  0.00     0.001 A 
ATOM      6  C   UNL     1      13.406   1.013   6.350  1.00  0.00     0.004 A 
ENDROOT
BRANCH   1   7
ATOM      7  C   UNL     1      10.297   3.681   7.630  1.00  0.00     0.075 C 
ATOM      8  O   UNL     1      10.014   4.666   6.899  1.00  0.00    -0.545 OA
ATOM      9  O   UNL     1       9.633   3.527   8.840  1.00  0.00    -0.545 OA
ENDBRANCH   1   7
BRANCH   2  10
ATOM     10  O   UNL     1      10.247   0.761   8.224  1.00  0.00    -0.507 OA
ATOM     11  H   UNL     1       9.533   1.296   8.699  1.00  0.00     0.293 HD
ENDBRANCH   2  10
TORSDOF 2
ENDMDL
MODEL 5
REMARK VINA RESULT:    -1.156      2.763      3.422
REMARK INTER + INTRA:          -1.475
REMARK INTER:                  -1.223
REMARK INTRA:                  -0.252
REMARK UNBOUND:                -0.218
REMARK SMILES O=C([O-])c1ccccc1O
REMARK SMILES IDX 4 1 9 2 5 3 8 4 6 5 7 6 2 7 1 8 3 9 10 10
REMARK H PARENT 10 11
REMARK Flexibility Score: inf
ROOT
ATOM      1  C   UNL     1      12.699   2.519   7.289  1.00  0.00     0.039 A 
ATOM      2  C   UNL     1      12.719   3.919   7.530  1.00  0.00     0.124 A 
ATOM      3  C   UNL     1      11.591   1.958   6.630  1.00  0.00     0.014 A 
ATOM      4  C   UNL     1      11.670   4.717   7.055  1.00  0.00     0.047 A 
ATOM      5  C   UNL     1      10.544   2.767   6.181  1.00  0.00     0.001 A 
ATOM      6  C   UNL     1      10.588   4.145   6.385  1.00  0.00     0.004 A 
ENDROOT
BRANCH   1   7
ATOM      7  C   UNL     1      13.815   1.624   7.672  1.00  0.00     0.075 C 
ATOM      8  O   UNL     1      14.172   0.678   6.923  1.00  0.00    -0.545 OA
ATOM      9  O   UNL     1      14.438   1.780   8.904  1.00  0.00    -0.545 OA
ENDBRANCH   1   7
BRANCH   2  10
ATOM     10  O   UNL     1      13.731   4.545   8.259  1.00  0.00    -0.507 OA
ATOM     11  H   UNL     1      14.555   4.066   8.598  1.00  0.00     0.293 HD
ENDBRANCH   2  10
TORSDOF 2
ENDMDL
MODEL 6
REMARK VINA RESULT:    -0.729      1.342      2.248
REMARK INTER + INTRA:          -1.010
REMARK INTER:                  -0.785
REMARK INTRA:                  -0.226
REMARK UNBOUND:                -0.218
REMARK SMILES O=C([O-])c1ccccc1O
REMARK SMILES IDX 4 1 9 2 5 3 8 4 6 5 7 6 2 7 1 8 3 9 10 10
REMARK H PARENT 10 11
REMARK Flexibility Score: inf
ROOT
ATOM      1  C   UNL     1      10.734   2.342   7.950  1.00  0.00     0.039 A 
ATOM      2  C   UNL     1      11.781   1.605   7.334  1.00  0.00     0.124 A 
ATOM      3  C   UNL     1      10.644   3.725   7.709  1.00  0.00     0.014 A 
ATOM      4  C   UNL     1      12.659   2.253   6.456  1.00  0.00     0.047 A 
ATOM      5  C   UNL     1      11.540   4.358   6.846  1.00  0.00     0.001 A 
ATOM      6  C   UNL     1      12.541   3.622   6.213  1.00  0.00     0.004 A 
ENDROOT
BRANCH   1   7
ATOM      7  C   UNL     1       9.709   1.711   8.812  1.00  0.00     0.075 C 
ATOM      8  O   UNL     1       9.034   2.398   9.623  1.00  0.00    -0.545 OA
ATOM      9  O   UNL     1       9.529   0.334   8.781  1.00  0.00    -0.545 OA
ENDBRANCH   1   7
BRANCH   2  10
ATOM     10  O   UNL     1      12.003   0.251   7.592  1.00  0.00    -0.507 OA
ATOM     11  H   UNL     1      12.520  -0.089   8.392  1.00  0.00     0.293 HD
ENDBRANCH   2  10
TORSDOF 2
ENDMDL
MODEL 7
REMARK VINA RESULT:    -0.024      2.395      3.293
REMARK INTER + INTRA:          -0.244
REMARK INTER:                  -0.009
REMARK INTRA:                  -0.234
REMARK UNBOUND:                -0.218
REMARK SMILES O=C([O-])c1ccccc1O
REMARK SMILES IDX 4 1 9 2 5 3 8 4 6 5 7 6 2 7 1 8 3 9 10 10
REMARK H PARENT 10 11
REMARK Flexibility Score: inf
ROOT
ATOM      1  C   UNL     1      13.303   2.951   7.950  1.00  0.00     0.039 A 
ATOM      2  C   UNL     1      12.217   3.641   7.349  1.00  0.00     0.124 A 
ATOM      3  C   UNL     1      13.455   1.575   7.702  1.00  0.00     0.014 A 
ATOM      4  C   UNL     1      11.360   2.957   6.477  1.00  0.00     0.047 A 
ATOM      5  C   UNL     1      12.579   0.904   6.846  1.00  0.00     0.001 A 
ATOM      6  C   UNL     1      11.540   1.596   6.227  1.00  0.00     0.004 A 
ENDROOT
BRANCH   1   7
ATOM      7  C   UNL     1      14.307   3.626   8.804  1.00  0.00     0.075 C 
ATOM      8  O   UNL     1      14.484   4.870   8.734  1.00  0.00    -0.545 OA
ATOM      9  O   UNL     1      15.116   2.876   9.648  1.00  0.00    -0.545 OA
ENDBRANCH   1   7
BRANCH   2  10
ATOM     10  O   UNL     1      11.935   4.983   7.615  1.00  0.00    -0.507 OA
ATOM     11  H   UNL     1      11.849   5.362   8.549  1.00  0.00     0.293 HD
ENDBRANCH   2  10
TORSDOF 2
ENDMDL
MODEL 8
REMARK VINA RESULT:     0.081      2.065      3.384
REMARK INTER + INTRA:          -0.130
REMARK INTER:                   0.088
REMARK INTRA:                  -0.218
REMARK UNBOUND:                -0.218
REMARK SMILES O=C([O-])c1ccccc1O
REMARK SMILES IDX 4 1 9 2 5 3 8 4 6 5 7 6 2 7 1 8 3 9 10 10
REMARK H PARENT 10 11
REMARK Flexibility Score: inf
ROOT
ATOM      1  C   UNL     1      11.643   2.127   7.347  1.00  0.00     0.039 A 
ATOM      2  C   UNL     1      11.259   3.450   7.690  1.00  0.00     0.124 A 
ATOM      3  C   UNL     1      10.905   1.049   7.867  1.00  0.00     0.014 A 
ATOM      4  C   UNL     1      10.123   3.657   8.484  1.00  0.00     0.047 A 
ATOM      5  C   UNL     1       9.787   1.272   8.673  1.00  0.00     0.001 A 
ATOM      6  C   UNL     1       9.391   2.575   8.974  1.00  0.00     0.004 A 
ENDROOT
BRANCH   1   7
ATOM      7  C   UNL     1      12.770   1.831   6.434  1.00  0.00     0.075 C 
ATOM      8  O   UNL     1      13.350   2.752   5.803  1.00  0.00    -0.545 OA
ATOM      9  O   UNL     1      13.157   0.515   6.213  1.00  0.00    -0.545 OA
ENDBRANCH   1   7
BRANCH   2  10
ATOM     10  O   UNL     1      11.989   4.574   7.298  1.00  0.00    -0.507 OA
ATOM     11  H   UNL     1      11.565   5.421   6.945  1.00  0.00     0.293 HD
ENDBRANCH   2  10
TORSDOF 2
ENDMDL
MODEL 9
REMARK VINA RESULT:     0.316      2.069      4.069
REMARK INTER + INTRA:           0.126
REMARK INTER:                   0.345
REMARK INTRA:                  -0.219
REMARK UNBOUND:                -0.218
REMARK SMILES O=C([O-])c1ccccc1O
REMARK SMILES IDX 4 1 9 2 5 3 8 4 6 5 7 6 2 7 1 8 3 9 10 10
REMARK H PARENT 10 11
REMARK Flexibility Score: inf
ROOT
ATOM      1  C   UNL     1      11.335   2.566   7.613  1.00  0.00     0.039 A 
ATOM      2  C   UNL     1      11.073   1.172   7.691  1.00  0.00     0.124 A 
ATOM      3  C   UNL     1      10.490   3.456   8.300  1.00  0.00     0.014 A 
ATOM      4  C   UNL     1      10.024   0.709   8.496  1.00  0.00     0.047 A 
ATOM      5  C   UNL     1       9.436   2.978   9.082  1.00  0.00     0.001 A 
ATOM      6  C   UNL     1       9.209   1.607   9.187  1.00  0.00     0.004 A 
ENDROOT
BRANCH   1   7
ATOM      7  C   UNL     1      12.482   3.125   6.864  1.00  0.00     0.075 C 
ATOM      8  O   UNL     1      13.102   2.430   6.017  1.00  0.00    -0.545 OA
ATOM      9  O   UNL     1      12.931   4.411   7.139  1.00  0.00    -0.545 OA
ENDBRANCH   1   7
BRANCH   2  10
ATOM     10  O   UNL     1      11.800   0.226   6.966  1.00  0.00    -0.507 OA
ATOM     11  H   UNL     1      11.513  -0.738   6.859  1.00  0.00     0.293 HD
ENDBRANCH   2  10
TORSDOF 2
ENDMDL
