MODEL 1
REMARK VINA RESULT:    39.197      0.000      0.000
REMARK INTER + INTRA:          61.466
REMARK INTER:                  62.112
REMARK INTRA:                  -0.646
REMARK UNBOUND:                -0.646
REMARK SMILES C[C@H]1O[C@@H](O[C@H]2[C@H](Oc3cc(O)c4c(c3)O[C@H](c3ccc(O)cc3)CC4=O)O[C@H](CO)[C@@H](O)[C@H]2O)[C@H](O)[C@@H](O)[C@H]1O
REMARK SMILES IDX 6 1 34 2 32 3 29 4 28 5 7 6 5 7 4 8 1 9 2 10 40 11 3 12
REMARK SMILES IDX 38 13 36 14 41 15 39 17 37 19 35 21 8 23 9 24 10 25 15 26
REMARK SMILES IDX 11 27 14 28 13 29 16 30 26 31 17 32 27 33 25 34 12 35 18 37
REMARK SMILES IDX 19 38 24 39 20 40 23 41 21 42 22 43 33 45 30 47 31 48
REMARK H PARENT 41 16 39 18 37 20 35 22 12 36 22 44 33 46 31 49
REMARK Flexibility Score: inf
ROOT
ATOM      1  C   UNL     1       0.241  65.635  -6.767  1.00  0.00     0.221 C 
ATOM      2  C   UNL     1       1.476  66.206  -7.493  1.00  0.00     0.181 C 
ATOM      3  C   UNL     1       1.018  66.830  -8.834  1.00  0.00     0.177 C 
ATOM      4  C   UNL     1      -0.187  67.783  -8.603  1.00  0.00     0.179 C 
ATOM      5  O   UNL     1      -1.259  67.091  -7.979  1.00  0.00    -0.332 OA
ATOM      6  C   UNL     1      -0.890  66.687  -6.671  1.00  0.00     0.339 C 
ENDROOT
BRANCH   1   7
ATOM      7  O   UNL     1       0.523  64.877  -5.589  1.00  0.00    -0.337 OA
BRANCH   7   8
ATOM      8  C   UNL     1       0.951  63.523  -5.703  1.00  0.00     0.282 C 
ATOM      9  C   UNL     1       2.125  61.446  -8.482  1.00  0.00     0.041 C 
ATOM     10  C   UNL     1       2.035  61.933  -7.033  1.00  0.00     0.150 C 
ATOM     11  C   UNL     1       1.519  60.835  -6.037  1.00  0.00     0.174 C 
ATOM     12  O   UNL     1       1.233  63.105  -7.023  1.00  0.00    -0.344 OA
ATOM     13  C   UNL     1       0.074  61.111  -5.569  1.00  0.00     0.179 C 
ATOM     14  C   UNL     1      -0.105  62.578  -5.081  1.00  0.00     0.202 C 
BRANCH  11  15
ATOM     15  O   UNL     1       1.604  59.540  -6.577  1.00  0.00    -0.388 OA
ATOM     16  H   UNL     1       0.881  59.003  -6.160  1.00  0.00     0.211 HD
ENDBRANCH  11  15
BRANCH  13  17
ATOM     17  O   UNL     1      -0.856  60.796  -6.576  1.00  0.00    -0.387 OA
ATOM     18  H   UNL     1      -1.584  61.466  -6.538  1.00  0.00     0.211 HD
ENDBRANCH  13  17
BRANCH  14  19
ATOM     19  O   UNL     1      -0.058  62.648  -3.678  1.00  0.00    -0.385 OA
ATOM     20  H   UNL     1      -0.430  63.528  -3.401  1.00  0.00     0.211 HD
ENDBRANCH  14  19
ENDBRANCH   7   8
ENDBRANCH   1   7
BRANCH   2  21
ATOM     21  O   UNL     1       2.110  67.183  -6.710  1.00  0.00    -0.387 OA
ATOM     22  H   UNL     1       1.553  68.002  -6.756  1.00  0.00     0.211 HD
ENDBRANCH   2  21
BRANCH   6  23
ATOM     23  O   UNL     1      -2.022  66.110  -6.019  1.00  0.00    -0.462 OA
BRANCH  23  24
ATOM     24  C   UNL     1      -3.342  66.570  -6.156  1.00  0.00     0.130 A 
ATOM     25  C   UNL     1      -3.923  66.841  -7.412  1.00  0.00     0.093 A 
ATOM     26  C   UNL     1      -4.098  66.778  -4.997  1.00  0.00     0.094 A 
ATOM     27  C   UNL     1      -5.230  67.336  -7.503  1.00  0.00     0.133 A 
ATOM     28  C   UNL     1      -5.400  67.282  -5.077  1.00  0.00     0.138 A 
ATOM     29  C   UNL     1      -5.977  67.562  -6.328  1.00  0.00     0.102 A 
ATOM     30  O   UNL     1      -6.127  67.505  -3.899  1.00  0.00    -0.484 OA
ATOM     31  C   UNL     1      -7.375  68.055  -6.354  1.00  0.00     0.174 C 
ATOM     32  C   UNL     1      -7.304  68.316  -3.879  1.00  0.00     0.211 C 
ATOM     33  O   UNL     1      -7.906  68.461  -7.424  1.00  0.00    -0.294 OA
ATOM     34  C   UNL     1      -8.192  68.015  -5.096  1.00  0.00     0.131 C 
BRANCH  27  35
ATOM     35  O   UNL     1      -5.783  67.594  -8.758  1.00  0.00    -0.507 OA
ATOM     36  H   UNL     1      -6.114  66.848  -9.360  1.00  0.00     0.293 HD
ENDBRANCH  27  35
BRANCH  32  37
ATOM     37  C   UNL     1      -8.069  68.088  -2.597  1.00  0.00    -0.007 A 
ATOM     38  C   UNL     1      -8.593  66.817  -2.306  1.00  0.00     0.011 A 
ATOM     39  C   UNL     1      -8.200  69.119  -1.651  1.00  0.00     0.011 A 
ATOM     40  C   UNL     1      -9.254  66.586  -1.095  1.00  0.00     0.046 A 
ATOM     41  C   UNL     1      -8.860  68.885  -0.439  1.00  0.00     0.046 A 
ATOM     42  C   UNL     1      -9.387  67.621  -0.157  1.00  0.00     0.115 A 
BRANCH  42  43
ATOM     43  O   UNL     1     -10.037  67.401   1.056  1.00  0.00    -0.508 OA
ATOM     44  H   UNL     1     -10.098  66.475   1.465  1.00  0.00     0.293 HD
ENDBRANCH  42  43
ENDBRANCH  32  37
ENDBRANCH  23  24
ENDBRANCH   6  23
BRANCH   3  45
ATOM     45  O   UNL     1       2.083  67.528  -9.430  1.00  0.00    -0.387 OA
ATOM     46  H   UNL     1       1.752  68.443  -9.621  1.00  0.00     0.211 HD
ENDBRANCH   3  45
BRANCH   4  47
ATOM     47  C   UNL     1      -0.704  68.366  -9.928  1.00  0.00     0.191 C 
BRANCH  47  48
ATOM     48  O   UNL     1      -2.104  68.421  -9.941  1.00  0.00    -0.394 OA
ATOM     49  H   UNL     1      -2.425  67.659  -9.390  1.00  0.00     0.210 HD
ENDBRANCH  47  48
ENDBRANCH   4  47
TORSDOF 14
ENDMDL
MODEL 2
REMARK VINA RESULT:    40.348      3.075      6.788
REMARK INTER + INTRA:          63.288
REMARK INTER:                  61.562
REMARK INTRA:                   1.726
REMARK UNBOUND:                -0.646
REMARK SMILES C[C@H]1O[C@@H](O[C@H]2[C@H](Oc3cc(O)c4c(c3)O[C@H](c3ccc(O)cc3)CC4=O)O[C@H](CO)[C@@H](O)[C@H]2O)[C@H](O)[C@@H](O)[C@H]1O
REMARK SMILES IDX 6 1 34 2 32 3 29 4 28 5 7 6 5 7 4 8 1 9 2 10 40 11 3 12
REMARK SMILES IDX 38 13 36 14 41 15 39 17 37 19 35 21 8 23 9 24 10 25 15 26
REMARK SMILES IDX 11 27 14 28 13 29 16 30 26 31 17 32 27 33 25 34 12 35 18 37
REMARK SMILES IDX 19 38 24 39 20 40 23 41 21 42 22 43 33 45 30 47 31 48
REMARK H PARENT 41 16 39 18 37 20 35 22 12 36 22 44 33 46 31 49
REMARK Flexibility Score: inf
ROOT
ATOM      1  C   UNL     1      -0.757  62.504  -4.962  1.00  0.00     0.221 C 
ATOM      2  C   UNL     1      -0.865  60.968  -5.052  1.00  0.00     0.181 C 
ATOM      3  C   UNL     1      -0.095  60.490  -6.307  1.00  0.00     0.177 C 
ATOM      4  C   UNL     1       1.326  61.116  -6.340  1.00  0.00     0.179 C 
ATOM      5  O   UNL     1       1.249  62.534  -6.309  1.00  0.00    -0.332 OA
ATOM      6  C   UNL     1       0.714  62.971  -5.070  1.00  0.00     0.339 C 
ENDROOT
BRANCH   1   7
ATOM      7  O   UNL     1      -1.559  63.112  -3.947  1.00  0.00    -0.337 OA
BRANCH   7   8
ATOM      8  C   UNL     1      -2.836  63.648  -4.278  1.00  0.00     0.282 C 
ATOM      9  C   UNL     1      -5.490  62.663  -6.601  1.00  0.00     0.041 C 
ATOM     10  C   UNL     1      -4.891  63.266  -5.327  1.00  0.00     0.150 C 
ATOM     11  C   UNL     1      -5.192  64.798  -5.162  1.00  0.00     0.174 C 
ATOM     12  O   UNL     1      -3.501  62.977  -5.329  1.00  0.00    -0.344 OA
ATOM     13  C   UNL     1      -3.943  65.666  -5.421  1.00  0.00     0.179 C 
ATOM     14  C   UNL     1      -2.706  65.150  -4.629  1.00  0.00     0.202 C 
BRANCH  11  15
ATOM     15  O   UNL     1      -6.248  65.228  -5.985  1.00  0.00    -0.388 OA
ATOM     16  H   UNL     1      -7.043  65.343  -5.402  1.00  0.00     0.211 HD
ENDBRANCH  11  15
BRANCH  13  17
ATOM     17  O   UNL     1      -3.661  65.754  -6.796  1.00  0.00    -0.387 OA
ATOM     18  H   UNL     1      -4.129  65.009  -7.251  1.00  0.00     0.211 HD
ENDBRANCH  13  17
BRANCH  14  19
ATOM     19  O   UNL     1      -2.506  65.909  -3.464  1.00  0.00    -0.385 OA
ATOM     20  H   UNL     1      -1.612  66.340  -3.527  1.00  0.00     0.211 HD
ENDBRANCH  14  19
ENDBRANCH   7   8
ENDBRANCH   1   7
BRANCH   2  21
ATOM     21  O   UNL     1      -0.326  60.359  -3.908  1.00  0.00    -0.387 OA
ATOM     22  H   UNL     1       0.127  61.069  -3.385  1.00  0.00     0.211 HD
ENDBRANCH   2  21
BRANCH   6  23
ATOM     23  O   UNL     1       0.766  64.396  -5.010  1.00  0.00    -0.462 OA
BRANCH  23  24
ATOM     24  C   UNL     1       0.497  65.250  -6.093  1.00  0.00     0.130 A 
ATOM     25  C   UNL     1       1.454  65.534  -7.089  1.00  0.00     0.093 A 
ATOM     26  C   UNL     1      -0.764  65.851  -6.170  1.00  0.00     0.094 A 
ATOM     27  C   UNL     1       1.160  66.423  -8.131  1.00  0.00     0.133 A 
ATOM     28  C   UNL     1      -1.065  66.748  -7.199  1.00  0.00     0.138 A 
ATOM     29  C   UNL     1      -0.108  67.039  -8.189  1.00  0.00     0.102 A 
ATOM     30  O   UNL     1      -2.327  67.354  -7.240  1.00  0.00    -0.484 OA
ATOM     31  C   UNL     1      -0.496  67.965  -9.280  1.00  0.00     0.174 C 
ATOM     32  C   UNL     1      -2.587  68.509  -8.042  1.00  0.00     0.211 C 
ATOM     33  O   UNL     1       0.351  68.382 -10.116  1.00  0.00    -0.294 OA
ATOM     34  C   UNL     1      -1.934  68.367  -9.426  1.00  0.00     0.131 C 
BRANCH  27  35
ATOM     35  O   UNL     1       2.123  66.685  -9.106  1.00  0.00    -0.507 OA
ATOM     36  H   UNL     1       2.900  66.055  -9.272  1.00  0.00     0.293 HD
ENDBRANCH  27  35
BRANCH  32  37
ATOM     37  C   UNL     1      -4.075  68.721  -8.180  1.00  0.00    -0.007 A 
ATOM     38  C   UNL     1      -4.656  68.845  -9.454  1.00  0.00     0.011 A 
ATOM     39  C   UNL     1      -4.904  68.721  -7.044  1.00  0.00     0.011 A 
ATOM     40  C   UNL     1      -6.041  68.986  -9.589  1.00  0.00     0.046 A 
ATOM     41  C   UNL     1      -6.290  68.860  -7.182  1.00  0.00     0.046 A 
ATOM     42  C   UNL     1      -6.862  68.992  -8.452  1.00  0.00     0.115 A 
BRANCH  42  43
ATOM     43  O   UNL     1      -8.244  69.124  -8.574  1.00  0.00    -0.508 OA
ATOM     44  H   UNL     1      -8.830  69.334  -7.774  1.00  0.00     0.293 HD
ENDBRANCH  42  43
ENDBRANCH  32  37
ENDBRANCH  23  24
ENDBRANCH   6  23
BRANCH   3  45
ATOM     45  O   UNL     1      -0.008  59.086  -6.315  1.00  0.00    -0.387 OA
ATOM     46  H   UNL     1       0.599  58.843  -7.060  1.00  0.00     0.211 HD
ENDBRANCH   3  45
BRANCH   4  47
ATOM     47  C   UNL     1       2.090  60.709  -7.611  1.00  0.00     0.191 C 
BRANCH  47  48
ATOM     48  O   UNL     1       1.207  60.305  -8.620  1.00  0.00    -0.394 OA
ATOM     49  H   UNL     1       1.034  59.337  -8.479  1.00  0.00     0.210 HD
ENDBRANCH  47  48
ENDBRANCH   4  47
TORSDOF 14
ENDMDL
