MODEL 1
REMARK VINA RESULT:    -5.788      0.000      0.000
REMARK INTER + INTRA:          -7.049
REMARK INTER:                  -6.973
REMARK INTRA:                  -0.076
REMARK UNBOUND:                -0.076
REMARK SMILES OCCc1ccc(O)c(O)c1
REMARK SMILES IDX 3 1 4 2 5 3 6 4 7 5 11 6 9 7 8 8 10 10 2 12 1 13
REMARK H PARENT 8 9 10 11 1 14
REMARK Flexibility Score: inf
ROOT
ATOM      1  C   UNL     1     -13.722  60.303  30.993  1.00  0.00     0.064 C 
ENDROOT
BRANCH   1   2
ATOM      2  C   UNL     1     -14.411  59.284  30.124  1.00  0.00    -0.042 A 
ATOM      3  C   UNL     1     -15.278  59.698  29.099  1.00  0.00     0.008 A 
ATOM      4  C   UNL     1     -15.941  58.753  28.313  1.00  0.00     0.050 A 
ATOM      5  C   UNL     1     -15.754  57.383  28.547  1.00  0.00     0.157 A 
ATOM      6  C   UNL     1     -14.236  57.913  30.365  1.00  0.00     0.054 A 
ATOM      7  C   UNL     1     -14.901  56.962  29.576  1.00  0.00     0.157 A 
BRANCH   5   8
ATOM      8  O   UNL     1     -16.412  56.436  27.764  1.00  0.00    -0.504 OA
ATOM      9  H   UNL     1     -17.047  56.711  27.024  1.00  0.00     0.293 HD
ENDBRANCH   5   8
BRANCH   7  10
ATOM     10  O   UNL     1     -14.721  55.600  29.811  1.00  0.00    -0.504 OA
ATOM     11  H   UNL     1     -13.813  55.219  30.047  1.00  0.00     0.293 HD
ENDBRANCH   7  10
ENDBRANCH   1   2
BRANCH   1  12
ATOM     12  C   UNL     1     -14.457  60.463  32.322  1.00  0.00     0.161 C 
BRANCH  12  13
ATOM     13  O   UNL     1     -13.767  59.768  33.323  1.00  0.00    -0.396 OA
ATOM     14  H   UNL     1     -14.032  58.816  33.229  1.00  0.00     0.210 HD
ENDBRANCH  12  13
ENDBRANCH   1  12
TORSDOF 5
ENDMDL
MODEL 2
REMARK VINA RESULT:    -5.699      1.384      3.966
REMARK INTER + INTRA:          -6.941
REMARK INTER:                  -6.880
REMARK INTRA:                  -0.061
REMARK UNBOUND:                -0.076
REMARK SMILES OCCc1ccc(O)c(O)c1
REMARK SMILES IDX 3 1 4 2 5 3 6 4 7 5 11 6 9 7 8 8 10 10 2 12 1 13
REMARK H PARENT 8 9 10 11 1 14
REMARK Flexibility Score: inf
ROOT
ATOM      1  C   UNL     1     -14.897  59.442  28.115  1.00  0.00     0.064 C 
ENDROOT
BRANCH   1   2
ATOM      2  C   UNL     1     -14.470  59.016  29.495  1.00  0.00    -0.042 A 
ATOM      3  C   UNL     1     -14.379  59.959  30.531  1.00  0.00     0.008 A 
ATOM      4  C   UNL     1     -13.953  59.570  31.803  1.00  0.00     0.050 A 
ATOM      5  C   UNL     1     -13.605  58.235  32.053  1.00  0.00     0.157 A 
ATOM      6  C   UNL     1     -14.109  57.683  29.744  1.00  0.00     0.054 A 
ATOM      7  C   UNL     1     -13.681  57.290  31.021  1.00  0.00     0.157 A 
BRANCH   5   8
ATOM      8  O   UNL     1     -13.181  57.841  33.321  1.00  0.00    -0.504 OA
ATOM      9  H   UNL     1     -13.813  57.393  33.974  1.00  0.00     0.293 HD
ENDBRANCH   5   8
BRANCH   7  10
ATOM     10  O   UNL     1     -13.329  55.965  31.271  1.00  0.00    -0.504 OA
ATOM     11  H   UNL     1     -13.993  55.209  31.155  1.00  0.00     0.293 HD
ENDBRANCH   7  10
ENDBRANCH   1   2
BRANCH   1  12
ATOM     12  C   UNL     1     -15.557  58.283  27.372  1.00  0.00     0.161 C 
BRANCH  12  13
ATOM     13  O   UNL     1     -16.877  58.134  27.816  1.00  0.00    -0.396 OA
ATOM     14  H   UNL     1     -17.385  57.763  27.049  1.00  0.00     0.210 HD
ENDBRANCH  12  13
ENDBRANCH   1  12
TORSDOF 5
ENDMDL
MODEL 3
REMARK VINA RESULT:    -5.670      1.530      4.371
REMARK INTER + INTRA:          -6.906
REMARK INTER:                  -6.878
REMARK INTRA:                  -0.028
REMARK UNBOUND:                -0.076
REMARK SMILES OCCc1ccc(O)c(O)c1
REMARK SMILES IDX 3 1 4 2 5 3 6 4 7 5 11 6 9 7 8 8 10 10 2 12 1 13
REMARK H PARENT 8 9 10 11 1 14
REMARK Flexibility Score: inf
ROOT
ATOM      1  C   UNL     1     -15.145  59.393  28.229  1.00  0.00     0.064 C 
ENDROOT
BRANCH   1   2
ATOM      2  C   UNL     1     -14.582  58.922  29.543  1.00  0.00    -0.042 A 
ATOM      3  C   UNL     1     -14.222  57.576  29.717  1.00  0.00     0.008 A 
ATOM      4  C   UNL     1     -13.729  57.132  30.946  1.00  0.00     0.050 A 
ATOM      5  C   UNL     1     -13.598  58.024  32.019  1.00  0.00     0.157 A 
ATOM      6  C   UNL     1     -14.463  59.811  30.623  1.00  0.00     0.054 A 
ATOM      7  C   UNL     1     -13.968  59.366  31.858  1.00  0.00     0.157 A 
BRANCH   5   8
ATOM      8  O   UNL     1     -13.105  57.586  33.247  1.00  0.00    -0.504 OA
ATOM      9  H   UNL     1     -13.469  56.754  33.697  1.00  0.00     0.293 HD
ENDBRANCH   5   8
BRANCH   7  10
ATOM     10  O   UNL     1     -13.843  60.250  32.928  1.00  0.00    -0.504 OA
ATOM     11  H   UNL     1     -14.509  60.999  33.078  1.00  0.00     0.293 HD
ENDBRANCH   7  10
ENDBRANCH   1   2
BRANCH   1  12
ATOM     12  C   UNL     1     -15.840  58.247  27.497  1.00  0.00     0.161 C 
BRANCH  12  13
ATOM     13  O   UNL     1     -17.081  57.995  28.095  1.00  0.00    -0.396 OA
ATOM     14  H   UNL     1     -17.196  57.009  28.086  1.00  0.00     0.210 HD
ENDBRANCH  12  13
ENDBRANCH   1  12
TORSDOF 5
ENDMDL
MODEL 4
REMARK VINA RESULT:    -5.442      2.220      3.148
REMARK INTER + INTRA:          -6.632
REMARK INTER:                  -6.546
REMARK INTRA:                  -0.086
REMARK UNBOUND:                -0.076
REMARK SMILES OCCc1ccc(O)c(O)c1
REMARK SMILES IDX 3 1 4 2 5 3 6 4 7 5 11 6 9 7 8 8 10 10 2 12 1 13
REMARK H PARENT 8 9 10 11 1 14
REMARK Flexibility Score: inf
ROOT
ATOM      1  C   UNL     1     -13.754  57.465  31.404  1.00  0.00     0.064 C 
ENDROOT
BRANCH   1   2
ATOM      2  C   UNL     1     -14.476  57.793  30.124  1.00  0.00    -0.042 A 
ATOM      3  C   UNL     1     -15.358  56.864  29.550  1.00  0.00     0.008 A 
ATOM      4  C   UNL     1     -16.003  57.156  28.346  1.00  0.00     0.050 A 
ATOM      5  C   UNL     1     -15.769  58.377  27.697  1.00  0.00     0.157 A 
ATOM      6  C   UNL     1     -14.233  59.009  29.466  1.00  0.00     0.054 A 
ATOM      7  C   UNL     1     -14.880  59.305  28.257  1.00  0.00     0.157 A 
BRANCH   5   8
ATOM      8  O   UNL     1     -16.412  58.674  26.497  1.00  0.00    -0.504 OA
ATOM      9  H   UNL     1     -16.669  57.946  25.840  1.00  0.00     0.293 HD
ENDBRANCH   5   8
BRANCH   7  10
ATOM     10  O   UNL     1     -14.645  60.515  27.608  1.00  0.00    -0.504 OA
ATOM     11  H   UNL     1     -15.281  60.872  26.905  1.00  0.00     0.293 HD
ENDBRANCH   7  10
ENDBRANCH   1   2
BRANCH   1  12
ATOM     12  C   UNL     1     -14.076  56.041  31.855  1.00  0.00     0.161 C 
BRANCH  12  13
ATOM     13  O   UNL     1     -12.890  55.381  32.200  1.00  0.00    -0.396 OA
ATOM     14  H   UNL     1     -12.895  54.525  31.698  1.00  0.00     0.210 HD
ENDBRANCH  12  13
ENDBRANCH   1  12
TORSDOF 5
ENDMDL
MODEL 5
REMARK VINA RESULT:    -5.371      0.811      1.996
REMARK INTER + INTRA:          -6.546
REMARK INTER:                  -6.483
REMARK INTRA:                  -0.063
REMARK UNBOUND:                -0.076
REMARK SMILES OCCc1ccc(O)c(O)c1
REMARK SMILES IDX 3 1 4 2 5 3 6 4 7 5 11 6 9 7 8 8 10 10 2 12 1 13
REMARK H PARENT 8 9 10 11 1 14
REMARK Flexibility Score: inf
ROOT
ATOM      1  C   UNL     1     -13.641  60.088  30.927  1.00  0.00     0.064 C 
ENDROOT
BRANCH   1   2
ATOM      2  C   UNL     1     -14.379  58.991  30.206  1.00  0.00    -0.042 A 
ATOM      3  C   UNL     1     -14.196  57.650  30.580  1.00  0.00     0.008 A 
ATOM      4  C   UNL     1     -14.857  56.630  29.891  1.00  0.00     0.050 A 
ATOM      5  C   UNL     1     -15.702  56.937  28.815  1.00  0.00     0.157 A 
ATOM      6  C   UNL     1     -15.215  59.295  29.120  1.00  0.00     0.054 A 
ATOM      7  C   UNL     1     -15.880  58.272  28.427  1.00  0.00     0.157 A 
BRANCH   5   8
ATOM      8  O   UNL     1     -16.365  55.923  28.126  1.00  0.00    -0.504 OA
ATOM      9  H   UNL     1     -15.977  55.515  27.283  1.00  0.00     0.293 HD
ENDBRANCH   5   8
BRANCH   7  10
ATOM     10  O   UNL     1     -16.715  58.574  27.354  1.00  0.00    -0.504 OA
ATOM     11  H   UNL     1     -16.673  59.471  26.885  1.00  0.00     0.293 HD
ENDBRANCH   7  10
ENDBRANCH   1   2
BRANCH   1  12
ATOM     12  C   UNL     1     -14.371  60.476  32.211  1.00  0.00     0.161 C 
BRANCH  12  13
ATOM     13  O   UNL     1     -13.827  59.769  33.290  1.00  0.00    -0.396 OA
ATOM     14  H   UNL     1     -13.601  60.447  33.978  1.00  0.00     0.210 HD
ENDBRANCH  12  13
ENDBRANCH   1  12
TORSDOF 5
ENDMDL
MODEL 6
REMARK VINA RESULT:    -5.353      2.032      2.695
REMARK INTER + INTRA:          -6.524
REMARK INTER:                  -6.465
REMARK INTRA:                  -0.059
REMARK UNBOUND:                -0.076
REMARK SMILES OCCc1ccc(O)c(O)c1
REMARK SMILES IDX 3 1 4 2 5 3 6 4 7 5 11 6 9 7 8 8 10 10 2 12 1 13
REMARK H PARENT 8 9 10 11 1 14
REMARK Flexibility Score: inf
ROOT
ATOM      1  C   UNL     1     -13.744  57.193  31.200  1.00  0.00     0.064 C 
ENDROOT
BRANCH   1   2
ATOM      2  C   UNL     1     -14.483  57.619  29.959  1.00  0.00    -0.042 A 
ATOM      3  C   UNL     1     -15.412  56.755  29.356  1.00  0.00     0.008 A 
ATOM      4  C   UNL     1     -16.074  57.137  28.188  1.00  0.00     0.050 A 
ATOM      5  C   UNL     1     -15.811  58.383  27.602  1.00  0.00     0.157 A 
ATOM      6  C   UNL     1     -14.212  58.861  29.363  1.00  0.00     0.054 A 
ATOM      7  C   UNL     1     -14.876  59.246  28.190  1.00  0.00     0.157 A 
BRANCH   5   8
ATOM      8  O   UNL     1     -16.471  58.770  26.437  1.00  0.00    -0.504 OA
ATOM      9  H   UNL     1     -17.436  58.510  26.264  1.00  0.00     0.293 HD
ENDBRANCH   5   8
BRANCH   7  10
ATOM     10  O   UNL     1     -14.612  60.482  27.603  1.00  0.00    -0.504 OA
ATOM     11  H   UNL     1     -14.984  60.727  26.692  1.00  0.00     0.293 HD
ENDBRANCH   7  10
ENDBRANCH   1   2
BRANCH   1  12
ATOM     12  C   UNL     1     -13.644  58.350  32.192  1.00  0.00     0.161 C 
BRANCH  12  13
ATOM     13  O   UNL     1     -13.213  57.865  33.433  1.00  0.00    -0.396 OA
ATOM     14  H   UNL     1     -12.563  58.530  33.778  1.00  0.00     0.210 HD
ENDBRANCH  12  13
ENDBRANCH   1  12
TORSDOF 5
ENDMDL
MODEL 7
REMARK VINA RESULT:    -5.181      2.111      3.391
REMARK INTER + INTRA:          -6.317
REMARK INTER:                  -6.222
REMARK INTRA:                  -0.095
REMARK UNBOUND:                -0.076
REMARK SMILES OCCc1ccc(O)c(O)c1
REMARK SMILES IDX 3 1 4 2 5 3 6 4 7 5 11 6 9 7 8 8 10 10 2 12 1 13
REMARK H PARENT 8 9 10 11 1 14
REMARK Flexibility Score: inf
ROOT
ATOM      1  C   UNL     1     -14.760  55.948  31.060  1.00  0.00     0.064 C 
ENDROOT
BRANCH   1   2
ATOM      2  C   UNL     1     -14.778  57.142  30.142  1.00  0.00    -0.042 A 
ATOM      3  C   UNL     1     -14.078  58.310  30.485  1.00  0.00     0.008 A 
ATOM      4  C   UNL     1     -14.120  59.428  29.649  1.00  0.00     0.050 A 
ATOM      5  C   UNL     1     -14.869  59.396  28.465  1.00  0.00     0.157 A 
ATOM      6  C   UNL     1     -15.538  57.117  28.962  1.00  0.00     0.054 A 
ATOM      7  C   UNL     1     -15.581  58.239  28.121  1.00  0.00     0.157 A 
BRANCH   5   8
ATOM      8  O   UNL     1     -14.913  60.508  27.626  1.00  0.00    -0.504 OA
ATOM      9  H   UNL     1     -14.575  61.414  27.931  1.00  0.00     0.293 HD
ENDBRANCH   5   8
BRANCH   7  10
ATOM     10  O   UNL     1     -16.330  58.212  26.946  1.00  0.00    -0.504 OA
ATOM     11  H   UNL     1     -17.211  57.716  26.890  1.00  0.00     0.293 HD
ENDBRANCH   7  10
ENDBRANCH   1   2
BRANCH   1  12
ATOM     12  C   UNL     1     -13.826  56.192  32.244  1.00  0.00     0.161 C 
BRANCH  12  13
ATOM     13  O   UNL     1     -12.764  55.281  32.195  1.00  0.00    -0.396 OA
ATOM     14  H   UNL     1     -12.103  55.593  32.867  1.00  0.00     0.210 HD
ENDBRANCH  12  13
ENDBRANCH   1  12
TORSDOF 5
ENDMDL
MODEL 8
REMARK VINA RESULT:    -5.147      1.608      2.122
REMARK INTER + INTRA:          -6.276
REMARK INTER:                  -6.182
REMARK INTRA:                  -0.094
REMARK UNBOUND:                -0.076
REMARK SMILES OCCc1ccc(O)c(O)c1
REMARK SMILES IDX 3 1 4 2 5 3 6 4 7 5 11 6 9 7 8 8 10 10 2 12 1 13
REMARK H PARENT 8 9 10 11 1 14
REMARK Flexibility Score: inf
ROOT
ATOM      1  C   UNL     1     -14.097  60.683  31.694  1.00  0.00     0.064 C 
ENDROOT
BRANCH   1   2
ATOM      2  C   UNL     1     -14.146  59.289  31.126  1.00  0.00    -0.042 A 
ATOM      3  C   UNL     1     -14.763  59.050  29.888  1.00  0.00     0.008 A 
ATOM      4  C   UNL     1     -14.836  57.753  29.376  1.00  0.00     0.050 A 
ATOM      5  C   UNL     1     -14.303  56.677  30.099  1.00  0.00     0.157 A 
ATOM      6  C   UNL     1     -13.624  58.208  31.855  1.00  0.00     0.054 A 
ATOM      7  C   UNL     1     -13.697  56.905  31.342  1.00  0.00     0.157 A 
BRANCH   5   8
ATOM      8  O   UNL     1     -14.372  55.381  29.591  1.00  0.00    -0.504 OA
ATOM      9  H   UNL     1     -14.834  55.181  28.711  1.00  0.00     0.293 HD
ENDBRANCH   5   8
BRANCH   7  10
ATOM     10  O   UNL     1     -13.172  55.833  32.061  1.00  0.00    -0.504 OA
ATOM     11  H   UNL     1     -13.717  55.349  32.765  1.00  0.00     0.293 HD
ENDBRANCH   7  10
ENDBRANCH   1   2
BRANCH   1  12
ATOM     12  C   UNL     1     -13.075  61.535  30.945  1.00  0.00     0.161 C 
BRANCH  12  13
ATOM     13  O   UNL     1     -11.799  61.311  31.480  1.00  0.00    -0.396 OA
ATOM     14  H   UNL     1     -11.860  61.546  32.442  1.00  0.00     0.210 HD
ENDBRANCH  12  13
ENDBRANCH   1  12
TORSDOF 5
ENDMDL
MODEL 9
REMARK VINA RESULT:    -4.906      2.421      3.306
REMARK INTER + INTRA:          -5.985
REMARK INTER:                  -5.901
REMARK INTRA:                  -0.084
REMARK UNBOUND:                -0.076
REMARK SMILES OCCc1ccc(O)c(O)c1
REMARK SMILES IDX 3 1 4 2 5 3 6 4 7 5 11 6 9 7 8 8 10 10 2 12 1 13
REMARK H PARENT 8 9 10 11 1 14
REMARK Flexibility Score: inf
ROOT
ATOM      1  C   UNL     1     -13.747  56.574  31.997  1.00  0.00     0.064 C 
ENDROOT
BRANCH   1   2
ATOM      2  C   UNL     1     -14.027  57.586  30.917  1.00  0.00    -0.042 A 
ATOM      3  C   UNL     1     -14.474  57.168  29.654  1.00  0.00     0.008 A 
ATOM      4  C   UNL     1     -14.704  58.103  28.642  1.00  0.00     0.050 A 
ATOM      5  C   UNL     1     -14.481  59.467  28.878  1.00  0.00     0.157 A 
ATOM      6  C   UNL     1     -13.793  58.951  31.147  1.00  0.00     0.054 A 
ATOM      7  C   UNL     1     -14.023  59.892  30.132  1.00  0.00     0.157 A 
BRANCH   5   8
ATOM      8  O   UNL     1     -14.711  60.405  27.873  1.00  0.00    -0.504 OA
ATOM      9  H   UNL     1     -15.619  60.496  27.432  1.00  0.00     0.293 HD
ENDBRANCH   5   8
BRANCH   7  10
ATOM     10  O   UNL     1     -13.797  61.247  30.363  1.00  0.00    -0.504 OA
ATOM     11  H   UNL     1     -14.384  61.961  29.947  1.00  0.00     0.293 HD
ENDBRANCH   7  10
ENDBRANCH   1   2
BRANCH   1  12
ATOM     12  C   UNL     1     -13.749  57.238  33.372  1.00  0.00     0.161 C 
BRANCH  12  13
ATOM     13  O   UNL     1     -12.670  56.756  34.125  1.00  0.00    -0.396 OA
ATOM     14  H   UNL     1     -11.874  57.264  33.821  1.00  0.00     0.210 HD
ENDBRANCH  12  13
ENDBRANCH   1  12
TORSDOF 5
ENDMDL
