MODEL 1
REMARK VINA RESULT:    -3.741      0.000      0.000
REMARK INTER + INTRA:          -4.428
REMARK INTER:                  -4.397
REMARK INTRA:                  -0.032
REMARK UNBOUND:                -0.032
REMARK SMILES [NH3+][C@@H](CO)C(=O)[O-]
REMARK SMILES IDX 3 1 2 2 1 3 5 7 6 8 7 9 4 10
REMARK H PARENT 1 4 1 5 1 6 4 11
REMARK Flexibility Score: inf
ROOT
ATOM      1  C   UNL     1     159.931 166.004 167.615  1.00  0.00     0.227 C 
ENDROOT
BRANCH   1   2
ATOM      2  C   UNL     1     158.941 166.979 166.954  1.00  0.00     0.253 C 
BRANCH   2   3
ATOM      3  N   UNL     1     159.653 167.947 166.114  1.00  0.00    -0.348 N 
ATOM      4  H   UNL     1     160.318 167.445 165.481  1.00  0.00     0.345 HD
ATOM      5  H   UNL     1     160.189 168.627 166.703  1.00  0.00     0.345 HD
ATOM      6  H   UNL     1     158.970 168.472 165.520  1.00  0.00     0.345 HD
ENDBRANCH   2   3
BRANCH   2   7
ATOM      7  C   UNL     1     158.128 167.696 168.001  1.00  0.00     0.102 C 
ATOM      8  O   UNL     1     158.634 167.957 169.125  1.00  0.00    -0.544 OA
ATOM      9  O   UNL     1     156.821 168.083 167.731  1.00  0.00    -0.544 OA
ENDBRANCH   2   7
ENDBRANCH   1   2
BRANCH   1  10
ATOM     10  O   UNL     1     161.247 166.284 167.218  1.00  0.00    -0.390 OA
ATOM     11  H   UNL     1     161.815 166.185 168.027  1.00  0.00     0.210 HD
ENDBRANCH   1  10
TORSDOF 4
ENDMDL
MODEL 2
REMARK VINA RESULT:    -3.705     15.929     16.795
REMARK INTER + INTRA:          -4.386
REMARK INTER:                  -4.202
REMARK INTRA:                  -0.184
REMARK UNBOUND:                -0.032
REMARK SMILES [NH3+][C@@H](CO)C(=O)[O-]
REMARK SMILES IDX 3 1 2 2 1 3 5 7 6 8 7 9 4 10
REMARK H PARENT 1 4 1 5 1 6 4 11
REMARK Flexibility Score: inf
ROOT
ATOM      1  C   UNL     1     158.408 152.056 167.372  1.00  0.00     0.227 C 
ENDROOT
BRANCH   1   2
ATOM      2  C   UNL     1     159.540 151.138 166.876  1.00  0.00     0.253 C 
BRANCH   2   3
ATOM      3  N   UNL     1     159.040 150.205 165.861  1.00  0.00    -0.348 N 
ATOM      4  H   UNL     1     159.557 149.298 165.929  1.00  0.00     0.345 HD
ATOM      5  H   UNL     1     159.166 150.599 164.900  1.00  0.00     0.345 HD
ATOM      6  H   UNL     1     158.024 150.015 166.024  1.00  0.00     0.345 HD
ENDBRANCH   2   3
BRANCH   2   7
ATOM      7  C   UNL     1     160.146 150.380 168.027  1.00  0.00     0.102 C 
ATOM      8  O   UNL     1     159.459 150.131 169.053  1.00  0.00    -0.544 OA
ATOM      9  O   UNL     1     161.464 149.941 167.963  1.00  0.00    -0.544 OA
ENDBRANCH   2   7
ENDBRANCH   1   2
BRANCH   1  10
ATOM     10  O   UNL     1     157.168 151.406 167.293  1.00  0.00    -0.390 OA
ATOM     11  H   UNL     1     156.955 151.318 166.327  1.00  0.00     0.210 HD
ENDBRANCH   1  10
TORSDOF 4
ENDMDL
MODEL 3
REMARK VINA RESULT:    -3.700     23.081     23.865
REMARK INTER + INTRA:          -4.380
REMARK INTER:                  -4.210
REMARK INTRA:                  -0.170
REMARK UNBOUND:                -0.032
REMARK SMILES [NH3+][C@@H](CO)C(=O)[O-]
REMARK SMILES IDX 3 1 2 2 1 3 5 7 6 8 7 9 4 10
REMARK H PARENT 1 4 1 5 1 6 4 11
REMARK Flexibility Score: inf
ROOT
ATOM      1  C   UNL     1     159.560 152.027 150.640  1.00  0.00     0.227 C 
ENDROOT
BRANCH   1   2
ATOM      2  C   UNL     1     158.443 151.108 151.167  1.00  0.00     0.253 C 
BRANCH   2   3
ATOM      3  N   UNL     1     158.964 150.199 152.193  1.00  0.00    -0.348 N 
ATOM      4  H   UNL     1     159.498 150.743 152.910  1.00  0.00     0.345 HD
ATOM      5  H   UNL     1     159.597 149.482 151.768  1.00  0.00     0.345 HD
ATOM      6  H   UNL     1     158.171 149.715 152.674  1.00  0.00     0.345 HD
ENDBRANCH   2   3
BRANCH   2   7
ATOM      7  C   UNL     1     157.830 150.322 150.038  1.00  0.00     0.102 C 
ATOM      8  O   UNL     1     156.652 149.886 150.137  1.00  0.00    -0.544 OA
ATOM      9  O   UNL     1     158.553 150.081 148.876  1.00  0.00    -0.544 OA
ENDBRANCH   2   7
ENDBRANCH   1   2
BRANCH   1  10
ATOM     10  O   UNL     1     160.808 151.391 150.719  1.00  0.00    -0.390 OA
ATOM     11  H   UNL     1     161.494 152.095 150.582  1.00  0.00     0.210 HD
ENDBRANCH   1  10
TORSDOF 4
ENDMDL
MODEL 4
REMARK VINA RESULT:    -3.681     16.616     17.309
REMARK INTER + INTRA:          -4.359
REMARK INTER:                  -4.200
REMARK INTRA:                  -0.159
REMARK UNBOUND:                -0.032
REMARK SMILES [NH3+][C@@H](CO)C(=O)[O-]
REMARK SMILES IDX 3 1 2 2 1 3 5 7 6 8 7 9 4 10
REMARK H PARENT 1 4 1 5 1 6 4 11
REMARK Flexibility Score: inf
ROOT
ATOM      1  C   UNL     1     158.282 165.965 150.568  1.00  0.00     0.227 C 
ENDROOT
BRANCH   1   2
ATOM      2  C   UNL     1     159.442 166.831 151.090  1.00  0.00     0.253 C 
BRANCH   2   3
ATOM      3  N   UNL     1     158.983 167.713 152.169  1.00  0.00    -0.348 N 
ATOM      4  H   UNL     1     157.991 167.998 151.995  1.00  0.00     0.345 HD
ATOM      5  H   UNL     1     159.580 168.571 152.227  1.00  0.00     0.345 HD
ATOM      6  H   UNL     1     159.021 167.205 153.083  1.00  0.00     0.345 HD
ENDBRANCH   2   3
BRANCH   2   7
ATOM      7  C   UNL     1     160.039 167.644 149.971  1.00  0.00     0.102 C 
ATOM      8  O   UNL     1     159.351 167.917 148.951  1.00  0.00    -0.544 OA
ATOM      9  O   UNL     1     161.346 168.108 150.060  1.00  0.00    -0.544 OA
ENDBRANCH   2   7
ENDBRANCH   1   2
BRANCH   1  10
ATOM     10  O   UNL     1     157.050 166.601 150.778  1.00  0.00    -0.390 OA
ATOM     11  H   UNL     1     157.140 167.124 151.617  1.00  0.00     0.210 HD
ENDBRANCH   1  10
TORSDOF 4
ENDMDL
MODEL 5
REMARK VINA RESULT:    -3.680      1.596      3.066
REMARK INTER + INTRA:          -4.357
REMARK INTER:                  -4.149
REMARK INTRA:                  -0.208
REMARK UNBOUND:                -0.032
REMARK SMILES [NH3+][C@@H](CO)C(=O)[O-]
REMARK SMILES IDX 3 1 2 2 1 3 5 7 6 8 7 9 4 10
REMARK H PARENT 1 4 1 5 1 6 4 11
REMARK Flexibility Score: inf
ROOT
ATOM      1  C   UNL     1     158.209 167.910 168.160  1.00  0.00     0.227 C 
ENDROOT
BRANCH   1   2
ATOM      2  C   UNL     1     159.291 167.105 167.418  1.00  0.00     0.253 C 
BRANCH   2   3
ATOM      3  N   UNL     1     159.739 167.825 166.221  1.00  0.00    -0.348 N 
ATOM      4  H   UNL     1     160.147 168.749 166.495  1.00  0.00     0.345 HD
ATOM      5  H   UNL     1     158.940 167.986 165.563  1.00  0.00     0.345 HD
ATOM      6  H   UNL     1     160.481 167.273 165.732  1.00  0.00     0.345 HD
ENDBRANCH   2   3
BRANCH   2   7
ATOM      7  C   UNL     1     158.771 165.742 167.042  1.00  0.00     0.102 C 
ATOM      8  O   UNL     1     157.744 165.634 166.320  1.00  0.00    -0.544 OA
ATOM      9  O   UNL     1     159.424 164.596 167.479  1.00  0.00    -0.544 OA
ENDBRANCH   2   7
ENDBRANCH   1   2
BRANCH   1  10
ATOM     10  O   UNL     1     157.350 168.547 167.252  1.00  0.00    -0.390 OA
ATOM     11  H   UNL     1     157.876 169.273 166.826  1.00  0.00     0.210 HD
ENDBRANCH   1  10
TORSDOF 4
ENDMDL
MODEL 6
REMARK VINA RESULT:    -3.677     22.489     23.232
REMARK INTER + INTRA:          -4.354
REMARK INTER:                  -4.139
REMARK INTRA:                  -0.215
REMARK UNBOUND:                -0.032
REMARK SMILES [NH3+][C@@H](CO)C(=O)[O-]
REMARK SMILES IDX 3 1 2 2 1 3 5 7 6 8 7 9 4 10
REMARK H PARENT 1 4 1 5 1 6 4 11
REMARK Flexibility Score: inf
ROOT
ATOM      1  C   UNL     1     158.151 150.086 149.856  1.00  0.00     0.227 C 
ENDROOT
BRANCH   1   2
ATOM      2  C   UNL     1     159.211 150.904 150.616  1.00  0.00     0.253 C 
BRANCH   2   3
ATOM      3  N   UNL     1     159.689 150.165 151.790  1.00  0.00    -0.348 N 
ATOM      4  H   UNL     1     160.733 150.100 151.765  1.00  0.00     0.345 HD
ATOM      5  H   UNL     1     159.287 149.199 151.810  1.00  0.00     0.345 HD
ATOM      6  H   UNL     1     159.414 150.671 152.664  1.00  0.00     0.345 HD
ENDBRANCH   2   3
BRANCH   2   7
ATOM      7  C   UNL     1     158.648 152.237 151.034  1.00  0.00     0.102 C 
ATOM      8  O   UNL     1     157.635 152.290 151.782  1.00  0.00    -0.544 OA
ATOM      9  O   UNL     1     159.246 153.417 150.607  1.00  0.00    -0.544 OA
ENDBRANCH   2   7
ENDBRANCH   1   2
BRANCH   1  10
ATOM     10  O   UNL     1     157.288 149.435 150.750  1.00  0.00    -0.390 OA
ATOM     11  H   UNL     1     156.735 150.142 151.176  1.00  0.00     0.210 HD
ENDBRANCH   1  10
TORSDOF 4
ENDMDL
MODEL 7
REMARK VINA RESULT:    -3.594      1.928      2.187
REMARK INTER + INTRA:          -4.256
REMARK INTER:                  -4.060
REMARK INTRA:                  -0.196
REMARK UNBOUND:                -0.032
REMARK SMILES [NH3+][C@@H](CO)C(=O)[O-]
REMARK SMILES IDX 3 1 2 2 1 3 5 7 6 8 7 9 4 10
REMARK H PARENT 1 4 1 5 1 6 4 11
REMARK Flexibility Score: inf
ROOT
ATOM      1  C   UNL     1     159.693 167.052 167.839  1.00  0.00     0.227 C 
ENDROOT
BRANCH   1   2
ATOM      2  C   UNL     1     158.542 167.229 166.832  1.00  0.00     0.253 C 
BRANCH   2   3
ATOM      3  N   UNL     1     157.702 168.372 167.205  1.00  0.00    -0.348 N 
ATOM      4  H   UNL     1     158.104 169.252 166.806  1.00  0.00     0.345 HD
ATOM      5  H   UNL     1     157.641 168.465 168.245  1.00  0.00     0.345 HD
ATOM      6  H   UNL     1     156.739 168.246 166.814  1.00  0.00     0.345 HD
ENDBRANCH   2   3
BRANCH   2   7
ATOM      7  C   UNL     1     157.712 165.975 166.754  1.00  0.00     0.102 C 
ATOM      8  O   UNL     1     158.240 164.887 166.400  1.00  0.00    -0.544 OA
ATOM      9  O   UNL     1     156.361 166.006 167.081  1.00  0.00    -0.544 OA
ENDBRANCH   2   7
ENDBRANCH   1   2
BRANCH   1  10
ATOM     10  O   UNL     1     160.809 166.466 167.224  1.00  0.00    -0.390 OA
ATOM     11  H   UNL     1     160.804 166.770 166.278  1.00  0.00     0.210 HD
ENDBRANCH   1  10
TORSDOF 4
ENDMDL
MODEL 8
REMARK VINA RESULT:    -3.576     14.628     15.444
REMARK INTER + INTRA:          -4.235
REMARK INTER:                  -4.010
REMARK INTRA:                  -0.225
REMARK UNBOUND:                -0.032
REMARK SMILES [NH3+][C@@H](CO)C(=O)[O-]
REMARK SMILES IDX 3 1 2 2 1 3 5 7 6 8 7 9 4 10
REMARK H PARENT 1 4 1 5 1 6 4 11
REMARK Flexibility Score: inf
ROOT
ATOM      1  C   UNL     1     159.382 150.475 167.181  1.00  0.00     0.227 C 
ENDROOT
BRANCH   1   2
ATOM      2  C   UNL     1     158.514 151.641 167.687  1.00  0.00     0.253 C 
BRANCH   2   3
ATOM      3  N   UNL     1     157.125 151.483 167.241  1.00  0.00    -0.348 N 
ATOM      4  H   UNL     1     157.042 150.630 166.640  1.00  0.00     0.345 HD
ATOM      5  H   UNL     1     156.813 152.318 166.693  1.00  0.00     0.345 HD
ATOM      6  H   UNL     1     156.499 151.361 168.070  1.00  0.00     0.345 HD
ENDBRANCH   2   3
BRANCH   2   7
ATOM      7  C   UNL     1     159.068 152.957 167.207  1.00  0.00     0.102 C 
ATOM      8  O   UNL     1     160.071 152.981 166.445  1.00  0.00    -0.544 OA
ATOM      9  O   UNL     1     158.471 154.152 167.592  1.00  0.00    -0.544 OA
ENDBRANCH   2   7
ENDBRANCH   1   2
BRANCH   1  10
ATOM     10  O   UNL     1     159.143 150.229 165.821  1.00  0.00    -0.390 OA
ATOM     11  H   UNL     1     159.032 149.246 165.726  1.00  0.00     0.210 HD
ENDBRANCH   1  10
TORSDOF 4
ENDMDL
MODEL 9
REMARK VINA RESULT:    -3.574     16.264     16.842
REMARK INTER + INTRA:          -4.232
REMARK INTER:                  -4.006
REMARK INTRA:                  -0.226
REMARK UNBOUND:                -0.032
REMARK SMILES [NH3+][C@@H](CO)C(=O)[O-]
REMARK SMILES IDX 3 1 2 2 1 3 5 7 6 8 7 9 4 10
REMARK H PARENT 1 4 1 5 1 6 4 11
REMARK Flexibility Score: inf
ROOT
ATOM      1  C   UNL     1     159.391 167.520 150.826  1.00  0.00     0.227 C 
ENDROOT
BRANCH   1   2
ATOM      2  C   UNL     1     158.510 166.366 150.312  1.00  0.00     0.253 C 
BRANCH   2   3
ATOM      3  N   UNL     1     157.127 166.528 150.773  1.00  0.00    -0.348 N 
ATOM      4  H   UNL     1     156.926 165.840 151.535  1.00  0.00     0.345 HD
ATOM      5  H   UNL     1     156.453 166.374 149.987  1.00  0.00     0.345 HD
ATOM      6  H   UNL     1     156.992 167.491 151.158  1.00  0.00     0.345 HD
ENDBRANCH   2   3
BRANCH   2   7
ATOM      7  C   UNL     1     159.060 165.040 150.767  1.00  0.00     0.102 C 
ATOM      8  O   UNL     1     160.040 164.999 151.559  1.00  0.00    -0.544 OA
ATOM      9  O   UNL     1     158.485 163.853 150.327  1.00  0.00    -0.544 OA
ENDBRANCH   2   7
ENDBRANCH   1   2
BRANCH   1  10
ATOM     10  O   UNL     1     159.172 167.742 152.193  1.00  0.00    -0.390 OA
ATOM     11  H   UNL     1     158.239 167.460 152.382  1.00  0.00     0.210 HD
ENDBRANCH   1  10
TORSDOF 4
ENDMDL
