MODEL 1
REMARK VINA RESULT:    -3.668      0.000      0.000
REMARK INTER + INTRA:          -4.112
REMARK INTER:                  -4.096
REMARK INTRA:                  -0.015
REMARK UNBOUND:                -0.015
REMARK SMILES CCCC(=O)[O-]
REMARK SMILES IDX 3 1 4 2 5 3 6 4 2 5 1 6
REMARK H PARENT
REMARK Flexibility Score: inf
ROOT
ATOM      1  C   UNL     1      -0.368   6.988  21.182  1.00  0.00     0.052 C 
ENDROOT
BRANCH   1   2
ATOM      2  C   UNL     1      -0.168   6.722  22.640  1.00  0.00     0.041 C 
ATOM      3  O   UNL     1      -1.153   6.710  23.423  1.00  0.00    -0.550 OA
ATOM      4  O   UNL     1       1.114   6.535  23.143  1.00  0.00    -0.550 OA
ENDBRANCH   1   2
BRANCH   1   5
ATOM      5  C   UNL     1       0.955   7.393  20.525  1.00  0.00     0.003 C 
ATOM      6  C   UNL     1       0.756   8.558  19.561  1.00  0.00     0.004 C 
ENDBRANCH   1   5
TORSDOF 2
ENDMDL
MODEL 2
REMARK VINA RESULT:    -3.586      2.759      3.667
REMARK INTER + INTRA:          -4.021
REMARK INTER:                  -4.003
REMARK INTRA:                  -0.018
REMARK UNBOUND:                -0.015
REMARK SMILES CCCC(=O)[O-]
REMARK SMILES IDX 3 1 4 2 5 3 6 4 2 5 1 6
REMARK H PARENT
REMARK Flexibility Score: inf
ROOT
ATOM      1  C   UNL     1       0.150   7.503  20.151  1.00  0.00     0.052 C 
ENDROOT
BRANCH   1   2
ATOM      2  C   UNL     1       1.121   8.457  19.533  1.00  0.00     0.041 C 
ATOM      3  O   UNL     1       1.046   8.734  18.308  1.00  0.00    -0.550 OA
ATOM      4  O   UNL     1       2.141   9.005  20.301  1.00  0.00    -0.550 OA
ENDBRANCH   1   2
BRANCH   1   5
ATOM      5  C   UNL     1       0.681   6.992  21.493  1.00  0.00     0.003 C 
ATOM      6  C   UNL     1      -0.459   6.744  22.477  1.00  0.00     0.004 C 
ENDBRANCH   1   5
TORSDOF 2
ENDMDL
MODEL 3
REMARK VINA RESULT:    -3.565      1.332      1.686
REMARK INTER + INTRA:          -3.997
REMARK INTER:                  -3.985
REMARK INTRA:                  -0.012
REMARK UNBOUND:                -0.015
REMARK SMILES CCCC(=O)[O-]
REMARK SMILES IDX 3 1 4 2 5 3 6 4 2 5 1 6
REMARK H PARENT
REMARK Flexibility Score: inf
ROOT
ATOM      1  C   UNL     1       0.235   7.349  19.688  1.00  0.00     0.052 C 
ENDROOT
BRANCH   1   2
ATOM      2  C   UNL     1       0.411   7.018  21.135  1.00  0.00     0.041 C 
ATOM      3  O   UNL     1      -0.593   6.795  21.861  1.00  0.00    -0.550 OA
ATOM      4  O   UNL     1       1.682   7.001  21.695  1.00  0.00    -0.550 OA
ENDBRANCH   1   2
BRANCH   1   5
ATOM      5  C   UNL     1       1.000   8.628  19.334  1.00  0.00     0.003 C 
ATOM      6  C   UNL     1       1.363   8.660  17.853  1.00  0.00     0.004 C 
ENDBRANCH   1   5
TORSDOF 2
ENDMDL
MODEL 4
REMARK VINA RESULT:    -3.429     15.823     16.208
REMARK INTER + INTRA:          -3.845
REMARK INTER:                  -3.839
REMARK INTRA:                  -0.007
REMARK UNBOUND:                -0.015
REMARK SMILES CCCC(=O)[O-]
REMARK SMILES IDX 3 1 4 2 5 3 6 4 2 5 1 6
REMARK H PARENT
REMARK Flexibility Score: inf
ROOT
ATOM      1  C   UNL     1      -3.984  -4.365  11.141  1.00  0.00     0.052 C 
ENDROOT
BRANCH   1   2
ATOM      2  C   UNL     1      -4.414  -3.130  11.867  1.00  0.00     0.041 C 
ATOM      3  O   UNL     1      -4.047  -1.997  11.462  1.00  0.00    -0.550 OA
ATOM      4  O   UNL     1      -5.182  -3.234  13.020  1.00  0.00    -0.550 OA
ENDBRANCH   1   2
BRANCH   1   5
ATOM      5  C   UNL     1      -5.147  -5.355  11.033  1.00  0.00     0.003 C 
ATOM      6  C   UNL     1      -4.825  -6.477  10.050  1.00  0.00     0.004 C 
ENDBRANCH   1   5
TORSDOF 2
ENDMDL
MODEL 5
REMARK VINA RESULT:    -3.413      2.734      3.625
REMARK INTER + INTRA:          -3.827
REMARK INTER:                  -3.822
REMARK INTRA:                  -0.006
REMARK UNBOUND:                -0.015
REMARK SMILES CCCC(=O)[O-]
REMARK SMILES IDX 3 1 4 2 5 3 6 4 2 5 1 6
REMARK H PARENT
REMARK Flexibility Score: inf
ROOT
ATOM      1  C   UNL     1       0.782   7.022  21.112  1.00  0.00     0.052 C 
ENDROOT
BRANCH   1   2
ATOM      2  C   UNL     1       0.480   7.355  19.686  1.00  0.00     0.041 C 
ATOM      3  O   UNL     1       0.648   8.528  19.260  1.00  0.00    -0.550 OA
ATOM      4  O   UNL     1      -0.034   6.382  18.839  1.00  0.00    -0.550 OA
ENDBRANCH   1   2
BRANCH   1   5
ATOM      5  C   UNL     1      -0.512   6.925  21.925  1.00  0.00     0.003 C 
ATOM      6  C   UNL     1      -0.242   6.392  23.329  1.00  0.00     0.004 C 
ENDBRANCH   1   5
TORSDOF 2
ENDMDL
MODEL 6
REMARK VINA RESULT:    -3.316     15.074     15.304
REMARK INTER + INTRA:          -3.719
REMARK INTER:                  -3.679
REMARK INTRA:                  -0.040
REMARK UNBOUND:                -0.015
REMARK SMILES CCCC(=O)[O-]
REMARK SMILES IDX 3 1 4 2 5 3 6 4 2 5 1 6
REMARK H PARENT
REMARK Flexibility Score: inf
ROOT
ATOM      1  C   UNL     1      -4.935  -2.465  11.679  1.00  0.00     0.052 C 
ENDROOT
BRANCH   1   2
ATOM      2  C   UNL     1      -4.450  -3.879  11.660  1.00  0.00     0.041 C 
ATOM      3  O   UNL     1      -4.530  -4.590  12.696  1.00  0.00    -0.550 OA
ATOM      4  O   UNL     1      -3.866  -4.398  10.512  1.00  0.00    -0.550 OA
ENDBRANCH   1   2
BRANCH   1   5
ATOM      5  C   UNL     1      -4.442  -1.713  10.439  1.00  0.00     0.003 C 
ATOM      6  C   UNL     1      -3.229  -0.847  10.767  1.00  0.00     0.004 C 
ENDBRANCH   1   5
TORSDOF 2
ENDMDL
MODEL 7
REMARK VINA RESULT:    -3.296      2.449      3.107
REMARK INTER + INTRA:          -3.697
REMARK INTER:                  -3.683
REMARK INTRA:                  -0.014
REMARK UNBOUND:                -0.015
REMARK SMILES CCCC(=O)[O-]
REMARK SMILES IDX 3 1 4 2 5 3 6 4 2 5 1 6
REMARK H PARENT
REMARK Flexibility Score: inf
ROOT
ATOM      1  C   UNL     1       0.924   8.475  19.289  1.00  0.00     0.052 C 
ENDROOT
BRANCH   1   2
ATOM      2  C   UNL     1       0.255   7.254  19.835  1.00  0.00     0.041 C 
ATOM      3  O   UNL     1      -0.088   6.321  19.063  1.00  0.00    -0.550 OA
ATOM      4  O   UNL     1      -0.034   7.168  21.191  1.00  0.00    -0.550 OA
ENDBRANCH   1   2
BRANCH   1   5
ATOM      5  C   UNL     1       1.133   8.341  17.778  1.00  0.00     0.003 C 
ATOM      6  C   UNL     1       2.221   9.290  17.287  1.00  0.00     0.004 C 
ENDBRANCH   1   5
TORSDOF 2
ENDMDL
MODEL 8
REMARK VINA RESULT:    -3.233     17.217     17.513
REMARK INTER + INTRA:          -3.627
REMARK INTER:                  -3.588
REMARK INTRA:                  -0.038
REMARK UNBOUND:                -0.015
REMARK SMILES CCCC(=O)[O-]
REMARK SMILES IDX 3 1 4 2 5 3 6 4 2 5 1 6
REMARK H PARENT
REMARK Flexibility Score: inf
ROOT
ATOM      1  C   UNL     1      -5.278  -5.518  10.796  1.00  0.00     0.052 C 
ENDROOT
BRANCH   1   2
ATOM      2  C   UNL     1      -4.099  -6.220  10.201  1.00  0.00     0.041 C 
ATOM      3  O   UNL     1      -4.181  -7.434   9.876  1.00  0.00    -0.550 OA
ATOM      4  O   UNL     1      -2.893  -5.547  10.048  1.00  0.00    -0.550 OA
ENDBRANCH   1   2
BRANCH   1   5
ATOM      5  C   UNL     1      -4.979  -4.027  10.975  1.00  0.00     0.003 C 
ATOM      6  C   UNL     1      -4.793  -3.677  12.448  1.00  0.00     0.004 C 
ENDBRANCH   1   5
TORSDOF 2
ENDMDL
MODEL 9
REMARK VINA RESULT:    -3.214     16.245     16.566
REMARK INTER + INTRA:          -3.604
REMARK INTER:                  -3.536
REMARK INTRA:                  -0.068
REMARK UNBOUND:                -0.015
REMARK SMILES CCCC(=O)[O-]
REMARK SMILES IDX 3 1 4 2 5 3 6 4 2 5 1 6
REMARK H PARENT
REMARK Flexibility Score: inf
ROOT
ATOM      1  C   UNL     1      -4.405  -3.714  11.855  1.00  0.00     0.052 C 
ENDROOT
BRANCH   1   2
ATOM      2  C   UNL     1      -4.346  -5.020  11.129  1.00  0.00     0.041 C 
ATOM      3  O   UNL     1      -3.298  -5.360  10.521  1.00  0.00    -0.550 OA
ATOM      4  O   UNL     1      -5.466  -5.841  11.083  1.00  0.00    -0.550 OA
ENDBRANCH   1   2
BRANCH   1   5
ATOM      5  C   UNL     1      -5.671  -2.944  11.469  1.00  0.00     0.003 C 
ATOM      6  C   UNL     1      -5.558  -2.370  10.060  1.00  0.00     0.004 C 
ENDBRANCH   1   5
TORSDOF 2
ENDMDL
