MODEL 1
REMARK VINA RESULT:    -5.463      0.000      0.000
REMARK INTER + INTRA:          -9.682
REMARK INTER:                  -8.337
REMARK INTRA:                  -1.345
REMARK UNBOUND:                -1.345
REMARK SMILES CC(=O)CCC=C(C)CCC=C(C)CCC=C(C)C
REMARK SMILES IDX 10 1 11 2 12 3 13 4 14 5 15 6 16 7 18 8 17 9 19 10 9 11 7 12
REMARK SMILES IDX 6 13 8 14 5 15 4 16 2 17 3 18 1 19
REMARK H PARENT
REMARK Flexibility Score: inf
ROOT
ATOM      1  C   UNL     1      20.091  25.357  27.481  1.00  0.00     0.032 C 
ENDROOT
BRANCH   1   2
ATOM      2  C   UNL     1      18.642  25.147  27.857  1.00  0.00    -0.028 C 
ATOM      3  C   UNL     1      17.699  26.117  27.878  1.00  0.00    -0.077 C 
ATOM      4  C   UNL     1      18.015  27.547  27.515  1.00  0.00     0.039 C 
BRANCH   3   5
ATOM      5  C   UNL     1      16.284  25.758  28.279  1.00  0.00     0.034 C 
BRANCH   5   6
ATOM      6  C   UNL     1      15.507  25.121  27.121  1.00  0.00     0.032 C 
BRANCH   6   7
ATOM      7  C   UNL     1      15.037  23.729  27.481  1.00  0.00    -0.028 C 
ATOM      8  C   UNL     1      14.950  21.276  27.421  1.00  0.00     0.039 C 
ATOM      9  C   UNL     1      15.486  22.589  26.913  1.00  0.00    -0.080 C 
ATOM     10  C   UNL     1      16.503  22.595  25.800  1.00  0.00     0.039 C 
ENDBRANCH   6   7
ENDBRANCH   5   6
ENDBRANCH   3   5
ENDBRANCH   1   2
BRANCH   1  11
ATOM     11  C   UNL     1      20.972  25.551  28.722  1.00  0.00     0.034 C 
BRANCH  11  12
ATOM     12  C   UNL     1      21.766  26.840  28.660  1.00  0.00    -0.077 C 
ATOM     13  C   UNL     1      22.909  26.878  27.940  1.00  0.00    -0.028 C 
ATOM     14  C   UNL     1      21.263  28.059  29.396  1.00  0.00     0.039 C 
BRANCH  13  15
ATOM     15  C   UNL     1      23.772  28.114  27.825  1.00  0.00     0.035 C 
BRANCH  15  16
ATOM     16  C   UNL     1      25.023  28.027  28.709  1.00  0.00     0.079 C 
BRANCH  16  17
ATOM     17  C   UNL     1      25.083  29.159  29.703  1.00  0.00     0.130 C 
ATOM     18  O   UNL     1      24.377  29.124  30.700  1.00  0.00    -0.300 OA
ATOM     19  C   UNL     1      26.001  30.329  29.502  1.00  0.00     0.087 C 
ENDBRANCH  16  17
ENDBRANCH  15  16
ENDBRANCH  13  15
ENDBRANCH  11  12
ENDBRANCH   1  11
TORSDOF 9
ENDMDL
MODEL 2
REMARK VINA RESULT:    -5.405      4.279      7.186
REMARK INTER + INTRA:          -9.594
REMARK INTER:                  -7.603
REMARK INTRA:                  -1.991
REMARK UNBOUND:                -1.345
REMARK SMILES CC(=O)CCC=C(C)CCC=C(C)CCC=C(C)C
REMARK SMILES IDX 10 1 11 2 12 3 13 4 14 5 15 6 16 7 18 8 17 9 19 10 9 11 7 12
REMARK SMILES IDX 6 13 8 14 5 15 4 16 2 17 3 18 1 19
REMARK H PARENT
REMARK Flexibility Score: inf
ROOT
ATOM      1  C   UNL     1      19.684  31.115  29.379  1.00  0.00     0.032 C 
ENDROOT
BRANCH   1   2
ATOM      2  C   UNL     1      19.148  30.043  28.457  1.00  0.00    -0.028 C 
ATOM      3  C   UNL     1      18.652  28.851  28.861  1.00  0.00    -0.077 C 
ATOM      4  C   UNL     1      18.586  28.466  30.319  1.00  0.00     0.039 C 
BRANCH   3   5
ATOM      5  C   UNL     1      18.150  27.873  27.821  1.00  0.00     0.034 C 
BRANCH   5   6
ATOM      6  C   UNL     1      18.144  26.433  28.349  1.00  0.00     0.032 C 
BRANCH   6   7
ATOM      7  C   UNL     1      18.991  25.530  27.480  1.00  0.00    -0.028 C 
ATOM      8  C   UNL     1      20.960  24.230  26.800  1.00  0.00     0.039 C 
ATOM      9  C   UNL     1      20.270  25.181  27.742  1.00  0.00    -0.080 C 
ATOM     10  C   UNL     1      21.014  25.707  28.944  1.00  0.00     0.039 C 
ENDBRANCH   6   7
ENDBRANCH   5   6
ENDBRANCH   3   5
ENDBRANCH   1   2
BRANCH   1  11
ATOM     11  C   UNL     1      18.734  32.317  29.455  1.00  0.00     0.034 C 
BRANCH  11  12
ATOM     12  C   UNL     1      17.586  32.076  30.414  1.00  0.00    -0.077 C 
ATOM     13  C   UNL     1      16.328  31.983  29.929  1.00  0.00    -0.028 C 
ATOM     14  C   UNL     1      17.868  31.935  31.891  1.00  0.00     0.039 C 
BRANCH  13  15
ATOM     15  C   UNL     1      15.119  31.751  30.806  1.00  0.00     0.035 C 
BRANCH  15  16
ATOM     16  C   UNL     1      14.174  30.695  30.218  1.00  0.00     0.079 C 
BRANCH  16  17
ATOM     17  C   UNL     1      14.813  29.329  30.186  1.00  0.00     0.130 C 
ATOM     18  O   UNL     1      15.018  28.785  29.111  1.00  0.00    -0.300 OA
ATOM     19  C   UNL     1      15.214  28.625  31.449  1.00  0.00     0.087 C 
ENDBRANCH  16  17
ENDBRANCH  15  16
ENDBRANCH  13  15
ENDBRANCH  11  12
ENDBRANCH   1  11
TORSDOF 9
ENDMDL
MODEL 3
REMARK VINA RESULT:    -5.388      4.491      7.773
REMARK INTER + INTRA:          -9.568
REMARK INTER:                  -7.870
REMARK INTRA:                  -1.698
REMARK UNBOUND:                -1.345
REMARK SMILES CC(=O)CCC=C(C)CCC=C(C)CCC=C(C)C
REMARK SMILES IDX 10 1 11 2 12 3 13 4 14 5 15 6 16 7 18 8 17 9 19 10 9 11 7 12
REMARK SMILES IDX 6 13 8 14 5 15 4 16 2 17 3 18 1 19
REMARK H PARENT
REMARK Flexibility Score: inf
ROOT
ATOM      1  C   UNL     1      19.404  29.289  29.741  1.00  0.00     0.032 C 
ENDROOT
BRANCH   1   2
ATOM      2  C   UNL     1      18.842  30.582  29.195  1.00  0.00    -0.028 C 
ATOM      3  C   UNL     1      18.786  31.750  29.874  1.00  0.00    -0.077 C 
ATOM      4  C   UNL     1      19.297  31.877  31.289  1.00  0.00     0.039 C 
BRANCH   3   5
ATOM      5  C   UNL     1      18.193  32.967  29.198  1.00  0.00     0.034 C 
BRANCH   5   6
ATOM      6  C   UNL     1      16.738  32.730  28.774  1.00  0.00     0.032 C 
BRANCH   6   7
ATOM      7  C   UNL     1      15.837  32.583  29.980  1.00  0.00    -0.028 C 
ATOM      8  C   UNL     1      14.333  31.466  31.567  1.00  0.00     0.039 C 
ATOM      9  C   UNL     1      15.149  31.466  30.300  1.00  0.00    -0.080 C 
ATOM     10  C   UNL     1      15.181  30.230  29.437  1.00  0.00     0.039 C 
ENDBRANCH   6   7
ENDBRANCH   5   6
ENDBRANCH   3   5
ENDBRANCH   1   2
BRANCH   1  11
ATOM     11  C   UNL     1      20.047  28.444  28.634  1.00  0.00     0.034 C 
BRANCH  11  12
ATOM     12  C   UNL     1      19.240  27.199  28.325  1.00  0.00    -0.077 C 
ATOM     13  C   UNL     1      17.909  27.309  28.118  1.00  0.00    -0.028 C 
ATOM     14  C   UNL     1      19.937  25.861  28.246  1.00  0.00     0.039 C 
BRANCH  13  15
ATOM     15  C   UNL     1      17.020  26.126  27.811  1.00  0.00     0.035 C 
BRANCH  15  16
ATOM     16  C   UNL     1      16.323  25.588  29.068  1.00  0.00     0.079 C 
BRANCH  16  17
ATOM     17  C   UNL     1      15.135  26.434  29.453  1.00  0.00     0.130 C 
ATOM     18  O   UNL     1      14.368  26.825  28.586  1.00  0.00    -0.300 OA
ATOM     19  C   UNL     1      14.868  26.800  30.883  1.00  0.00     0.087 C 
ENDBRANCH  16  17
ENDBRANCH  15  16
ENDBRANCH  13  15
ENDBRANCH  11  12
ENDBRANCH   1  11
TORSDOF 9
ENDMDL
MODEL 4
REMARK VINA RESULT:    -5.358      3.478      7.916
REMARK INTER + INTRA:          -9.523
REMARK INTER:                  -8.503
REMARK INTRA:                  -1.020
REMARK UNBOUND:                -1.345
REMARK SMILES CC(=O)CCC=C(C)CCC=C(C)CCC=C(C)C
REMARK SMILES IDX 10 1 11 2 12 3 13 4 14 5 15 6 16 7 18 8 17 9 19 10 9 11 7 12
REMARK SMILES IDX 6 13 8 14 5 15 4 16 2 17 3 18 1 19
REMARK H PARENT
REMARK Flexibility Score: inf
ROOT
ATOM      1  C   UNL     1      18.601  26.051  28.456  1.00  0.00     0.032 C 
ENDROOT
BRANCH   1   2
ATOM      2  C   UNL     1      20.094  26.208  28.632  1.00  0.00    -0.028 C 
ATOM      3  C   UNL     1      21.031  25.470  27.993  1.00  0.00    -0.077 C 
ATOM      4  C   UNL     1      20.661  24.385  27.012  1.00  0.00     0.039 C 
BRANCH   3   5
ATOM      5  C   UNL     1      22.494  25.739  28.271  1.00  0.00     0.034 C 
BRANCH   5   6
ATOM      6  C   UNL     1      22.806  27.241  28.281  1.00  0.00     0.032 C 
BRANCH   6   7
ATOM      7  C   UNL     1      24.152  27.522  27.652  1.00  0.00    -0.028 C 
ATOM      8  C   UNL     1      26.416  28.453  27.457  1.00  0.00     0.039 C 
ATOM      9  C   UNL     1      25.105  28.317  28.187  1.00  0.00    -0.080 C 
ATOM     10  C   UNL     1      24.896  29.056  29.484  1.00  0.00     0.039 C 
ENDBRANCH   6   7
ENDBRANCH   5   6
ENDBRANCH   3   5
ENDBRANCH   1   2
BRANCH   1  11
ATOM     11  C   UNL     1      18.007  27.204  27.638  1.00  0.00     0.034 C 
BRANCH  11  12
ATOM     12  C   UNL     1      17.838  28.463  28.465  1.00  0.00    -0.077 C 
ATOM     13  C   UNL     1      16.779  28.569  29.297  1.00  0.00    -0.028 C 
ATOM     14  C   UNL     1      18.859  29.569  28.352  1.00  0.00     0.039 C 
BRANCH  13  15
ATOM     15  C   UNL     1      16.522  29.786  30.156  1.00  0.00     0.035 C 
BRANCH  15  16
ATOM     16  C   UNL     1      15.472  30.718  29.536  1.00  0.00     0.079 C 
BRANCH  16  17
ATOM     17  C   UNL     1      15.831  32.170  29.732  1.00  0.00     0.130 C 
ATOM     18  O   UNL     1      15.237  32.829  30.573  1.00  0.00    -0.300 OA
ATOM     19  C   UNL     1      16.910  32.824  28.921  1.00  0.00     0.087 C 
ENDBRANCH  16  17
ENDBRANCH  15  16
ENDBRANCH  13  15
ENDBRANCH  11  12
ENDBRANCH   1  11
TORSDOF 9
ENDMDL
MODEL 5
REMARK VINA RESULT:    -5.334      5.244      7.971
REMARK INTER + INTRA:          -9.486
REMARK INTER:                  -6.985
REMARK INTRA:                  -2.501
REMARK UNBOUND:                -1.345
REMARK SMILES CC(=O)CCC=C(C)CCC=C(C)CCC=C(C)C
REMARK SMILES IDX 10 1 11 2 12 3 13 4 14 5 15 6 16 7 18 8 17 9 19 10 9 11 7 12
REMARK SMILES IDX 6 13 8 14 5 15 4 16 2 17 3 18 1 19
REMARK H PARENT
REMARK Flexibility Score: inf
ROOT
ATOM      1  C   UNL     1      16.670  32.760  28.858  1.00  0.00     0.032 C 
ENDROOT
BRANCH   1   2
ATOM      2  C   UNL     1      15.822  32.631  30.103  1.00  0.00    -0.028 C 
ATOM      3  C   UNL     1      15.034  31.572  30.397  1.00  0.00    -0.077 C 
ATOM      4  C   UNL     1      14.923  30.379  29.480  1.00  0.00     0.039 C 
BRANCH   3   5
ATOM      5  C   UNL     1      14.236  31.584  31.684  1.00  0.00     0.034 C 
BRANCH   5   6
ATOM      6  C   UNL     1      15.146  31.581  32.918  1.00  0.00     0.032 C 
BRANCH   6   7
ATOM      7  C   UNL     1      16.244  30.550  32.783  1.00  0.00    -0.028 C 
ATOM      8  C   UNL     1      18.535  29.669  32.717  1.00  0.00     0.039 C 
ATOM      9  C   UNL     1      17.567  30.819  32.815  1.00  0.00    -0.080 C 
ATOM     10  C   UNL     1      18.095  32.225  32.952  1.00  0.00     0.039 C 
ENDBRANCH   6   7
ENDBRANCH   5   6
ENDBRANCH   3   5
ENDBRANCH   1   2
BRANCH   1  11
ATOM     11  C   UNL     1      18.144  33.005  29.206  1.00  0.00     0.034 C 
BRANCH  11  12
ATOM     12  C   UNL     1      18.921  31.711  29.342  1.00  0.00    -0.077 C 
ATOM     13  C   UNL     1      18.360  30.557  28.920  1.00  0.00    -0.028 C 
ATOM     14  C   UNL     1      20.310  31.737  29.935  1.00  0.00     0.039 C 
BRANCH  13  15
ATOM     15  C   UNL     1      19.053  29.217  29.020  1.00  0.00     0.035 C 
BRANCH  15  16
ATOM     16  C   UNL     1      18.591  28.246  27.925  1.00  0.00     0.079 C 
BRANCH  16  17
ATOM     17  C   UNL     1      17.418  27.412  28.376  1.00  0.00     0.130 C 
ATOM     18  O   UNL     1      16.805  26.743  27.559  1.00  0.00    -0.300 OA
ATOM     19  C   UNL     1      16.991  27.378  29.814  1.00  0.00     0.087 C 
ENDBRANCH  16  17
ENDBRANCH  15  16
ENDBRANCH  13  15
ENDBRANCH  11  12
ENDBRANCH   1  11
TORSDOF 9
ENDMDL
MODEL 6
REMARK VINA RESULT:    -5.334      3.992      6.706
REMARK INTER + INTRA:          -9.485
REMARK INTER:                  -7.957
REMARK INTRA:                  -1.528
REMARK UNBOUND:                -1.345
REMARK SMILES CC(=O)CCC=C(C)CCC=C(C)CCC=C(C)C
REMARK SMILES IDX 10 1 11 2 12 3 13 4 14 5 15 6 16 7 18 8 17 9 19 10 9 11 7 12
REMARK SMILES IDX 6 13 8 14 5 15 4 16 2 17 3 18 1 19
REMARK H PARENT
REMARK Flexibility Score: inf
ROOT
ATOM      1  C   UNL     1      19.970  29.733  31.324  1.00  0.00     0.032 C 
ENDROOT
BRANCH   1   2
ATOM      2  C   UNL     1      19.421  31.067  30.870  1.00  0.00    -0.028 C 
ATOM      3  C   UNL     1      18.900  31.314  29.647  1.00  0.00    -0.077 C 
ATOM      4  C   UNL     1      18.815  30.246  28.584  1.00  0.00     0.039 C 
BRANCH   3   5
ATOM      5  C   UNL     1      18.388  32.704  29.332  1.00  0.00     0.034 C 
BRANCH   5   6
ATOM      6  C   UNL     1      16.930  32.680  28.860  1.00  0.00     0.032 C 
BRANCH   6   7
ATOM      7  C   UNL     1      15.978  32.609  30.033  1.00  0.00    -0.028 C 
ATOM      8  C   UNL     1      14.352  31.612  31.579  1.00  0.00     0.039 C 
ATOM      9  C   UNL     1      15.211  31.541  30.344  1.00  0.00    -0.080 C 
ATOM     10  C   UNL     1      15.199  30.291  29.501  1.00  0.00     0.039 C 
ENDBRANCH   6   7
ENDBRANCH   5   6
ENDBRANCH   3   5
ENDBRANCH   1   2
BRANCH   1  11
ATOM     11  C   UNL     1      21.504  29.721  31.304  1.00  0.00     0.034 C 
BRANCH  11  12
ATOM     12  C   UNL     1      22.052  28.823  30.212  1.00  0.00    -0.077 C 
ATOM     13  C   UNL     1      21.275  27.832  29.720  1.00  0.00    -0.028 C 
ATOM     14  C   UNL     1      23.449  29.056  29.689  1.00  0.00     0.039 C 
BRANCH  13  15
ATOM     15  C   UNL     1      21.735  26.883  28.638  1.00  0.00     0.035 C 
BRANCH  15  16
ATOM     16  C   UNL     1      21.023  25.526  28.721  1.00  0.00     0.079 C 
BRANCH  16  17
ATOM     17  C   UNL     1      20.226  25.237  27.474  1.00  0.00     0.130 C 
ATOM     18  O   UNL     1      19.336  26.004  27.137  1.00  0.00    -0.300 OA
ATOM     19  C   UNL     1      20.507  24.029  26.629  1.00  0.00     0.087 C 
ENDBRANCH  16  17
ENDBRANCH  15  16
ENDBRANCH  13  15
ENDBRANCH  11  12
ENDBRANCH   1  11
TORSDOF 9
ENDMDL
MODEL 7
REMARK VINA RESULT:    -5.326      4.493      7.693
REMARK INTER + INTRA:          -9.473
REMARK INTER:                  -7.680
REMARK INTRA:                  -1.793
REMARK UNBOUND:                -1.345
REMARK SMILES CC(=O)CCC=C(C)CCC=C(C)CCC=C(C)C
REMARK SMILES IDX 10 1 11 2 12 3 13 4 14 5 15 6 16 7 18 8 17 9 19 10 9 11 7 12
REMARK SMILES IDX 6 13 8 14 5 15 4 16 2 17 3 18 1 19
REMARK H PARENT
REMARK Flexibility Score: inf
ROOT
ATOM      1  C   UNL     1      17.747  32.797  29.010  1.00  0.00     0.032 C 
ENDROOT
BRANCH   1   2
ATOM      2  C   UNL     1      18.132  31.336  28.951  1.00  0.00    -0.028 C 
ATOM      3  C   UNL     1      18.778  30.665  29.932  1.00  0.00    -0.077 C 
ATOM      4  C   UNL     1      19.190  31.333  31.221  1.00  0.00     0.039 C 
BRANCH   3   5
ATOM      5  C   UNL     1      19.101  29.199  29.731  1.00  0.00     0.034 C 
BRANCH   5   6
ATOM      6  C   UNL     1      19.087  28.811  28.247  1.00  0.00     0.032 C 
BRANCH   6   7
ATOM      7  C   UNL     1      18.045  27.750  27.972  1.00  0.00    -0.028 C 
ATOM      8  C   UNL     1      17.136  25.492  27.645  1.00  0.00     0.039 C 
ATOM      9  C   UNL     1      18.296  26.426  27.873  1.00  0.00    -0.080 C 
ATOM     10  C   UNL     1      19.690  25.864  27.990  1.00  0.00     0.039 C 
ENDBRANCH   6   7
ENDBRANCH   5   6
ENDBRANCH   3   5
ENDBRANCH   1   2
BRANCH   1  11
ATOM     11  C   UNL     1      16.226  32.973  29.112  1.00  0.00     0.034 C 
BRANCH  11  12
ATOM     12  C   UNL     1      15.601  31.986  30.076  1.00  0.00    -0.077 C 
ATOM     13  C   UNL     1      15.092  30.828  29.599  1.00  0.00    -0.028 C 
ATOM     14  C   UNL     1      15.566  32.307  31.551  1.00  0.00     0.039 C 
BRANCH  13  15
ATOM     15  C   UNL     1      14.443  29.786  30.479  1.00  0.00     0.035 C 
BRANCH  15  16
ATOM     16  C   UNL     1      15.398  28.630  30.805  1.00  0.00     0.079 C 
BRANCH  16  17
ATOM     17  C   UNL     1      14.987  27.355  30.112  1.00  0.00     0.130 C 
ATOM     18  O   UNL     1      14.496  27.408  28.995  1.00  0.00    -0.300 OA
ATOM     19  C   UNL     1      15.178  26.016  30.762  1.00  0.00     0.087 C 
ENDBRANCH  16  17
ENDBRANCH  15  16
ENDBRANCH  13  15
ENDBRANCH  11  12
ENDBRANCH   1  11
TORSDOF 9
ENDMDL
MODEL 8
REMARK VINA RESULT:    -5.325      4.636      8.276
REMARK INTER + INTRA:          -9.472
REMARK INTER:                  -7.778
REMARK INTRA:                  -1.694
REMARK UNBOUND:                -1.345
REMARK SMILES CC(=O)CCC=C(C)CCC=C(C)CCC=C(C)C
REMARK SMILES IDX 10 1 11 2 12 3 13 4 14 5 15 6 16 7 18 8 17 9 19 10 9 11 7 12
REMARK SMILES IDX 6 13 8 14 5 15 4 16 2 17 3 18 1 19
REMARK H PARENT
REMARK Flexibility Score: inf
ROOT
ATOM      1  C   UNL     1      19.286  29.398  29.095  1.00  0.00     0.032 C 
ENDROOT
BRANCH   1   2
ATOM      2  C   UNL     1      18.630  30.709  28.728  1.00  0.00    -0.028 C 
ATOM      3  C   UNL     1      18.650  31.827  29.490  1.00  0.00    -0.077 C 
ATOM      4  C   UNL     1      19.354  31.871  30.824  1.00  0.00     0.039 C 
BRANCH   3   5
ATOM      5  C   UNL     1      17.945  33.070  28.992  1.00  0.00     0.034 C 
BRANCH   5   6
ATOM      6  C   UNL     1      16.449  32.823  28.761  1.00  0.00     0.032 C 
BRANCH   6   7
ATOM      7  C   UNL     1      15.721  32.621  30.070  1.00  0.00    -0.028 C 
ATOM      8  C   UNL     1      14.436  31.435  31.794  1.00  0.00     0.039 C 
ATOM      9  C   UNL     1      15.069  31.493  30.428  1.00  0.00    -0.080 C 
ATOM     10  C   UNL     1      14.967  30.302  29.510  1.00  0.00     0.039 C 
ENDBRANCH   6   7
ENDBRANCH   5   6
ENDBRANCH   3   5
ENDBRANCH   1   2
BRANCH   1  11
ATOM     11  C   UNL     1      18.309  28.464  29.821  1.00  0.00     0.034 C 
BRANCH  11  12
ATOM     12  C   UNL     1      17.591  27.535  28.863  1.00  0.00    -0.077 C 
ATOM     13  C   UNL     1      16.410  26.991  29.231  1.00  0.00    -0.028 C 
ATOM     14  C   UNL     1      18.202  27.241  27.514  1.00  0.00     0.039 C 
BRANCH  13  15
ATOM     15  C   UNL     1      15.624  26.048  28.348  1.00  0.00     0.035 C 
BRANCH  15  16
ATOM     16  C   UNL     1      15.334  24.712  29.046  1.00  0.00     0.079 C 
BRANCH  16  17
ATOM     17  C   UNL     1      15.417  23.552  28.086  1.00  0.00     0.130 C 
ATOM     18  O   UNL     1      15.308  22.411  28.510  1.00  0.00    -0.300 OA
ATOM     19  C   UNL     1      15.621  23.768  26.616  1.00  0.00     0.087 C 
ENDBRANCH  16  17
ENDBRANCH  15  16
ENDBRANCH  13  15
ENDBRANCH  11  12
ENDBRANCH   1  11
TORSDOF 9
ENDMDL
MODEL 9
REMARK VINA RESULT:    -5.246      4.321      7.611
REMARK INTER + INTRA:          -9.352
REMARK INTER:                  -7.388
REMARK INTRA:                  -1.964
REMARK UNBOUND:                -1.345
REMARK SMILES CC(=O)CCC=C(C)CCC=C(C)CCC=C(C)C
REMARK SMILES IDX 10 1 11 2 12 3 13 4 14 5 15 6 16 7 18 8 17 9 19 10 9 11 7 12
REMARK SMILES IDX 6 13 8 14 5 15 4 16 2 17 3 18 1 19
REMARK H PARENT
REMARK Flexibility Score: inf
ROOT
ATOM      1  C   UNL     1      14.656  29.833  30.407  1.00  0.00     0.032 C 
ENDROOT
BRANCH   1   2
ATOM      2  C   UNL     1      15.296  30.892  29.539  1.00  0.00    -0.028 C 
ATOM      3  C   UNL     1      15.772  32.077  29.986  1.00  0.00    -0.077 C 
ATOM      4  C   UNL     1      15.707  32.465  31.443  1.00  0.00     0.039 C 
BRANCH   3   5
ATOM      5  C   UNL     1      16.387  33.043  28.997  1.00  0.00     0.034 C 
BRANCH   5   6
ATOM      6  C   UNL     1      17.826  33.412  29.380  1.00  0.00     0.032 C 
BRANCH   6   7
ATOM      7  C   UNL     1      18.776  32.273  29.087  1.00  0.00    -0.028 C 
ATOM      8  C   UNL     1      20.341  30.442  29.566  1.00  0.00     0.039 C 
ATOM      9  C   UNL     1      19.472  31.586  30.019  1.00  0.00    -0.080 C 
ATOM     10  C   UNL     1      19.397  31.926  31.486  1.00  0.00     0.039 C 
ENDBRANCH   6   7
ENDBRANCH   5   6
ENDBRANCH   3   5
ENDBRANCH   1   2
BRANCH   1  11
ATOM     11  C   UNL     1      15.041  28.421  29.946  1.00  0.00     0.034 C 
BRANCH  11  12
ATOM     12  C   UNL     1      16.543  28.232  29.880  1.00  0.00    -0.077 C 
ATOM     13  C   UNL     1      17.099  27.749  28.747  1.00  0.00    -0.028 C 
ATOM     14  C   UNL     1      17.392  28.596  31.075  1.00  0.00     0.039 C 
BRANCH  13  15
ATOM     15  C   UNL     1      18.584  27.520  28.587  1.00  0.00     0.035 C 
BRANCH  15  16
ATOM     16  C   UNL     1      18.890  26.376  27.612  1.00  0.00     0.079 C 
BRANCH  16  17
ATOM     17  C   UNL     1      20.034  25.521  28.096  1.00  0.00     0.130 C 
ATOM     18  O   UNL     1      20.192  24.404  27.626  1.00  0.00    -0.300 OA
ATOM     19  C   UNL     1      20.993  26.016  29.138  1.00  0.00     0.087 C 
ENDBRANCH  16  17
ENDBRANCH  15  16
ENDBRANCH  13  15
ENDBRANCH  11  12
ENDBRANCH   1  11
TORSDOF 9
ENDMDL
