MODEL 1
REMARK VINA RESULT:    -4.200      0.000      0.000
REMARK INTER + INTRA:          -6.076
REMARK INTER:                  -5.673
REMARK INTRA:                  -0.403
REMARK UNBOUND:                -0.403
REMARK SMILES CCCCCCCC(=O)[O-]
REMARK SMILES IDX 5 1 6 2 7 3 8 4 9 5 10 6 4 7 3 8 2 9 1 10
REMARK H PARENT
REMARK Flexibility Score: inf
ROOT
ATOM      1  C   UNL     1       3.240 -21.706   9.637  1.00  0.00     0.000 C 
ENDROOT
BRANCH   1   2
ATOM      2  C   UNL     1       1.979 -22.579   9.539  1.00  0.00     0.006 C 
BRANCH   2   3
ATOM      3  C   UNL     1       2.066 -23.616   8.410  1.00  0.00     0.053 C 
BRANCH   3   4
ATOM      4  C   UNL     1       3.410 -24.271   8.405  1.00  0.00     0.041 C 
ATOM      5  O   UNL     1       4.054 -24.389   7.330  1.00  0.00    -0.550 OA
ATOM      6  O   UNL     1       3.932 -24.795   9.581  1.00  0.00    -0.550 OA
ENDBRANCH   3   4
ENDBRANCH   2   3
ENDBRANCH   1   2
BRANCH   1   7
ATOM      7  C   UNL     1       3.245 -20.559   8.613  1.00  0.00     0.000 C 
BRANCH   7   8
ATOM      8  C   UNL     1       4.125 -20.863   7.389  1.00  0.00    -0.000 C 
BRANCH   8   9
ATOM      9  C   UNL     1       3.305 -21.048   6.104  1.00  0.00    -0.003 C 
ATOM     10  C   UNL     1       1.851 -20.637   6.317  1.00  0.00     0.004 C 
ENDBRANCH   8   9
ENDBRANCH   7   8
ENDBRANCH   1   7
TORSDOF 6
ENDMDL
MODEL 2
REMARK VINA RESULT:    -3.514     19.124     20.043
REMARK INTER + INTRA:          -5.149
REMARK INTER:                  -4.947
REMARK INTRA:                  -0.203
REMARK UNBOUND:                -0.403
REMARK SMILES CCCCCCCC(=O)[O-]
REMARK SMILES IDX 5 1 6 2 7 3 8 4 9 5 10 6 4 7 3 8 2 9 1 10
REMARK H PARENT
REMARK Flexibility Score: inf
ROOT
ATOM      1  C   UNL     1      -3.906  -8.237  18.053  1.00  0.00     0.000 C 
ENDROOT
BRANCH   1   2
ATOM      2  C   UNL     1      -2.980  -7.976  19.251  1.00  0.00     0.006 C 
BRANCH   2   3
ATOM      3  C   UNL     1      -2.126  -6.713  19.074  1.00  0.00     0.053 C 
BRANCH   3   4
ATOM      4  C   UNL     1      -1.369  -6.415  20.328  1.00  0.00     0.041 C 
ATOM      5  O   UNL     1      -1.110  -5.224  20.645  1.00  0.00    -0.550 OA
ATOM      6  O   UNL     1      -0.906  -7.455  21.125  1.00  0.00    -0.550 OA
ENDBRANCH   3   4
ENDBRANCH   2   3
ENDBRANCH   1   2
BRANCH   1   7
ATOM      7  C   UNL     1      -5.325  -8.648  18.482  1.00  0.00     0.000 C 
BRANCH   7   8
ATOM      8  C   UNL     1      -5.321  -9.728  19.576  1.00  0.00    -0.000 C 
BRANCH   8   9
ATOM      9  C   UNL     1      -6.736 -10.190  19.954  1.00  0.00    -0.003 C 
ATOM     10  C   UNL     1      -7.746  -9.799  18.879  1.00  0.00     0.004 C 
ENDBRANCH   8   9
ENDBRANCH   7   8
ENDBRANCH   1   7
TORSDOF 6
ENDMDL
MODEL 3
REMARK VINA RESULT:    -3.384      2.464      4.083
REMARK INTER + INTRA:          -4.974
REMARK INTER:                  -4.929
REMARK INTRA:                  -0.045
REMARK UNBOUND:                -0.403
REMARK SMILES CCCCCCCC(=O)[O-]
REMARK SMILES IDX 5 1 6 2 7 3 8 4 9 5 10 6 4 7 3 8 2 9 1 10
REMARK H PARENT
REMARK Flexibility Score: inf
ROOT
ATOM      1  C   UNL     1       3.178 -23.697   8.290  1.00  0.00     0.000 C 
ENDROOT
BRANCH   1   2
ATOM      2  C   UNL     1       3.964 -23.155   7.085  1.00  0.00     0.006 C 
BRANCH   2   3
ATOM      3  C   UNL     1       4.123 -21.629   7.122  1.00  0.00     0.053 C 
BRANCH   3   4
ATOM      4  C   UNL     1       3.237 -20.987   6.102  1.00  0.00     0.041 C 
ATOM      5  O   UNL     1       2.112 -20.531   6.436  1.00  0.00    -0.550 OA
ATOM      6  O   UNL     1       3.633 -20.936   4.772  1.00  0.00    -0.550 OA
ENDBRANCH   3   4
ENDBRANCH   2   3
ENDBRANCH   1   2
BRANCH   1   7
ATOM      7  C   UNL     1       4.044 -23.811   9.556  1.00  0.00     0.000 C 
BRANCH   7   8
ATOM      8  C   UNL     1       3.716 -22.727  10.596  1.00  0.00    -0.000 C 
BRANCH   8   9
ATOM      9  C   UNL     1       2.480 -21.899  10.215  1.00  0.00    -0.003 C 
ATOM     10  C   UNL     1       1.194 -22.618  10.613  1.00  0.00     0.004 C 
ENDBRANCH   8   9
ENDBRANCH   7   8
ENDBRANCH   1   7
TORSDOF 6
ENDMDL
MODEL 4
REMARK VINA RESULT:    -3.237     19.137     19.950
REMARK INTER + INTRA:          -4.775
REMARK INTER:                  -4.672
REMARK INTRA:                  -0.103
REMARK UNBOUND:                -0.403
REMARK SMILES CCCCCCCC(=O)[O-]
REMARK SMILES IDX 5 1 6 2 7 3 8 4 9 5 10 6 4 7 3 8 2 9 1 10
REMARK H PARENT
REMARK Flexibility Score: inf
ROOT
ATOM      1  C   UNL     1      -3.316  -8.111  18.647  1.00  0.00     0.000 C 
ENDROOT
BRANCH   1   2
ATOM      2  C   UNL     1      -4.475  -8.960  19.192  1.00  0.00     0.006 C 
BRANCH   2   3
ATOM      3  C   UNL     1      -5.770  -8.775  18.388  1.00  0.00     0.053 C 
BRANCH   3   4
ATOM      4  C   UNL     1      -6.876  -9.581  18.989  1.00  0.00     0.041 C 
ATOM      5  O   UNL     1      -8.049  -9.480  18.543  1.00  0.00    -0.550 OA
ATOM      6  O   UNL     1      -6.622 -10.410  20.075  1.00  0.00    -0.550 OA
ENDBRANCH   3   4
ENDBRANCH   2   3
ENDBRANCH   1   2
BRANCH   1   7
ATOM      7  C   UNL     1      -2.276  -7.768  19.728  1.00  0.00     0.000 C 
BRANCH   7   8
ATOM      8  C   UNL     1      -1.776  -6.318  19.629  1.00  0.00    -0.000 C 
BRANCH   8   9
ATOM      9  C   UNL     1      -0.862  -5.928  20.799  1.00  0.00    -0.003 C 
ATOM     10  C   UNL     1       0.365  -5.166  20.307  1.00  0.00     0.004 C 
ENDBRANCH   8   9
ENDBRANCH   7   8
ENDBRANCH   1   7
TORSDOF 6
ENDMDL
MODEL 5
REMARK VINA RESULT:    -3.002     17.434     18.821
REMARK INTER + INTRA:          -4.458
REMARK INTER:                  -4.189
REMARK INTRA:                  -0.269
REMARK UNBOUND:                -0.403
REMARK SMILES CCCCCCCC(=O)[O-]
REMARK SMILES IDX 5 1 6 2 7 3 8 4 9 5 10 6 4 7 3 8 2 9 1 10
REMARK H PARENT
REMARK Flexibility Score: inf
ROOT
ATOM      1  C   UNL     1     -14.568 -17.057   4.843  1.00  0.00     0.000 C 
ENDROOT
BRANCH   1   2
ATOM      2  C   UNL     1     -14.997 -15.670   5.347  1.00  0.00     0.006 C 
BRANCH   2   3
ATOM      3  C   UNL     1     -14.228 -14.530   4.666  1.00  0.00     0.053 C 
BRANCH   3   4
ATOM      4  C   UNL     1     -14.225 -13.312   5.533  1.00  0.00     0.041 C 
ATOM      5  O   UNL     1     -13.140 -12.744   5.823  1.00  0.00    -0.550 OA
ATOM      6  O   UNL     1     -15.416 -12.831   6.061  1.00  0.00    -0.550 OA
ENDBRANCH   3   4
ENDBRANCH   2   3
ENDBRANCH   1   2
BRANCH   1   7
ATOM      7  C   UNL     1     -14.520 -18.105   5.967  1.00  0.00     0.000 C 
BRANCH   7   8
ATOM      8  C   UNL     1     -13.326 -19.064   5.830  1.00  0.00    -0.000 C 
BRANCH   8   9
ATOM      9  C   UNL     1     -12.376 -18.664   4.691  1.00  0.00    -0.003 C 
ATOM     10  C   UNL     1     -10.950 -18.488   5.203  1.00  0.00     0.004 C 
ENDBRANCH   8   9
ENDBRANCH   7   8
ENDBRANCH   1   7
TORSDOF 6
ENDMDL
MODEL 6
REMARK VINA RESULT:    -2.937     16.840     18.178
REMARK INTER + INTRA:          -4.370
REMARK INTER:                  -4.157
REMARK INTRA:                  -0.213
REMARK UNBOUND:                -0.403
REMARK SMILES CCCCCCCC(=O)[O-]
REMARK SMILES IDX 5 1 6 2 7 3 8 4 9 5 10 6 4 7 3 8 2 9 1 10
REMARK H PARENT
REMARK Flexibility Score: inf
ROOT
ATOM      1  C   UNL     1     -14.157 -15.320   4.412  1.00  0.00     0.000 C 
ENDROOT
BRANCH   1   2
ATOM      2  C   UNL     1     -14.183 -16.842   4.624  1.00  0.00     0.006 C 
BRANCH   2   3
ATOM      3  C   UNL     1     -12.978 -17.547   3.986  1.00  0.00     0.053 C 
BRANCH   3   4
ATOM      4  C   UNL     1     -12.311 -18.443   4.981  1.00  0.00     0.041 C 
ATOM      5  O   UNL     1     -11.055 -18.512   5.029  1.00  0.00    -0.550 OA
ATOM      6  O   UNL     1     -13.077 -19.238   5.824  1.00  0.00    -0.550 OA
ENDBRANCH   3   4
ENDBRANCH   2   3
ENDBRANCH   1   2
BRANCH   1   7
ATOM      7  C   UNL     1     -15.021 -14.567   5.438  1.00  0.00     0.000 C 
BRANCH   7   8
ATOM      8  C   UNL     1     -14.725 -13.059   5.466  1.00  0.00    -0.000 C 
BRANCH   8   9
ATOM      9  C   UNL     1     -13.221 -12.754   5.535  1.00  0.00    -0.003 C 
ATOM     10  C   UNL     1     -12.795 -11.828   4.400  1.00  0.00     0.004 C 
ENDBRANCH   8   9
ENDBRANCH   7   8
ENDBRANCH   1   7
TORSDOF 6
ENDMDL
MODEL 7
REMARK VINA RESULT:    -2.872     17.300     18.726
REMARK INTER + INTRA:          -4.283
REMARK INTER:                  -4.012
REMARK INTRA:                  -0.270
REMARK UNBOUND:                -0.403
REMARK SMILES CCCCCCCC(=O)[O-]
REMARK SMILES IDX 5 1 6 2 7 3 8 4 9 5 10 6 4 7 3 8 2 9 1 10
REMARK H PARENT
REMARK Flexibility Score: inf
ROOT
ATOM      1  C   UNL     1     -14.472 -16.890   5.007  1.00  0.00     0.000 C 
ENDROOT
BRANCH   1   2
ATOM      2  C   UNL     1     -14.973 -15.485   5.377  1.00  0.00     0.006 C 
BRANCH   2   3
ATOM      3  C   UNL     1     -14.235 -14.376   4.616  1.00  0.00     0.053 C 
BRANCH   3   4
ATOM      4  C   UNL     1     -14.129 -13.146   5.460  1.00  0.00     0.041 C 
ATOM      5  O   UNL     1     -15.123 -12.388   5.603  1.00  0.00    -0.550 OA
ATOM      6  O   UNL     1     -12.917 -12.809   6.050  1.00  0.00    -0.550 OA
ENDBRANCH   3   4
ENDBRANCH   2   3
ENDBRANCH   1   2
BRANCH   1   7
ATOM      7  C   UNL     1     -13.445 -16.868   3.863  1.00  0.00     0.000 C 
BRANCH   7   8
ATOM      8  C   UNL     1     -12.744 -18.223   3.671  1.00  0.00    -0.000 C 
BRANCH   8   9
ATOM      9  C   UNL     1     -12.228 -18.812   4.992  1.00  0.00    -0.003 C 
ATOM     10  C   UNL     1     -10.766 -18.440   5.224  1.00  0.00     0.004 C 
ENDBRANCH   8   9
ENDBRANCH   7   8
ENDBRANCH   1   7
TORSDOF 6
ENDMDL
MODEL 8
REMARK VINA RESULT:    -2.817     16.874     18.083
REMARK INTER + INTRA:          -4.208
REMARK INTER:                  -3.747
REMARK INTRA:                  -0.462
REMARK UNBOUND:                -0.403
REMARK SMILES CCCCCCCC(=O)[O-]
REMARK SMILES IDX 5 1 6 2 7 3 8 4 9 5 10 6 4 7 3 8 2 9 1 10
REMARK H PARENT
REMARK Flexibility Score: inf
ROOT
ATOM      1  C   UNL     1     -14.971 -18.001   6.845  1.00  0.00     0.000 C 
ENDROOT
BRANCH   1   2
ATOM      2  C   UNL     1     -14.574 -18.883   5.651  1.00  0.00     0.006 C 
BRANCH   2   3
ATOM      3  C   UNL     1     -13.131 -19.395   5.750  1.00  0.00     0.053 C 
BRANCH   3   4
ATOM      4  C   UNL     1     -12.209 -18.506   4.977  1.00  0.00     0.041 C 
ATOM      5  O   UNL     1     -12.618 -17.909   3.948  1.00  0.00    -0.550 OA
ATOM      6  O   UNL     1     -10.881 -18.375   5.366  1.00  0.00    -0.550 OA
ENDBRANCH   3   4
ENDBRANCH   2   3
ENDBRANCH   1   2
BRANCH   1   7
ATOM      7  C   UNL     1     -15.898 -16.842   6.440  1.00  0.00     0.000 C 
BRANCH   7   8
ATOM      8  C   UNL     1     -15.613 -16.326   5.020  1.00  0.00    -0.000 C 
BRANCH   8   9
ATOM      9  C   UNL     1     -14.606 -15.168   5.005  1.00  0.00    -0.003 C 
ATOM     10  C   UNL     1     -14.267 -14.754   3.576  1.00  0.00     0.004 C 
ENDBRANCH   8   9
ENDBRANCH   7   8
ENDBRANCH   1   7
TORSDOF 6
ENDMDL
MODEL 9
REMARK VINA RESULT:    -1.463      2.146      3.760
REMARK INTER + INTRA:          -2.379
REMARK INTER:                  -1.904
REMARK INTRA:                  -0.475
REMARK UNBOUND:                -0.403
REMARK SMILES CCCCCCCC(=O)[O-]
REMARK SMILES IDX 5 1 6 2 7 3 8 4 9 5 10 6 4 7 3 8 2 9 1 10
REMARK H PARENT
REMARK Flexibility Score: inf
ROOT
ATOM      1  C   UNL     1       2.568 -22.414   9.864  1.00  0.00     0.000 C 
ENDROOT
BRANCH   1   2
ATOM      2  C   UNL     1       2.482 -21.044   9.173  1.00  0.00     0.006 C 
BRANCH   2   3
ATOM      3  C   UNL     1       3.616 -20.821   8.163  1.00  0.00     0.053 C 
BRANCH   3   4
ATOM      4  C   UNL     1       3.104 -20.958   6.765  1.00  0.00     0.041 C 
ATOM      5  O   UNL     1       3.854 -21.400   5.856  1.00  0.00    -0.550 OA
ATOM      6  O   UNL     1       1.812 -20.551   6.454  1.00  0.00    -0.550 OA
ENDBRANCH   3   4
ENDBRANCH   2   3
ENDBRANCH   1   2
BRANCH   1   7
ATOM      7  C   UNL     1       4.015 -22.915  10.003  1.00  0.00     0.000 C 
BRANCH   7   8
ATOM      8  C   UNL     1       4.125 -24.444   9.887  1.00  0.00    -0.000 C 
BRANCH   8   9
ATOM      9  C   UNL     1       3.436 -24.990   8.628  1.00  0.00    -0.003 C 
ATOM     10  C   UNL     1       4.124 -24.487   7.362  1.00  0.00     0.004 C 
ENDBRANCH   8   9
ENDBRANCH   7   8
ENDBRANCH   1   7
TORSDOF 6
ENDMDL
