MODEL 1
REMARK VINA RESULT:    16.842      0.000      0.000
REMARK INTER + INTRA:          25.888
REMARK INTER:                  23.734
REMARK INTRA:                   2.154
REMARK UNBOUND:                 2.154
REMARK SMILES C=C(CC[C@@H](C(=O)[O-])[C@H]1[C@H](O)C[C@@]2(C)C3=C(CC[C@@]12C)[C@]1(C)CC[C@H](O)C(C)(C)[C@@H]1CC3)C(C)C
REMARK SMILES IDX 4 1 5 2 6 3 7 4 8 5 9 6 10 7 19 8 12 9 13 10 18 11 20 12
REMARK SMILES IDX 14 13 15 14 17 15 16 16 32 17 21 18 31 19 30 20 23 21 22 22
REMARK SMILES IDX 27 23 24 24 25 25 28 26 29 27 11 28 26 30 3 32 2 33 1 34
REMARK SMILES IDX 33 35 34 36 35 37
REMARK H PARENT 11 29 26 31
REMARK Flexibility Score: inf
ROOT
ATOM      1  C   UNL     1       6.040 -34.236  15.742  1.00  0.00     0.014 C 
ENDROOT
BRANCH   1   2
ATOM      2  C   UNL     1       6.584 -34.359  17.191  1.00  0.00     0.042 C 
BRANCH   2   3
ATOM      3  C   UNL     1       7.306 -35.674  17.349  1.00  0.00     0.045 C 
ATOM      4  O   UNL     1       7.939 -36.163  16.376  1.00  0.00    -0.550 OA
ATOM      5  O   UNL     1       7.340 -36.326  18.576  1.00  0.00    -0.550 OA
ENDBRANCH   2   3
BRANCH   2   6
ATOM      6  C   UNL     1       7.451 -33.135  17.659  1.00  0.00     0.033 C 
ATOM      7  C   UNL     1       8.623 -33.563  18.568  1.00  0.00     0.119 C 
ATOM      8  C   UNL     1       8.111 -32.251  16.542  1.00  0.00    -0.017 C 
ATOM      9  C   UNL     1       9.797 -32.624  18.274  1.00  0.00     0.043 C 
ATOM     10  C   UNL     1       9.304 -31.549  17.283  1.00  0.00    -0.003 C 
ATOM     11  C   UNL     1       8.679 -33.129  15.399  1.00  0.00     0.012 C 
ATOM     12  C   UNL     1       7.096 -31.230  15.949  1.00  0.00     0.013 C 
ATOM     13  C   UNL     1       8.814 -30.311  18.098  1.00  0.00     0.017 C 
ATOM     14  C   UNL     1      10.486 -31.121  16.372  1.00  0.00    -0.064 C 
ATOM     15  C   UNL     1       9.474 -32.296  14.405  1.00  0.00     0.032 C 
ATOM     16  C   UNL     1      10.580 -31.474  15.052  1.00  0.00    -0.064 C 
ATOM     17  C   UNL     1      11.594 -30.331  17.034  1.00  0.00     0.032 C 
ATOM     18  C   UNL     1      11.815 -31.123  14.163  1.00  0.00    -0.008 C 
ATOM     19  C   UNL     1      12.938 -30.507  16.353  1.00  0.00     0.009 C 
ATOM     20  C   UNL     1      12.823 -30.119  14.863  1.00  0.00     0.007 C 
ATOM     21  C   UNL     1      12.526 -32.475  13.800  1.00  0.00     0.014 C 
ATOM     22  C   UNL     1      11.255 -30.450  12.875  1.00  0.00     0.016 C 
ATOM     23  C   UNL     1      14.236 -29.923  14.115  1.00  0.00    -0.006 C 
ATOM     24  C   UNL     1      14.057 -32.430  13.720  1.00  0.00     0.033 C 
ATOM     25  C   UNL     1      14.553 -31.113  13.139  1.00  0.00     0.120 C 
ATOM     26  C   UNL     1      15.421 -29.752  15.115  1.00  0.00     0.014 C 
ATOM     27  C   UNL     1      14.203 -28.606  13.293  1.00  0.00     0.014 C 
BRANCH   7  28
ATOM     28  O   UNL     1       8.248 -33.471  19.920  1.00  0.00    -0.393 OA
ATOM     29  H   UNL     1       7.666 -32.671  20.000  1.00  0.00     0.210 HD
ENDBRANCH   7  28
BRANCH  25  30
ATOM     30  O   UNL     1      15.931 -31.232  12.877  1.00  0.00    -0.393 OA
ATOM     31  H   UNL     1      16.026 -31.759  12.042  1.00  0.00     0.210 HD
ENDBRANCH  25  30
ENDBRANCH   2   6
ENDBRANCH   1   2
BRANCH   1  32
ATOM     32  C   UNL     1       6.334 -35.440  14.830  1.00  0.00     0.031 C 
BRANCH  32  33
ATOM     33  C   UNL     1       6.887 -34.972  13.501  1.00  0.00    -0.075 C 
ATOM     34  C   UNL     1       6.321 -33.918  12.886  1.00  0.00     0.008 C 
BRANCH  33  35
ATOM     35  C   UNL     1       8.061 -35.711  12.875  1.00  0.00     0.008 C 
ATOM     36  C   UNL     1       9.366 -34.918  13.025  1.00  0.00     0.012 C 
ATOM     37  C   UNL     1       8.201 -37.124  13.456  1.00  0.00     0.012 C 
ENDBRANCH  33  35
ENDBRANCH  32  33
ENDBRANCH   1  32
TORSDOF 8
ENDMDL
