MODEL 1
REMARK VINA RESULT:    -8.470      0.000      0.000
REMARK INTER + INTRA:         -13.117
REMARK INTER:                 -11.440
REMARK INTRA:                  -1.676
REMARK UNBOUND:                -1.676
REMARK SMILES CC[C@@H](CC[C@H](C)[C@@H]1CC[C@@H]2[C@@H]3CC(=O)C4=CC(=O)CC[C@]4(C)[C@H]3CC[C@]21C)C(C)C
REMARK SMILES IDX 4 1 3 2 2 3 1 4 29 5 30 6 31 7 5 8 6 9 7 10 8 11 9 12 27 13
REMARK SMILES IDX 10 14 11 15 26 16 28 17 12 18 25 19 24 20 13 21 22 22 14 23
REMARK SMILES IDX 16 24 21 25 23 26 15 27 17 28 20 29 18 30 19 31
REMARK H PARENT
REMARK Flexibility Score: inf
ROOT
ATOM      1  C   UNL     1      24.359  54.028   6.948  1.00  0.00     0.004 C 
ENDROOT
BRANCH   1   2
ATOM      2  C   UNL     1      25.273  55.285   6.952  1.00  0.00    -0.009 C 
BRANCH   2   3
ATOM      3  C   UNL     1      24.935  56.170   8.195  1.00  0.00     0.000 C 
ATOM      4  C   UNL     1      23.560  55.865   8.803  1.00  0.00     0.004 C 
ENDBRANCH   2   3
BRANCH   2   5
ATOM      5  C   UNL     1      25.238  56.064   5.589  1.00  0.00    -0.014 C 
ATOM      6  C   UNL     1      26.373  55.654   4.641  1.00  0.00     0.007 C 
ATOM      7  C   UNL     1      25.213  57.598   5.739  1.00  0.00     0.007 C 
ENDBRANCH   2   5
ENDBRANCH   1   2
BRANCH   1   8
ATOM      8  C   UNL     1      25.017  52.705   7.400  1.00  0.00     0.004 C 
BRANCH   8   9
ATOM      9  C   UNL     1      26.112  52.886   8.494  1.00  0.00    -0.011 C 
ATOM     10  C   UNL     1      27.479  52.351   8.009  1.00  0.00     0.008 C 
BRANCH   9  11
ATOM     11  C   UNL     1      25.632  52.413   9.918  1.00  0.00    -0.002 C 
ATOM     12  C   UNL     1      24.085  52.432  10.087  1.00  0.00     0.005 C 
ATOM     13  C   UNL     1      26.196  53.030  11.248  1.00  0.00    -0.026 C 
ATOM     14  C   UNL     1      23.800  52.697  11.573  1.00  0.00     0.005 C 
ATOM     15  C   UNL     1      25.149  52.491  12.243  1.00  0.00    -0.001 C 
ATOM     16  C   UNL     1      27.602  52.491  11.689  1.00  0.00     0.007 C 
ATOM     17  C   UNL     1      26.192  54.586  11.174  1.00  0.00     0.012 C 
ATOM     18  C   UNL     1      25.345  52.872  13.741  1.00  0.00     0.004 C 
ATOM     19  C   UNL     1      27.754  52.217  13.218  1.00  0.00     0.005 C 
ATOM     20  C   UNL     1      26.846  53.133  14.084  1.00  0.00     0.003 C 
ATOM     21  C   UNL     1      24.472  54.010  14.277  1.00  0.00     0.085 C 
ATOM     22  C   UNL     1      27.107  53.107  15.637  1.00  0.00    -0.000 C 
ATOM     23  C   UNL     1      24.714  54.187  15.750  1.00  0.00     0.159 C 
ATOM     24  C   UNL     1      26.078  54.022  16.328  1.00  0.00     0.005 C 
ATOM     25  C   UNL     1      28.546  53.645  15.929  1.00  0.00     0.020 C 
ATOM     26  C   UNL     1      26.973  51.676  16.222  1.00  0.00     0.017 C 
ATOM     27  O   UNL     1      23.740  54.493  16.496  1.00  0.00    -0.295 OA
ATOM     28  C   UNL     1      26.373  54.646  17.485  1.00  0.00     0.055 C 
ATOM     29  C   UNL     1      28.827  53.840  17.425  1.00  0.00     0.081 C 
ATOM     30  C   UNL     1      27.713  54.583  18.093  1.00  0.00     0.156 C 
ATOM     31  O   UNL     1      27.922  55.152  19.195  1.00  0.00    -0.295 OA
ENDBRANCH   9  11
ENDBRANCH   8   9
ENDBRANCH   1   8
TORSDOF 6
ENDMDL
MODEL 2
REMARK VINA RESULT:    -8.331      2.085      3.811
REMARK INTER + INTRA:         -12.930
REMARK INTER:                 -11.536
REMARK INTRA:                  -1.394
REMARK UNBOUND:                -1.676
REMARK SMILES CC[C@@H](CC[C@H](C)[C@@H]1CC[C@@H]2[C@@H]3CC(=O)C4=CC(=O)CC[C@]4(C)[C@H]3CC[C@]21C)C(C)C
REMARK SMILES IDX 4 1 3 2 2 3 1 4 29 5 30 6 31 7 5 8 6 9 7 10 8 11 9 12 27 13
REMARK SMILES IDX 10 14 11 15 26 16 28 17 12 18 25 19 24 20 13 21 22 22 14 23
REMARK SMILES IDX 16 24 21 25 23 26 15 27 17 28 20 29 18 30 19 31
REMARK H PARENT
REMARK Flexibility Score: inf
ROOT
ATOM      1  C   UNL     1      24.677  55.700   7.743  1.00  0.00     0.004 C 
ENDROOT
BRANCH   1   2
ATOM      2  C   UNL     1      25.708  55.009   6.806  1.00  0.00    -0.009 C 
BRANCH   2   3
ATOM      3  C   UNL     1      25.645  55.665   5.389  1.00  0.00     0.000 C 
ATOM      4  C   UNL     1      25.288  57.157   5.424  1.00  0.00     0.004 C 
ENDBRANCH   2   3
BRANCH   2   5
ATOM      5  C   UNL     1      25.560  53.446   6.790  1.00  0.00    -0.014 C 
ATOM      6  C   UNL     1      24.106  52.985   6.955  1.00  0.00     0.007 C 
ATOM      7  C   UNL     1      26.459  52.717   7.808  1.00  0.00     0.007 C 
ENDBRANCH   2   5
ENDBRANCH   1   2
BRANCH   1   8
ATOM      8  C   UNL     1      25.092  55.845   9.224  1.00  0.00     0.004 C 
BRANCH   8   9
ATOM      9  C   UNL     1      24.471  54.767  10.162  1.00  0.00    -0.011 C 
ATOM     10  C   UNL     1      22.948  54.639   9.935  1.00  0.00     0.008 C 
BRANCH   9  11
ATOM     11  C   UNL     1      24.955  54.912  11.656  1.00  0.00    -0.002 C 
ATOM     12  C   UNL     1      25.557  56.310  11.978  1.00  0.00     0.005 C 
ATOM     13  C   UNL     1      25.927  53.881  12.333  1.00  0.00    -0.026 C 
ATOM     14  C   UNL     1      26.600  56.103  13.086  1.00  0.00     0.005 C 
ATOM     15  C   UNL     1      26.328  54.691  13.581  1.00  0.00    -0.001 C 
ATOM     16  C   UNL     1      25.255  52.549  12.818  1.00  0.00     0.007 C 
ATOM     17  C   UNL     1      27.145  53.588  11.405  1.00  0.00     0.012 C 
ATOM     18  C   UNL     1      27.315  54.006  14.574  1.00  0.00     0.004 C 
ATOM     19  C   UNL     1      25.744  52.030  14.206  1.00  0.00     0.005 C 
ATOM     20  C   UNL     1      27.207  52.449  14.521  1.00  0.00     0.003 C 
ATOM     21  C   UNL     1      28.781  54.440  14.490  1.00  0.00     0.085 C 
ATOM     22  C   UNL     1      27.872  51.771  15.777  1.00  0.00    -0.000 C 
ATOM     23  C   UNL     1      29.576  53.760  15.570  1.00  0.00     0.159 C 
ATOM     24  C   UNL     1      29.286  52.352  15.964  1.00  0.00     0.005 C 
ATOM     25  C   UNL     1      27.981  50.230  15.536  1.00  0.00     0.020 C 
ATOM     26  C   UNL     1      27.054  52.024  17.071  1.00  0.00     0.017 C 
ATOM     27  O   UNL     1      30.509  54.400  16.134  1.00  0.00    -0.295 OA
ATOM     28  C   UNL     1      30.266  51.621  16.529  1.00  0.00     0.055 C 
ATOM     29  C   UNL     1      28.789  49.503  16.620  1.00  0.00     0.081 C 
ATOM     30  C   UNL     1      30.081  50.207  16.894  1.00  0.00     0.156 C 
ATOM     31  O   UNL     1      31.018  49.583  17.455  1.00  0.00    -0.295 OA
ENDBRANCH   9  11
ENDBRANCH   8   9
ENDBRANCH   1   8
TORSDOF 6
ENDMDL
MODEL 3
REMARK VINA RESULT:    -8.206      2.222      3.870
REMARK INTER + INTRA:         -12.761
REMARK INTER:                 -10.989
REMARK INTRA:                  -1.772
REMARK UNBOUND:                -1.676
REMARK SMILES CC[C@@H](CC[C@H](C)[C@@H]1CC[C@@H]2[C@@H]3CC(=O)C4=CC(=O)CC[C@]4(C)[C@H]3CC[C@]21C)C(C)C
REMARK SMILES IDX 4 1 3 2 2 3 1 4 29 5 30 6 31 7 5 8 6 9 7 10 8 11 9 12 27 13
REMARK SMILES IDX 10 14 11 15 26 16 28 17 12 18 25 19 24 20 13 21 22 22 14 23
REMARK SMILES IDX 16 24 21 25 23 26 15 27 17 28 20 29 18 30 19 31
REMARK H PARENT
REMARK Flexibility Score: inf
ROOT
ATOM      1  C   UNL     1      24.857  55.661   8.191  1.00  0.00     0.004 C 
ENDROOT
BRANCH   1   2
ATOM      2  C   UNL     1      24.682  54.130   7.978  1.00  0.00    -0.009 C 
BRANCH   2   3
ATOM      3  C   UNL     1      24.859  53.792   6.463  1.00  0.00     0.000 C 
ATOM      4  C   UNL     1      25.603  54.881   5.679  1.00  0.00     0.004 C 
ENDBRANCH   2   3
BRANCH   2   5
ATOM      5  C   UNL     1      23.351  53.579   8.601  1.00  0.00    -0.014 C 
ATOM      6  C   UNL     1      22.541  54.662   9.326  1.00  0.00     0.007 C 
ATOM      7  C   UNL     1      23.544  52.363   9.529  1.00  0.00     0.007 C 
ENDBRANCH   2   5
ENDBRANCH   1   2
BRANCH   1   8
ATOM      8  C   UNL     1      25.959  56.089   9.185  1.00  0.00     0.004 C 
BRANCH   8   9
ATOM      9  C   UNL     1      25.519  56.036  10.678  1.00  0.00    -0.011 C 
ATOM     10  C   UNL     1      25.362  57.458  11.265  1.00  0.00     0.008 C 
BRANCH   9  11
ATOM     11  C   UNL     1      26.366  55.010  11.524  1.00  0.00    -0.002 C 
ATOM     12  C   UNL     1      26.822  53.766  10.710  1.00  0.00     0.005 C 
ATOM     13  C   UNL     1      25.871  54.440  12.902  1.00  0.00    -0.026 C 
ATOM     14  C   UNL     1      26.931  52.597  11.702  1.00  0.00     0.005 C 
ATOM     15  C   UNL     1      26.861  53.270  13.063  1.00  0.00    -0.001 C 
ATOM     16  C   UNL     1      26.057  55.402  14.127  1.00  0.00     0.007 C 
ATOM     17  C   UNL     1      24.395  53.951  12.793  1.00  0.00     0.012 C 
ATOM     18  C   UNL     1      26.725  52.410  14.356  1.00  0.00     0.004 C 
ATOM     19  C   UNL     1      26.554  54.714  15.437  1.00  0.00     0.005 C 
ATOM     20  C   UNL     1      26.114  53.227  15.537  1.00  0.00     0.003 C 
ATOM     21  C   UNL     1      26.005  51.066  14.210  1.00  0.00     0.085 C 
ATOM     22  C   UNL     1      26.352  52.522  16.925  1.00  0.00    -0.000 C 
ATOM     23  C   UNL     1      26.042  50.324  15.517  1.00  0.00     0.159 C 
ATOM     24  C   UNL     1      25.914  51.049  16.814  1.00  0.00     0.005 C 
ATOM     25  C   UNL     1      25.488  53.229  18.020  1.00  0.00     0.020 C 
ATOM     26  C   UNL     1      27.844  52.568  17.349  1.00  0.00     0.017 C 
ATOM     27  O   UNL     1      26.172  49.066  15.500  1.00  0.00    -0.295 OA
ATOM     28  C   UNL     1      25.458  50.378  17.889  1.00  0.00     0.055 C 
ATOM     29  C   UNL     1      25.502  52.496  19.368  1.00  0.00     0.081 C 
ATOM     30  C   UNL     1      25.246  51.032  19.191  1.00  0.00     0.156 C 
ATOM     31  O   UNL     1      24.856  50.349  20.172  1.00  0.00    -0.295 OA
ENDBRANCH   9  11
ENDBRANCH   8   9
ENDBRANCH   1   8
TORSDOF 6
ENDMDL
MODEL 4
REMARK VINA RESULT:    -8.182      3.103      4.669
REMARK INTER + INTRA:         -12.728
REMARK INTER:                 -11.423
REMARK INTRA:                  -1.305
REMARK UNBOUND:                -1.676
REMARK SMILES CC[C@@H](CC[C@H](C)[C@@H]1CC[C@@H]2[C@@H]3CC(=O)C4=CC(=O)CC[C@]4(C)[C@H]3CC[C@]21C)C(C)C
REMARK SMILES IDX 4 1 3 2 2 3 1 4 29 5 30 6 31 7 5 8 6 9 7 10 8 11 9 12 27 13
REMARK SMILES IDX 10 14 11 15 26 16 28 17 12 18 25 19 24 20 13 21 22 22 14 23
REMARK SMILES IDX 16 24 21 25 23 26 15 27 17 28 20 29 18 30 19 31
REMARK H PARENT
REMARK Flexibility Score: inf
ROOT
ATOM      1  C   UNL     1      28.586  57.598  10.610  1.00  0.00     0.004 C 
ENDROOT
BRANCH   1   2
ATOM      2  C   UNL     1      29.300  57.647  11.990  1.00  0.00    -0.009 C 
BRANCH   2   3
ATOM      3  C   UNL     1      29.371  59.126  12.488  1.00  0.00     0.000 C 
ATOM      4  C   UNL     1      28.629  59.359  13.811  1.00  0.00     0.004 C 
ENDBRANCH   2   3
BRANCH   2   5
ATOM      5  C   UNL     1      30.687  56.911  11.982  1.00  0.00    -0.014 C 
ATOM      6  C   UNL     1      31.865  57.868  11.753  1.00  0.00     0.007 C 
ATOM      7  C   UNL     1      30.771  55.733  10.992  1.00  0.00     0.007 C 
ENDBRANCH   2   5
ENDBRANCH   1   2
BRANCH   1   8
ATOM      8  C   UNL     1      27.104  57.159  10.624  1.00  0.00     0.004 C 
BRANCH   8   9
ATOM      9  C   UNL     1      26.877  55.690  10.157  1.00  0.00    -0.011 C 
ATOM     10  C   UNL     1      25.428  55.480   9.661  1.00  0.00     0.008 C 
BRANCH   9  11
ATOM     11  C   UNL     1      27.433  54.633  11.185  1.00  0.00    -0.002 C 
ATOM     12  C   UNL     1      27.460  53.182  10.626  1.00  0.00     0.005 C 
ATOM     13  C   UNL     1      26.873  54.499  12.647  1.00  0.00    -0.026 C 
ATOM     14  C   UNL     1      27.279  52.237  11.825  1.00  0.00     0.005 C 
ATOM     15  C   UNL     1      27.487  53.139  13.031  1.00  0.00    -0.001 C 
ATOM     16  C   UNL     1      27.401  55.571  13.664  1.00  0.00     0.007 C 
ATOM     17  C   UNL     1      25.315  54.460  12.633  1.00  0.00     0.012 C 
ATOM     18  C   UNL     1      27.179  52.612  14.465  1.00  0.00     0.004 C 
ATOM     19  C   UNL     1      27.749  55.020  15.082  1.00  0.00     0.005 C 
ATOM     20  C   UNL     1      26.901  53.776  15.467  1.00  0.00     0.003 C 
ATOM     21  C   UNL     1      26.091  51.540  14.580  1.00  0.00     0.085 C 
ATOM     22  C   UNL     1      27.001  53.300  16.964  1.00  0.00    -0.000 C 
ATOM     23  C   UNL     1      25.985  51.074  16.006  1.00  0.00     0.159 C 
ATOM     24  C   UNL     1      26.147  52.030  17.139  1.00  0.00     0.005 C 
ATOM     25  C   UNL     1      26.445  54.421  17.902  1.00  0.00     0.020 C 
ATOM     26  C   UNL     1      28.463  52.978  17.372  1.00  0.00     0.017 C 
ATOM     27  O   UNL     1      25.741  49.854  16.232  1.00  0.00    -0.295 OA
ATOM     28  C   UNL     1      25.577  51.735  18.323  1.00  0.00     0.055 C 
ATOM     29  C   UNL     1      26.321  53.979  19.367  1.00  0.00     0.081 C 
ATOM     30  C   UNL     1      25.640  52.651  19.475  1.00  0.00     0.156 C 
ATOM     31  O   UNL     1      25.124  52.307  20.569  1.00  0.00    -0.295 OA
ENDBRANCH   9  11
ENDBRANCH   8   9
ENDBRANCH   1   8
TORSDOF 6
ENDMDL
MODEL 5
REMARK VINA RESULT:    -8.064      2.862      8.602
REMARK INTER + INTRA:         -12.568
REMARK INTER:                 -11.317
REMARK INTRA:                  -1.251
REMARK UNBOUND:                -1.676
REMARK SMILES CC[C@@H](CC[C@H](C)[C@@H]1CC[C@@H]2[C@@H]3CC(=O)C4=CC(=O)CC[C@]4(C)[C@H]3CC[C@]21C)C(C)C
REMARK SMILES IDX 4 1 3 2 2 3 1 4 29 5 30 6 31 7 5 8 6 9 7 10 8 11 9 12 27 13
REMARK SMILES IDX 10 14 11 15 26 16 28 17 12 18 25 19 24 20 13 21 22 22 14 23
REMARK SMILES IDX 16 24 21 25 23 26 15 27 17 28 20 29 18 30 19 31
REMARK H PARENT
REMARK Flexibility Score: inf
ROOT
ATOM      1  C   UNL     1      29.795  51.764  16.517  1.00  0.00     0.004 C 
ENDROOT
BRANCH   1   2
ATOM      2  C   UNL     1      29.156  50.360  16.321  1.00  0.00    -0.009 C 
BRANCH   2   3
ATOM      3  C   UNL     1      27.783  50.304  17.063  1.00  0.00     0.000 C 
ATOM      4  C   UNL     1      26.622  49.863  16.162  1.00  0.00     0.004 C 
ENDBRANCH   2   3
BRANCH   2   5
ATOM      5  C   UNL     1      30.132  49.191  16.702  1.00  0.00    -0.014 C 
ATOM      6  C   UNL     1      31.585  49.658  16.861  1.00  0.00     0.007 C 
ATOM      7  C   UNL     1      30.074  47.983  15.747  1.00  0.00     0.007 C 
ENDBRANCH   2   5
ENDBRANCH   1   2
BRANCH   1   8
ATOM      8  C   UNL     1      28.860  52.867  17.062  1.00  0.00     0.004 C 
BRANCH   8   9
ATOM      9  C   UNL     1      29.053  54.253  16.377  1.00  0.00    -0.011 C 
ATOM     10  C   UNL     1      29.781  55.244  17.314  1.00  0.00     0.008 C 
BRANCH   9  11
ATOM     11  C   UNL     1      27.738  54.774  15.680  1.00  0.00    -0.002 C 
ATOM     12  C   UNL     1      26.451  54.507  16.511  1.00  0.00     0.005 C 
ATOM     13  C   UNL     1      27.358  54.396  14.203  1.00  0.00    -0.026 C 
ATOM     14  C   UNL     1      25.297  54.344  15.510  1.00  0.00     0.005 C 
ATOM     15  C   UNL     1      25.883  54.842  14.198  1.00  0.00    -0.001 C 
ATOM     16  C   UNL     1      28.112  55.209  13.092  1.00  0.00     0.007 C 
ATOM     17  C   UNL     1      27.511  52.862  13.975  1.00  0.00     0.012 C 
ATOM     18  C   UNL     1      25.097  54.649  12.866  1.00  0.00     0.004 C 
ATOM     19  C   UNL     1      27.228  55.652  11.885  1.00  0.00     0.005 C 
ATOM     20  C   UNL     1      26.041  54.683  11.623  1.00  0.00     0.003 C 
ATOM     21  C   UNL     1      24.165  53.436  12.792  1.00  0.00     0.085 C 
ATOM     22  C   UNL     1      25.242  54.906  10.284  1.00  0.00    -0.000 C 
ATOM     23  C   UNL     1      23.417  53.448  11.488  1.00  0.00     0.159 C 
ATOM     24  C   UNL     1      24.076  53.900  10.230  1.00  0.00     0.005 C 
ATOM     25  C   UNL     1      26.191  54.653   9.068  1.00  0.00     0.020 C 
ATOM     26  C   UNL     1      24.665  56.343  10.187  1.00  0.00     0.017 C 
ATOM     27  O   UNL     1      22.215  53.054  11.471  1.00  0.00    -0.295 OA
ATOM     28  C   UNL     1      23.602  53.452   9.051  1.00  0.00     0.055 C 
ATOM     29  C   UNL     1      25.459  54.657   7.718  1.00  0.00     0.081 C 
ATOM     30  C   UNL     1      24.231  53.803   7.767  1.00  0.00     0.156 C 
ATOM     31  O   UNL     1      23.722  53.388   6.694  1.00  0.00    -0.295 OA
ENDBRANCH   9  11
ENDBRANCH   8   9
ENDBRANCH   1   8
TORSDOF 6
ENDMDL
MODEL 6
REMARK VINA RESULT:    -8.042      3.418      9.531
REMARK INTER + INTRA:         -12.539
REMARK INTER:                 -11.100
REMARK INTRA:                  -1.439
REMARK UNBOUND:                -1.676
REMARK SMILES CC[C@@H](CC[C@H](C)[C@@H]1CC[C@@H]2[C@@H]3CC(=O)C4=CC(=O)CC[C@]4(C)[C@H]3CC[C@]21C)C(C)C
REMARK SMILES IDX 4 1 3 2 2 3 1 4 29 5 30 6 31 7 5 8 6 9 7 10 8 11 9 12 27 13
REMARK SMILES IDX 10 14 11 15 26 16 28 17 12 18 25 19 24 20 13 21 22 22 14 23
REMARK SMILES IDX 16 24 21 25 23 26 15 27 17 28 20 29 18 30 19 31
REMARK H PARENT
REMARK Flexibility Score: inf
ROOT
ATOM      1  C   UNL     1      25.635  53.177  19.457  1.00  0.00     0.004 C 
ENDROOT
BRANCH   1   2
ATOM      2  C   UNL     1      25.431  51.658  19.720  1.00  0.00    -0.009 C 
BRANCH   2   3
ATOM      3  C   UNL     1      24.382  51.091  18.710  1.00  0.00     0.000 C 
ATOM      4  C   UNL     1      23.021  51.795  18.788  1.00  0.00     0.004 C 
ENDBRANCH   2   3
BRANCH   2   5
ATOM      5  C   UNL     1      25.103  51.340  21.222  1.00  0.00    -0.014 C 
ATOM      6  C   UNL     1      25.869  52.240  22.200  1.00  0.00     0.007 C 
ATOM      7  C   UNL     1      25.296  49.862  21.612  1.00  0.00     0.007 C 
ENDBRANCH   2   5
ENDBRANCH   1   2
BRANCH   1   8
ATOM      8  C   UNL     1      26.600  53.546  18.308  1.00  0.00     0.004 C 
BRANCH   8   9
ATOM      9  C   UNL     1      25.897  54.182  17.072  1.00  0.00    -0.011 C 
ATOM     10  C   UNL     1      24.560  54.847  17.471  1.00  0.00     0.008 C 
BRANCH   9  11
ATOM     11  C   UNL     1      25.864  53.215  15.828  1.00  0.00    -0.002 C 
ATOM     12  C   UNL     1      27.025  52.179  15.819  1.00  0.00     0.005 C 
ATOM     13  C   UNL     1      25.773  53.741  14.351  1.00  0.00    -0.026 C 
ATOM     14  C   UNL     1      27.329  51.860  14.348  1.00  0.00     0.005 C 
ATOM     15  C   UNL     1      26.145  52.449  13.597  1.00  0.00    -0.001 C 
ATOM     16  C   UNL     1      24.339  54.175  13.885  1.00  0.00     0.007 C 
ATOM     17  C   UNL     1      26.809  54.881  14.112  1.00  0.00     0.012 C 
ATOM     18  C   UNL     1      26.165  52.526  12.041  1.00  0.00     0.004 C 
ATOM     19  C   UNL     1      23.958  53.744  12.434  1.00  0.00     0.005 C 
ATOM     20  C   UNL     1      25.194  53.623  11.500  1.00  0.00     0.003 C 
ATOM     21  C   UNL     1      27.540  52.661  11.380  1.00  0.00     0.085 C 
ATOM     22  C   UNL     1      24.893  53.437   9.965  1.00  0.00    -0.000 C 
ATOM     23  C   UNL     1      27.392  52.627   9.885  1.00  0.00     0.159 C 
ATOM     24  C   UNL     1      26.229  53.275   9.214  1.00  0.00     0.005 C 
ATOM     25  C   UNL     1      24.155  54.705   9.426  1.00  0.00     0.020 C 
ATOM     26  C   UNL     1      24.015  52.186   9.696  1.00  0.00     0.017 C 
ATOM     27  O   UNL     1      28.282  52.048   9.197  1.00  0.00    -0.295 OA
ATOM     28  C   UNL     1      26.354  53.667   7.932  1.00  0.00     0.055 C 
ATOM     29  C   UNL     1      23.988  54.704   7.899  1.00  0.00     0.081 C 
ATOM     30  C   UNL     1      25.275  54.367   7.215  1.00  0.00     0.156 C 
ATOM     31  O   UNL     1      25.432  54.675   6.006  1.00  0.00    -0.295 OA
ENDBRANCH   9  11
ENDBRANCH   8   9
ENDBRANCH   1   8
TORSDOF 6
ENDMDL
MODEL 7
REMARK VINA RESULT:    -7.954      2.759      8.573
REMARK INTER + INTRA:         -12.421
REMARK INTER:                 -10.534
REMARK INTRA:                  -1.886
REMARK UNBOUND:                -1.676
REMARK SMILES CC[C@@H](CC[C@H](C)[C@@H]1CC[C@@H]2[C@@H]3CC(=O)C4=CC(=O)CC[C@]4(C)[C@H]3CC[C@]21C)C(C)C
REMARK SMILES IDX 4 1 3 2 2 3 1 4 29 5 30 6 31 7 5 8 6 9 7 10 8 11 9 12 27 13
REMARK SMILES IDX 10 14 11 15 26 16 28 17 12 18 25 19 24 20 13 21 22 22 14 23
REMARK SMILES IDX 16 24 21 25 23 26 15 27 17 28 20 29 18 30 19 31
REMARK H PARENT
REMARK Flexibility Score: inf
ROOT
ATOM      1  C   UNL     1      24.944  51.476  18.182  1.00  0.00     0.004 C 
ENDROOT
BRANCH   1   2
ATOM      2  C   UNL     1      24.539  52.709  19.037  1.00  0.00    -0.009 C 
BRANCH   2   3
ATOM      3  C   UNL     1      24.061  53.861  18.096  1.00  0.00     0.000 C 
ATOM      4  C   UNL     1      22.633  53.664  17.571  1.00  0.00     0.004 C 
ENDBRANCH   2   3
BRANCH   2   5
ATOM      5  C   UNL     1      25.659  53.140  20.050  1.00  0.00    -0.014 C 
ATOM      6  C   UNL     1      25.338  52.741  21.496  1.00  0.00     0.007 C 
ATOM      7  C   UNL     1      26.023  54.637  19.990  1.00  0.00     0.007 C 
ENDBRANCH   2   5
ENDBRANCH   1   2
BRANCH   1   8
ATOM      8  C   UNL     1      26.452  51.141  18.140  1.00  0.00     0.004 C 
BRANCH   8   9
ATOM      9  C   UNL     1      26.998  50.861  16.708  1.00  0.00    -0.011 C 
ATOM     10  C   UNL     1      27.986  49.672  16.709  1.00  0.00     0.008 C 
BRANCH   9  11
ATOM     11  C   UNL     1      27.468  52.173  15.971  1.00  0.00    -0.002 C 
ATOM     12  C   UNL     1      27.520  53.420  16.900  1.00  0.00     0.005 C 
ATOM     13  C   UNL     1      26.803  52.680  14.641  1.00  0.00    -0.026 C 
ATOM     14  C   UNL     1      27.244  54.646  16.018  1.00  0.00     0.005 C 
ATOM     15  C   UNL     1      27.374  54.111  14.601  1.00  0.00    -0.001 C 
ATOM     16  C   UNL     1      27.267  51.938  13.338  1.00  0.00     0.007 C 
ATOM     17  C   UNL     1      25.250  52.668  14.768  1.00  0.00     0.012 C 
ATOM     18  C   UNL     1      26.958  54.997  13.388  1.00  0.00     0.004 C 
ATOM     19  C   UNL     1      27.507  52.862  12.104  1.00  0.00     0.005 C 
ATOM     20  C   UNL     1      26.620  54.138  12.128  1.00  0.00     0.003 C 
ATOM     21  C   UNL     1      25.854  56.028  13.640  1.00  0.00     0.085 C 
ATOM     22  C   UNL     1      26.608  55.004  10.813  1.00  0.00    -0.000 C 
ATOM     23  C   UNL     1      25.641  56.857  12.405  1.00  0.00     0.159 C 
ATOM     24  C   UNL     1      25.731  56.249  11.047  1.00  0.00     0.005 C 
ATOM     25  C   UNL     1      25.997  54.162   9.645  1.00  0.00     0.020 C 
ATOM     26  C   UNL     1      28.034  55.467  10.412  1.00  0.00     0.017 C 
ATOM     27  O   UNL     1      25.369  58.086  12.535  1.00  0.00    -0.295 OA
ATOM     28  C   UNL     1      25.074  56.835  10.028  1.00  0.00     0.055 C 
ATOM     29  C   UNL     1      25.764  54.980   8.367  1.00  0.00     0.081 C 
ATOM     30  C   UNL     1      25.063  56.267   8.669  1.00  0.00     0.156 C 
ATOM     31  O   UNL     1      24.466  56.878   7.746  1.00  0.00    -0.295 OA
ENDBRANCH   9  11
ENDBRANCH   8   9
ENDBRANCH   1   8
TORSDOF 6
ENDMDL
MODEL 8
REMARK VINA RESULT:    -7.923      3.000      8.442
REMARK INTER + INTRA:         -12.378
REMARK INTER:                 -11.055
REMARK INTRA:                  -1.323
REMARK UNBOUND:                -1.676
REMARK SMILES CC[C@@H](CC[C@H](C)[C@@H]1CC[C@@H]2[C@@H]3CC(=O)C4=CC(=O)CC[C@]4(C)[C@H]3CC[C@]21C)C(C)C
REMARK SMILES IDX 4 1 3 2 2 3 1 4 29 5 30 6 31 7 5 8 6 9 7 10 8 11 9 12 27 13
REMARK SMILES IDX 10 14 11 15 26 16 28 17 12 18 25 19 24 20 13 21 22 22 14 23
REMARK SMILES IDX 16 24 21 25 23 26 15 27 17 28 20 29 18 30 19 31
REMARK H PARENT
REMARK Flexibility Score: inf
ROOT
ATOM      1  C   UNL     1      28.415  49.580  17.127  1.00  0.00     0.004 C 
ENDROOT
BRANCH   1   2
ATOM      2  C   UNL     1      29.283  49.589  15.838  1.00  0.00    -0.009 C 
BRANCH   2   3
ATOM      3  C   UNL     1      29.462  48.126  15.319  1.00  0.00     0.000 C 
ATOM      4  C   UNL     1      28.634  47.821  14.064  1.00  0.00     0.004 C 
ENDBRANCH   2   3
BRANCH   2   5
ATOM      5  C   UNL     1      30.635  50.367  16.022  1.00  0.00    -0.014 C 
ATOM      6  C   UNL     1      31.681  49.563  16.804  1.00  0.00     0.007 C 
ATOM      7  C   UNL     1      30.477  51.767  16.647  1.00  0.00     0.007 C 
ENDBRANCH   2   5
ENDBRANCH   1   2
BRANCH   1   8
ATOM      8  C   UNL     1      26.942  50.018  16.960  1.00  0.00     0.004 C 
BRANCH   8   9
ATOM      9  C   UNL     1      26.653  51.465  17.459  1.00  0.00    -0.011 C 
ATOM     10  C   UNL     1      25.201  51.601  17.969  1.00  0.00     0.008 C 
BRANCH   9  11
ATOM     11  C   UNL     1      27.155  52.567  16.450  1.00  0.00    -0.002 C 
ATOM     12  C   UNL     1      27.032  54.015  17.004  1.00  0.00     0.005 C 
ATOM     13  C   UNL     1      26.643  52.651  14.967  1.00  0.00    -0.026 C 
ATOM     14  C   UNL     1      26.817  54.940  15.796  1.00  0.00     0.005 C 
ATOM     15  C   UNL     1      27.150  54.060  14.602  1.00  0.00    -0.001 C 
ATOM     16  C   UNL     1      27.302  51.629  13.975  1.00  0.00     0.007 C 
ATOM     17  C   UNL     1      25.089  52.554  14.919  1.00  0.00     0.012 C 
ATOM     18  C   UNL     1      26.854  54.558  13.155  1.00  0.00     0.004 C 
ATOM     19  C   UNL     1      27.656  52.209  12.570  1.00  0.00     0.005 C 
ATOM     20  C   UNL     1      26.718  53.373  12.148  1.00  0.00     0.003 C 
ATOM     21  C   UNL     1      25.681  55.531  12.994  1.00  0.00     0.085 C 
ATOM     22  C   UNL     1      26.835  53.856  10.653  1.00  0.00    -0.000 C 
ATOM     23  C   UNL     1      25.591  55.985  11.563  1.00  0.00     0.159 C 
ATOM     24  C   UNL     1      25.881  55.047  10.441  1.00  0.00     0.005 C 
ATOM     25  C   UNL     1      26.416  52.691   9.699  1.00  0.00     0.020 C 
ATOM     26  C   UNL     1      28.278  54.306  10.302  1.00  0.00     0.017 C 
ATOM     27  O   UNL     1      25.250  57.179  11.324  1.00  0.00    -0.295 OA
ATOM     28  C   UNL     1      25.334  55.290   9.234  1.00  0.00     0.055 C 
ATOM     29  C   UNL     1      26.312  53.121   8.229  1.00  0.00     0.081 C 
ATOM     30  C   UNL     1      25.522  54.384   8.089  1.00  0.00     0.156 C 
ATOM     31  O   UNL     1      25.020  54.681   6.975  1.00  0.00    -0.295 OA
ENDBRANCH   9  11
ENDBRANCH   8   9
ENDBRANCH   1   8
TORSDOF 6
ENDMDL
MODEL 9
REMARK VINA RESULT:    -7.880      2.154      3.948
REMARK INTER + INTRA:         -12.320
REMARK INTER:                 -11.102
REMARK INTRA:                  -1.218
REMARK UNBOUND:                -1.676
REMARK SMILES CC[C@@H](CC[C@H](C)[C@@H]1CC[C@@H]2[C@@H]3CC(=O)C4=CC(=O)CC[C@]4(C)[C@H]3CC[C@]21C)C(C)C
REMARK SMILES IDX 4 1 3 2 2 3 1 4 29 5 30 6 31 7 5 8 6 9 7 10 8 11 9 12 27 13
REMARK SMILES IDX 10 14 11 15 26 16 28 17 12 18 25 19 24 20 13 21 22 22 14 23
REMARK SMILES IDX 16 24 21 25 23 26 15 27 17 28 20 29 18 30 19 31
REMARK H PARENT
REMARK Flexibility Score: inf
ROOT
ATOM      1  C   UNL     1      23.461  54.616   8.426  1.00  0.00     0.004 C 
ENDROOT
BRANCH   1   2
ATOM      2  C   UNL     1      23.679  53.159   7.928  1.00  0.00    -0.009 C 
BRANCH   2   3
ATOM      3  C   UNL     1      23.557  52.173   9.133  1.00  0.00     0.000 C 
ATOM      4  C   UNL     1      22.105  51.864   9.522  1.00  0.00     0.004 C 
ENDBRANCH   2   3
BRANCH   2   5
ATOM      5  C   UNL     1      25.004  52.992   7.103  1.00  0.00    -0.014 C 
ATOM      6  C   UNL     1      26.230  52.743   7.991  1.00  0.00     0.007 C 
ATOM      7  C   UNL     1      25.292  54.152   6.129  1.00  0.00     0.007 C 
ENDBRANCH   2   5
ENDBRANCH   1   2
BRANCH   1   8
ATOM      8  C   UNL     1      23.797  54.886   9.910  1.00  0.00     0.004 C 
BRANCH   8   9
ATOM      9  C   UNL     1      24.655  56.166  10.141  1.00  0.00    -0.011 C 
ATOM     10  C   UNL     1      25.628  56.406   8.964  1.00  0.00     0.008 C 
BRANCH   9  11
ATOM     11  C   UNL     1      25.266  56.234  11.592  1.00  0.00    -0.002 C 
ATOM     12  C   UNL     1      26.255  57.418  11.791  1.00  0.00     0.005 C 
ATOM     13  C   UNL     1      25.960  55.001  12.275  1.00  0.00    -0.026 C 
ATOM     14  C   UNL     1      27.278  56.974  12.848  1.00  0.00     0.005 C 
ATOM     15  C   UNL     1      26.661  55.719  13.445  1.00  0.00    -0.001 C 
ATOM     16  C   UNL     1      24.980  53.935  12.880  1.00  0.00     0.007 C 
ATOM     17  C   UNL     1      26.977  54.336  11.299  1.00  0.00     0.012 C 
ATOM     18  C   UNL     1      27.487  54.828  14.420  1.00  0.00     0.004 C 
ATOM     19  C   UNL     1      25.406  53.361  14.267  1.00  0.00     0.005 C 
ATOM     20  C   UNL     1      26.946  53.364  14.471  1.00  0.00     0.003 C 
ATOM     21  C   UNL     1      29.006  54.827  14.225  1.00  0.00     0.085 C 
ATOM     22  C   UNL     1      27.485  52.582  15.727  1.00  0.00    -0.000 C 
ATOM     23  C   UNL     1      29.656  53.999  15.298  1.00  0.00     0.159 C 
ATOM     24  C   UNL     1      29.015  52.748  15.796  1.00  0.00     0.005 C 
ATOM     25  C   UNL     1      27.144  51.063  15.576  1.00  0.00     0.020 C 
ATOM     26  C   UNL     1      26.867  53.111  17.048  1.00  0.00     0.017 C 
ATOM     27  O   UNL     1      30.770  54.374  15.766  1.00  0.00    -0.295 OA
ATOM     28  C   UNL     1      29.792  51.796  16.348  1.00  0.00     0.055 C 
ATOM     29  C   UNL     1      27.794  50.187  16.656  1.00  0.00     0.081 C 
ATOM     30  C   UNL     1      29.247  50.509  16.810  1.00  0.00     0.156 C 
ATOM     31  O   UNL     1      30.012  49.672  17.354  1.00  0.00    -0.295 OA
ENDBRANCH   9  11
ENDBRANCH   8   9
ENDBRANCH   1   8
TORSDOF 6
ENDMDL
