MODEL 1
REMARK VINA RESULT:    -2.169      0.000      0.000
REMARK INTER + INTRA:          -2.169
REMARK INTER:                  -2.169
REMARK INTRA:                   0.000
REMARK UNBOUND:                 0.000
REMARK SMILES CC(=O)[O-]
REMARK SMILES IDX 1 1 2 2 3 3 4 4
REMARK H PARENT
REMARK Flexibility Score: inf
ROOT
ATOM      1  C   UNL     1     120.129  72.836   3.933  1.00  0.00     0.063 C 
ATOM      2  C   UNL     1     120.942  71.623   3.629  1.00  0.00     0.038 C 
ATOM      3  O   UNL     1     121.359  71.421   2.459  1.00  0.00    -0.550 OA
ATOM      4  O   UNL     1     121.288  70.743   4.646  1.00  0.00    -0.550 OA
ENDROOT
TORSDOF 0
ENDMDL
MODEL 2
REMARK VINA RESULT:    -2.127      1.530      1.549
REMARK INTER + INTRA:          -2.127
REMARK INTER:                  -2.127
REMARK INTRA:                   0.000
REMARK UNBOUND:                 0.000
REMARK SMILES CC(=O)[O-]
REMARK SMILES IDX 1 1 2 2 3 3 4 4
REMARK H PARENT
REMARK Flexibility Score: inf
ROOT
ATOM      1  C   UNL     1     120.743  73.240   1.960  1.00  0.00     0.063 C 
ATOM      2  C   UNL     1     121.131  71.833   2.268  1.00  0.00     0.038 C 
ATOM      3  O   UNL     1     121.173  70.974   1.349  1.00  0.00    -0.550 OA
ATOM      4  O   UNL     1     121.499  71.479   3.560  1.00  0.00    -0.550 OA
ENDROOT
TORSDOF 0
ENDMDL
MODEL 3
REMARK VINA RESULT:    -1.970      5.737      6.284
REMARK INTER + INTRA:          -1.970
REMARK INTER:                  -1.970
REMARK INTRA:                   0.000
REMARK UNBOUND:                 0.000
REMARK SMILES CC(=O)[O-]
REMARK SMILES IDX 1 1 2 2 3 3 4 4
REMARK H PARENT
REMARK Flexibility Score: inf
ROOT
ATOM      1  C   UNL     1     120.088  66.880  -1.598  1.00  0.00     0.063 C 
ATOM      2  C   UNL     1     120.416  67.122  -0.164  1.00  0.00     0.038 C 
ATOM      3  O   UNL     1     120.244  66.210   0.686  1.00  0.00    -0.550 OA
ATOM      4  O   UNL     1     120.962  68.337   0.230  1.00  0.00    -0.550 OA
ENDROOT
TORSDOF 0
ENDMDL
MODEL 4
REMARK VINA RESULT:    -1.958      4.562      5.072
REMARK INTER + INTRA:          -1.958
REMARK INTER:                  -1.958
REMARK INTRA:                   0.000
REMARK UNBOUND:                 0.000
REMARK SMILES CC(=O)[O-]
REMARK SMILES IDX 1 1 2 2 3 3 4 4
REMARK H PARENT
REMARK Flexibility Score: inf
ROOT
ATOM      1  C   UNL     1     120.271  69.454  -1.652  1.00  0.00     0.063 C 
ATOM      2  C   UNL     1     120.910  69.020  -0.376  1.00  0.00     0.038 C 
ATOM      3  O   UNL     1     121.555  69.847   0.320  1.00  0.00    -0.550 OA
ATOM      4  O   UNL     1     120.750  67.716   0.075  1.00  0.00    -0.550 OA
ENDROOT
TORSDOF 0
ENDMDL
MODEL 5
REMARK VINA RESULT:    -1.915      4.373      5.029
REMARK INTER + INTRA:          -1.915
REMARK INTER:                  -1.915
REMARK INTRA:                   0.000
REMARK UNBOUND:                 0.000
REMARK SMILES CC(=O)[O-]
REMARK SMILES IDX 1 1 2 2 3 3 4 4
REMARK H PARENT
REMARK Flexibility Score: inf
ROOT
ATOM      1  C   UNL     1     120.938  71.536   7.909  1.00  0.00     0.063 C 
ATOM      2  C   UNL     1     120.502  72.961   7.949  1.00  0.00     0.038 C 
ATOM      3  O   UNL     1     120.727  73.661   8.970  1.00  0.00    -0.550 OA
ATOM      4  O   UNL     1     119.895  73.536   6.839  1.00  0.00    -0.550 OA
ENDROOT
TORSDOF 0
ENDMDL
MODEL 6
REMARK VINA RESULT:    -1.876      2.113      2.574
REMARK INTER + INTRA:          -1.876
REMARK INTER:                  -1.876
REMARK INTRA:                   0.000
REMARK UNBOUND:                 0.000
REMARK SMILES CC(=O)[O-]
REMARK SMILES IDX 1 1 2 2 3 3 4 4
REMARK H PARENT
REMARK Flexibility Score: inf
ROOT
ATOM      1  C   UNL     1     120.672  70.814   0.615  1.00  0.00     0.063 C 
ATOM      2  C   UNL     1     120.980  71.818   1.674  1.00  0.00     0.038 C 
ATOM      3  O   UNL     1     120.882  73.048   1.425  1.00  0.00    -0.550 OA
ATOM      4  O   UNL     1     121.323  71.399   2.953  1.00  0.00    -0.550 OA
ENDROOT
TORSDOF 0
ENDMDL
MODEL 7
REMARK VINA RESULT:    -1.876      8.948      9.452
REMARK INTER + INTRA:          -1.876
REMARK INTER:                  -1.876
REMARK INTRA:                   0.000
REMARK UNBOUND:                 0.000
REMARK SMILES CC(=O)[O-]
REMARK SMILES IDX 1 1 2 2 3 3 4 4
REMARK H PARENT
REMARK Flexibility Score: inf
ROOT
ATOM      1  C   UNL     1     119.875  70.990  -6.013  1.00  0.00     0.063 C 
ATOM      2  C   UNL     1     120.433  69.681  -5.567  1.00  0.00     0.038 C 
ATOM      3  O   UNL     1     120.980  68.911  -6.400  1.00  0.00    -0.550 OA
ATOM      4  O   UNL     1     120.400  69.331  -4.223  1.00  0.00    -0.550 OA
ENDROOT
TORSDOF 0
ENDMDL
MODEL 8
REMARK VINA RESULT:    -1.850     17.472     17.850
REMARK INTER + INTRA:          -1.850
REMARK INTER:                  -1.850
REMARK INTRA:                   0.000
REMARK UNBOUND:                 0.000
REMARK SMILES CC(=O)[O-]
REMARK SMILES IDX 1 1 2 2 3 3 4 4
REMARK H PARENT
REMARK Flexibility Score: inf
ROOT
ATOM      1  C   UNL     1     137.881  64.958  -1.282  1.00  0.00     0.063 C 
ATOM      2  C   UNL     1     136.843  64.886  -0.214  1.00  0.00     0.038 C 
ATOM      3  O   UNL     1     135.633  64.726  -0.520  1.00  0.00    -0.550 OA
ATOM      4  O   UNL     1     137.215  64.940   1.124  1.00  0.00    -0.550 OA
ENDROOT
TORSDOF 0
ENDMDL
MODEL 9
REMARK VINA RESULT:    -1.704      2.112      2.404
REMARK INTER + INTRA:          -1.704
REMARK INTER:                  -1.704
REMARK INTRA:                   0.000
REMARK UNBOUND:                 0.000
REMARK SMILES CC(=O)[O-]
REMARK SMILES IDX 1 1 2 2 3 3 4 4
REMARK H PARENT
REMARK Flexibility Score: inf
ROOT
ATOM      1  C   UNL     1     120.063  71.171   6.628  1.00  0.00     0.063 C 
ATOM      2  C   UNL     1     120.464  71.447   5.218  1.00  0.00     0.038 C 
ATOM      3  O   UNL     1     121.205  70.636   4.603  1.00  0.00    -0.550 OA
ATOM      4  O   UNL     1     119.978  72.570   4.562  1.00  0.00    -0.550 OA
ENDROOT
TORSDOF 0
ENDMDL
