MODEL 1
REMARK VINA RESULT:    -2.441      0.000      0.000
REMARK INTER + INTRA:          -2.655
REMARK INTER:                  -2.655
REMARK INTRA:                   0.000
REMARK UNBOUND:                 0.000
REMARK SMILES [NH3+]CC(=O)[O-]
REMARK SMILES IDX 2 1 1 2 3 6 4 7 5 8
REMARK H PARENT 1 3 1 4 1 5
REMARK Flexibility Score: inf
ROOT
ATOM      1  C   UNL     1     191.341 194.386 195.088  1.00  0.00     0.312 C 
ENDROOT
BRANCH   1   2
ATOM      2  N   UNL     1     189.880 194.374 195.125  1.00  0.00    -0.353 N 
ATOM      3  H   UNL     1     189.564 193.917 196.010  1.00  0.00     0.344 HD
ATOM      4  H   UNL     1     189.512 195.353 195.098  1.00  0.00     0.344 HD
ATOM      5  H   UNL     1     189.504 193.833 194.312  1.00  0.00     0.344 HD
ENDBRANCH   1   2
BRANCH   1   6
ATOM      6  C   UNL     1     191.832 195.073 193.852  1.00  0.00     0.096 C 
ATOM      7  O   UNL     1     192.561 196.096 193.942  1.00  0.00    -0.544 OA
ATOM      8  O   UNL     1     191.443 194.615 192.599  1.00  0.00    -0.544 OA
ENDBRANCH   1   6
TORSDOF 2
ENDMDL
MODEL 2
REMARK VINA RESULT:    -2.402      0.624      1.474
REMARK INTER + INTRA:          -2.612
REMARK INTER:                  -2.612
REMARK INTRA:                   0.000
REMARK UNBOUND:                 0.000
REMARK SMILES [NH3+]CC(=O)[O-]
REMARK SMILES IDX 2 1 1 2 3 6 4 7 5 8
REMARK H PARENT 1 3 1 4 1 5
REMARK Flexibility Score: inf
ROOT
ATOM      1  C   UNL     1     191.276 194.837 195.089  1.00  0.00     0.312 C 
ENDROOT
BRANCH   1   2
ATOM      2  N   UNL     1     189.880 194.404 195.123  1.00  0.00    -0.353 N 
ATOM      3  H   UNL     1     189.846 193.377 195.316  1.00  0.00     0.344 HD
ATOM      4  H   UNL     1     189.366 194.908 195.881  1.00  0.00     0.344 HD
ATOM      5  H   UNL     1     189.424 194.591 194.200  1.00  0.00     0.344 HD
ENDBRANCH   1   2
BRANCH   1   6
ATOM      6  C   UNL     1     191.815 194.773 193.693  1.00  0.00     0.096 C 
ATOM      7  O   UNL     1     191.112 194.297 192.764  1.00  0.00    -0.544 OA
ATOM      8  O   UNL     1     193.113 195.192 193.428  1.00  0.00    -0.544 OA
ENDBRANCH   1   6
TORSDOF 2
ENDMDL
MODEL 3
REMARK VINA RESULT:    -2.042      1.794      1.934
REMARK INTER + INTRA:          -2.221
REMARK INTER:                  -2.221
REMARK INTRA:                   0.000
REMARK UNBOUND:                 0.000
REMARK SMILES [NH3+]CC(=O)[O-]
REMARK SMILES IDX 2 1 1 2 3 6 4 7 5 8
REMARK H PARENT 1 3 1 4 1 5
REMARK Flexibility Score: inf
ROOT
ATOM      1  C   UNL     1     191.618 194.707 192.676  1.00  0.00     0.312 C 
ENDROOT
BRANCH   1   2
ATOM      2  N   UNL     1     190.753 193.630 193.154  1.00  0.00    -0.353 N 
ATOM      3  H   UNL     1     191.248 192.717 193.040  1.00  0.00     0.344 HD
ATOM      4  H   UNL     1     190.530 193.771 194.166  1.00  0.00     0.344 HD
ATOM      5  H   UNL     1     189.867 193.607 192.597  1.00  0.00     0.344 HD
ENDBRANCH   1   2
BRANCH   1   6
ATOM      6  C   UNL     1     192.096 195.548 193.820  1.00  0.00     0.096 C 
ATOM      7  O   UNL     1     192.830 196.548 193.608  1.00  0.00    -0.544 OA
ATOM      8  O   UNL     1     191.772 195.196 195.125  1.00  0.00    -0.544 OA
ENDBRANCH   1   6
TORSDOF 2
ENDMDL
MODEL 4
REMARK VINA RESULT:    -2.020     12.937     13.077
REMARK INTER + INTRA:          -2.198
REMARK INTER:                  -2.198
REMARK INTRA:                   0.000
REMARK UNBOUND:                 0.000
REMARK SMILES [NH3+]CC(=O)[O-]
REMARK SMILES IDX 2 1 1 2 3 6 4 7 5 8
REMARK H PARENT 1 3 1 4 1 5
REMARK Flexibility Score: inf
ROOT
ATOM      1  C   UNL     1     184.673 206.333 194.524  1.00  0.00     0.312 C 
ENDROOT
BRANCH   1   2
ATOM      2  N   UNL     1     183.878 207.489 194.114  1.00  0.00    -0.353 N 
ATOM      3  H   UNL     1     184.452 208.355 194.223  1.00  0.00     0.344 HD
ATOM      4  H   UNL     1     183.596 207.394 193.111  1.00  0.00     0.344 HD
ATOM      5  H   UNL     1     183.025 207.570 194.714  1.00  0.00     0.344 HD
ENDBRANCH   1   2
BRANCH   1   6
ATOM      6  C   UNL     1     184.237 205.104 193.786  1.00  0.00     0.096 C 
ATOM      7  O   UNL     1     183.878 204.078 194.420  1.00  0.00    -0.544 OA
ATOM      8  O   UNL     1     184.278 205.076 192.397  1.00  0.00    -0.544 OA
ENDBRANCH   1   6
TORSDOF 2
ENDMDL
MODEL 5
REMARK VINA RESULT:    -1.947      7.813      8.153
REMARK INTER + INTRA:          -2.117
REMARK INTER:                  -2.117
REMARK INTRA:                   0.000
REMARK UNBOUND:                 0.000
REMARK SMILES [NH3+]CC(=O)[O-]
REMARK SMILES IDX 2 1 1 2 3 6 4 7 5 8
REMARK H PARENT 1 3 1 4 1 5
REMARK Flexibility Score: inf
ROOT
ATOM      1  C   UNL     1     199.396 197.030 193.679  1.00  0.00     0.312 C 
ENDROOT
BRANCH   1   2
ATOM      2  N   UNL     1     200.825 196.727 193.629  1.00  0.00    -0.353 N 
ATOM      3  H   UNL     1     201.005 195.843 194.158  1.00  0.00     0.344 HD
ATOM      4  H   UNL     1     201.131 196.596 192.637  1.00  0.00     0.344 HD
ATOM      5  H   UNL     1     201.373 197.502 194.069  1.00  0.00     0.344 HD
ENDBRANCH   1   2
BRANCH   1   6
ATOM      6  C   UNL     1     198.603 195.791 193.956  1.00  0.00     0.096 C 
ATOM      7  O   UNL     1     197.495 195.867 194.549  1.00  0.00    -0.544 OA
ATOM      8  O   UNL     1     199.111 194.546 193.606  1.00  0.00    -0.544 OA
ENDBRANCH   1   6
TORSDOF 2
ENDMDL
MODEL 6
REMARK VINA RESULT:    -1.914      8.309      8.556
REMARK INTER + INTRA:          -2.082
REMARK INTER:                  -2.082
REMARK INTRA:                   0.000
REMARK UNBOUND:                 0.000
REMARK SMILES [NH3+]CC(=O)[O-]
REMARK SMILES IDX 2 1 1 2 3 6 4 7 5 8
REMARK H PARENT 1 3 1 4 1 5
REMARK Flexibility Score: inf
ROOT
ATOM      1  C   UNL     1     199.678 196.413 193.641  1.00  0.00     0.312 C 
ENDROOT
BRANCH   1   2
ATOM      2  N   UNL     1     201.071 196.808 193.444  1.00  0.00    -0.353 N 
ATOM      3  H   UNL     1     201.671 195.953 193.434  1.00  0.00     0.344 HD
ATOM      4  H   UNL     1     201.178 197.307 192.531  1.00  0.00     0.344 HD
ATOM      5  H   UNL     1     201.382 197.431 194.225  1.00  0.00     0.344 HD
ENDBRANCH   1   2
BRANCH   1   6
ATOM      6  C   UNL     1     198.778 197.609 193.592  1.00  0.00     0.096 C 
ATOM      7  O   UNL     1     197.947 197.815 194.514  1.00  0.00    -0.544 OA
ATOM      8  O   UNL     1     198.821 198.468 192.500  1.00  0.00    -0.544 OA
ENDBRANCH   1   6
TORSDOF 2
ENDMDL
MODEL 7
REMARK VINA RESULT:    -1.850      3.409      3.867
REMARK INTER + INTRA:          -2.012
REMARK INTER:                  -2.012
REMARK INTRA:                   0.000
REMARK UNBOUND:                 0.000
REMARK SMILES [NH3+]CC(=O)[O-]
REMARK SMILES IDX 2 1 1 2 3 6 4 7 5 8
REMARK H PARENT 1 3 1 4 1 5
REMARK Flexibility Score: inf
ROOT
ATOM      1  C   UNL     1     188.933 193.450 191.389  1.00  0.00     0.312 C 
ENDROOT
BRANCH   1   2
ATOM      2  N   UNL     1     189.833 192.346 191.716  1.00  0.00    -0.353 N 
ATOM      3  H   UNL     1     189.722 192.102 192.726  1.00  0.00     0.344 HD
ATOM      4  H   UNL     1     189.598 191.507 191.137  1.00  0.00     0.344 HD
ATOM      5  H   UNL     1     190.825 192.628 191.542  1.00  0.00     0.344 HD
ENDBRANCH   1   2
BRANCH   1   6
ATOM      6  C   UNL     1     189.712 194.685 191.056  1.00  0.00     0.096 C 
ATOM      7  O   UNL     1     189.235 195.541 190.266  1.00  0.00    -0.544 OA
ATOM      8  O   UNL     1     190.987 194.866 191.578  1.00  0.00    -0.544 OA
ENDBRANCH   1   6
TORSDOF 2
ENDMDL
MODEL 8
REMARK VINA RESULT:    -1.819      4.520      4.921
REMARK INTER + INTRA:          -1.979
REMARK INTER:                  -1.979
REMARK INTRA:                   0.000
REMARK UNBOUND:                 0.000
REMARK SMILES [NH3+]CC(=O)[O-]
REMARK SMILES IDX 2 1 1 2 3 6 4 7 5 8
REMARK H PARENT 1 3 1 4 1 5
REMARK Flexibility Score: inf
ROOT
ATOM      1  C   UNL     1     194.793 194.365 193.933  1.00  0.00     0.312 C 
ENDROOT
BRANCH   1   2
ATOM      2  N   UNL     1     194.330 193.334 193.005  1.00  0.00    -0.353 N 
ATOM      3  H   UNL     1     195.153 192.792 192.658  1.00  0.00     0.344 HD
ATOM      4  H   UNL     1     193.674 192.681 193.491  1.00  0.00     0.344 HD
ATOM      5  H   UNL     1     193.847 193.777 192.188  1.00  0.00     0.344 HD
ENDBRANCH   1   2
BRANCH   1   6
ATOM      6  C   UNL     1     196.288 194.359 194.024  1.00  0.00     0.096 C 
ATOM      7  O   UNL     1     196.968 193.644 193.242  1.00  0.00    -0.544 OA
ATOM      8  O   UNL     1     196.928 195.104 195.008  1.00  0.00    -0.544 OA
ENDBRANCH   1   6
TORSDOF 2
ENDMDL
MODEL 9
REMARK VINA RESULT:    -0.321      2.535      2.957
REMARK INTER + INTRA:          -0.349
REMARK INTER:                  -0.349
REMARK INTRA:                   0.000
REMARK UNBOUND:                 0.000
REMARK SMILES [NH3+]CC(=O)[O-]
REMARK SMILES IDX 2 1 1 2 3 6 4 7 5 8
REMARK H PARENT 1 3 1 4 1 5
REMARK Flexibility Score: inf
ROOT
ATOM      1  C   UNL     1     193.836 194.300 193.839  1.00  0.00     0.312 C 
ENDROOT
BRANCH   1   2
ATOM      2  N   UNL     1     194.068 193.255 192.843  1.00  0.00    -0.353 N 
ATOM      3  H   UNL     1     194.285 193.701 191.923  1.00  0.00     0.344 HD
ATOM      4  H   UNL     1     194.879 192.659 193.130  1.00  0.00     0.344 HD
ATOM      5  H   UNL     1     193.213 192.661 192.739  1.00  0.00     0.344 HD
ENDBRANCH   1   2
BRANCH   1   6
ATOM      6  C   UNL     1     192.374 194.611 193.945  1.00  0.00     0.096 C 
ATOM      7  O   UNL     1     191.617 194.445 192.954  1.00  0.00    -0.544 OA
ATOM      8  O   UNL     1     191.859 195.134 195.125  1.00  0.00    -0.544 OA
ENDBRANCH   1   6
TORSDOF 2
ENDMDL
