MODEL 1
REMARK VINA RESULT:    -4.669      0.000      0.000
REMARK INTER + INTRA:         -10.675
REMARK INTER:                  -8.764
REMARK INTRA:                  -1.911
REMARK UNBOUND:                -1.911
REMARK SMILES O=C([O-])CCCCCCCCCCCCCCC(=O)[O-]
REMARK SMILES IDX 10 1 9 2 8 3 7 4 6 5 5 6 4 7 2 8 1 9 3 10 11 11 12 12 13 13
REMARK SMILES IDX 14 14 15 15 16 16 17 17 18 18 19 19 20 20
REMARK H PARENT
REMARK Flexibility Score: inf
ROOT
ATOM      1  C   UNL     1       2.906 -20.349  -8.010  1.00  0.00     0.000 C 
ENDROOT
BRANCH   1   2
ATOM      2  C   UNL     1       3.679 -21.300  -7.078  1.00  0.00     0.000 C 
BRANCH   2   3
ATOM      3  C   UNL     1       4.445 -20.554  -5.974  1.00  0.00     0.000 C 
BRANCH   3   4
ATOM      4  C   UNL     1       4.909 -21.489  -4.844  1.00  0.00     0.000 C 
BRANCH   4   5
ATOM      5  C   UNL     1       6.368 -21.235  -4.430  1.00  0.00     0.000 C 
BRANCH   5   6
ATOM      6  C   UNL     1       7.159 -20.453  -5.493  1.00  0.00     0.006 C 
BRANCH   6   7
ATOM      7  C   UNL     1       8.100 -21.360  -6.297  1.00  0.00     0.053 C 
BRANCH   7   8
ATOM      8  C   UNL     1       7.543 -21.683  -7.650  1.00  0.00     0.041 C 
ATOM      9  O   UNL     1       7.535 -20.810  -8.557  1.00  0.00    -0.550 OA
ATOM     10  O   UNL     1       7.004 -22.940  -7.899  1.00  0.00    -0.550 OA
ENDBRANCH   7   8
ENDBRANCH   6   7
ENDBRANCH   5   6
ENDBRANCH   4   5
ENDBRANCH   3   4
ENDBRANCH   2   3
ENDBRANCH   1   2
BRANCH   1  11
ATOM     11  C   UNL     1       1.568 -20.943  -8.481  1.00  0.00     0.000 C 
BRANCH  11  12
ATOM     12  C   UNL     1       1.160 -22.190  -7.679  1.00  0.00     0.000 C 
BRANCH  12  13
ATOM     13  C   UNL     1      -0.004 -21.900  -6.707  1.00  0.00     0.000 C 
BRANCH  13  14
ATOM     14  C   UNL     1       0.427 -21.843  -5.231  1.00  0.00     0.000 C 
BRANCH  14  15
ATOM     15  C   UNL     1       0.877 -20.439  -4.794  1.00  0.00     0.000 C 
BRANCH  15  16
ATOM     16  C   UNL     1       0.597 -20.165  -3.309  1.00  0.00     0.006 C 
BRANCH  16  17
ATOM     17  C   UNL     1       1.880 -20.071  -2.472  1.00  0.00     0.053 C 
BRANCH  17  18
ATOM     18  C   UNL     1       2.553 -18.754  -2.696  1.00  0.00     0.041 C 
ATOM     19  O   UNL     1       1.879 -17.692  -2.713  1.00  0.00    -0.550 OA
ATOM     20  O   UNL     1       3.921 -18.705  -2.934  1.00  0.00    -0.550 OA
ENDBRANCH  17  18
ENDBRANCH  16  17
ENDBRANCH  15  16
ENDBRANCH  14  15
ENDBRANCH  13  14
ENDBRANCH  12  13
ENDBRANCH  11  12
ENDBRANCH   1  11
TORSDOF 15
ENDMDL
MODEL 2
REMARK VINA RESULT:    -4.590      1.776      3.457
REMARK INTER + INTRA:         -10.525
REMARK INTER:                  -8.434
REMARK INTRA:                  -2.091
REMARK UNBOUND:                -1.911
REMARK SMILES O=C([O-])CCCCCCCCCCCCCCC(=O)[O-]
REMARK SMILES IDX 10 1 9 2 8 3 7 4 6 5 5 6 4 7 2 8 1 9 3 10 11 11 12 12 13 13
REMARK SMILES IDX 14 14 15 15 16 16 17 17 18 18 19 19 20 20
REMARK H PARENT
REMARK Flexibility Score: inf
ROOT
ATOM      1  C   UNL     1      -0.030 -22.000  -6.762  1.00  0.00     0.000 C 
ENDROOT
BRANCH   1   2
ATOM      2  C   UNL     1       1.048 -22.135  -7.852  1.00  0.00     0.000 C 
BRANCH   2   3
ATOM      3  C   UNL     1       1.557 -20.774  -8.353  1.00  0.00     0.000 C 
BRANCH   3   4
ATOM      4  C   UNL     1       2.989 -20.469  -7.878  1.00  0.00     0.000 C 
BRANCH   4   5
ATOM      5  C   UNL     1       3.031 -19.386  -6.787  1.00  0.00     0.000 C 
BRANCH   5   6
ATOM      6  C   UNL     1       3.931 -19.774  -5.601  1.00  0.00     0.006 C 
BRANCH   6   7
ATOM      7  C   UNL     1       4.117 -21.293  -5.488  1.00  0.00     0.053 C 
BRANCH   7   8
ATOM      8  C   UNL     1       5.544 -21.698  -5.702  1.00  0.00     0.041 C 
ATOM      9  O   UNL     1       5.897 -22.225  -6.789  1.00  0.00    -0.550 OA
ATOM     10  O   UNL     1       6.477 -21.520  -4.687  1.00  0.00    -0.550 OA
ENDBRANCH   7   8
ENDBRANCH   6   7
ENDBRANCH   5   6
ENDBRANCH   4   5
ENDBRANCH   3   4
ENDBRANCH   2   3
ENDBRANCH   1   2
BRANCH   1  11
ATOM     11  C   UNL     1       0.567 -21.932  -5.347  1.00  0.00     0.000 C 
BRANCH  11  12
ATOM     12  C   UNL     1       0.254 -20.603  -4.636  1.00  0.00     0.000 C 
BRANCH  12  13
ATOM     13  C   UNL     1       0.742 -20.600  -3.171  1.00  0.00     0.000 C 
BRANCH  13  14
ATOM     14  C   UNL     1       1.656 -19.410  -2.829  1.00  0.00     0.000 C 
BRANCH  14  15
ATOM     15  C   UNL     1       1.237 -18.113  -3.538  1.00  0.00     0.000 C 
BRANCH  15  16
ATOM     16  C   UNL     1       2.247 -16.974  -3.330  1.00  0.00     0.006 C 
BRANCH  16  17
ATOM     17  C   UNL     1       2.069 -16.264  -1.982  1.00  0.00     0.053 C 
BRANCH  17  18
ATOM     18  C   UNL     1       3.349 -16.283  -1.209  1.00  0.00     0.041 C 
ATOM     19  O   UNL     1       3.549 -15.443  -0.292  1.00  0.00    -0.550 OA
ATOM     20  O   UNL     1       4.344 -17.196  -1.533  1.00  0.00    -0.550 OA
ENDBRANCH  17  18
ENDBRANCH  16  17
ENDBRANCH  15  16
ENDBRANCH  14  15
ENDBRANCH  13  14
ENDBRANCH  12  13
ENDBRANCH  11  12
ENDBRANCH   1  11
TORSDOF 15
ENDMDL
MODEL 3
REMARK VINA RESULT:    -4.471      1.600      6.138
REMARK INTER + INTRA:         -10.302
REMARK INTER:                  -8.219
REMARK INTRA:                  -2.083
REMARK UNBOUND:                -1.911
REMARK SMILES O=C([O-])CCCCCCCCCCCCCCC(=O)[O-]
REMARK SMILES IDX 10 1 9 2 8 3 7 4 6 5 5 6 4 7 2 8 1 9 3 10 11 11 12 12 13 13
REMARK SMILES IDX 14 14 15 15 16 16 17 17 18 18 19 19 20 20
REMARK H PARENT
REMARK Flexibility Score: inf
ROOT
ATOM      1  C   UNL     1       0.277 -22.337  -5.978  1.00  0.00     0.000 C 
ENDROOT
BRANCH   1   2
ATOM      2  C   UNL     1       0.393 -20.952  -5.316  1.00  0.00     0.000 C 
BRANCH   2   3
ATOM      3  C   UNL     1       0.496 -21.035  -3.784  1.00  0.00     0.000 C 
BRANCH   3   4
ATOM      4  C   UNL     1       1.025 -19.734  -3.157  1.00  0.00     0.000 C 
BRANCH   4   5
ATOM      5  C   UNL     1       1.340 -18.657  -4.210  1.00  0.00     0.000 C 
BRANCH   5   6
ATOM      6  C   UNL     1       2.312 -17.584  -3.689  1.00  0.00     0.006 C 
BRANCH   6   7
ATOM      7  C   UNL     1       1.583 -16.451  -2.954  1.00  0.00     0.053 C 
BRANCH   7   8
ATOM      8  C   UNL     1       2.106 -16.262  -1.562  1.00  0.00     0.041 C 
ATOM      9  O   UNL     1       2.931 -17.081  -1.079  1.00  0.00    -0.550 OA
ATOM     10  O   UNL     1       1.657 -15.198  -0.789  1.00  0.00    -0.550 OA
ENDBRANCH   7   8
ENDBRANCH   6   7
ENDBRANCH   5   6
ENDBRANCH   4   5
ENDBRANCH   3   4
ENDBRANCH   2   3
ENDBRANCH   1   2
BRANCH   1  11
ATOM     11  C   UNL     1       0.884 -22.367  -7.391  1.00  0.00     0.000 C 
BRANCH  11  12
ATOM     12  C   UNL     1       1.323 -20.974  -7.876  1.00  0.00     0.000 C 
BRANCH  12  13
ATOM     13  C   UNL     1       2.856 -20.799  -7.826  1.00  0.00     0.000 C 
BRANCH  13  14
ATOM     14  C   UNL     1       3.304 -19.473  -7.187  1.00  0.00     0.000 C 
BRANCH  14  15
ATOM     15  C   UNL     1       4.280 -19.674  -6.016  1.00  0.00     0.000 C 
BRANCH  15  16
ATOM     16  C   UNL     1       4.128 -21.051  -5.351  1.00  0.00     0.006 C 
BRANCH  16  17
ATOM     17  C   UNL     1       5.478 -21.716  -5.052  1.00  0.00     0.053 C 
BRANCH  17  18
ATOM     18  C   UNL     1       6.352 -21.692  -6.266  1.00  0.00     0.041 C 
ATOM     19  O   UNL     1       6.053 -22.380  -7.277  1.00  0.00    -0.550 OA
ATOM     20  O   UNL     1       7.524 -20.947  -6.263  1.00  0.00    -0.550 OA
ENDBRANCH  17  18
ENDBRANCH  16  17
ENDBRANCH  15  16
ENDBRANCH  14  15
ENDBRANCH  13  14
ENDBRANCH  12  13
ENDBRANCH  11  12
ENDBRANCH   1  11
TORSDOF 15
ENDMDL
MODEL 4
REMARK VINA RESULT:    -4.460      1.840      4.651
REMARK INTER + INTRA:         -10.283
REMARK INTER:                  -8.132
REMARK INTRA:                  -2.151
REMARK UNBOUND:                -1.911
REMARK SMILES O=C([O-])CCCCCCCCCCCCCCC(=O)[O-]
REMARK SMILES IDX 10 1 9 2 8 3 7 4 6 5 5 6 4 7 2 8 1 9 3 10 11 11 12 12 13 13
REMARK SMILES IDX 14 14 15 15 16 16 17 17 18 18 19 19 20 20
REMARK H PARENT
REMARK Flexibility Score: inf
ROOT
ATOM      1  C   UNL     1       0.828 -20.394  -5.032  1.00  0.00     0.000 C 
ENDROOT
BRANCH   1   2
ATOM      2  C   UNL     1       0.316 -19.862  -3.681  1.00  0.00     0.000 C 
BRANCH   2   3
ATOM      3  C   UNL     1       1.138 -20.381  -2.490  1.00  0.00     0.000 C 
BRANCH   3   4
ATOM      4  C   UNL     1       2.594 -19.885  -2.518  1.00  0.00     0.000 C 
BRANCH   4   5
ATOM      5  C   UNL     1       2.741 -18.456  -1.970  1.00  0.00     0.000 C 
BRANCH   5   6
ATOM      6  C   UNL     1       3.082 -17.432  -3.066  1.00  0.00     0.006 C 
BRANCH   6   7
ATOM      7  C   UNL     1       4.320 -17.840  -3.875  1.00  0.00     0.053 C 
BRANCH   7   8
ATOM      8  C   UNL     1       4.131 -17.605  -5.343  1.00  0.00     0.041 C 
ATOM      9  O   UNL     1       2.982 -17.376  -5.805  1.00  0.00    -0.550 OA
ATOM     10  O   UNL     1       5.220 -17.669  -6.204  1.00  0.00    -0.550 OA
ENDBRANCH   7   8
ENDBRANCH   6   7
ENDBRANCH   5   6
ENDBRANCH   4   5
ENDBRANCH   3   4
ENDBRANCH   2   3
ENDBRANCH   1   2
BRANCH   1  11
ATOM     11  C   UNL     1       0.304 -21.805  -5.346  1.00  0.00     0.000 C 
BRANCH  11  12
ATOM     12  C   UNL     1       0.543 -22.212  -6.810  1.00  0.00     0.000 C 
BRANCH  12  13
ATOM     13  C   UNL     1       0.959 -21.011  -7.686  1.00  0.00     0.000 C 
BRANCH  13  14
ATOM     14  C   UNL     1       2.353 -21.165  -8.319  1.00  0.00     0.000 C 
BRANCH  14  15
ATOM     15  C   UNL     1       3.432 -20.345  -7.593  1.00  0.00     0.000 C 
BRANCH  15  16
ATOM     16  C   UNL     1       4.524 -21.227  -6.969  1.00  0.00     0.006 C 
BRANCH  16  17
ATOM     17  C   UNL     1       4.345 -21.408  -5.456  1.00  0.00     0.053 C 
BRANCH  17  18
ATOM     18  C   UNL     1       5.659 -21.266  -4.755  1.00  0.00     0.041 C 
ATOM     19  O   UNL     1       5.698 -21.095  -3.508  1.00  0.00    -0.550 OA
ATOM     20  O   UNL     1       6.841 -21.273  -5.485  1.00  0.00    -0.550 OA
ENDBRANCH  17  18
ENDBRANCH  16  17
ENDBRANCH  15  16
ENDBRANCH  14  15
ENDBRANCH  13  14
ENDBRANCH  12  13
ENDBRANCH  11  12
ENDBRANCH   1  11
TORSDOF 15
ENDMDL
MODEL 5
REMARK VINA RESULT:    -4.443      1.308      6.032
REMARK INTER + INTRA:         -10.251
REMARK INTER:                  -8.827
REMARK INTRA:                  -1.424
REMARK UNBOUND:                -1.911
REMARK SMILES O=C([O-])CCCCCCCCCCCCCCC(=O)[O-]
REMARK SMILES IDX 10 1 9 2 8 3 7 4 6 5 5 6 4 7 2 8 1 9 3 10 11 11 12 12 13 13
REMARK SMILES IDX 14 14 15 15 16 16 17 17 18 18 19 19 20 20
REMARK H PARENT
REMARK Flexibility Score: inf
ROOT
ATOM      1  C   UNL     1       0.379 -21.826  -5.220  1.00  0.00     0.000 C 
ENDROOT
BRANCH   1   2
ATOM      2  C   UNL     1       0.700 -20.393  -4.760  1.00  0.00     0.000 C 
BRANCH   2   3
ATOM      3  C   UNL     1       0.373 -20.161  -3.276  1.00  0.00     0.000 C 
BRANCH   3   4
ATOM      4  C   UNL     1       1.613 -20.283  -2.373  1.00  0.00     0.000 C 
BRANCH   4   5
ATOM      5  C   UNL     1       2.930 -20.156  -3.157  1.00  0.00     0.000 C 
BRANCH   5   6
ATOM      6  C   UNL     1       3.800 -18.984  -2.670  1.00  0.00     0.006 C 
BRANCH   6   7
ATOM      7  C   UNL     1       3.039 -18.058  -1.713  1.00  0.00     0.053 C 
BRANCH   7   8
ATOM      8  C   UNL     1       2.629 -16.781  -2.381  1.00  0.00     0.041 C 
ATOM      9  O   UNL     1       3.333 -16.294  -3.304  1.00  0.00    -0.550 OA
ATOM     10  O   UNL     1       1.484 -16.113  -1.962  1.00  0.00    -0.550 OA
ENDBRANCH   7   8
ENDBRANCH   6   7
ENDBRANCH   5   6
ENDBRANCH   4   5
ENDBRANCH   3   4
ENDBRANCH   2   3
ENDBRANCH   1   2
BRANCH   1  11
ATOM     11  C   UNL     1      -0.069 -21.887  -6.689  1.00  0.00     0.000 C 
BRANCH  11  12
ATOM     12  C   UNL     1       1.102 -22.137  -7.655  1.00  0.00     0.000 C 
BRANCH  12  13
ATOM     13  C   UNL     1       1.552 -20.844  -8.368  1.00  0.00     0.000 C 
BRANCH  13  14
ATOM     14  C   UNL     1       2.858 -20.254  -7.807  1.00  0.00     0.000 C 
BRANCH  14  15
ATOM     15  C   UNL     1       3.698 -21.286  -7.038  1.00  0.00     0.000 C 
BRANCH  15  16
ATOM     16  C   UNL     1       5.154 -20.836  -6.845  1.00  0.00     0.006 C 
BRANCH  16  17
ATOM     17  C   UNL     1       6.141 -22.010  -6.843  1.00  0.00     0.053 C 
BRANCH  17  18
ATOM     18  C   UNL     1       7.356 -21.672  -7.648  1.00  0.00     0.041 C 
ATOM     19  O   UNL     1       8.433 -22.296  -7.465  1.00  0.00    -0.550 OA
ATOM     20  O   UNL     1       7.312 -20.632  -8.568  1.00  0.00    -0.550 OA
ENDBRANCH  17  18
ENDBRANCH  16  17
ENDBRANCH  15  16
ENDBRANCH  14  15
ENDBRANCH  13  14
ENDBRANCH  12  13
ENDBRANCH  11  12
ENDBRANCH   1  11
TORSDOF 15
ENDMDL
MODEL 6
REMARK VINA RESULT:    -4.405      1.022      5.559
REMARK INTER + INTRA:         -10.180
REMARK INTER:                  -8.101
REMARK INTRA:                  -2.079
REMARK UNBOUND:                -1.911
REMARK SMILES O=C([O-])CCCCCCCCCCCCCCC(=O)[O-]
REMARK SMILES IDX 10 1 9 2 8 3 7 4 6 5 5 6 4 7 2 8 1 9 3 10 11 11 12 12 13 13
REMARK SMILES IDX 14 14 15 15 16 16 17 17 18 18 19 19 20 20
REMARK H PARENT
REMARK Flexibility Score: inf
ROOT
ATOM      1  C   UNL     1       0.898 -22.276  -7.502  1.00  0.00     0.000 C 
ENDROOT
BRANCH   1   2
ATOM      2  C   UNL     1      -0.060 -21.897  -6.358  1.00  0.00     0.000 C 
BRANCH   2   3
ATOM      3  C   UNL     1       0.660 -21.747  -5.009  1.00  0.00     0.000 C 
BRANCH   3   4
ATOM      4  C   UNL     1       0.084 -20.600  -4.159  1.00  0.00     0.000 C 
BRANCH   4   5
ATOM      5  C   UNL     1       1.138 -19.533  -3.816  1.00  0.00     0.000 C 
BRANCH   5   6
ATOM      6  C   UNL     1       2.029 -19.939  -2.629  1.00  0.00     0.006 C 
BRANCH   6   7
ATOM      7  C   UNL     1       2.769 -18.739  -2.024  1.00  0.00     0.053 C 
BRANCH   7   8
ATOM      8  C   UNL     1       4.136 -18.571  -2.616  1.00  0.00     0.041 C 
ATOM      9  O   UNL     1       5.041 -19.410  -2.368  1.00  0.00    -0.550 OA
ATOM     10  O   UNL     1       4.416 -17.470  -3.417  1.00  0.00    -0.550 OA
ENDBRANCH   7   8
ENDBRANCH   6   7
ENDBRANCH   5   6
ENDBRANCH   4   5
ENDBRANCH   3   4
ENDBRANCH   2   3
ENDBRANCH   1   2
BRANCH   1  11
ATOM     11  C   UNL     1       1.300 -21.065  -8.360  1.00  0.00     0.000 C 
BRANCH  11  12
ATOM     12  C   UNL     1       2.763 -20.642  -8.138  1.00  0.00     0.000 C 
BRANCH  12  13
ATOM     13  C   UNL     1       2.900 -19.594  -7.012  1.00  0.00     0.000 C 
BRANCH  13  14
ATOM     14  C   UNL     1       4.013 -19.919  -6.001  1.00  0.00     0.000 C 
BRANCH  14  15
ATOM     15  C   UNL     1       4.232 -21.430  -5.818  1.00  0.00     0.000 C 
BRANCH  15  16
ATOM     16  C   UNL     1       5.650 -21.766  -5.333  1.00  0.00     0.006 C 
BRANCH  16  17
ATOM     17  C   UNL     1       6.726 -20.905  -6.007  1.00  0.00     0.053 C 
BRANCH  17  18
ATOM     18  C   UNL     1       6.954 -21.360  -7.413  1.00  0.00     0.041 C 
ATOM     19  O   UNL     1       6.954 -22.587  -7.691  1.00  0.00    -0.550 OA
ATOM     20  O   UNL     1       7.216 -20.429  -8.411  1.00  0.00    -0.550 OA
ENDBRANCH  17  18
ENDBRANCH  16  17
ENDBRANCH  15  16
ENDBRANCH  14  15
ENDBRANCH  13  14
ENDBRANCH  12  13
ENDBRANCH  11  12
ENDBRANCH   1  11
TORSDOF 15
ENDMDL
MODEL 7
REMARK VINA RESULT:    -4.362      1.282      2.475
REMARK INTER + INTRA:         -10.099
REMARK INTER:                  -8.547
REMARK INTRA:                  -1.552
REMARK UNBOUND:                -1.911
REMARK SMILES O=C([O-])CCCCCCCCCCCCCCC(=O)[O-]
REMARK SMILES IDX 10 1 9 2 8 3 7 4 6 5 5 6 4 7 2 8 1 9 3 10 11 11 12 12 13 13
REMARK SMILES IDX 14 14 15 15 16 16 17 17 18 18 19 19 20 20
REMARK H PARENT
REMARK Flexibility Score: inf
ROOT
ATOM      1  C   UNL     1       0.928 -21.904  -7.394  1.00  0.00     0.000 C 
ENDROOT
BRANCH   1   2
ATOM      2  C   UNL     1       1.587 -20.612  -7.909  1.00  0.00     0.000 C 
BRANCH   2   3
ATOM      3  C   UNL     1       3.093 -20.777  -8.165  1.00  0.00     0.000 C 
BRANCH   3   4
ATOM      4  C   UNL     1       3.940 -19.766  -7.372  1.00  0.00     0.000 C 
BRANCH   4   5
ATOM      5  C   UNL     1       4.740 -20.428  -6.237  1.00  0.00     0.000 C 
BRANCH   5   6
ATOM      6  C   UNL     1       5.486 -21.692  -6.697  1.00  0.00     0.006 C 
BRANCH   6   7
ATOM      7  C   UNL     1       7.007 -21.491  -6.719  1.00  0.00     0.053 C 
BRANCH   7   8
ATOM      8  C   UNL     1       7.535 -21.381  -8.117  1.00  0.00     0.041 C 
ATOM      9  O   UNL     1       7.572 -20.263  -8.694  1.00  0.00    -0.550 OA
ATOM     10  O   UNL     1       7.959 -22.520  -8.792  1.00  0.00    -0.550 OA
ENDBRANCH   7   8
ENDBRANCH   6   7
ENDBRANCH   5   6
ENDBRANCH   4   5
ENDBRANCH   3   4
ENDBRANCH   2   3
ENDBRANCH   1   2
BRANCH   1  11
ATOM     11  C   UNL     1       0.477 -21.792  -5.928  1.00  0.00     0.000 C 
BRANCH  11  12
ATOM     12  C   UNL     1       1.164 -20.634  -5.185  1.00  0.00     0.000 C 
BRANCH  12  13
ATOM     13  C   UNL     1       0.429 -20.266  -3.877  1.00  0.00     0.000 C 
BRANCH  13  14
ATOM     14  C   UNL     1       1.350 -20.213  -2.646  1.00  0.00     0.000 C 
BRANCH  14  15
ATOM     15  C   UNL     1       2.842 -20.204  -3.017  1.00  0.00     0.000 C 
BRANCH  15  16
ATOM     16  C   UNL     1       3.477 -18.813  -2.872  1.00  0.00     0.006 C 
BRANCH  16  17
ATOM     17  C   UNL     1       2.637 -17.866  -2.004  1.00  0.00     0.053 C 
BRANCH  17  18
ATOM     18  C   UNL     1       2.144 -16.712  -2.818  1.00  0.00     0.041 C 
ATOM     19  O   UNL     1       0.910 -16.537  -2.988  1.00  0.00    -0.550 OA
ATOM     20  O   UNL     1       3.051 -15.855  -3.429  1.00  0.00    -0.550 OA
ENDBRANCH  17  18
ENDBRANCH  16  17
ENDBRANCH  15  16
ENDBRANCH  14  15
ENDBRANCH  13  14
ENDBRANCH  12  13
ENDBRANCH  11  12
ENDBRANCH   1  11
TORSDOF 15
ENDMDL
MODEL 8
REMARK VINA RESULT:    -4.342      2.619      5.292
REMARK INTER + INTRA:         -10.060
REMARK INTER:                  -8.058
REMARK INTRA:                  -2.002
REMARK UNBOUND:                -1.911
REMARK SMILES O=C([O-])CCCCCCCCCCCCCCC(=O)[O-]
REMARK SMILES IDX 10 1 9 2 8 3 7 4 6 5 5 6 4 7 2 8 1 9 3 10 11 11 12 12 13 13
REMARK SMILES IDX 14 14 15 15 16 16 17 17 18 18 19 19 20 20
REMARK H PARENT
REMARK Flexibility Score: inf
ROOT
ATOM      1  C   UNL     1       5.625 -20.002  -7.865  1.00  0.00     0.000 C 
ENDROOT
BRANCH   1   2
ATOM      2  C   UNL     1       4.154 -19.674  -7.554  1.00  0.00     0.000 C 
BRANCH   2   3
ATOM      3  C   UNL     1       3.280 -20.933  -7.432  1.00  0.00     0.000 C 
BRANCH   3   4
ATOM      4  C   UNL     1       2.000 -20.846  -8.282  1.00  0.00     0.000 C 
BRANCH   4   5
ATOM      5  C   UNL     1       0.844 -21.672  -7.694  1.00  0.00     0.000 C 
BRANCH   5   6
ATOM      6  C   UNL     1       1.094 -22.086  -6.233  1.00  0.00     0.006 C 
BRANCH   6   7
ATOM      7  C   UNL     1       0.132 -21.391  -5.261  1.00  0.00     0.053 C 
BRANCH   7   8
ATOM      8  C   UNL     1       0.811 -20.304  -4.484  1.00  0.00     0.041 C 
ATOM      9  O   UNL     1       1.247 -19.281  -5.075  1.00  0.00    -0.550 OA
ATOM     10  O   UNL     1       0.989 -20.437  -3.112  1.00  0.00    -0.550 OA
ENDBRANCH   7   8
ENDBRANCH   6   7
ENDBRANCH   5   6
ENDBRANCH   4   5
ENDBRANCH   3   4
ENDBRANCH   2   3
ENDBRANCH   1   2
BRANCH   1  11
ATOM     11  C   UNL     1       6.145 -21.202  -7.056  1.00  0.00     0.000 C 
BRANCH  11  12
ATOM     12  C   UNL     1       7.227 -20.804  -6.036  1.00  0.00     0.000 C 
BRANCH  12  13
ATOM     13  C   UNL     1       6.750 -20.996  -4.580  1.00  0.00     0.000 C 
BRANCH  13  14
ATOM     14  C   UNL     1       5.271 -21.406  -4.465  1.00  0.00     0.000 C 
BRANCH  14  15
ATOM     15  C   UNL     1       4.512 -20.607  -3.394  1.00  0.00     0.000 C 
BRANCH  15  16
ATOM     16  C   UNL     1       4.489 -19.099  -3.688  1.00  0.00     0.006 C 
BRANCH  16  17
ATOM     17  C   UNL     1       5.119 -18.267  -2.564  1.00  0.00     0.053 C 
BRANCH  17  18
ATOM     18  C   UNL     1       4.071 -17.474  -1.851  1.00  0.00     0.041 C 
ATOM     19  O   UNL     1       4.332 -16.320  -1.420  1.00  0.00    -0.550 OA
ATOM     20  O   UNL     1       2.819 -18.028  -1.618  1.00  0.00    -0.550 OA
ENDBRANCH  17  18
ENDBRANCH  16  17
ENDBRANCH  15  16
ENDBRANCH  14  15
ENDBRANCH  13  14
ENDBRANCH  12  13
ENDBRANCH  11  12
ENDBRANCH   1  11
TORSDOF 15
ENDMDL
MODEL 9
REMARK VINA RESULT:    -4.233     12.415     15.248
REMARK INTER + INTRA:          -9.857
REMARK INTER:                  -7.532
REMARK INTRA:                  -2.325
REMARK UNBOUND:                -1.911
REMARK SMILES O=C([O-])CCCCCCCCCCCCCCC(=O)[O-]
REMARK SMILES IDX 10 1 9 2 8 3 7 4 6 5 5 6 4 7 2 8 1 9 3 10 11 11 12 12 13 13
REMARK SMILES IDX 14 14 15 15 16 16 17 17 18 18 19 19 20 20
REMARK H PARENT
REMARK Flexibility Score: inf
ROOT
ATOM      1  C   UNL     1      -5.408 -27.580  -1.807  1.00  0.00     0.000 C 
ENDROOT
BRANCH   1   2
ATOM      2  C   UNL     1      -6.667 -26.694  -1.804  1.00  0.00     0.000 C 
BRANCH   2   3
ATOM      3  C   UNL     1      -7.734 -27.184  -0.813  1.00  0.00     0.000 C 
BRANCH   3   4
ATOM      4  C   UNL     1      -9.151 -26.719  -1.194  1.00  0.00     0.000 C 
BRANCH   4   5
ATOM      5  C   UNL     1      -9.255 -26.291  -2.668  1.00  0.00     0.000 C 
BRANCH   5   6
ATOM      6  C   UNL     1      -9.610 -24.803  -2.829  1.00  0.00     0.006 C 
BRANCH   6   7
ATOM      7  C   UNL     1      -9.493 -24.033  -1.507  1.00  0.00     0.053 C 
BRANCH   7   8
ATOM      8  C   UNL     1      -8.358 -23.054  -1.531  1.00  0.00     0.041 C 
ATOM      9  O   UNL     1      -8.432 -21.983  -0.873  1.00  0.00    -0.550 OA
ATOM     10  O   UNL     1      -7.233 -23.311  -2.305  1.00  0.00    -0.550 OA
ENDBRANCH   7   8
ENDBRANCH   6   7
ENDBRANCH   5   6
ENDBRANCH   4   5
ENDBRANCH   3   4
ENDBRANCH   2   3
ENDBRANCH   1   2
BRANCH   1  11
ATOM     11  C   UNL     1      -5.253 -28.380  -3.110  1.00  0.00     0.000 C 
BRANCH  11  12
ATOM     12  C   UNL     1      -6.417 -28.149  -4.089  1.00  0.00     0.000 C 
BRANCH  12  13
ATOM     13  C   UNL     1      -7.142 -29.465  -4.449  1.00  0.00     0.000 C 
BRANCH  13  14
ATOM     14  C   UNL     1      -7.433 -30.360  -3.232  1.00  0.00     0.000 C 
BRANCH  14  15
ATOM     15  C   UNL     1      -8.863 -30.190  -2.694  1.00  0.00     0.000 C 
BRANCH  15  16
ATOM     16  C   UNL     1      -9.007 -30.667  -1.241  1.00  0.00     0.006 C 
BRANCH  16  17
ATOM     17  C   UNL     1      -7.674 -31.123  -0.633  1.00  0.00     0.053 C 
BRANCH  17  18
ATOM     18  C   UNL     1      -7.876 -32.338   0.216  1.00  0.00     0.041 C 
ATOM     19  O   UNL     1      -7.202 -32.496   1.268  1.00  0.00    -0.550 OA
ATOM     20  O   UNL     1      -8.774 -33.321  -0.179  1.00  0.00    -0.550 OA
ENDBRANCH  17  18
ENDBRANCH  16  17
ENDBRANCH  15  16
ENDBRANCH  14  15
ENDBRANCH  13  14
ENDBRANCH  12  13
ENDBRANCH  11  12
ENDBRANCH   1  11
TORSDOF 15
ENDMDL
