MODEL 1
REMARK VINA RESULT:    -3.499      0.000      0.000
REMARK INTER + INTRA:         -13.050
REMARK INTER:                  -8.817
REMARK INTRA:                  -4.233
REMARK UNBOUND:                -4.233
REMARK SMILES CCCCCCCCCCCCCCCCCCCCCCCCCCCC(=O)[O-]
REMARK SMILES IDX 15 1 16 2 17 3 18 4 19 5 20 6 21 7 22 8 23 9 24 10 25 11
REMARK SMILES IDX 26 12 27 13 28 14 29 15 30 16 14 17 13 18 12 19 11 20 10 21
REMARK SMILES IDX 9 22 8 23 7 24 6 25 5 26 4 27 3 28 2 29 1 30
REMARK H PARENT
REMARK Flexibility Score: inf
ROOT
ATOM      1  C   UNL     1     -19.217  28.678  21.450  1.00  0.00     0.000 C 
ENDROOT
BRANCH   1   2
ATOM      2  C   UNL     1     -18.490  29.359  22.623  1.00  0.00     0.000 C 
BRANCH   2   3
ATOM      3  C   UNL     1     -19.433  30.221  23.479  1.00  0.00     0.000 C 
BRANCH   3   4
ATOM      4  C   UNL     1     -18.921  31.659  23.666  1.00  0.00     0.000 C 
BRANCH   4   5
ATOM      5  C   UNL     1     -19.961  32.710  23.248  1.00  0.00     0.000 C 
BRANCH   5   6
ATOM      6  C   UNL     1     -21.350  32.103  22.983  1.00  0.00     0.000 C 
BRANCH   6   7
ATOM      7  C   UNL     1     -21.830  32.317  21.536  1.00  0.00     0.000 C 
BRANCH   7   8
ATOM      8  C   UNL     1     -23.094  33.185  21.392  1.00  0.00     0.000 C 
BRANCH   8   9
ATOM      9  C   UNL     1     -22.929  34.321  20.372  1.00  0.00     0.000 C 
BRANCH   9  10
ATOM     10  C   UNL     1     -21.759  35.241  20.752  1.00  0.00     0.000 C 
BRANCH  10  11
ATOM     11  C   UNL     1     -22.031  36.020  22.057  1.00  0.00     0.000 C 
BRANCH  11  12
ATOM     12  C   UNL     1     -22.900  37.274  21.859  1.00  0.00     0.006 C 
BRANCH  12  13
ATOM     13  C   UNL     1     -22.400  38.482  22.661  1.00  0.00     0.053 C 
BRANCH  13  14
ATOM     14  C   UNL     1     -22.186  39.658  21.760  1.00  0.00     0.041 C 
ATOM     15  O   UNL     1     -22.934  39.837  20.763  1.00  0.00    -0.550 OA
ATOM     16  O   UNL     1     -21.176  40.571  22.037  1.00  0.00    -0.550 OA
ENDBRANCH  13  14
ENDBRANCH  12  13
ENDBRANCH  11  12
ENDBRANCH  10  11
ENDBRANCH   9  10
ENDBRANCH   8   9
ENDBRANCH   7   8
ENDBRANCH   6   7
ENDBRANCH   5   6
ENDBRANCH   4   5
ENDBRANCH   3   4
ENDBRANCH   2   3
ENDBRANCH   1   2
BRANCH   1  17
ATOM     17  C   UNL     1     -19.728  29.686  20.407  1.00  0.00     0.000 C 
BRANCH  17  18
ATOM     18  C   UNL     1     -20.315  28.998  19.161  1.00  0.00     0.000 C 
BRANCH  18  19
ATOM     19  C   UNL     1     -21.726  28.435  19.401  1.00  0.00     0.000 C 
BRANCH  19  20
ATOM     20  C   UNL     1     -22.705  29.411  20.082  1.00  0.00     0.000 C 
BRANCH  20  21
ATOM     21  C   UNL     1     -23.482  28.831  21.281  1.00  0.00     0.000 C 
BRANCH  21  22
ATOM     22  C   UNL     1     -22.677  28.726  22.589  1.00  0.00    -0.000 C 
BRANCH  22  23
ATOM     23  C   UNL     1     -22.883  27.387  23.312  1.00  0.00    -0.000 C 
BRANCH  23  24
ATOM     24  C   UNL     1     -22.780  26.211  22.328  1.00  0.00    -0.000 C 
BRANCH  24  25
ATOM     25  C   UNL     1     -21.319  25.851  21.985  1.00  0.00    -0.000 C 
BRANCH  25  26
ATOM     26  C   UNL     1     -21.163  25.062  20.671  1.00  0.00    -0.000 C 
BRANCH  26  27
ATOM     27  C   UNL     1     -19.832  25.285  19.928  1.00  0.00    -0.000 C 
BRANCH  27  28
ATOM     28  C   UNL     1     -18.933  24.040  19.815  1.00  0.00    -0.000 C 
BRANCH  28  29
ATOM     29  C   UNL     1     -17.948  23.907  20.985  1.00  0.00    -0.003 C 
ATOM     30  C   UNL     1     -17.281  25.244  21.296  1.00  0.00     0.004 C 
ENDBRANCH  28  29
ENDBRANCH  27  28
ENDBRANCH  26  27
ENDBRANCH  25  26
ENDBRANCH  24  25
ENDBRANCH  23  24
ENDBRANCH  22  23
ENDBRANCH  21  22
ENDBRANCH  20  21
ENDBRANCH  19  20
ENDBRANCH  18  19
ENDBRANCH  17  18
ENDBRANCH   1  17
TORSDOF 26
ENDMDL
MODEL 2
REMARK VINA RESULT:    -3.476      4.863      9.637
REMARK INTER + INTRA:         -12.992
REMARK INTER:                  -8.908
REMARK INTRA:                  -4.084
REMARK UNBOUND:                -4.233
REMARK SMILES CCCCCCCCCCCCCCCCCCCCCCCCCCCC(=O)[O-]
REMARK SMILES IDX 15 1 16 2 17 3 18 4 19 5 20 6 21 7 22 8 23 9 24 10 25 11
REMARK SMILES IDX 26 12 27 13 28 14 29 15 30 16 14 17 13 18 12 19 11 20 10 21
REMARK SMILES IDX 9 22 8 23 7 24 6 25 5 26 4 27 3 28 2 29 1 30
REMARK H PARENT
REMARK Flexibility Score: inf
ROOT
ATOM      1  C   UNL     1     -20.003  29.811  20.407  1.00  0.00     0.000 C 
ENDROOT
BRANCH   1   2
ATOM      2  C   UNL     1     -18.910  29.241  21.327  1.00  0.00     0.000 C 
BRANCH   2   3
ATOM      3  C   UNL     1     -19.359  29.162  22.795  1.00  0.00     0.000 C 
BRANCH   3   4
ATOM      4  C   UNL     1     -19.190  27.757  23.395  1.00  0.00     0.000 C 
BRANCH   4   5
ATOM      5  C   UNL     1     -17.999  26.999  22.788  1.00  0.00     0.000 C 
BRANCH   5   6
ATOM      6  C   UNL     1     -18.390  25.614  22.242  1.00  0.00     0.000 C 
BRANCH   6   7
ATOM      7  C   UNL     1     -17.420  25.102  21.161  1.00  0.00     0.000 C 
BRANCH   7   8
ATOM      8  C   UNL     1     -17.672  23.656  20.694  1.00  0.00     0.000 C 
BRANCH   8   9
ATOM      9  C   UNL     1     -19.163  23.295  20.637  1.00  0.00     0.000 C 
BRANCH   9  10
ATOM     10  C   UNL     1     -19.707  23.412  19.204  1.00  0.00     0.000 C 
BRANCH  10  11
ATOM     11  C   UNL     1     -18.602  23.213  18.144  1.00  0.00     0.000 C 
BRANCH  11  12
ATOM     12  C   UNL     1     -19.041  23.586  16.717  1.00  0.00     0.006 C 
BRANCH  12  13
ATOM     13  C   UNL     1     -20.505  23.232  16.429  1.00  0.00     0.053 C 
BRANCH  13  14
ATOM     14  C   UNL     1     -20.870  23.601  15.025  1.00  0.00     0.041 C 
ATOM     15  O   UNL     1     -22.042  23.413  14.604  1.00  0.00    -0.550 OA
ATOM     16  O   UNL     1     -19.920  24.174  14.189  1.00  0.00    -0.550 OA
ENDBRANCH  13  14
ENDBRANCH  12  13
ENDBRANCH  11  12
ENDBRANCH  10  11
ENDBRANCH   9  10
ENDBRANCH   8   9
ENDBRANCH   7   8
ENDBRANCH   6   7
ENDBRANCH   5   6
ENDBRANCH   4   5
ENDBRANCH   3   4
ENDBRANCH   2   3
ENDBRANCH   1   2
BRANCH   1  17
ATOM     17  C   UNL     1     -20.396  28.838  19.282  1.00  0.00     0.000 C 
BRANCH  17  18
ATOM     18  C   UNL     1     -20.102  27.371  19.644  1.00  0.00     0.000 C 
BRANCH  18  19
ATOM     19  C   UNL     1     -21.366  26.594  20.051  1.00  0.00     0.000 C 
BRANCH  19  20
ATOM     20  C   UNL     1     -22.694  27.316  19.750  1.00  0.00     0.000 C 
BRANCH  20  21
ATOM     21  C   UNL     1     -23.537  27.682  20.988  1.00  0.00     0.000 C 
BRANCH  21  22
ATOM     22  C   UNL     1     -22.787  27.607  22.331  1.00  0.00    -0.000 C 
BRANCH  22  23
ATOM     23  C   UNL     1     -23.471  28.416  23.443  1.00  0.00    -0.000 C 
BRANCH  23  24
ATOM     24  C   UNL     1     -22.799  29.787  23.616  1.00  0.00    -0.000 C 
BRANCH  24  25
ATOM     25  C   UNL     1     -23.567  30.918  22.903  1.00  0.00    -0.000 C 
BRANCH  25  26
ATOM     26  C   UNL     1     -23.012  31.267  21.508  1.00  0.00    -0.000 C 
BRANCH  26  27
ATOM     27  C   UNL     1     -22.463  32.699  21.361  1.00  0.00    -0.000 C 
BRANCH  27  28
ATOM     28  C   UNL     1     -23.297  33.626  20.457  1.00  0.00    -0.000 C 
BRANCH  28  29
ATOM     29  C   UNL     1     -22.522  34.871  20.003  1.00  0.00    -0.003 C 
ATOM     30  C   UNL     1     -22.295  35.832  21.166  1.00  0.00     0.004 C 
ENDBRANCH  28  29
ENDBRANCH  27  28
ENDBRANCH  26  27
ENDBRANCH  25  26
ENDBRANCH  24  25
ENDBRANCH  23  24
ENDBRANCH  22  23
ENDBRANCH  21  22
ENDBRANCH  20  21
ENDBRANCH  19  20
ENDBRANCH  18  19
ENDBRANCH  17  18
ENDBRANCH   1  17
TORSDOF 26
ENDMDL
MODEL 3
REMARK VINA RESULT:    -3.408      4.692      9.539
REMARK INTER + INTRA:         -12.822
REMARK INTER:                  -7.924
REMARK INTRA:                  -4.898
REMARK UNBOUND:                -4.233
REMARK SMILES CCCCCCCCCCCCCCCCCCCCCCCCCCCC(=O)[O-]
REMARK SMILES IDX 15 1 16 2 17 3 18 4 19 5 20 6 21 7 22 8 23 9 24 10 25 11
REMARK SMILES IDX 26 12 27 13 28 14 29 15 30 16 14 17 13 18 12 19 11 20 10 21
REMARK SMILES IDX 9 22 8 23 7 24 6 25 5 26 4 27 3 28 2 29 1 30
REMARK H PARENT
REMARK Flexibility Score: inf
ROOT
ATOM      1  C   UNL     1     -19.998  27.582  20.199  1.00  0.00     0.000 C 
ENDROOT
BRANCH   1   2
ATOM      2  C   UNL     1     -20.452  28.873  19.494  1.00  0.00     0.000 C 
BRANCH   2   3
ATOM      3  C   UNL     1     -21.977  28.940  19.313  1.00  0.00     0.000 C 
BRANCH   3   4
ATOM      4  C   UNL     1     -22.650  27.560  19.412  1.00  0.00     0.000 C 
BRANCH   4   5
ATOM      5  C   UNL     1     -23.752  27.522  20.482  1.00  0.00     0.000 C 
BRANCH   5   6
ATOM      6  C   UNL     1     -23.486  28.489  21.649  1.00  0.00     0.000 C 
BRANCH   6   7
ATOM      7  C   UNL     1     -22.806  27.806  22.849  1.00  0.00     0.000 C 
BRANCH   7   8
ATOM      8  C   UNL     1     -22.956  26.274  22.896  1.00  0.00     0.000 C 
BRANCH   8   9
ATOM      9  C   UNL     1     -21.620  25.545  23.106  1.00  0.00     0.000 C 
BRANCH   9  10
ATOM     10  C   UNL     1     -21.602  24.198  22.368  1.00  0.00     0.000 C 
BRANCH  10  11
ATOM     11  C   UNL     1     -21.643  24.372  20.835  1.00  0.00     0.000 C 
BRANCH  11  12
ATOM     12  C   UNL     1     -20.794  23.340  20.073  1.00  0.00     0.006 C 
BRANCH  12  13
ATOM     13  C   UNL     1     -19.675  23.980  19.243  1.00  0.00     0.053 C 
BRANCH  13  14
ATOM     14  C   UNL     1     -19.852  23.666  17.790  1.00  0.00     0.041 C 
ATOM     15  O   UNL     1     -18.847  23.548  17.040  1.00  0.00    -0.550 OA
ATOM     16  O   UNL     1     -21.126  23.479  17.269  1.00  0.00    -0.550 OA
ENDBRANCH  13  14
ENDBRANCH  12  13
ENDBRANCH  11  12
ENDBRANCH  10  11
ENDBRANCH   9  10
ENDBRANCH   8   9
ENDBRANCH   7   8
ENDBRANCH   6   7
ENDBRANCH   5   6
ENDBRANCH   4   5
ENDBRANCH   3   4
ENDBRANCH   2   3
ENDBRANCH   1   2
BRANCH   1  17
ATOM     17  C   UNL     1     -19.374  27.852  21.579  1.00  0.00     0.000 C 
BRANCH  17  18
ATOM     18  C   UNL     1     -18.406  29.048  21.564  1.00  0.00     0.000 C 
BRANCH  18  19
ATOM     19  C   UNL     1     -17.855  29.385  22.961  1.00  0.00     0.000 C 
BRANCH  19  20
ATOM     20  C   UNL     1     -18.819  30.181  23.862  1.00  0.00     0.000 C 
BRANCH  20  21
ATOM     21  C   UNL     1     -18.705  31.715  23.750  1.00  0.00     0.000 C 
BRANCH  21  22
ATOM     22  C   UNL     1     -19.988  32.431  23.290  1.00  0.00    -0.000 C 
BRANCH  22  23
ATOM     23  C   UNL     1     -21.065  31.460  22.785  1.00  0.00    -0.000 C 
BRANCH  23  24
ATOM     24  C   UNL     1     -21.624  31.918  21.428  1.00  0.00    -0.000 C 
BRANCH  24  25
ATOM     25  C   UNL     1     -23.146  32.169  21.468  1.00  0.00    -0.000 C 
BRANCH  25  26
ATOM     26  C   UNL     1     -23.623  33.266  20.497  1.00  0.00    -0.000 C 
BRANCH  26  27
ATOM     27  C   UNL     1     -22.593  34.376  20.208  1.00  0.00    -0.000 C 
BRANCH  27  28
ATOM     28  C   UNL     1     -22.726  35.632  21.088  1.00  0.00    -0.000 C 
BRANCH  28  29
ATOM     29  C   UNL     1     -21.791  35.609  22.305  1.00  0.00    -0.003 C 
ATOM     30  C   UNL     1     -22.545  35.212  23.571  1.00  0.00     0.004 C 
ENDBRANCH  28  29
ENDBRANCH  27  28
ENDBRANCH  26  27
ENDBRANCH  25  26
ENDBRANCH  24  25
ENDBRANCH  23  24
ENDBRANCH  22  23
ENDBRANCH  21  22
ENDBRANCH  20  21
ENDBRANCH  19  20
ENDBRANCH  18  19
ENDBRANCH  17  18
ENDBRANCH   1  17
TORSDOF 26
ENDMDL
MODEL 4
REMARK VINA RESULT:    -3.297      4.492      9.344
REMARK INTER + INTRA:         -12.542
REMARK INTER:                  -8.086
REMARK INTRA:                  -4.456
REMARK UNBOUND:                -4.233
REMARK SMILES CCCCCCCCCCCCCCCCCCCCCCCCCCCC(=O)[O-]
REMARK SMILES IDX 15 1 16 2 17 3 18 4 19 5 20 6 21 7 22 8 23 9 24 10 25 11
REMARK SMILES IDX 26 12 27 13 28 14 29 15 30 16 14 17 13 18 12 19 11 20 10 21
REMARK SMILES IDX 9 22 8 23 7 24 6 25 5 26 4 27 3 28 2 29 1 30
REMARK H PARENT
REMARK Flexibility Score: inf
ROOT
ATOM      1  C   UNL     1     -19.597  28.087  20.595  1.00  0.00     0.000 C 
ENDROOT
BRANCH   1   2
ATOM      2  C   UNL     1     -20.070  29.244  19.698  1.00  0.00     0.000 C 
BRANCH   2   3
ATOM      3  C   UNL     1     -21.601  29.382  19.676  1.00  0.00     0.000 C 
BRANCH   3   4
ATOM      4  C   UNL     1     -22.312  28.082  19.264  1.00  0.00     0.000 C 
BRANCH   4   5
ATOM      5  C   UNL     1     -23.394  27.661  20.270  1.00  0.00     0.000 C 
BRANCH   5   6
ATOM      6  C   UNL     1     -22.813  27.255  21.636  1.00  0.00     0.000 C 
BRANCH   6   7
ATOM      7  C   UNL     1     -22.221  25.833  21.636  1.00  0.00     0.000 C 
BRANCH   7   8
ATOM      8  C   UNL     1     -22.932  24.834  20.704  1.00  0.00     0.000 C 
BRANCH   8   9
ATOM      9  C   UNL     1     -21.956  23.983  19.879  1.00  0.00     0.000 C 
BRANCH   9  10
ATOM     10  C   UNL     1     -20.749  24.815  19.418  1.00  0.00     0.000 C 
BRANCH  10  11
ATOM     11  C   UNL     1     -19.665  23.947  18.744  1.00  0.00     0.000 C 
BRANCH  11  12
ATOM     12  C   UNL     1     -18.405  23.752  19.604  1.00  0.00     0.006 C 
BRANCH  12  13
ATOM     13  C   UNL     1     -18.373  24.667  20.834  1.00  0.00     0.053 C 
BRANCH  13  14
ATOM     14  C   UNL     1     -17.157  24.392  21.663  1.00  0.00     0.041 C 
ATOM     15  O   UNL     1     -16.507  23.326  21.500  1.00  0.00    -0.550 OA
ATOM     16  O   UNL     1     -16.728  25.325  22.599  1.00  0.00    -0.550 OA
ENDBRANCH  13  14
ENDBRANCH  12  13
ENDBRANCH  11  12
ENDBRANCH  10  11
ENDBRANCH   9  10
ENDBRANCH   8   9
ENDBRANCH   7   8
ENDBRANCH   6   7
ENDBRANCH   5   6
ENDBRANCH   4   5
ENDBRANCH   3   4
ENDBRANCH   2   3
ENDBRANCH   1   2
BRANCH   1  17
ATOM     17  C   UNL     1     -19.289  28.541  22.031  1.00  0.00     0.000 C 
BRANCH  17  18
ATOM     18  C   UNL     1     -17.799  28.866  22.240  1.00  0.00     0.000 C 
BRANCH  18  19
ATOM     19  C   UNL     1     -17.535  29.642  23.542  1.00  0.00     0.000 C 
BRANCH  19  20
ATOM     20  C   UNL     1     -18.716  30.503  24.033  1.00  0.00     0.000 C 
BRANCH  20  21
ATOM     21  C   UNL     1     -18.774  31.929  23.450  1.00  0.00     0.000 C 
BRANCH  21  22
ATOM     22  C   UNL     1     -20.191  32.509  23.287  1.00  0.00    -0.000 C 
BRANCH  22  23
ATOM     23  C   UNL     1     -21.033  31.746  22.255  1.00  0.00    -0.000 C 
BRANCH  23  24
ATOM     24  C   UNL     1     -22.178  30.981  22.936  1.00  0.00    -0.000 C 
BRANCH  24  25
ATOM     25  C   UNL     1     -23.563  31.585  22.624  1.00  0.00    -0.000 C 
BRANCH  25  26
ATOM     26  C   UNL     1     -24.044  31.330  21.182  1.00  0.00    -0.000 C 
BRANCH  26  27
ATOM     27  C   UNL     1     -24.125  32.583  20.288  1.00  0.00    -0.000 C 
BRANCH  27  28
ATOM     28  C   UNL     1     -23.670  33.892  20.961  1.00  0.00    -0.000 C 
BRANCH  28  29
ATOM     29  C   UNL     1     -22.770  34.745  20.056  1.00  0.00    -0.003 C 
ATOM     30  C   UNL     1     -21.536  35.233  20.810  1.00  0.00     0.004 C 
ENDBRANCH  28  29
ENDBRANCH  27  28
ENDBRANCH  26  27
ENDBRANCH  25  26
ENDBRANCH  24  25
ENDBRANCH  23  24
ENDBRANCH  22  23
ENDBRANCH  21  22
ENDBRANCH  20  21
ENDBRANCH  19  20
ENDBRANCH  18  19
ENDBRANCH  17  18
ENDBRANCH   1  17
TORSDOF 26
ENDMDL
MODEL 5
REMARK VINA RESULT:    -3.223      5.395     11.710
REMARK INTER + INTRA:         -12.356
REMARK INTER:                 -10.480
REMARK INTRA:                  -1.876
REMARK UNBOUND:                -4.233
REMARK SMILES CCCCCCCCCCCCCCCCCCCCCCCCCCCC(=O)[O-]
REMARK SMILES IDX 15 1 16 2 17 3 18 4 19 5 20 6 21 7 22 8 23 9 24 10 25 11
REMARK SMILES IDX 26 12 27 13 28 14 29 15 30 16 14 17 13 18 12 19 11 20 10 21
REMARK SMILES IDX 9 22 8 23 7 24 6 25 5 26 4 27 3 28 2 29 1 30
REMARK H PARENT
REMARK Flexibility Score: inf
ROOT
ATOM      1  C   UNL     1     -19.991  29.328  19.875  1.00  0.00     0.000 C 
ENDROOT
BRANCH   1   2
ATOM      2  C   UNL     1     -21.015  28.196  19.679  1.00  0.00     0.000 C 
BRANCH   2   3
ATOM      3  C   UNL     1     -20.356  26.809  19.625  1.00  0.00     0.000 C 
BRANCH   3   4
ATOM      4  C   UNL     1     -20.817  25.884  20.764  1.00  0.00     0.000 C 
BRANCH   4   5
ATOM      5  C   UNL     1     -19.643  25.175  21.456  1.00  0.00     0.000 C 
BRANCH   5   6
ATOM      6  C   UNL     1     -18.537  24.753  20.472  1.00  0.00     0.000 C 
BRANCH   6   7
ATOM      7  C   UNL     1     -18.797  23.376  19.834  1.00  0.00     0.000 C 
BRANCH   7   8
ATOM      8  C   UNL     1     -18.507  23.293  18.324  1.00  0.00     0.000 C 
BRANCH   8   9
ATOM      9  C   UNL     1     -19.686  23.760  17.459  1.00  0.00     0.000 C 
BRANCH   9  10
ATOM     10  C   UNL     1     -19.607  23.162  16.046  1.00  0.00     0.000 C 
BRANCH  10  11
ATOM     11  C   UNL     1     -19.416  24.247  14.964  1.00  0.00     0.000 C 
BRANCH  11  12
ATOM     12  C   UNL     1     -19.960  23.844  13.582  1.00  0.00     0.006 C 
BRANCH  12  13
ATOM     13  C   UNL     1     -21.446  23.465  13.611  1.00  0.00     0.053 C 
BRANCH  13  14
ATOM     14  C   UNL     1     -22.163  24.059  12.439  1.00  0.00     0.041 C 
ATOM     15  O   UNL     1     -21.572  24.190  11.334  1.00  0.00    -0.550 OA
ATOM     16  O   UNL     1     -23.492  24.445  12.559  1.00  0.00    -0.550 OA
ENDBRANCH  13  14
ENDBRANCH  12  13
ENDBRANCH  11  12
ENDBRANCH  10  11
ENDBRANCH   9  10
ENDBRANCH   8   9
ENDBRANCH   7   8
ENDBRANCH   6   7
ENDBRANCH   5   6
ENDBRANCH   4   5
ENDBRANCH   3   4
ENDBRANCH   2   3
ENDBRANCH   1   2
BRANCH   1  17
ATOM     17  C   UNL     1     -19.248  29.226  21.217  1.00  0.00     0.000 C 
BRANCH  17  18
ATOM     18  C   UNL     1     -20.097  29.725  22.400  1.00  0.00     0.000 C 
BRANCH  18  19
ATOM     19  C   UNL     1     -20.000  31.247  22.603  1.00  0.00     0.000 C 
BRANCH  19  20
ATOM     20  C   UNL     1     -21.150  32.058  21.975  1.00  0.00     0.000 C 
BRANCH  20  21
ATOM     21  C   UNL     1     -21.885  33.010  22.941  1.00  0.00     0.000 C 
BRANCH  21  22
ATOM     22  C   UNL     1     -21.483  34.491  22.827  1.00  0.00    -0.000 C 
BRANCH  22  23
ATOM     23  C   UNL     1     -21.480  34.999  21.378  1.00  0.00    -0.000 C 
BRANCH  23  24
ATOM     24  C   UNL     1     -22.710  35.878  21.101  1.00  0.00    -0.000 C 
BRANCH  24  25
ATOM     25  C   UNL     1     -23.306  36.485  22.388  1.00  0.00    -0.000 C 
BRANCH  25  26
ATOM     26  C   UNL     1     -22.860  37.935  22.658  1.00  0.00    -0.000 C 
BRANCH  26  27
ATOM     27  C   UNL     1     -22.632  38.795  21.400  1.00  0.00    -0.000 C 
BRANCH  27  28
ATOM     28  C   UNL     1     -21.726  40.023  21.607  1.00  0.00    -0.000 C 
BRANCH  28  29
ATOM     29  C   UNL     1     -21.449  40.786  20.303  1.00  0.00    -0.003 C 
ATOM     30  C   UNL     1     -20.183  41.630  20.418  1.00  0.00     0.004 C 
ENDBRANCH  28  29
ENDBRANCH  27  28
ENDBRANCH  26  27
ENDBRANCH  25  26
ENDBRANCH  24  25
ENDBRANCH  23  24
ENDBRANCH  22  23
ENDBRANCH  21  22
ENDBRANCH  20  21
ENDBRANCH  19  20
ENDBRANCH  18  19
ENDBRANCH  17  18
ENDBRANCH   1  17
TORSDOF 26
ENDMDL
MODEL 6
REMARK VINA RESULT:    -3.221      4.339     10.015
REMARK INTER + INTRA:         -12.351
REMARK INTER:                  -8.220
REMARK INTRA:                  -4.131
REMARK UNBOUND:                -4.233
REMARK SMILES CCCCCCCCCCCCCCCCCCCCCCCCCCCC(=O)[O-]
REMARK SMILES IDX 15 1 16 2 17 3 18 4 19 5 20 6 21 7 22 8 23 9 24 10 25 11
REMARK SMILES IDX 26 12 27 13 28 14 29 15 30 16 14 17 13 18 12 19 11 20 10 21
REMARK SMILES IDX 9 22 8 23 7 24 6 25 5 26 4 27 3 28 2 29 1 30
REMARK H PARENT
REMARK Flexibility Score: inf
ROOT
ATOM      1  C   UNL     1     -19.742  29.632  20.433  1.00  0.00     0.000 C 
ENDROOT
BRANCH   1   2
ATOM      2  C   UNL     1     -20.409  28.904  19.253  1.00  0.00     0.000 C 
BRANCH   2   3
ATOM      3  C   UNL     1     -21.939  28.835  19.393  1.00  0.00     0.000 C 
BRANCH   3   4
ATOM      4  C   UNL     1     -22.422  29.162  20.816  1.00  0.00     0.000 C 
BRANCH   4   5
ATOM      5  C   UNL     1     -23.178  27.990  21.461  1.00  0.00     0.000 C 
BRANCH   5   6
ATOM      6  C   UNL     1     -22.410  27.358  22.635  1.00  0.00     0.000 C 
BRANCH   6   7
ATOM      7  C   UNL     1     -21.247  26.460  22.175  1.00  0.00     0.000 C 
BRANCH   7   8
ATOM      8  C   UNL     1     -21.671  25.175  21.439  1.00  0.00     0.000 C 
BRANCH   8   9
ATOM      9  C   UNL     1     -21.314  25.193  19.945  1.00  0.00     0.000 C 
BRANCH   9  10
ATOM     10  C   UNL     1     -19.795  25.298  19.740  1.00  0.00     0.000 C 
BRANCH  10  11
ATOM     11  C   UNL     1     -19.068  23.979  20.082  1.00  0.00     0.000 C 
BRANCH  11  12
ATOM     12  C   UNL     1     -17.601  24.174  20.502  1.00  0.00     0.006 C 
BRANCH  12  13
ATOM     13  C   UNL     1     -17.407  25.340  21.478  1.00  0.00     0.053 C 
BRANCH  13  14
ATOM     14  C   UNL     1     -17.087  24.831  22.849  1.00  0.00     0.041 C 
ATOM     15  O   UNL     1     -16.162  25.358  23.521  1.00  0.00    -0.550 OA
ATOM     16  O   UNL     1     -17.828  23.790  23.394  1.00  0.00    -0.550 OA
ENDBRANCH  13  14
ENDBRANCH  12  13
ENDBRANCH  11  12
ENDBRANCH  10  11
ENDBRANCH   9  10
ENDBRANCH   8   9
ENDBRANCH   7   8
ENDBRANCH   6   7
ENDBRANCH   5   6
ENDBRANCH   4   5
ENDBRANCH   3   4
ENDBRANCH   2   3
ENDBRANCH   1   2
BRANCH   1  17
ATOM     17  C   UNL     1     -18.760  28.733  21.203  1.00  0.00     0.000 C 
BRANCH  17  18
ATOM     18  C   UNL     1     -18.367  29.324  22.569  1.00  0.00     0.000 C 
BRANCH  18  19
ATOM     19  C   UNL     1     -19.509  30.122  23.223  1.00  0.00     0.000 C 
BRANCH  19  20
ATOM     20  C   UNL     1     -19.124  31.541  23.685  1.00  0.00     0.000 C 
BRANCH  20  21
ATOM     21  C   UNL     1     -20.031  32.671  23.158  1.00  0.00     0.000 C 
BRANCH  21  22
ATOM     22  C   UNL     1     -21.439  32.225  22.723  1.00  0.00    -0.000 C 
BRANCH  22  23
ATOM     23  C   UNL     1     -21.844  32.780  21.350  1.00  0.00    -0.000 C 
BRANCH  23  24
ATOM     24  C   UNL     1     -23.373  32.834  21.208  1.00  0.00    -0.000 C 
BRANCH  24  25
ATOM     25  C   UNL     1     -23.900  34.270  21.006  1.00  0.00    -0.000 C 
BRANCH  25  26
ATOM     26  C   UNL     1     -23.399  35.273  22.064  1.00  0.00    -0.000 C 
BRANCH  26  27
ATOM     27  C   UNL     1     -22.673  36.509  21.501  1.00  0.00    -0.000 C 
BRANCH  27  28
ATOM     28  C   UNL     1     -23.370  37.855  21.777  1.00  0.00    -0.000 C 
BRANCH  28  29
ATOM     29  C   UNL     1     -22.385  39.028  21.871  1.00  0.00    -0.003 C 
ATOM     30  C   UNL     1     -22.464  39.913  20.630  1.00  0.00     0.004 C 
ENDBRANCH  28  29
ENDBRANCH  27  28
ENDBRANCH  26  27
ENDBRANCH  25  26
ENDBRANCH  24  25
ENDBRANCH  23  24
ENDBRANCH  22  23
ENDBRANCH  21  22
ENDBRANCH  20  21
ENDBRANCH  19  20
ENDBRANCH  18  19
ENDBRANCH  17  18
ENDBRANCH   1  17
TORSDOF 26
ENDMDL
MODEL 7
REMARK VINA RESULT:    -3.219      1.600      4.198
REMARK INTER + INTRA:         -12.346
REMARK INTER:                  -9.109
REMARK INTRA:                  -3.237
REMARK UNBOUND:                -4.233
REMARK SMILES CCCCCCCCCCCCCCCCCCCCCCCCCCCC(=O)[O-]
REMARK SMILES IDX 15 1 16 2 17 3 18 4 19 5 20 6 21 7 22 8 23 9 24 10 25 11
REMARK SMILES IDX 26 12 27 13 28 14 29 15 30 16 14 17 13 18 12 19 11 20 10 21
REMARK SMILES IDX 9 22 8 23 7 24 6 25 5 26 4 27 3 28 2 29 1 30
REMARK H PARENT
REMARK Flexibility Score: inf
ROOT
ATOM      1  C   UNL     1     -20.107  33.127  23.083  1.00  0.00     0.000 C 
ENDROOT
BRANCH   1   2
ATOM      2  C   UNL     1     -21.492  32.632  23.537  1.00  0.00     0.000 C 
BRANCH   2   3
ATOM      3  C   UNL     1     -22.538  32.699  22.412  1.00  0.00     0.000 C 
BRANCH   3   4
ATOM      4  C   UNL     1     -22.028  33.444  21.167  1.00  0.00     0.000 C 
BRANCH   4   5
ATOM      5  C   UNL     1     -23.080  34.401  20.585  1.00  0.00     0.000 C 
BRANCH   5   6
ATOM      6  C   UNL     1     -23.336  35.624  21.484  1.00  0.00     0.000 C 
BRANCH   6   7
ATOM      7  C   UNL     1     -22.059  36.134  22.178  1.00  0.00     0.000 C 
BRANCH   7   8
ATOM      8  C   UNL     1     -22.206  37.489  22.895  1.00  0.00     0.000 C 
BRANCH   8   9
ATOM      9  C   UNL     1     -23.135  38.463  22.155  1.00  0.00     0.000 C 
BRANCH   9  10
ATOM     10  C   UNL     1     -22.414  39.123  20.969  1.00  0.00     0.000 C 
BRANCH  10  11
ATOM     11  C   UNL     1     -23.003  40.508  20.626  1.00  0.00     0.000 C 
BRANCH  11  12
ATOM     12  C   UNL     1     -21.970  41.647  20.668  1.00  0.00     0.006 C 
BRANCH  12  13
ATOM     13  C   UNL     1     -21.247  41.750  22.017  1.00  0.00     0.053 C 
BRANCH  13  14
ATOM     14  C   UNL     1     -19.813  41.344  21.878  1.00  0.00     0.041 C 
ATOM     15  O   UNL     1     -19.159  40.970  22.887  1.00  0.00    -0.550 OA
ATOM     16  O   UNL     1     -19.205  41.356  20.628  1.00  0.00    -0.550 OA
ENDBRANCH  13  14
ENDBRANCH  12  13
ENDBRANCH  11  12
ENDBRANCH  10  11
ENDBRANCH   9  10
ENDBRANCH   8   9
ENDBRANCH   7   8
ENDBRANCH   6   7
ENDBRANCH   5   6
ENDBRANCH   4   5
ENDBRANCH   3   4
ENDBRANCH   2   3
ENDBRANCH   1   2
BRANCH   1  17
ATOM     17  C   UNL     1     -18.960  32.476  23.874  1.00  0.00     0.000 C 
BRANCH  17  18
ATOM     18  C   UNL     1     -19.124  30.951  24.004  1.00  0.00     0.000 C 
BRANCH  18  19
ATOM     19  C   UNL     1     -17.781  30.202  23.959  1.00  0.00     0.000 C 
BRANCH  19  20
ATOM     20  C   UNL     1     -17.679  29.122  22.864  1.00  0.00     0.000 C 
BRANCH  20  21
ATOM     21  C   UNL     1     -19.027  28.641  22.289  1.00  0.00     0.000 C 
BRANCH  21  22
ATOM     22  C   UNL     1     -19.297  29.052  20.830  1.00  0.00    -0.000 C 
BRANCH  22  23
ATOM     23  C   UNL     1     -20.382  30.131  20.705  1.00  0.00    -0.000 C 
BRANCH  23  24
ATOM     24  C   UNL     1     -21.786  29.510  20.773  1.00  0.00    -0.000 C 
BRANCH  24  25
ATOM     25  C   UNL     1     -22.205  28.845  19.446  1.00  0.00    -0.000 C 
BRANCH  25  26
ATOM     26  C   UNL     1     -22.938  27.501  19.626  1.00  0.00    -0.000 C 
BRANCH  26  27
ATOM     27  C   UNL     1     -22.191  26.457  20.478  1.00  0.00    -0.000 C 
BRANCH  27  28
ATOM     28  C   UNL     1     -21.433  25.384  19.674  1.00  0.00    -0.000 C 
BRANCH  28  29
ATOM     29  C   UNL     1     -19.908  25.521  19.789  1.00  0.00    -0.003 C 
ATOM     30  C   UNL     1     -19.425  25.134  21.183  1.00  0.00     0.004 C 
ENDBRANCH  28  29
ENDBRANCH  27  28
ENDBRANCH  26  27
ENDBRANCH  25  26
ENDBRANCH  24  25
ENDBRANCH  23  24
ENDBRANCH  22  23
ENDBRANCH  21  22
ENDBRANCH  20  21
ENDBRANCH  19  20
ENDBRANCH  18  19
ENDBRANCH  17  18
ENDBRANCH   1  17
TORSDOF 26
ENDMDL
MODEL 8
REMARK VINA RESULT:    -3.190      4.749     10.103
REMARK INTER + INTRA:         -12.271
REMARK INTER:                  -8.804
REMARK INTRA:                  -3.467
REMARK UNBOUND:                -4.233
REMARK SMILES CCCCCCCCCCCCCCCCCCCCCCCCCCCC(=O)[O-]
REMARK SMILES IDX 15 1 16 2 17 3 18 4 19 5 20 6 21 7 22 8 23 9 24 10 25 11
REMARK SMILES IDX 26 12 27 13 28 14 29 15 30 16 14 17 13 18 12 19 11 20 10 21
REMARK SMILES IDX 9 22 8 23 7 24 6 25 5 26 4 27 3 28 2 29 1 30
REMARK H PARENT
REMARK Flexibility Score: inf
ROOT
ATOM      1  C   UNL     1     -19.652  29.697  20.230  1.00  0.00     0.000 C 
ENDROOT
BRANCH   1   2
ATOM      2  C   UNL     1     -19.078  28.796  21.338  1.00  0.00     0.000 C 
BRANCH   2   3
ATOM      3  C   UNL     1     -19.650  29.132  22.725  1.00  0.00     0.000 C 
BRANCH   3   4
ATOM      4  C   UNL     1     -20.106  27.885  23.500  1.00  0.00     0.000 C 
BRANCH   4   5
ATOM      5  C   UNL     1     -19.860  26.586  22.716  1.00  0.00     0.000 C 
BRANCH   5   6
ATOM      6  C   UNL     1     -18.723  25.736  23.311  1.00  0.00     0.000 C 
BRANCH   6   7
ATOM      7  C   UNL     1     -17.385  25.928  22.573  1.00  0.00     0.000 C 
BRANCH   7   8
ATOM      8  C   UNL     1     -17.013  24.796  21.598  1.00  0.00     0.000 C 
BRANCH   8   9
ATOM      9  C   UNL     1     -17.869  23.535  21.785  1.00  0.00     0.000 C 
BRANCH   9  10
ATOM     10  C   UNL     1     -18.404  23.024  20.438  1.00  0.00     0.000 C 
BRANCH  10  11
ATOM     11  C   UNL     1     -18.996  24.160  19.577  1.00  0.00     0.000 C 
BRANCH  11  12
ATOM     12  C   UNL     1     -19.822  23.661  18.379  1.00  0.00     0.006 C 
BRANCH  12  13
ATOM     13  C   UNL     1     -18.984  23.482  17.107  1.00  0.00     0.053 C 
BRANCH  13  14
ATOM     14  C   UNL     1     -19.807  23.767  15.890  1.00  0.00     0.041 C 
ATOM     15  O   UNL     1     -19.256  24.168  14.831  1.00  0.00    -0.550 OA
ATOM     16  O   UNL     1     -21.181  23.566  15.918  1.00  0.00    -0.550 OA
ENDBRANCH  13  14
ENDBRANCH  12  13
ENDBRANCH  11  12
ENDBRANCH  10  11
ENDBRANCH   9  10
ENDBRANCH   8   9
ENDBRANCH   7   8
ENDBRANCH   6   7
ENDBRANCH   5   6
ENDBRANCH   4   5
ENDBRANCH   3   4
ENDBRANCH   2   3
ENDBRANCH   1   2
BRANCH   1  17
ATOM     17  C   UNL     1     -20.358  28.895  19.124  1.00  0.00     0.000 C 
BRANCH  17  18
ATOM     18  C   UNL     1     -20.805  27.501  19.601  1.00  0.00     0.000 C 
BRANCH  18  19
ATOM     19  C   UNL     1     -22.315  27.425  19.884  1.00  0.00     0.000 C 
BRANCH  19  20
ATOM     20  C   UNL     1     -23.053  28.777  19.825  1.00  0.00     0.000 C 
BRANCH  20  21
ATOM     21  C   UNL     1     -23.229  29.488  21.182  1.00  0.00     0.000 C 
BRANCH  21  22
ATOM     22  C   UNL     1     -23.257  31.025  21.114  1.00  0.00    -0.000 C 
BRANCH  22  23
ATOM     23  C   UNL     1     -22.614  31.690  22.339  1.00  0.00    -0.000 C 
BRANCH  23  24
ATOM     24  C   UNL     1     -21.305  32.399  21.956  1.00  0.00    -0.000 C 
BRANCH  24  25
ATOM     25  C   UNL     1     -21.218  33.830  22.525  1.00  0.00    -0.000 C 
BRANCH  25  26
ATOM     26  C   UNL     1     -21.491  34.933  21.484  1.00  0.00    -0.000 C 
BRANCH  26  27
ATOM     27  C   UNL     1     -22.976  35.141  21.125  1.00  0.00    -0.000 C 
BRANCH  27  28
ATOM     28  C   UNL     1     -23.661  36.315  21.848  1.00  0.00    -0.000 C 
BRANCH  28  29
ATOM     29  C   UNL     1     -22.667  37.383  22.325  1.00  0.00    -0.003 C 
ATOM     30  C   UNL     1     -22.673  38.594  21.396  1.00  0.00     0.004 C 
ENDBRANCH  28  29
ENDBRANCH  27  28
ENDBRANCH  26  27
ENDBRANCH  25  26
ENDBRANCH  24  25
ENDBRANCH  23  24
ENDBRANCH  22  23
ENDBRANCH  21  22
ENDBRANCH  20  21
ENDBRANCH  19  20
ENDBRANCH  18  19
ENDBRANCH  17  18
ENDBRANCH   1  17
TORSDOF 26
ENDMDL
MODEL 9
REMARK VINA RESULT:    -3.182      1.327      2.884
REMARK INTER + INTRA:         -12.252
REMARK INTER:                  -8.969
REMARK INTRA:                  -3.283
REMARK UNBOUND:                -4.233
REMARK SMILES CCCCCCCCCCCCCCCCCCCCCCCCCCCC(=O)[O-]
REMARK SMILES IDX 15 1 16 2 17 3 18 4 19 5 20 6 21 7 22 8 23 9 24 10 25 11
REMARK SMILES IDX 26 12 27 13 28 14 29 15 30 16 14 17 13 18 12 19 11 20 10 21
REMARK SMILES IDX 9 22 8 23 7 24 6 25 5 26 4 27 3 28 2 29 1 30
REMARK H PARENT
REMARK Flexibility Score: inf
ROOT
ATOM      1  C   UNL     1     -19.222  31.355  24.121  1.00  0.00     0.000 C 
ENDROOT
BRANCH   1   2
ATOM      2  C   UNL     1     -19.021  32.721  23.442  1.00  0.00     0.000 C 
BRANCH   2   3
ATOM      3  C   UNL     1     -20.352  33.391  23.061  1.00  0.00     0.000 C 
BRANCH   3   4
ATOM      4  C   UNL     1     -21.494  32.379  22.870  1.00  0.00     0.000 C 
BRANCH   4   5
ATOM      5  C   UNL     1     -22.127  32.468  21.473  1.00  0.00     0.000 C 
BRANCH   5   6
ATOM      6  C   UNL     1     -22.123  33.898  20.905  1.00  0.00     0.000 C 
BRANCH   6   7
ATOM      7  C   UNL     1     -23.514  34.557  20.931  1.00  0.00     0.000 C 
BRANCH   7   8
ATOM      8  C   UNL     1     -23.623  35.812  21.817  1.00  0.00     0.000 C 
BRANCH   8   9
ATOM      9  C   UNL     1     -22.282  36.539  21.997  1.00  0.00     0.000 C 
BRANCH   9  10
ATOM     10  C   UNL     1     -21.920  36.671  23.485  1.00  0.00     0.000 C 
BRANCH  10  11
ATOM     11  C   UNL     1     -21.632  38.134  23.886  1.00  0.00     0.000 C 
BRANCH  11  12
ATOM     12  C   UNL     1     -22.331  39.170  22.990  1.00  0.00     0.006 C 
BRANCH  12  13
ATOM     13  C   UNL     1     -21.387  40.277  22.506  1.00  0.00     0.053 C 
BRANCH  13  14
ATOM     14  C   UNL     1     -21.637  40.589  21.064  1.00  0.00     0.041 C 
ATOM     15  O   UNL     1     -21.184  41.649  20.557  1.00  0.00    -0.550 OA
ATOM     16  O   UNL     1     -22.351  39.697  20.273  1.00  0.00    -0.550 OA
ENDBRANCH  13  14
ENDBRANCH  12  13
ENDBRANCH  11  12
ENDBRANCH  10  11
ENDBRANCH   9  10
ENDBRANCH   8   9
ENDBRANCH   7   8
ENDBRANCH   6   7
ENDBRANCH   5   6
ENDBRANCH   4   5
ENDBRANCH   3   4
ENDBRANCH   2   3
ENDBRANCH   1   2
BRANCH   1  17
ATOM     17  C   UNL     1     -18.001  30.433  23.967  1.00  0.00     0.000 C 
BRANCH  17  18
ATOM     18  C   UNL     1     -18.350  29.104  23.274  1.00  0.00     0.000 C 
BRANCH  18  19
ATOM     19  C   UNL     1     -18.454  29.239  21.745  1.00  0.00     0.000 C 
BRANCH  19  20
ATOM     20  C   UNL     1     -19.887  29.420  21.207  1.00  0.00     0.000 C 
BRANCH  20  21
ATOM     21  C   UNL     1     -20.040  29.260  19.681  1.00  0.00     0.000 C 
BRANCH  21  22
ATOM     22  C   UNL     1     -21.460  28.906  19.203  1.00  0.00    -0.000 C 
BRANCH  22  23
ATOM     23  C   UNL     1     -22.314  28.251  20.298  1.00  0.00    -0.000 C 
BRANCH  23  24
ATOM     24  C   UNL     1     -23.115  27.067  19.736  1.00  0.00    -0.000 C 
BRANCH  24  25
ATOM     25  C   UNL     1     -22.622  25.708  20.275  1.00  0.00    -0.000 C 
BRANCH  25  26
ATOM     26  C   UNL     1     -22.290  24.684  19.172  1.00  0.00    -0.000 C 
BRANCH  26  27
ATOM     27  C   UNL     1     -20.790  24.373  18.999  1.00  0.00    -0.000 C 
BRANCH  27  28
ATOM     28  C   UNL     1     -19.837  25.361  19.696  1.00  0.00    -0.000 C 
BRANCH  28  29
ATOM     29  C   UNL     1     -18.837  24.666  20.630  1.00  0.00    -0.003 C 
ATOM     30  C   UNL     1     -18.108  25.679  21.508  1.00  0.00     0.004 C 
ENDBRANCH  28  29
ENDBRANCH  27  28
ENDBRANCH  26  27
ENDBRANCH  25  26
ENDBRANCH  24  25
ENDBRANCH  23  24
ENDBRANCH  22  23
ENDBRANCH  21  22
ENDBRANCH  20  21
ENDBRANCH  19  20
ENDBRANCH  18  19
ENDBRANCH  17  18
ENDBRANCH   1  17
TORSDOF 26
ENDMDL
