MODEL 1
REMARK VINA RESULT:    -4.272      0.000      0.000
REMARK INTER + INTRA:          -5.544
REMARK INTER:                  -5.271
REMARK INTRA:                  -0.273
REMARK UNBOUND:                -0.273
REMARK SMILES C=CC[C@@H](C)C(=O)CC
REMARK SMILES IDX 4 1 5 2 6 3 7 4 8 5 9 6 3 7 2 8 1 9
REMARK H PARENT
REMARK Flexibility Score: inf
ROOT
ATOM      1  C   UNL     1      -6.125  -3.588   8.228  1.00  0.00     0.057 C 
ATOM      2  C   UNL     1      -5.983  -4.301   6.877  1.00  0.00     0.016 C 
ENDROOT
BRANCH   1   3
ATOM      3  C   UNL     1      -4.775  -3.128   8.742  1.00  0.00     0.135 C 
ATOM      4  O   UNL     1      -4.500  -1.936   8.750  1.00  0.00    -0.299 OA
BRANCH   3   5
ATOM      5  C   UNL     1      -3.750  -4.116   9.234  1.00  0.00     0.072 C 
ATOM      6  C   UNL     1      -4.154  -4.684  10.591  1.00  0.00     0.012 C 
ENDBRANCH   3   5
ENDBRANCH   1   3
BRANCH   1   7
ATOM      7  C   UNL     1      -7.145  -2.428   8.185  1.00  0.00     0.038 C 
BRANCH   7   8
ATOM      8  C   UNL     1      -7.838  -2.175   9.500  1.00  0.00    -0.034 C 
ATOM      9  C   UNL     1      -7.653  -1.046  10.190  1.00  0.00     0.004 C 
ENDBRANCH   7   8
ENDBRANCH   1   7
TORSDOF 4
ENDMDL
MODEL 2
REMARK VINA RESULT:    -4.221      1.467      3.621
REMARK INTER + INTRA:          -5.482
REMARK INTER:                  -5.086
REMARK INTRA:                  -0.396
REMARK UNBOUND:                -0.273
REMARK SMILES C=CC[C@@H](C)C(=O)CC
REMARK SMILES IDX 4 1 5 2 6 3 7 4 8 5 9 6 3 7 2 8 1 9
REMARK H PARENT
REMARK Flexibility Score: inf
ROOT
ATOM      1  C   UNL     1      -6.303  -2.845   8.930  1.00  0.00     0.057 C 
ATOM      2  C   UNL     1      -7.244  -2.377  10.048  1.00  0.00     0.016 C 
ENDROOT
BRANCH   1   3
ATOM      3  C   UNL     1      -6.918  -2.596   7.566  1.00  0.00     0.135 C 
ATOM      4  O   UNL     1      -7.843  -1.804   7.450  1.00  0.00    -0.299 OA
BRANCH   3   5
ATOM      5  C   UNL     1      -6.419  -3.319   6.342  1.00  0.00     0.072 C 
ATOM      6  C   UNL     1      -5.939  -4.722   6.702  1.00  0.00     0.012 C 
ENDBRANCH   3   5
ENDBRANCH   1   3
BRANCH   1   7
ATOM      7  C   UNL     1      -4.892  -2.226   9.042  1.00  0.00     0.038 C 
BRANCH   7   8
ATOM      8  C   UNL     1      -3.794  -3.241   9.240  1.00  0.00    -0.034 C 
ATOM      9  C   UNL     1      -4.004  -4.392   9.884  1.00  0.00     0.004 C 
ENDBRANCH   7   8
ENDBRANCH   1   7
TORSDOF 4
ENDMDL
MODEL 3
REMARK VINA RESULT:    -4.219      1.712      2.981
REMARK INTER + INTRA:          -5.478
REMARK INTER:                  -5.053
REMARK INTRA:                  -0.425
REMARK UNBOUND:                -0.273
REMARK SMILES C=CC[C@@H](C)C(=O)CC
REMARK SMILES IDX 4 1 5 2 6 3 7 4 8 5 9 6 3 7 2 8 1 9
REMARK H PARENT
REMARK Flexibility Score: inf
ROOT
ATOM      1  C   UNL     1      -5.747  -2.227   8.433  1.00  0.00     0.057 C 
ATOM      2  C   UNL     1      -5.686  -0.716   8.694  1.00  0.00     0.016 C 
ENDROOT
BRANCH   1   3
ATOM      3  C   UNL     1      -5.900  -2.995   9.731  1.00  0.00     0.135 C 
ATOM      4  O   UNL     1      -6.935  -2.903  10.375  1.00  0.00    -0.299 OA
BRANCH   3   5
ATOM      5  C   UNL     1      -4.788  -3.865  10.257  1.00  0.00     0.072 C 
ATOM      6  C   UNL     1      -3.627  -3.915   9.269  1.00  0.00     0.012 C 
ENDBRANCH   3   5
ENDBRANCH   1   3
BRANCH   1   7
ATOM      7  C   UNL     1      -6.840  -2.610   7.411  1.00  0.00     0.038 C 
BRANCH   7   8
ATOM      8  C   UNL     1      -6.348  -3.493   6.292  1.00  0.00    -0.034 C 
ATOM      9  C   UNL     1      -5.866  -4.719   6.519  1.00  0.00     0.004 C 
ENDBRANCH   7   8
ENDBRANCH   1   7
TORSDOF 4
ENDMDL
MODEL 4
REMARK VINA RESULT:    -4.168      1.418      1.474
REMARK INTER + INTRA:          -5.416
REMARK INTER:                  -4.964
REMARK INTRA:                  -0.452
REMARK UNBOUND:                -0.273
REMARK SMILES C=CC[C@@H](C)C(=O)CC
REMARK SMILES IDX 4 1 5 2 6 3 7 4 8 5 9 6 3 7 2 8 1 9
REMARK H PARENT
REMARK Flexibility Score: inf
ROOT
ATOM      1  C   UNL     1      -6.028  -3.139   7.960  1.00  0.00     0.057 C 
ATOM      2  C   UNL     1      -6.558  -3.228   6.522  1.00  0.00     0.016 C 
ENDROOT
BRANCH   1   3
ATOM      3  C   UNL     1      -4.770  -3.970   8.124  1.00  0.00     0.135 C 
ATOM      4  O   UNL     1      -4.508  -4.846   7.312  1.00  0.00    -0.299 OA
BRANCH   3   5
ATOM      5  C   UNL     1      -3.835  -3.747   9.284  1.00  0.00     0.072 C 
ATOM      6  C   UNL     1      -4.390  -4.382  10.556  1.00  0.00     0.012 C 
ENDBRANCH   3   5
ENDBRANCH   1   3
BRANCH   1   7
ATOM      7  C   UNL     1      -5.816  -1.682   8.427  1.00  0.00     0.038 C 
BRANCH   7   8
ATOM      8  C   UNL     1      -6.606  -1.315   9.658  1.00  0.00    -0.034 C 
ATOM      9  C   UNL     1      -7.596  -2.085  10.119  1.00  0.00     0.004 C 
ENDBRANCH   7   8
ENDBRANCH   1   7
TORSDOF 4
ENDMDL
MODEL 5
REMARK VINA RESULT:    -4.018      1.397      3.646
REMARK INTER + INTRA:          -5.231
REMARK INTER:                  -4.929
REMARK INTRA:                  -0.301
REMARK UNBOUND:                -0.273
REMARK SMILES C=CC[C@@H](C)C(=O)CC
REMARK SMILES IDX 4 1 5 2 6 3 7 4 8 5 9 6 3 7 2 8 1 9
REMARK H PARENT
REMARK Flexibility Score: inf
ROOT
ATOM      1  C   UNL     1      -5.938  -2.665   7.606  1.00  0.00     0.057 C 
ATOM      2  C   UNL     1      -6.052  -4.089   7.044  1.00  0.00     0.016 C 
ENDROOT
BRANCH   1   3
ATOM      3  C   UNL     1      -7.292  -2.153   8.060  1.00  0.00     0.135 C 
ATOM      4  O   UNL     1      -8.059  -1.657   7.248  1.00  0.00    -0.299 OA
BRANCH   3   5
ATOM      5  C   UNL     1      -7.709  -2.229   9.506  1.00  0.00     0.072 C 
ATOM      6  C   UNL     1      -8.023  -0.840  10.052  1.00  0.00     0.012 C 
ENDBRANCH   3   5
ENDBRANCH   1   3
BRANCH   1   7
ATOM      7  C   UNL     1      -4.879  -2.549   8.725  1.00  0.00     0.038 C 
BRANCH   7   8
ATOM      8  C   UNL     1      -4.121  -3.827   8.982  1.00  0.00    -0.034 C 
ATOM      9  C   UNL     1      -4.097  -4.404  10.187  1.00  0.00     0.004 C 
ENDBRANCH   7   8
ENDBRANCH   1   7
TORSDOF 4
ENDMDL
MODEL 6
REMARK VINA RESULT:    -4.018      1.117      3.542
REMARK INTER + INTRA:          -5.230
REMARK INTER:                  -4.886
REMARK INTRA:                  -0.345
REMARK UNBOUND:                -0.273
REMARK SMILES C=CC[C@@H](C)C(=O)CC
REMARK SMILES IDX 4 1 5 2 6 3 7 4 8 5 9 6 3 7 2 8 1 9
REMARK H PARENT
REMARK Flexibility Score: inf
ROOT
ATOM      1  C   UNL     1      -5.359  -3.826   9.406  1.00  0.00     0.057 C 
ATOM      2  C   UNL     1      -4.481  -4.315  10.565  1.00  0.00     0.016 C 
ENDROOT
BRANCH   1   3
ATOM      3  C   UNL     1      -5.743  -2.371   9.594  1.00  0.00     0.135 C 
ATOM      4  O   UNL     1      -4.948  -1.489   9.304  1.00  0.00    -0.299 OA
BRANCH   3   5
ATOM      5  C   UNL     1      -7.090  -1.986  10.148  1.00  0.00     0.072 C 
ATOM      6  C   UNL     1      -7.977  -1.398   9.055  1.00  0.00     0.012 C 
ENDBRANCH   3   5
ENDBRANCH   1   3
BRANCH   1   7
ATOM      7  C   UNL     1      -4.712  -4.072   8.024  1.00  0.00     0.038 C 
BRANCH   7   8
ATOM      8  C   UNL     1      -5.698  -4.440   6.945  1.00  0.00    -0.034 C 
ATOM      9  C   UNL     1      -6.401  -3.515   6.285  1.00  0.00     0.004 C 
ENDBRANCH   7   8
ENDBRANCH   1   7
TORSDOF 4
ENDMDL
MODEL 7
REMARK VINA RESULT:    -3.993      1.678      2.776
REMARK INTER + INTRA:          -5.200
REMARK INTER:                  -4.970
REMARK INTRA:                  -0.230
REMARK UNBOUND:                -0.273
REMARK SMILES C=CC[C@@H](C)C(=O)CC
REMARK SMILES IDX 4 1 5 2 6 3 7 4 8 5 9 6 3 7 2 8 1 9
REMARK H PARENT
REMARK Flexibility Score: inf
ROOT
ATOM      1  C   UNL     1      -6.760  -2.002   8.782  1.00  0.00     0.057 C 
ATOM      2  C   UNL     1      -5.787  -0.817   8.841  1.00  0.00     0.016 C 
ENDROOT
BRANCH   1   3
ATOM      3  C   UNL     1      -6.012  -3.320   8.844  1.00  0.00     0.135 C 
ATOM      4  O   UNL     1      -5.747  -3.818   9.928  1.00  0.00    -0.299 OA
BRANCH   3   5
ATOM      5  C   UNL     1      -5.574  -4.027   7.589  1.00  0.00     0.072 C 
ATOM      6  C   UNL     1      -6.384  -3.549   6.387  1.00  0.00     0.012 C 
ENDBRANCH   3   5
ENDBRANCH   1   3
BRANCH   1   7
ATOM      7  C   UNL     1      -7.864  -1.920   9.860  1.00  0.00     0.038 C 
BRANCH   7   8
ATOM      8  C   UNL     1      -8.465  -0.546  10.015  1.00  0.00    -0.034 C 
ATOM      9  C   UNL     1      -9.649  -0.229   9.482  1.00  0.00     0.004 C 
ENDBRANCH   7   8
ENDBRANCH   1   7
TORSDOF 4
ENDMDL
MODEL 8
REMARK VINA RESULT:    -3.976      2.144      4.436
REMARK INTER + INTRA:          -5.179
REMARK INTER:                  -4.999
REMARK INTRA:                  -0.181
REMARK UNBOUND:                -0.273
REMARK SMILES C=CC[C@@H](C)C(=O)CC
REMARK SMILES IDX 4 1 5 2 6 3 7 4 8 5 9 6 3 7 2 8 1 9
REMARK H PARENT
REMARK Flexibility Score: inf
ROOT
ATOM      1  C   UNL     1      -7.005  -1.994   7.833  1.00  0.00     0.057 C 
ATOM      2  C   UNL     1      -7.959  -1.848   6.640  1.00  0.00     0.016 C 
ENDROOT
BRANCH   1   3
ATOM      3  C   UNL     1      -7.676  -1.550   9.119  1.00  0.00     0.135 C 
ATOM      4  O   UNL     1      -7.745  -2.320  10.066  1.00  0.00    -0.299 OA
BRANCH   3   5
ATOM      5  C   UNL     1      -8.275  -0.175   9.251  1.00  0.00     0.072 C 
ATOM      6  C   UNL     1      -9.767  -0.262   9.556  1.00  0.00     0.012 C 
ENDBRANCH   3   5
ENDBRANCH   1   3
BRANCH   1   7
ATOM      7  C   UNL     1      -6.419  -3.418   7.956  1.00  0.00     0.038 C 
BRANCH   7   8
ATOM      8  C   UNL     1      -6.030  -4.034   6.636  1.00  0.00    -0.034 C 
ATOM      9  C   UNL     1      -5.596  -5.295   6.545  1.00  0.00     0.004 C 
ENDBRANCH   7   8
ENDBRANCH   1   7
TORSDOF 4
ENDMDL
MODEL 9
REMARK VINA RESULT:    -3.913      1.883      4.120
REMARK INTER + INTRA:          -5.102
REMARK INTER:                  -4.606
REMARK INTRA:                  -0.496
REMARK UNBOUND:                -0.273
REMARK SMILES C=CC[C@@H](C)C(=O)CC
REMARK SMILES IDX 4 1 5 2 6 3 7 4 8 5 9 6 3 7 2 8 1 9
REMARK H PARENT
REMARK Flexibility Score: inf
ROOT
ATOM      1  C   UNL     1      -5.896  -2.110   9.483  1.00  0.00     0.057 C 
ATOM      2  C   UNL     1      -4.806  -1.263   8.813  1.00  0.00     0.016 C 
ENDROOT
BRANCH   1   3
ATOM      3  C   UNL     1      -7.276  -1.676   9.027  1.00  0.00     0.135 C 
ATOM      4  O   UNL     1      -8.269  -2.124   9.582  1.00  0.00    -0.299 OA
BRANCH   3   5
ATOM      5  C   UNL     1      -7.451  -0.707   7.888  1.00  0.00     0.072 C 
ATOM      6  C   UNL     1      -8.068  -1.401   6.677  1.00  0.00     0.012 C 
ENDBRANCH   3   5
ENDBRANCH   1   3
BRANCH   1   7
ATOM      7  C   UNL     1      -5.679  -3.626   9.281  1.00  0.00     0.038 C 
BRANCH   7   8
ATOM      8  C   UNL     1      -5.147  -3.991   7.918  1.00  0.00    -0.034 C 
ATOM      9  C   UNL     1      -5.949  -4.408   6.935  1.00  0.00     0.004 C 
ENDBRANCH   7   8
ENDBRANCH   1   7
TORSDOF 4
ENDMDL
