MODEL 1
REMARK VINA RESULT:    -4.899      0.000      0.000
REMARK INTER + INTRA:          -8.355
REMARK INTER:                  -7.476
REMARK INTRA:                  -0.879
REMARK UNBOUND:                -0.879
REMARK SMILES CCCCCCCCCCC(=O)[O-]
REMARK SMILES IDX 7 1 8 2 9 3 10 4 11 5 12 6 13 7 6 8 5 9 4 10 3 11 2 12 1 13
REMARK H PARENT
REMARK Flexibility Score: inf
ROOT
ATOM      1  C   UNL     1      26.994  11.319  34.825  1.00  0.00     0.000 C 
ENDROOT
BRANCH   1   2
ATOM      2  C   UNL     1      27.433  12.792  34.859  1.00  0.00     0.000 C 
BRANCH   2   3
ATOM      3  C   UNL     1      27.585  13.351  33.436  1.00  0.00     0.006 C 
BRANCH   3   4
ATOM      4  C   UNL     1      26.939  12.443  32.382  1.00  0.00     0.053 C 
BRANCH   4   5
ATOM      5  C   UNL     1      27.921  12.023  31.332  1.00  0.00     0.041 C 
ATOM      6  O   UNL     1      28.826  12.814  30.959  1.00  0.00    -0.550 OA
ATOM      7  O   UNL     1      27.815  10.770  30.742  1.00  0.00    -0.550 OA
ENDBRANCH   4   5
ENDBRANCH   3   4
ENDBRANCH   2   3
ENDBRANCH   1   2
BRANCH   1   8
ATOM      8  C   UNL     1      25.647  11.088  35.529  1.00  0.00     0.000 C 
BRANCH   8   9
ATOM      9  C   UNL     1      25.064  12.374  36.131  1.00  0.00    -0.000 C 
BRANCH   9  10
ATOM     10  C   UNL     1      23.615  12.589  35.665  1.00  0.00    -0.000 C 
BRANCH  10  11
ATOM     11  C   UNL     1      23.295  11.842  34.359  1.00  0.00    -0.000 C 
BRANCH  11  12
ATOM     12  C   UNL     1      21.951  11.102  34.416  1.00  0.00    -0.003 C 
ATOM     13  C   UNL     1      21.835  10.270  35.689  1.00  0.00     0.004 C 
ENDBRANCH  11  12
ENDBRANCH  10  11
ENDBRANCH   9  10
ENDBRANCH   8   9
ENDBRANCH   1   8
TORSDOF 9
ENDMDL
MODEL 2
REMARK VINA RESULT:    -4.830      0.886      1.388
REMARK INTER + INTRA:          -8.250
REMARK INTER:                  -7.594
REMARK INTRA:                  -0.656
REMARK UNBOUND:                -0.879
REMARK SMILES CCCCCCCCCCC(=O)[O-]
REMARK SMILES IDX 7 1 8 2 9 3 10 4 11 5 12 6 13 7 6 8 5 9 4 10 3 11 2 12 1 13
REMARK H PARENT
REMARK Flexibility Score: inf
ROOT
ATOM      1  C   UNL     1      26.073  11.151  34.569  1.00  0.00     0.000 C 
ENDROOT
BRANCH   1   2
ATOM      2  C   UNL     1      27.602  11.167  34.727  1.00  0.00     0.000 C 
BRANCH   2   3
ATOM      3  C   UNL     1      28.215  12.376  34.005  1.00  0.00     0.006 C 
BRANCH   3   4
ATOM      4  C   UNL     1      27.428  12.761  32.745  1.00  0.00     0.053 C 
BRANCH   4   5
ATOM      5  C   UNL     1      28.028  12.164  31.510  1.00  0.00     0.041 C 
ATOM      6  O   UNL     1      27.677  11.018  31.125  1.00  0.00    -0.550 OA
ATOM      7  O   UNL     1      28.999  12.860  30.802  1.00  0.00    -0.550 OA
ENDBRANCH   4   5
ENDBRANCH   3   4
ENDBRANCH   2   3
ENDBRANCH   1   2
BRANCH   1   8
ATOM      8  C   UNL     1      25.340  11.525  35.868  1.00  0.00     0.000 C 
BRANCH   8   9
ATOM      9  C   UNL     1      24.303  12.638  35.664  1.00  0.00    -0.000 C 
BRANCH   9  10
ATOM     10  C   UNL     1      23.145  12.151  34.779  1.00  0.00    -0.000 C 
BRANCH  10  11
ATOM     11  C   UNL     1      21.767  12.559  35.328  1.00  0.00    -0.000 C 
BRANCH  11  12
ATOM     12  C   UNL     1      20.822  11.361  35.501  1.00  0.00    -0.003 C 
ATOM     13  C   UNL     1      21.603  10.055  35.600  1.00  0.00     0.004 C 
ENDBRANCH  11  12
ENDBRANCH  10  11
ENDBRANCH   9  10
ENDBRANCH   8   9
ENDBRANCH   1   8
TORSDOF 9
ENDMDL
MODEL 3
REMARK VINA RESULT:    -4.733      2.117      3.410
REMARK INTER + INTRA:          -8.103
REMARK INTER:                  -7.351
REMARK INTRA:                  -0.752
REMARK UNBOUND:                -0.879
REMARK SMILES CCCCCCCCCCC(=O)[O-]
REMARK SMILES IDX 7 1 8 2 9 3 10 4 11 5 12 6 13 7 6 8 5 9 4 10 3 11 2 12 1 13
REMARK H PARENT
REMARK Flexibility Score: inf
ROOT
ATOM      1  C   UNL     1      23.428  11.515  34.299  1.00  0.00     0.000 C 
ENDROOT
BRANCH   1   2
ATOM      2  C   UNL     1      24.882  12.006  34.210  1.00  0.00     0.000 C 
BRANCH   2   3
ATOM      3  C   UNL     1      25.764  11.296  35.248  1.00  0.00     0.006 C 
BRANCH   3   4
ATOM      4  C   UNL     1      27.203  11.103  34.751  1.00  0.00     0.053 C 
BRANCH   4   5
ATOM      5  C   UNL     1      27.838  12.404  34.367  1.00  0.00     0.041 C 
ATOM      6  O   UNL     1      27.991  13.312  35.225  1.00  0.00    -0.550 OA
ATOM      7  O   UNL     1      28.231  12.626  33.053  1.00  0.00    -0.550 OA
ENDBRANCH   4   5
ENDBRANCH   3   4
ENDBRANCH   2   3
ENDBRANCH   1   2
BRANCH   1   8
ATOM      8  C   UNL     1      23.106  10.862  35.653  1.00  0.00     0.000 C 
BRANCH   8   9
ATOM      9  C   UNL     1      21.689  10.271  35.704  1.00  0.00    -0.000 C 
BRANCH   9  10
ATOM     10  C   UNL     1      20.704  11.143  34.910  1.00  0.00    -0.000 C 
BRANCH  10  11
ATOM     11  C   UNL     1      19.849  12.046  35.814  1.00  0.00    -0.000 C 
BRANCH  11  12
ATOM     12  C   UNL     1      20.182  13.536  35.646  1.00  0.00    -0.003 C 
ATOM     13  C   UNL     1      20.596  13.847  34.211  1.00  0.00     0.004 C 
ENDBRANCH  11  12
ENDBRANCH  10  11
ENDBRANCH   9  10
ENDBRANCH   8   9
ENDBRANCH   1   8
TORSDOF 9
ENDMDL
MODEL 4
REMARK VINA RESULT:    -4.695      4.449      6.747
REMARK INTER + INTRA:          -8.045
REMARK INTER:                  -7.500
REMARK INTRA:                  -0.545
REMARK UNBOUND:                -0.879
REMARK SMILES CCCCCCCCCCC(=O)[O-]
REMARK SMILES IDX 7 1 8 2 9 3 10 4 11 5 12 6 13 7 6 8 5 9 4 10 3 11 2 12 1 13
REMARK H PARENT
REMARK Flexibility Score: inf
ROOT
ATOM      1  C   UNL     1      24.056  11.914  34.690  1.00  0.00     0.000 C 
ENDROOT
BRANCH   1   2
ATOM      2  C   UNL     1      22.893  12.339  35.600  1.00  0.00     0.000 C 
BRANCH   2   3
ATOM      3  C   UNL     1      21.641  12.667  34.773  1.00  0.00     0.006 C 
BRANCH   3   4
ATOM      4  C   UNL     1      20.637  13.525  35.554  1.00  0.00     0.053 C 
BRANCH   4   5
ATOM      5  C   UNL     1      19.489  12.710  36.065  1.00  0.00     0.041 C 
ATOM      6  O   UNL     1      19.557  11.453  36.069  1.00  0.00    -0.550 OA
ATOM      7  O   UNL     1      18.331  13.338  36.506  1.00  0.00    -0.550 OA
ENDBRANCH   4   5
ENDBRANCH   3   4
ENDBRANCH   2   3
ENDBRANCH   1   2
BRANCH   1   8
ATOM      8  C   UNL     1      25.204  11.251  35.468  1.00  0.00     0.000 C 
BRANCH   8   9
ATOM      9  C   UNL     1      26.373  10.836  34.563  1.00  0.00    -0.000 C 
BRANCH   9  10
ATOM     10  C   UNL     1      27.665  11.561  34.969  1.00  0.00    -0.000 C 
BRANCH  10  11
ATOM     11  C   UNL     1      28.180  12.512  33.876  1.00  0.00    -0.000 C 
BRANCH  11  12
ATOM     12  C   UNL     1      27.352  13.803  33.777  1.00  0.00    -0.003 C 
ATOM     13  C   UNL     1      27.352  14.557  35.103  1.00  0.00     0.004 C 
ENDBRANCH  11  12
ENDBRANCH  10  11
ENDBRANCH   9  10
ENDBRANCH   8   9
ENDBRANCH   1   8
TORSDOF 9
ENDMDL
MODEL 5
REMARK VINA RESULT:    -4.586      3.478      5.597
REMARK INTER + INTRA:          -7.878
REMARK INTER:                  -6.867
REMARK INTRA:                  -1.011
REMARK UNBOUND:                -0.879
REMARK SMILES CCCCCCCCCCC(=O)[O-]
REMARK SMILES IDX 7 1 8 2 9 3 10 4 11 5 12 6 13 7 6 8 5 9 4 10 3 11 2 12 1 13
REMARK H PARENT
REMARK Flexibility Score: inf
ROOT
ATOM      1  C   UNL     1      25.669  12.447  35.747  1.00  0.00     0.000 C 
ENDROOT
BRANCH   1   2
ATOM      2  C   UNL     1      24.146  12.614  35.626  1.00  0.00     0.000 C 
BRANCH   2   3
ATOM      3  C   UNL     1      23.610  11.876  34.390  1.00  0.00     0.006 C 
BRANCH   3   4
ATOM      4  C   UNL     1      22.096  12.057  34.216  1.00  0.00     0.053 C 
BRANCH   4   5
ATOM      5  C   UNL     1      21.331  11.468  35.361  1.00  0.00     0.041 C 
ATOM      6  O   UNL     1      20.404  12.122  35.906  1.00  0.00    -0.550 OA
ATOM      7  O   UNL     1      21.663  10.209  35.845  1.00  0.00    -0.550 OA
ENDBRANCH   4   5
ENDBRANCH   3   4
ENDBRANCH   2   3
ENDBRANCH   1   2
BRANCH   1   8
ATOM      8  C   UNL     1      26.166  11.112  35.166  1.00  0.00     0.000 C 
BRANCH   8   9
ATOM      9  C   UNL     1      27.637  11.166  34.732  1.00  0.00    -0.000 C 
BRANCH   9  10
ATOM     10  C   UNL     1      28.007  12.567  34.221  1.00  0.00    -0.000 C 
BRANCH  10  11
ATOM     11  C   UNL     1      27.842  12.706  32.698  1.00  0.00    -0.000 C 
BRANCH  11  12
ATOM     12  C   UNL     1      26.523  13.388  32.306  1.00  0.00    -0.003 C 
ATOM     13  C   UNL     1      25.737  12.536  31.315  1.00  0.00     0.004 C 
ENDBRANCH  11  12
ENDBRANCH  10  11
ENDBRANCH   9  10
ENDBRANCH   8   9
ENDBRANCH   1   8
TORSDOF 9
ENDMDL
MODEL 6
REMARK VINA RESULT:    -4.567      4.027      6.425
REMARK INTER + INTRA:          -7.849
REMARK INTER:                  -7.373
REMARK INTRA:                  -0.475
REMARK UNBOUND:                -0.879
REMARK SMILES CCCCCCCCCCC(=O)[O-]
REMARK SMILES IDX 7 1 8 2 9 3 10 4 11 5 12 6 13 7 6 8 5 9 4 10 3 11 2 12 1 13
REMARK H PARENT
REMARK Flexibility Score: inf
ROOT
ATOM      1  C   UNL     1      24.534  12.275  36.171  1.00  0.00     0.000 C 
ENDROOT
BRANCH   1   2
ATOM      2  C   UNL     1      23.926  10.908  35.820  1.00  0.00     0.000 C 
BRANCH   2   3
ATOM      3  C   UNL     1      22.392  10.975  35.816  1.00  0.00     0.006 C 
BRANCH   3   4
ATOM      4  C   UNL     1      21.872  12.375  35.461  1.00  0.00     0.053 C 
BRANCH   4   5
ATOM      5  C   UNL     1      20.392  12.487  35.665  1.00  0.00     0.041 C 
ATOM      6  O   UNL     1      19.842  13.618  35.700  1.00  0.00    -0.550 OA
ATOM      7  O   UNL     1      19.627  11.342  35.847  1.00  0.00    -0.550 OA
ENDBRANCH   4   5
ENDBRANCH   3   4
ENDBRANCH   2   3
ENDBRANCH   1   2
BRANCH   1   8
ATOM      8  C   UNL     1      25.827  12.565  35.392  1.00  0.00     0.000 C 
BRANCH   8   9
ATOM      9  C   UNL     1      26.416  11.310  34.732  1.00  0.00    -0.000 C 
BRANCH   9  10
ATOM     10  C   UNL     1      27.864  11.555  34.284  1.00  0.00    -0.000 C 
BRANCH  10  11
ATOM     11  C   UNL     1      28.015  12.826  33.432  1.00  0.00    -0.000 C 
BRANCH  11  12
ATOM     12  C   UNL     1      27.463  12.653  32.009  1.00  0.00    -0.003 C 
ATOM     13  C   UNL     1      28.580  12.736  30.973  1.00  0.00     0.004 C 
ENDBRANCH  11  12
ENDBRANCH  10  11
ENDBRANCH   9  10
ENDBRANCH   8   9
ENDBRANCH   1   8
TORSDOF 9
ENDMDL
MODEL 7
REMARK VINA RESULT:    -4.564      3.664      6.239
REMARK INTER + INTRA:          -7.845
REMARK INTER:                  -7.220
REMARK INTRA:                  -0.625
REMARK UNBOUND:                -0.879
REMARK SMILES CCCCCCCCCCC(=O)[O-]
REMARK SMILES IDX 7 1 8 2 9 3 10 4 11 5 12 6 13 7 6 8 5 9 4 10 3 11 2 12 1 13
REMARK H PARENT
REMARK Flexibility Score: inf
ROOT
ATOM      1  C   UNL     1      24.230  12.446  35.272  1.00  0.00     0.000 C 
ENDROOT
BRANCH   1   2
ATOM      2  C   UNL     1      22.801  12.240  35.800  1.00  0.00     0.000 C 
BRANCH   2   3
ATOM      3  C   UNL     1      22.249  10.873  35.369  1.00  0.00     0.006 C 
BRANCH   3   4
ATOM      4  C   UNL     1      20.847  10.980  34.755  1.00  0.00     0.053 C 
BRANCH   4   5
ATOM      5  C   UNL     1      20.241   9.631  34.515  1.00  0.00     0.041 C 
ATOM      6  O   UNL     1      19.645   9.030  35.446  1.00  0.00    -0.550 OA
ATOM      7  O   UNL     1      20.362   9.026  33.271  1.00  0.00    -0.550 OA
ENDBRANCH   4   5
ENDBRANCH   3   4
ENDBRANCH   2   3
ENDBRANCH   1   2
BRANCH   1   8
ATOM      8  C   UNL     1      25.211  11.381  35.789  1.00  0.00     0.000 C 
BRANCH   8   9
ATOM      9  C   UNL     1      26.215  10.929  34.718  1.00  0.00    -0.000 C 
BRANCH   9  10
ATOM     10  C   UNL     1      27.607  11.520  34.989  1.00  0.00    -0.000 C 
BRANCH  10  11
ATOM     11  C   UNL     1      28.104  12.417  33.843  1.00  0.00    -0.000 C 
BRANCH  11  12
ATOM     12  C   UNL     1      27.367  13.764  33.784  1.00  0.00    -0.003 C 
ATOM     13  C   UNL     1      27.385  14.459  35.142  1.00  0.00     0.004 C 
ENDBRANCH  11  12
ENDBRANCH  10  11
ENDBRANCH   9  10
ENDBRANCH   8   9
ENDBRANCH   1   8
TORSDOF 9
ENDMDL
MODEL 8
REMARK VINA RESULT:    -4.363      2.238      3.046
REMARK INTER + INTRA:          -7.539
REMARK INTER:                  -6.724
REMARK INTRA:                  -0.815
REMARK UNBOUND:                -0.879
REMARK SMILES CCCCCCCCCCC(=O)[O-]
REMARK SMILES IDX 7 1 8 2 9 3 10 4 11 5 12 6 13 7 6 8 5 9 4 10 3 11 2 12 1 13
REMARK H PARENT
REMARK Flexibility Score: inf
ROOT
ATOM      1  C   UNL     1      24.308  12.294  33.681  1.00  0.00     0.000 C 
ENDROOT
BRANCH   1   2
ATOM      2  C   UNL     1      25.399  12.030  32.631  1.00  0.00     0.000 C 
BRANCH   2   3
ATOM      3  C   UNL     1      26.454  13.147  32.644  1.00  0.00     0.006 C 
BRANCH   3   4
ATOM      4  C   UNL     1      27.854  12.620  32.986  1.00  0.00     0.053 C 
BRANCH   4   5
ATOM      5  C   UNL     1      27.971  12.252  34.433  1.00  0.00     0.041 C 
ATOM      6  O   UNL     1      28.065  11.044  34.774  1.00  0.00    -0.550 OA
ATOM      7  O   UNL     1      27.944  13.242  35.408  1.00  0.00    -0.550 OA
ENDBRANCH   4   5
ENDBRANCH   3   4
ENDBRANCH   2   3
ENDBRANCH   1   2
BRANCH   1   8
ATOM      8  C   UNL     1      24.467  11.417  34.933  1.00  0.00     0.000 C 
BRANCH   8   9
ATOM      9  C   UNL     1      23.192  11.365  35.787  1.00  0.00    -0.000 C 
BRANCH   9  10
ATOM     10  C   UNL     1      22.004  10.843  34.964  1.00  0.00    -0.000 C 
BRANCH  10  11
ATOM     11  C   UNL     1      20.691  11.577  35.286  1.00  0.00    -0.000 C 
BRANCH  11  12
ATOM     12  C   UNL     1      20.892  13.087  35.486  1.00  0.00    -0.003 C 
ATOM     13  C   UNL     1      20.883  13.823  34.150  1.00  0.00     0.004 C 
ENDBRANCH  11  12
ENDBRANCH  10  11
ENDBRANCH   9  10
ENDBRANCH   8   9
ENDBRANCH   1   8
TORSDOF 9
ENDMDL
MODEL 9
REMARK VINA RESULT:    -4.359      1.914      3.372
REMARK INTER + INTRA:          -7.531
REMARK INTER:                  -6.991
REMARK INTRA:                  -0.540
REMARK UNBOUND:                -0.879
REMARK SMILES CCCCCCCCCCC(=O)[O-]
REMARK SMILES IDX 7 1 8 2 9 3 10 4 11 5 12 6 13 7 6 8 5 9 4 10 3 11 2 12 1 13
REMARK H PARENT
REMARK Flexibility Score: inf
ROOT
ATOM      1  C   UNL     1      23.786  12.190  35.545  1.00  0.00     0.000 C 
ENDROOT
BRANCH   1   2
ATOM      2  C   UNL     1      24.867  11.133  35.820  1.00  0.00     0.000 C 
BRANCH   2   3
ATOM      3  C   UNL     1      26.214  11.556  35.216  1.00  0.00     0.006 C 
BRANCH   3   4
ATOM      4  C   UNL     1      26.068  12.084  33.782  1.00  0.00     0.053 C 
BRANCH   4   5
ATOM      5  C   UNL     1      27.147  13.064  33.438  1.00  0.00     0.041 C 
ATOM      6  O   UNL     1      27.935  12.830  32.485  1.00  0.00    -0.550 OA
ATOM      7  O   UNL     1      27.302  14.222  34.190  1.00  0.00    -0.550 OA
ENDBRANCH   4   5
ENDBRANCH   3   4
ENDBRANCH   2   3
ENDBRANCH   1   2
BRANCH   1   8
ATOM      8  C   UNL     1      22.370  11.592  35.506  1.00  0.00     0.000 C 
BRANCH   8   9
ATOM      9  C   UNL     1      21.971  11.103  34.107  1.00  0.00    -0.000 C 
BRANCH   9  10
ATOM     10  C   UNL     1      20.938   9.969  34.197  1.00  0.00    -0.000 C 
BRANCH  10  11
ATOM     11  C   UNL     1      20.949   9.265  35.564  1.00  0.00    -0.000 C 
BRANCH  11  12
ATOM     12  C   UNL     1      19.549   9.168  36.190  1.00  0.00    -0.003 C 
ATOM     13  C   UNL     1      19.480   8.033  37.207  1.00  0.00     0.004 C 
ENDBRANCH  11  12
ENDBRANCH  10  11
ENDBRANCH   9  10
ENDBRANCH   8   9
ENDBRANCH   1   8
TORSDOF 9
ENDMDL
