MODEL 1
REMARK VINA RESULT:    -0.237      0.000      0.000
REMARK INTER + INTRA:          -0.237
REMARK INTER:                  -0.237
REMARK INTRA:                   0.000
REMARK UNBOUND:                 0.000
REMARK SMILES CC(=O)[O-]
REMARK SMILES IDX 1 1 2 2 3 3 4 4
REMARK H PARENT
REMARK Flexibility Score: inf
ROOT
ATOM      1  C   UNL     1       1.000   7.381 -26.029  1.00  0.00     0.063 C 
ATOM      2  C   UNL     1       0.500   8.771 -26.231  1.00  0.00     0.038 C 
ATOM      3  O   UNL     1       1.003   9.500 -27.125  1.00  0.00    -0.550 OA
ATOM      4  O   UNL     1      -0.558   9.248 -25.468  1.00  0.00    -0.550 OA
ENDROOT
TORSDOF 0
ENDMDL
MODEL 2
REMARK VINA RESULT:     0.037      1.393      2.076
REMARK INTER + INTRA:           0.037
REMARK INTER:                   0.037
REMARK INTRA:                   0.000
REMARK UNBOUND:                 0.000
REMARK SMILES CC(=O)[O-]
REMARK SMILES IDX 1 1 2 2 3 3 4 4
REMARK H PARENT
REMARK Flexibility Score: inf
ROOT
ATOM      1  C   UNL     1       1.000   9.495 -27.125  1.00  0.00     0.063 C 
ATOM      2  C   UNL     1       0.435   8.660 -26.026  1.00  0.00     0.038 C 
ATOM      3  O   UNL     1      -0.516   9.096 -25.326  1.00  0.00    -0.550 OA
ATOM      4  O   UNL     1       0.920   7.377 -25.807  1.00  0.00    -0.550 OA
ENDROOT
TORSDOF 0
ENDMDL
MODEL 3
REMARK VINA RESULT:     0.297      1.362      2.040
REMARK INTER + INTRA:           0.297
REMARK INTER:                   0.297
REMARK INTRA:                   0.000
REMARK UNBOUND:                 0.000
REMARK SMILES CC(=O)[O-]
REMARK SMILES IDX 1 1 2 2 3 3 4 4
REMARK H PARENT
REMARK Flexibility Score: inf
ROOT
ATOM      1  C   UNL     1      -0.601   9.124 -25.269  1.00  0.00     0.063 C 
ATOM      2  C   UNL     1       0.522   8.678 -26.143  1.00  0.00     0.038 C 
ATOM      3  O   UNL     1       0.991   7.516 -26.027  1.00  0.00    -0.550 OA
ATOM      4  O   UNL     1       1.019   9.526 -27.124  1.00  0.00    -0.550 OA
ENDROOT
TORSDOF 0
ENDMDL
MODEL 4
REMARK VINA RESULT:     0.550     10.723     11.318
REMARK INTER + INTRA:           0.550
REMARK INTER:                   0.550
REMARK INTRA:                   0.000
REMARK UNBOUND:                 0.000
REMARK SMILES CC(=O)[O-]
REMARK SMILES IDX 1 1 2 2 3 3 4 4
REMARK H PARENT
REMARK Flexibility Score: inf
ROOT
ATOM      1  C   UNL     1      -5.375  17.739 -25.999  1.00  0.00     0.063 C 
ATOM      2  C   UNL     1      -5.363  18.134 -24.561  1.00  0.00     0.038 C 
ATOM      3  O   UNL     1      -4.626  17.524 -23.744  1.00  0.00    -0.550 OA
ATOM      4  O   UNL     1      -6.125  19.212 -24.129  1.00  0.00    -0.550 OA
ENDROOT
TORSDOF 0
ENDMDL
MODEL 5
REMARK VINA RESULT:     0.899     10.092     10.768
REMARK INTER + INTRA:           0.899
REMARK INTER:                   0.899
REMARK INTRA:                   0.000
REMARK UNBOUND:                 0.000
REMARK SMILES CC(=O)[O-]
REMARK SMILES IDX 1 1 2 2 3 3 4 4
REMARK H PARENT
REMARK Flexibility Score: inf
ROOT
ATOM      1  C   UNL     1      -5.755  18.531 -25.681  1.00  0.00     0.063 C 
ATOM      2  C   UNL     1      -5.104  17.528 -24.790  1.00  0.00     0.038 C 
ATOM      3  O   UNL     1      -4.965  17.768 -23.563  1.00  0.00    -0.550 OA
ATOM      4  O   UNL     1      -4.697  16.302 -25.302  1.00  0.00    -0.550 OA
ENDROOT
TORSDOF 0
ENDMDL
MODEL 6
REMARK VINA RESULT:     1.066     15.627     16.188
REMARK INTER + INTRA:           1.066
REMARK INTER:                   1.066
REMARK INTRA:                   0.000
REMARK UNBOUND:                 0.000
REMARK SMILES CC(=O)[O-]
REMARK SMILES IDX 1 1 2 2 3 3 4 4
REMARK H PARENT
REMARK Flexibility Score: inf
ROOT
ATOM      1  C   UNL     1     -15.125  14.750 -22.623  1.00  0.00     0.063 C 
ATOM      2  C   UNL     1     -13.990  15.131 -23.512  1.00  0.00     0.038 C 
ATOM      3  O   UNL     1     -12.807  15.080 -23.084  1.00  0.00    -0.550 OA
ATOM      4  O   UNL     1     -14.229  15.492 -24.831  1.00  0.00    -0.550 OA
ENDROOT
TORSDOF 0
ENDMDL
MODEL 7
REMARK VINA RESULT:     2.084     25.073     25.685
REMARK INTER + INTRA:           2.084
REMARK INTER:                   2.084
REMARK INTRA:                   0.000
REMARK UNBOUND:                 0.000
REMARK SMILES CC(=O)[O-]
REMARK SMILES IDX 1 1 2 2 3 3 4 4
REMARK H PARENT
REMARK Flexibility Score: inf
ROOT
ATOM      1  C   UNL     1      -9.558  24.972 -10.526  1.00  0.00     0.063 C 
ATOM      2  C   UNL     1      -9.540  26.463 -10.569  1.00  0.00     0.038 C 
ATOM      3  O   UNL     1      -9.506  27.125  -9.499  1.00  0.00    -0.550 OA
ATOM      4  O   UNL     1      -9.507  27.124 -11.790  1.00  0.00    -0.550 OA
ENDROOT
TORSDOF 0
ENDMDL
MODEL 8
REMARK VINA RESULT:     2.465     13.407     13.906
REMARK INTER + INTRA:           2.465
REMARK INTER:                   2.465
REMARK INTRA:                   0.000
REMARK UNBOUND:                 0.000
REMARK SMILES CC(=O)[O-]
REMARK SMILES IDX 1 1 2 2 3 3 4 4
REMARK H PARENT
REMARK Flexibility Score: inf
ROOT
ATOM      1  C   UNL     1      -8.856  14.273 -19.300  1.00  0.00     0.063 C 
ATOM      2  C   UNL     1      -8.957  14.367 -17.815  1.00  0.00     0.038 C 
ATOM      3  O   UNL     1      -7.979  14.780 -17.140  1.00  0.00    -0.550 OA
ATOM      4  O   UNL     1     -10.149  14.050 -17.177  1.00  0.00    -0.550 OA
ENDROOT
TORSDOF 0
ENDMDL
