MODEL 1
REMARK VINA RESULT:    -3.983      0.000      0.000
REMARK INTER + INTRA:          -6.475
REMARK INTER:                  -6.078
REMARK INTRA:                  -0.397
REMARK UNBOUND:                -0.397
REMARK SMILES O=C([O-])CCCCCCCCC(=O)[O-]
REMARK SMILES IDX 7 1 6 2 5 3 4 4 2 5 1 6 3 7 8 8 9 9 10 10 11 11 12 12 13 13
REMARK SMILES IDX 14 14
REMARK H PARENT
REMARK Flexibility Score: inf
ROOT
ATOM      1  C   UNL     1      -7.243  16.935  -9.536  1.00  0.00     0.000 C 
ENDROOT
BRANCH   1   2
ATOM      2  C   UNL     1      -6.419  16.277  -8.417  1.00  0.00     0.000 C 
BRANCH   2   3
ATOM      3  C   UNL     1      -5.918  17.293  -7.377  1.00  0.00     0.006 C 
BRANCH   3   4
ATOM      4  C   UNL     1      -5.021  16.640  -6.317  1.00  0.00     0.053 C 
BRANCH   4   5
ATOM      5  C   UNL     1      -4.446  17.651  -5.372  1.00  0.00     0.041 C 
ATOM      6  O   UNL     1      -4.129  17.316  -4.200  1.00  0.00    -0.550 OA
ATOM      7  O   UNL     1      -4.232  18.957  -5.797  1.00  0.00    -0.550 OA
ENDBRANCH   4   5
ENDBRANCH   3   4
ENDBRANCH   2   3
ENDBRANCH   1   2
BRANCH   1   8
ATOM      8  C   UNL     1      -6.414  17.921 -10.379  1.00  0.00     0.000 C 
BRANCH   8   9
ATOM      9  C   UNL     1      -7.275  18.706 -11.382  1.00  0.00     0.000 C 
BRANCH   9  10
ATOM     10  C   UNL     1      -8.765  18.719 -10.997  1.00  0.00     0.006 C 
BRANCH  10  11
ATOM     11  C   UNL     1      -9.659  18.191 -12.127  1.00  0.00     0.053 C 
BRANCH  11  12
ATOM     12  C   UNL     1     -10.688  17.230 -11.619  1.00  0.00     0.041 C 
ATOM     13  O   UNL     1     -10.404  16.431 -10.688  1.00  0.00    -0.550 OA
ATOM     14  O   UNL     1     -11.951  17.191 -12.197  1.00  0.00    -0.550 OA
ENDBRANCH  11  12
ENDBRANCH  10  11
ENDBRANCH   9  10
ENDBRANCH   8   9
ENDBRANCH   1   8
TORSDOF 9
ENDMDL
MODEL 2
REMARK VINA RESULT:    -3.979      1.483      2.034
REMARK INTER + INTRA:          -6.470
REMARK INTER:                  -5.771
REMARK INTRA:                  -0.699
REMARK UNBOUND:                -0.397
REMARK SMILES O=C([O-])CCCCCCCCC(=O)[O-]
REMARK SMILES IDX 7 1 6 2 5 3 4 4 2 5 1 6 3 7 8 8 9 9 10 10 11 11 12 12 13 13
REMARK SMILES IDX 14 14
REMARK H PARENT
REMARK Flexibility Score: inf
ROOT
ATOM      1  C   UNL     1      -7.012  19.148  -9.587  1.00  0.00     0.000 C 
ENDROOT
BRANCH   1   2
ATOM      2  C   UNL     1      -6.762  17.748 -10.169  1.00  0.00     0.000 C 
BRANCH   2   3
ATOM      3  C   UNL     1      -7.005  16.629  -9.142  1.00  0.00     0.006 C 
BRANCH   3   4
ATOM      4  C   UNL     1      -6.655  17.068  -7.714  1.00  0.00     0.053 C 
BRANCH   4   5
ATOM      5  C   UNL     1      -5.298  16.587  -7.299  1.00  0.00     0.041 C 
ATOM      6  O   UNL     1      -5.031  16.416  -6.081  1.00  0.00    -0.550 OA
ATOM      7  O   UNL     1      -4.338  16.299  -8.262  1.00  0.00    -0.550 OA
ENDBRANCH   4   5
ENDBRANCH   3   4
ENDBRANCH   2   3
ENDBRANCH   1   2
BRANCH   1   8
ATOM      8  C   UNL     1      -8.069  19.939 -10.378  1.00  0.00     0.000 C 
BRANCH   8   9
ATOM      9  C   UNL     1      -8.292  19.374 -11.790  1.00  0.00     0.000 C 
BRANCH   9  10
ATOM     10  C   UNL     1      -9.773  19.398 -12.208  1.00  0.00     0.006 C 
BRANCH  10  11
ATOM     11  C   UNL     1     -10.692  18.834 -11.116  1.00  0.00     0.053 C 
BRANCH  11  12
ATOM     12  C   UNL     1     -10.967  17.376 -11.321  1.00  0.00     0.041 C 
ATOM     13  O   UNL     1     -10.347  16.513 -10.645  1.00  0.00    -0.550 OA
ATOM     14  O   UNL     1     -11.884  16.969 -12.282  1.00  0.00    -0.550 OA
ENDBRANCH  11  12
ENDBRANCH  10  11
ENDBRANCH   9  10
ENDBRANCH   8   9
ENDBRANCH   1   8
TORSDOF 9
ENDMDL
MODEL 3
REMARK VINA RESULT:    -3.950      1.261      1.585
REMARK INTER + INTRA:          -6.425
REMARK INTER:                  -5.642
REMARK INTRA:                  -0.782
REMARK UNBOUND:                -0.397
REMARK SMILES O=C([O-])CCCCCCCCC(=O)[O-]
REMARK SMILES IDX 7 1 6 2 5 3 4 4 2 5 1 6 3 7 8 8 9 9 10 10 11 11 12 12 13 13
REMARK SMILES IDX 14 14
REMARK H PARENT
REMARK Flexibility Score: inf
ROOT
ATOM      1  C   UNL     1      -7.084  16.577  -8.672  1.00  0.00     0.000 C 
ENDROOT
BRANCH   1   2
ATOM      2  C   UNL     1      -6.528  16.893  -7.275  1.00  0.00     0.000 C 
BRANCH   2   3
ATOM      3  C   UNL     1      -5.035  16.550  -7.141  1.00  0.00     0.006 C 
BRANCH   3   4
ATOM      4  C   UNL     1      -4.266  17.611  -6.342  1.00  0.00     0.053 C 
BRANCH   4   5
ATOM      5  C   UNL     1      -4.438  18.981  -6.925  1.00  0.00     0.041 C 
ATOM      6  O   UNL     1      -4.940  19.906  -6.235  1.00  0.00    -0.550 OA
ATOM      7  O   UNL     1      -4.014  19.242  -8.223  1.00  0.00    -0.550 OA
ENDBRANCH   4   5
ENDBRANCH   3   4
ENDBRANCH   2   3
ENDBRANCH   1   2
BRANCH   1   8
ATOM      8  C   UNL     1      -6.058  16.836  -9.790  1.00  0.00     0.000 C 
BRANCH   8   9
ATOM      9  C   UNL     1      -6.417  18.061 -10.646  1.00  0.00     0.000 C 
BRANCH   9  10
ATOM     10  C   UNL     1      -7.868  18.526 -10.431  1.00  0.00     0.006 C 
BRANCH  10  11
ATOM     11  C   UNL     1      -8.739  18.297 -11.674  1.00  0.00     0.053 C 
BRANCH  11  12
ATOM     12  C   UNL     1     -10.017  17.594 -11.335  1.00  0.00     0.041 C 
ATOM     13  O   UNL     1      -9.993  16.512 -10.691  1.00  0.00    -0.550 OA
ATOM     14  O   UNL     1     -11.233  18.115 -11.761  1.00  0.00    -0.550 OA
ENDBRANCH  11  12
ENDBRANCH  10  11
ENDBRANCH   9  10
ENDBRANCH   8   9
ENDBRANCH   1   8
TORSDOF 9
ENDMDL
MODEL 4
REMARK VINA RESULT:    -3.931      0.809      6.836
REMARK INTER + INTRA:          -6.397
REMARK INTER:                  -5.819
REMARK INTRA:                  -0.578
REMARK UNBOUND:                -0.397
REMARK SMILES O=C([O-])CCCCCCCCC(=O)[O-]
REMARK SMILES IDX 7 1 6 2 5 3 4 4 2 5 1 6 3 7 8 8 9 9 10 10 11 11 12 12 13 13
REMARK SMILES IDX 14 14
REMARK H PARENT
REMARK Flexibility Score: inf
ROOT
ATOM      1  C   UNL     1      -5.790  17.726 -10.699  1.00  0.00     0.000 C 
ENDROOT
BRANCH   1   2
ATOM      2  C   UNL     1      -7.003  18.644 -10.487  1.00  0.00     0.000 C 
BRANCH   2   3
ATOM      3  C   UNL     1      -7.991  18.600 -11.665  1.00  0.00     0.006 C 
BRANCH   3   4
ATOM      4  C   UNL     1      -9.417  18.977 -11.239  1.00  0.00     0.053 C 
BRANCH   4   5
ATOM      5  C   UNL     1     -10.331  17.790 -11.234  1.00  0.00     0.041 C 
ATOM      6  O   UNL     1     -11.518  17.902 -11.639  1.00  0.00    -0.550 OA
ATOM      7  O   UNL     1      -9.862  16.552 -10.812  1.00  0.00    -0.550 OA
ENDBRANCH   4   5
ENDBRANCH   3   4
ENDBRANCH   2   3
ENDBRANCH   1   2
BRANCH   1   8
ATOM      8  C   UNL     1      -5.702  16.607  -9.646  1.00  0.00     0.000 C 
BRANCH   8   9
ATOM      9  C   UNL     1      -6.946  16.548  -8.745  1.00  0.00     0.000 C 
BRANCH   9  10
ATOM     10  C   UNL     1      -6.617  16.813  -7.265  1.00  0.00     0.006 C 
BRANCH  10  11
ATOM     11  C   UNL     1      -5.143  16.535  -6.942  1.00  0.00     0.053 C 
BRANCH  11  12
ATOM     12  C   UNL     1      -4.631  17.437  -5.861  1.00  0.00     0.041 C 
ATOM     13  O   UNL     1      -4.418  16.984  -4.706  1.00  0.00    -0.550 OA
ATOM     14  O   UNL     1      -4.424  18.786  -6.121  1.00  0.00    -0.550 OA
ENDBRANCH  11  12
ENDBRANCH  10  11
ENDBRANCH   9  10
ENDBRANCH   8   9
ENDBRANCH   1   8
TORSDOF 9
ENDMDL
MODEL 5
REMARK VINA RESULT:    -3.801      2.300      3.295
REMARK INTER + INTRA:          -6.198
REMARK INTER:                  -5.783
REMARK INTRA:                  -0.415
REMARK UNBOUND:                -0.397
REMARK SMILES O=C([O-])CCCCCCCCC(=O)[O-]
REMARK SMILES IDX 7 1 6 2 5 3 4 4 2 5 1 6 3 7 8 8 9 9 10 10 11 11 12 12 13 13
REMARK SMILES IDX 14 14
REMARK H PARENT
REMARK Flexibility Score: inf
ROOT
ATOM      1  C   UNL     1      -8.430  18.070 -11.033  1.00  0.00     0.000 C 
ENDROOT
BRANCH   1   2
ATOM      2  C   UNL     1      -7.336  18.153  -9.956  1.00  0.00     0.000 C 
BRANCH   2   3
ATOM      3  C   UNL     1      -6.804  16.768  -9.548  1.00  0.00     0.006 C 
BRANCH   3   4
ATOM      4  C   UNL     1      -6.754  16.595  -8.024  1.00  0.00     0.053 C 
BRANCH   4   5
ATOM      5  C   UNL     1      -5.346  16.505  -7.519  1.00  0.00     0.041 C 
ATOM      6  O   UNL     1      -4.390  16.362  -8.326  1.00  0.00    -0.550 OA
ATOM      7  O   UNL     1      -5.088  16.611  -6.157  1.00  0.00    -0.550 OA
ENDBRANCH   4   5
ENDBRANCH   3   4
ENDBRANCH   2   3
ENDBRANCH   1   2
BRANCH   1   8
ATOM      8  C   UNL     1      -9.434  16.933 -10.770  1.00  0.00     0.000 C 
BRANCH   8   9
ATOM      9  C   UNL     1     -10.874  17.323 -11.138  1.00  0.00     0.000 C 
BRANCH   9  10
ATOM     10  C   UNL     1     -11.010  18.814 -11.494  1.00  0.00     0.006 C 
BRANCH  10  11
ATOM     11  C   UNL     1     -11.591  19.023 -12.899  1.00  0.00     0.053 C 
BRANCH  11  12
ATOM     12  C   UNL     1     -12.660  20.072 -12.907  1.00  0.00     0.041 C 
ATOM     13  O   UNL     1     -13.521  20.092 -13.826  1.00  0.00    -0.550 OA
ATOM     14  O   UNL     1     -12.685  21.049 -11.919  1.00  0.00    -0.550 OA
ENDBRANCH  11  12
ENDBRANCH  10  11
ENDBRANCH   9  10
ENDBRANCH   8   9
ENDBRANCH   1   8
TORSDOF 9
ENDMDL
MODEL 6
REMARK VINA RESULT:    -3.761      2.172      7.441
REMARK INTER + INTRA:          -6.137
REMARK INTER:                  -5.564
REMARK INTRA:                  -0.573
REMARK UNBOUND:                -0.397
REMARK SMILES O=C([O-])CCCCCCCCC(=O)[O-]
REMARK SMILES IDX 7 1 6 2 5 3 4 4 2 5 1 6 3 7 8 8 9 9 10 10 11 11 12 12 13 13
REMARK SMILES IDX 14 14
REMARK H PARENT
REMARK Flexibility Score: inf
ROOT
ATOM      1  C   UNL     1      -9.396  17.229 -11.013  1.00  0.00     0.000 C 
ENDROOT
BRANCH   1   2
ATOM      2  C   UNL     1     -10.851  17.711 -11.123  1.00  0.00     0.000 C 
BRANCH   2   3
ATOM      3  C   UNL     1     -10.963  19.243 -11.192  1.00  0.00     0.006 C 
BRANCH   3   4
ATOM      4  C   UNL     1     -11.992  19.701 -12.235  1.00  0.00     0.053 C 
BRANCH   4   5
ATOM      5  C   UNL     1     -11.582  19.325 -13.626  1.00  0.00     0.041 C 
ATOM      6  O   UNL     1     -12.437  18.894 -14.444  1.00  0.00    -0.550 OA
ATOM      7  O   UNL     1     -10.261  19.479 -14.028  1.00  0.00    -0.550 OA
ENDBRANCH   4   5
ENDBRANCH   3   4
ENDBRANCH   2   3
ENDBRANCH   1   2
BRANCH   1   8
ATOM      8  C   UNL     1      -8.380  18.375 -11.169  1.00  0.00     0.000 C 
BRANCH   8   9
ATOM      9  C   UNL     1      -7.028  18.057 -10.510  1.00  0.00     0.000 C 
BRANCH   9  10
ATOM     10  C   UNL     1      -7.133  16.940  -9.457  1.00  0.00     0.006 C 
BRANCH  10  11
ATOM     11  C   UNL     1      -6.587  17.378  -8.092  1.00  0.00     0.053 C 
BRANCH  11  12
ATOM     12  C   UNL     1      -5.369  16.598  -7.704  1.00  0.00     0.041 C 
ATOM     13  O   UNL     1      -5.255  16.142  -6.536  1.00  0.00    -0.550 OA
ATOM     14  O   UNL     1      -4.344  16.404  -8.622  1.00  0.00    -0.550 OA
ENDBRANCH  11  12
ENDBRANCH  10  11
ENDBRANCH   9  10
ENDBRANCH   8   9
ENDBRANCH   1   8
TORSDOF 9
ENDMDL
MODEL 7
REMARK VINA RESULT:    -3.572      1.309      7.092
REMARK INTER + INTRA:          -5.848
REMARK INTER:                  -5.392
REMARK INTRA:                  -0.456
REMARK UNBOUND:                -0.397
REMARK SMILES O=C([O-])CCCCCCCCC(=O)[O-]
REMARK SMILES IDX 7 1 6 2 5 3 4 4 2 5 1 6 3 7 8 8 9 9 10 10 11 11 12 12 13 13
REMARK SMILES IDX 14 14
REMARK H PARENT
REMARK Flexibility Score: inf
ROOT
ATOM      1  C   UNL     1      -7.493  18.554 -10.425  1.00  0.00     0.000 C 
ENDROOT
BRANCH   1   2
ATOM      2  C   UNL     1      -7.801  18.831 -11.905  1.00  0.00     0.000 C 
BRANCH   2   3
ATOM      3  C   UNL     1      -9.292  19.118 -12.154  1.00  0.00     0.006 C 
BRANCH   3   4
ATOM      4  C   UNL     1      -9.987  17.966 -12.892  1.00  0.00     0.053 C 
BRANCH   4   5
ATOM      5  C   UNL     1     -11.247  17.540 -12.200  1.00  0.00     0.041 C 
ATOM      6  O   UNL     1     -11.215  17.168 -10.997  1.00  0.00    -0.550 OA
ATOM      7  O   UNL     1     -12.460  17.582 -12.876  1.00  0.00    -0.550 OA
ENDBRANCH   4   5
ENDBRANCH   3   4
ENDBRANCH   2   3
ENDBRANCH   1   2
BRANCH   1   8
ATOM      8  C   UNL     1      -7.849  17.116 -10.005  1.00  0.00     0.000 C 
BRANCH   8   9
ATOM      9  C   UNL     1      -6.807  16.505  -9.055  1.00  0.00     0.000 C 
BRANCH   9  10
ATOM     10  C   UNL     1      -5.383  16.541  -9.638  1.00  0.00     0.006 C 
BRANCH  10  11
ATOM     11  C   UNL     1      -4.309  16.403  -8.551  1.00  0.00     0.053 C 
BRANCH  11  12
ATOM     12  C   UNL     1      -4.692  17.127  -7.297  1.00  0.00     0.041 C 
ATOM     13  O   UNL     1      -4.672  18.385  -7.260  1.00  0.00    -0.550 OA
ATOM     14  O   UNL     1      -5.037  16.411  -6.158  1.00  0.00    -0.550 OA
ENDBRANCH  11  12
ENDBRANCH  10  11
ENDBRANCH   9  10
ENDBRANCH   8   9
ENDBRANCH   1   8
TORSDOF 9
ENDMDL
MODEL 8
REMARK VINA RESULT:    -3.499      1.866      6.993
REMARK INTER + INTRA:          -5.736
REMARK INTER:                  -5.192
REMARK INTRA:                  -0.544
REMARK UNBOUND:                -0.397
REMARK SMILES O=C([O-])CCCCCCCCC(=O)[O-]
REMARK SMILES IDX 7 1 6 2 5 3 4 4 2 5 1 6 3 7 8 8 9 9 10 10 11 11 12 12 13 13
REMARK SMILES IDX 14 14
REMARK H PARENT
REMARK Flexibility Score: inf
ROOT
ATOM      1  C   UNL     1      -8.859  19.733 -11.555  1.00  0.00     0.000 C 
ENDROOT
BRANCH   1   2
ATOM      2  C   UNL     1     -10.019  20.049 -10.598  1.00  0.00     0.000 C 
BRANCH   2   3
ATOM      3  C   UNL     1     -11.396  19.899 -11.268  1.00  0.00     0.006 C 
BRANCH   3   4
ATOM      4  C   UNL     1     -11.320  19.087 -12.568  1.00  0.00     0.053 C 
BRANCH   4   5
ATOM      5  C   UNL     1     -11.847  17.696 -12.389  1.00  0.00     0.041 C 
ATOM      6  O   UNL     1     -12.908  17.340 -12.965  1.00  0.00    -0.550 OA
ATOM      7  O   UNL     1     -11.147  16.783 -11.610  1.00  0.00    -0.550 OA
ENDBRANCH   4   5
ENDBRANCH   3   4
ENDBRANCH   2   3
ENDBRANCH   1   2
BRANCH   1   8
ATOM      8  C   UNL     1      -8.089  18.462 -11.154  1.00  0.00     0.000 C 
BRANCH   8   9
ATOM      9  C   UNL     1      -6.575  18.596 -11.375  1.00  0.00     0.000 C 
BRANCH   9  10
ATOM     10  C   UNL     1      -5.757  17.705 -10.423  1.00  0.00     0.006 C 
BRANCH  10  11
ATOM     11  C   UNL     1      -6.641  17.016  -9.374  1.00  0.00     0.053 C 
BRANCH  11  12
ATOM     12  C   UNL     1      -6.371  17.532  -7.995  1.00  0.00     0.041 C 
ATOM     13  O   UNL     1      -6.466  18.763  -7.749  1.00  0.00    -0.550 OA
ATOM     14  O   UNL     1      -5.979  16.658  -6.988  1.00  0.00    -0.550 OA
ENDBRANCH  11  12
ENDBRANCH  10  11
ENDBRANCH   9  10
ENDBRANCH   8   9
ENDBRANCH   1   8
TORSDOF 9
ENDMDL
MODEL 9
REMARK VINA RESULT:    -3.424      2.347      2.883
REMARK INTER + INTRA:          -5.622
REMARK INTER:                  -4.900
REMARK INTRA:                  -0.722
REMARK UNBOUND:                -0.397
REMARK SMILES O=C([O-])CCCCCCCCC(=O)[O-]
REMARK SMILES IDX 7 1 6 2 5 3 4 4 2 5 1 6 3 7 8 8 9 9 10 10 11 11 12 12 13 13
REMARK SMILES IDX 14 14
REMARK H PARENT
REMARK Flexibility Score: inf
ROOT
ATOM      1  C   UNL     1      -6.506  19.752  -7.957  1.00  0.00     0.000 C 
ENDROOT
BRANCH   1   2
ATOM      2  C   UNL     1      -5.172  19.278  -7.358  1.00  0.00     0.000 C 
BRANCH   2   3
ATOM      3  C   UNL     1      -5.239  17.831  -6.841  1.00  0.00     0.006 C 
BRANCH   3   4
ATOM      4  C   UNL     1      -4.572  16.841  -7.806  1.00  0.00     0.053 C 
BRANCH   4   5
ATOM      5  C   UNL     1      -5.526  16.356  -8.856  1.00  0.00     0.041 C 
ATOM      6  O   UNL     1      -6.736  16.158  -8.570  1.00  0.00    -0.550 OA
ATOM      7  O   UNL     1      -5.084  16.152 -10.157  1.00  0.00    -0.550 OA
ENDBRANCH   4   5
ENDBRANCH   3   4
ENDBRANCH   2   3
ENDBRANCH   1   2
BRANCH   1   8
ATOM      8  C   UNL     1      -6.470  19.830  -9.494  1.00  0.00     0.000 C 
BRANCH   8   9
ATOM      9  C   UNL     1      -7.849  19.593 -10.128  1.00  0.00     0.000 C 
BRANCH   9  10
ATOM     10  C   UNL     1      -7.842  18.436 -11.143  1.00  0.00     0.006 C 
BRANCH  10  11
ATOM     11  C   UNL     1      -8.987  17.444 -10.898  1.00  0.00     0.053 C 
BRANCH  11  12
ATOM     12  C   UNL     1     -10.129  17.671 -11.839  1.00  0.00     0.041 C 
ATOM     13  O   UNL     1      -9.911  18.031 -13.025  1.00  0.00    -0.550 OA
ATOM     14  O   UNL     1     -11.437  17.518 -11.396  1.00  0.00    -0.550 OA
ENDBRANCH  11  12
ENDBRANCH  10  11
ENDBRANCH   9  10
ENDBRANCH   8   9
ENDBRANCH   1   8
TORSDOF 9
ENDMDL
