MODEL 1
REMARK VINA RESULT:    -5.159      0.000      0.000
REMARK INTER + INTRA:          -7.649
REMARK INTER:                  -6.968
REMARK INTRA:                  -0.680
REMARK UNBOUND:                -0.680
REMARK SMILES CC(=O)CCC=C(C)CCC=C(C)C
REMARK SMILES IDX 7 1 6 2 8 3 9 4 10 5 11 6 13 7 12 8 14 9 5 10 4 11 2 12 3 13
REMARK SMILES IDX 1 14
REMARK H PARENT
REMARK Flexibility Score: inf
ROOT
ATOM      1  C   UNL     1      14.004 -20.188 -21.498  1.00  0.00    -0.077 C 
ATOM      2  C   UNL     1      14.762 -20.855 -22.397  1.00  0.00    -0.028 C 
ATOM      3  C   UNL     1      13.596 -20.803 -20.180  1.00  0.00     0.039 C 
ENDROOT
BRANCH   1   4
ATOM      4  C   UNL     1      13.502 -18.800 -21.840  1.00  0.00     0.034 C 
BRANCH   4   5
ATOM      5  C   UNL     1      13.759 -17.804 -20.702  1.00  0.00     0.032 C 
BRANCH   5   6
ATOM      6  C   UNL     1      15.239 -17.602 -20.471  1.00  0.00    -0.028 C 
ATOM      7  C   UNL     1      15.052 -17.704 -17.974  1.00  0.00     0.039 C 
ATOM      8  C   UNL     1      15.828 -17.529 -19.257  1.00  0.00    -0.080 C 
ATOM      9  C   UNL     1      17.309 -17.257 -19.194  1.00  0.00     0.039 C 
ENDBRANCH   5   6
ENDBRANCH   4   5
ENDBRANCH   1   4
BRANCH   2  10
ATOM     10  C   UNL     1      15.332 -22.237 -22.181  1.00  0.00     0.035 C 
BRANCH  10  11
ATOM     11  C   UNL     1      15.481 -23.005 -23.501  1.00  0.00     0.079 C 
BRANCH  11  12
ATOM     12  C   UNL     1      16.680 -23.916 -23.484  1.00  0.00     0.130 C 
ATOM     13  O   UNL     1      17.537 -23.807 -24.348  1.00  0.00    -0.300 OA
ATOM     14  C   UNL     1      16.820 -24.966 -22.424  1.00  0.00     0.087 C 
ENDBRANCH  11  12
ENDBRANCH  10  11
ENDBRANCH   2  10
TORSDOF 6
ENDMDL
MODEL 2
REMARK VINA RESULT:    -4.922      2.742      6.487
REMARK INTER + INTRA:          -7.328
REMARK INTER:                  -6.514
REMARK INTRA:                  -0.814
REMARK UNBOUND:                -0.680
REMARK SMILES CC(=O)CCC=C(C)CCC=C(C)C
REMARK SMILES IDX 7 1 6 2 8 3 9 4 10 5 11 6 13 7 12 8 14 9 5 10 4 11 2 12 3 13
REMARK SMILES IDX 1 14
REMARK H PARENT
REMARK Flexibility Score: inf
ROOT
ATOM      1  C   UNL     1      14.975 -20.128 -21.342  1.00  0.00    -0.077 C 
ATOM      2  C   UNL     1      13.996 -19.315 -20.883  1.00  0.00    -0.028 C 
ATOM      3  C   UNL     1      16.383 -19.632 -21.576  1.00  0.00     0.039 C 
ENDROOT
BRANCH   1   4
ATOM      4  C   UNL     1      14.643 -21.566 -21.684  1.00  0.00     0.034 C 
BRANCH   4   5
ATOM      5  C   UNL     1      15.346 -22.023 -22.968  1.00  0.00     0.032 C 
BRANCH   5   6
ATOM      6  C   UNL     1      15.795 -23.463 -22.868  1.00  0.00    -0.028 C 
ATOM      7  C   UNL     1      18.236 -22.898 -22.910  1.00  0.00     0.039 C 
ATOM      8  C   UNL     1      17.083 -23.872 -22.867  1.00  0.00    -0.080 C 
ATOM      9  C   UNL     1      17.365 -25.352 -22.827  1.00  0.00     0.039 C 
ENDBRANCH   5   6
ENDBRANCH   4   5
ENDBRANCH   1   4
BRANCH   2  10
ATOM     10  C   UNL     1      14.192 -17.868 -20.498  1.00  0.00     0.035 C 
BRANCH  10  11
ATOM     11  C   UNL     1      13.877 -17.625 -19.017  1.00  0.00     0.079 C 
BRANCH  11  12
ATOM     12  C   UNL     1      15.070 -17.902 -18.140  1.00  0.00     0.130 C 
ATOM     13  O   UNL     1      14.926 -18.523 -17.098  1.00  0.00    -0.300 OA
ATOM     14  C   UNL     1      16.429 -17.406 -18.530  1.00  0.00     0.087 C 
ENDBRANCH  11  12
ENDBRANCH  10  11
ENDBRANCH   2  10
TORSDOF 6
ENDMDL
MODEL 3
REMARK VINA RESULT:    -4.922      1.628      2.457
REMARK INTER + INTRA:          -7.328
REMARK INTER:                  -6.887
REMARK INTRA:                  -0.442
REMARK UNBOUND:                -0.680
REMARK SMILES CC(=O)CCC=C(C)CCC=C(C)C
REMARK SMILES IDX 7 1 6 2 8 3 9 4 10 5 11 6 13 7 12 8 14 9 5 10 4 11 2 12 3 13
REMARK SMILES IDX 1 14
REMARK H PARENT
REMARK Flexibility Score: inf
ROOT
ATOM      1  C   UNL     1      15.313 -21.026 -22.059  1.00  0.00    -0.077 C 
ATOM      2  C   UNL     1      15.357 -22.334 -22.403  1.00  0.00    -0.028 C 
ATOM      3  C   UNL     1      16.563 -20.188 -21.936  1.00  0.00     0.039 C 
ENDROOT
BRANCH   1   4
ATOM      4  C   UNL     1      13.976 -20.391 -21.737  1.00  0.00     0.034 C 
BRANCH   4   5
ATOM      5  C   UNL     1      13.572 -20.622 -20.275  1.00  0.00     0.032 C 
BRANCH   5   6
ATOM      6  C   UNL     1      14.336 -19.713 -19.342  1.00  0.00    -0.028 C 
ATOM      7  C   UNL     1      12.655 -17.859 -19.473  1.00  0.00     0.039 C 
ATOM      8  C   UNL     1      13.953 -18.464 -18.993  1.00  0.00    -0.080 C 
ATOM      9  C   UNL     1      14.861 -17.658 -18.102  1.00  0.00     0.039 C 
ENDBRANCH   5   6
ENDBRANCH   4   5
ENDBRANCH   1   4
BRANCH   2  10
ATOM     10  C   UNL     1      16.617 -23.086 -22.755  1.00  0.00     0.035 C 
BRANCH  10  11
ATOM     11  C   UNL     1      16.430 -24.603 -22.628  1.00  0.00     0.079 C 
BRANCH  11  12
ATOM     12  C   UNL     1      17.719 -25.297 -22.276  1.00  0.00     0.130 C 
ATOM     13  O   UNL     1      18.026 -25.449 -21.103  1.00  0.00    -0.300 OA
ATOM     14  C   UNL     1      18.636 -25.788 -23.355  1.00  0.00     0.087 C 
ENDBRANCH  11  12
ENDBRANCH  10  11
ENDBRANCH   2  10
TORSDOF 6
ENDMDL
MODEL 4
REMARK VINA RESULT:    -4.889      0.940      1.575
REMARK INTER + INTRA:          -7.285
REMARK INTER:                  -6.412
REMARK INTRA:                  -0.873
REMARK UNBOUND:                -0.680
REMARK SMILES CC(=O)CCC=C(C)CCC=C(C)C
REMARK SMILES IDX 7 1 6 2 8 3 9 4 10 5 11 6 13 7 12 8 14 9 5 10 4 11 2 12 3 13
REMARK SMILES IDX 1 14
REMARK H PARENT
REMARK Flexibility Score: inf
ROOT
ATOM      1  C   UNL     1      14.240 -20.755 -21.725  1.00  0.00    -0.077 C 
ATOM      2  C   UNL     1      15.337 -21.541 -21.629  1.00  0.00    -0.028 C 
ATOM      3  C   UNL     1      13.877 -20.038 -23.004  1.00  0.00     0.039 C 
ENDROOT
BRANCH   1   4
ATOM      4  C   UNL     1      13.373 -20.543 -20.500  1.00  0.00     0.034 C 
BRANCH   4   5
ATOM      5  C   UNL     1      13.149 -19.053 -20.212  1.00  0.00     0.032 C 
BRANCH   5   6
ATOM      6  C   UNL     1      14.106 -18.546 -19.158  1.00  0.00    -0.028 C 
ATOM      7  C   UNL     1      15.674 -17.509 -20.814  1.00  0.00     0.039 C 
ATOM      8  C   UNL     1      15.252 -17.877 -19.412  1.00  0.00    -0.080 C 
ATOM      9  C   UNL     1      16.133 -17.496 -18.250  1.00  0.00     0.039 C 
ENDBRANCH   5   6
ENDBRANCH   4   5
ENDBRANCH   1   4
BRANCH   2  10
ATOM     10  C   UNL     1      16.279 -21.842 -22.770  1.00  0.00     0.035 C 
BRANCH  10  11
ATOM     11  C   UNL     1      15.875 -23.117 -23.521  1.00  0.00     0.079 C 
BRANCH  11  12
ATOM     12  C   UNL     1      16.944 -24.175 -23.439  1.00  0.00     0.130 C 
ATOM     13  O   UNL     1      17.853 -24.184 -24.254  1.00  0.00    -0.300 OA
ATOM     14  C   UNL     1      16.891 -25.226 -22.372  1.00  0.00     0.087 C 
ENDBRANCH  11  12
ENDBRANCH  10  11
ENDBRANCH   2  10
TORSDOF 6
ENDMDL
MODEL 5
REMARK VINA RESULT:    -4.874      1.247      2.245
REMARK INTER + INTRA:          -7.264
REMARK INTER:                  -6.685
REMARK INTRA:                  -0.579
REMARK UNBOUND:                -0.680
REMARK SMILES CC(=O)CCC=C(C)CCC=C(C)C
REMARK SMILES IDX 7 1 6 2 8 3 9 4 10 5 11 6 13 7 12 8 14 9 5 10 4 11 2 12 3 13
REMARK SMILES IDX 1 14
REMARK H PARENT
REMARK Flexibility Score: inf
ROOT
ATOM      1  C   UNL     1      15.385 -21.454 -22.033  1.00  0.00    -0.077 C 
ATOM      2  C   UNL     1      15.376 -22.761 -22.383  1.00  0.00    -0.028 C 
ATOM      3  C   UNL     1      16.560 -20.553 -22.333  1.00  0.00     0.039 C 
ENDROOT
BRANCH   1   4
ATOM      4  C   UNL     1      14.206 -20.884 -21.271  1.00  0.00     0.034 C 
BRANCH   4   5
ATOM      5  C   UNL     1      14.215 -19.351 -21.270  1.00  0.00     0.032 C 
BRANCH   5   6
ATOM      6  C   UNL     1      14.188 -18.801 -19.863  1.00  0.00    -0.028 C 
ATOM      7  C   UNL     1      16.326 -17.520 -20.123  1.00  0.00     0.039 C 
ATOM      8  C   UNL     1      15.137 -18.002 -19.327  1.00  0.00    -0.080 C 
ATOM      9  C   UNL     1      14.996 -17.590 -17.884  1.00  0.00     0.039 C 
ENDBRANCH   5   6
ENDBRANCH   4   5
ENDBRANCH   1   4
BRANCH   2  10
ATOM     10  C   UNL     1      16.479 -23.452 -23.149  1.00  0.00     0.035 C 
BRANCH  10  11
ATOM     11  C   UNL     1      16.617 -24.925 -22.744  1.00  0.00     0.079 C 
BRANCH  11  12
ATOM     12  C   UNL     1      18.060 -25.351 -22.675  1.00  0.00     0.130 C 
ATOM     13  O   UNL     1      18.651 -25.661 -23.698  1.00  0.00    -0.300 OA
ATOM     14  C   UNL     1      18.771 -25.412 -21.357  1.00  0.00     0.087 C 
ENDBRANCH  11  12
ENDBRANCH  10  11
ENDBRANCH   2  10
TORSDOF 6
ENDMDL
MODEL 6
REMARK VINA RESULT:    -4.843      4.700      6.636
REMARK INTER + INTRA:          -7.223
REMARK INTER:                  -6.746
REMARK INTRA:                  -0.477
REMARK UNBOUND:                -0.680
REMARK SMILES CC(=O)CCC=C(C)CCC=C(C)C
REMARK SMILES IDX 7 1 6 2 8 3 9 4 10 5 11 6 13 7 12 8 14 9 5 10 4 11 2 12 3 13
REMARK SMILES IDX 1 14
REMARK H PARENT
REMARK Flexibility Score: inf
ROOT
ATOM      1  C   UNL     1      10.766 -18.321 -20.101  1.00  0.00    -0.077 C 
ATOM      2  C   UNL     1      12.021 -18.490 -20.578  1.00  0.00    -0.028 C 
ATOM      3  C   UNL     1      10.484 -17.515 -18.855  1.00  0.00     0.039 C 
ENDROOT
BRANCH   1   4
ATOM      4  C   UNL     1       9.610 -19.002 -20.805  1.00  0.00     0.034 C 
BRANCH   4   5
ATOM      5  C   UNL     1       8.937 -18.074 -21.824  1.00  0.00     0.032 C 
BRANCH   5   6
ATOM      6  C   UNL     1       9.955 -17.241 -22.568  1.00  0.00    -0.028 C 
ATOM      7  C   UNL     1       9.739 -18.544 -24.697  1.00  0.00     0.039 C 
ATOM      8  C   UNL     1      10.343 -17.454 -23.844  1.00  0.00    -0.080 C 
ATOM      9  C   UNL     1      11.420 -16.573 -24.423  1.00  0.00     0.039 C 
ENDBRANCH   5   6
ENDBRANCH   4   5
ENDBRANCH   1   4
BRANCH   2  10
ATOM     10  C   UNL     1      13.258 -17.864 -19.978  1.00  0.00     0.035 C 
BRANCH  10  11
ATOM     11  C   UNL     1      14.062 -18.873 -19.148  1.00  0.00     0.079 C 
BRANCH  11  12
ATOM     12  C   UNL     1      14.590 -18.256 -17.879  1.00  0.00     0.130 C 
ATOM     13  O   UNL     1      15.101 -17.147 -17.910  1.00  0.00    -0.300 OA
ATOM     14  C   UNL     1      14.505 -19.001 -16.582  1.00  0.00     0.087 C 
ENDBRANCH  11  12
ENDBRANCH  10  11
ENDBRANCH   2  10
TORSDOF 6
ENDMDL
MODEL 7
REMARK VINA RESULT:    -4.836      2.881      6.658
REMARK INTER + INTRA:          -7.212
REMARK INTER:                  -6.562
REMARK INTRA:                  -0.651
REMARK UNBOUND:                -0.680
REMARK SMILES CC(=O)CCC=C(C)CCC=C(C)C
REMARK SMILES IDX 7 1 6 2 8 3 9 4 10 5 11 6 13 7 12 8 14 9 5 10 4 11 2 12 3 13
REMARK SMILES IDX 1 14
REMARK H PARENT
REMARK Flexibility Score: inf
ROOT
ATOM      1  C   UNL     1      15.641 -20.881 -21.996  1.00  0.00    -0.077 C 
ATOM      2  C   UNL     1      14.526 -21.155 -21.281  1.00  0.00    -0.028 C 
ATOM      3  C   UNL     1      16.619 -19.809 -21.575  1.00  0.00     0.039 C 
ENDROOT
BRANCH   1   4
ATOM      4  C   UNL     1      15.896 -21.632 -23.287  1.00  0.00     0.034 C 
BRANCH   4   5
ATOM      5  C   UNL     1      15.768 -23.149 -23.098  1.00  0.00     0.032 C 
BRANCH   5   6
ATOM      6  C   UNL     1      16.943 -23.881 -23.703  1.00  0.00    -0.028 C 
ATOM      7  C   UNL     1      17.311 -25.333 -21.694  1.00  0.00     0.039 C 
ATOM      8  C   UNL     1      17.660 -24.841 -23.079  1.00  0.00    -0.080 C 
ATOM      9  C   UNL     1      18.848 -25.430 -23.795  1.00  0.00     0.039 C 
ENDBRANCH   5   6
ENDBRANCH   4   5
ENDBRANCH   1   4
BRANCH   2  10
ATOM     10  C   UNL     1      14.157 -20.488 -19.978  1.00  0.00     0.035 C 
BRANCH  10  11
ATOM     11  C   UNL     1      13.124 -19.372 -20.182  1.00  0.00     0.079 C 
BRANCH  11  12
ATOM     12  C   UNL     1      13.473 -18.137 -19.394  1.00  0.00     0.130 C 
ATOM     13  O   UNL     1      12.678 -17.212 -19.330  1.00  0.00    -0.300 OA
ATOM     14  C   UNL     1      14.798 -18.029 -18.701  1.00  0.00     0.087 C 
ENDBRANCH  11  12
ENDBRANCH  10  11
ENDBRANCH   2  10
TORSDOF 6
ENDMDL
MODEL 8
REMARK VINA RESULT:    -4.825      4.630      6.789
REMARK INTER + INTRA:          -7.198
REMARK INTER:                  -6.121
REMARK INTRA:                  -1.076
REMARK UNBOUND:                -0.680
REMARK SMILES CC(=O)CCC=C(C)CCC=C(C)C
REMARK SMILES IDX 7 1 6 2 8 3 9 4 10 5 11 6 13 7 12 8 14 9 5 10 4 11 2 12 3 13
REMARK SMILES IDX 1 14
REMARK H PARENT
REMARK Flexibility Score: inf
ROOT
ATOM      1  C   UNL     1      17.231 -22.996 -23.892  1.00  0.00    -0.077 C 
ATOM      2  C   UNL     1      17.887 -23.513 -24.956  1.00  0.00    -0.028 C 
ATOM      3  C   UNL     1      17.468 -21.583 -23.414  1.00  0.00     0.039 C 
ENDROOT
BRANCH   1   4
ATOM      4  C   UNL     1      16.266 -23.874 -23.121  1.00  0.00     0.034 C 
BRANCH   4   5
ATOM      5  C   UNL     1      16.856 -25.261 -22.842  1.00  0.00     0.032 C 
BRANCH   5   6
ATOM      6  C   UNL     1      17.553 -25.305 -21.501  1.00  0.00    -0.028 C 
ATOM      7  C   UNL     1      19.853 -25.385 -22.491  1.00  0.00     0.039 C 
ATOM      8  C   UNL     1      18.890 -25.386 -21.328  1.00  0.00    -0.080 C 
ATOM      9  C   UNL     1      19.427 -25.488 -19.923  1.00  0.00     0.039 C 
ENDBRANCH   5   6
ENDBRANCH   4   5
ENDBRANCH   1   4
BRANCH   2  10
ATOM     10  C   UNL     1      18.867 -22.748 -25.814  1.00  0.00     0.035 C 
BRANCH  10  11
ATOM     11  C   UNL     1      20.298 -22.849 -25.272  1.00  0.00     0.079 C 
BRANCH  11  12
ATOM     12  C   UNL     1      21.065 -21.569 -25.479  1.00  0.00     0.130 C 
ATOM     13  O   UNL     1      21.652 -21.376 -26.532  1.00  0.00    -0.300 OA
ATOM     14  C   UNL     1      21.124 -20.537 -24.394  1.00  0.00     0.087 C 
ENDBRANCH  11  12
ENDBRANCH  10  11
ENDBRANCH   2  10
TORSDOF 6
ENDMDL
MODEL 9
REMARK VINA RESULT:    -4.669      1.798      3.803
REMARK INTER + INTRA:          -6.987
REMARK INTER:                  -6.222
REMARK INTRA:                  -0.765
REMARK UNBOUND:                -0.680
REMARK SMILES CC(=O)CCC=C(C)CCC=C(C)C
REMARK SMILES IDX 7 1 6 2 8 3 9 4 10 5 11 6 13 7 12 8 14 9 5 10 4 11 2 12 3 13
REMARK SMILES IDX 1 14
REMARK H PARENT
REMARK Flexibility Score: inf
ROOT
ATOM      1  C   UNL     1      16.226 -23.101 -23.449  1.00  0.00    -0.077 C 
ATOM      2  C   UNL     1      16.206 -24.162 -22.610  1.00  0.00    -0.028 C 
ATOM      3  C   UNL     1      17.212 -22.999 -24.589  1.00  0.00     0.039 C 
ENDROOT
BRANCH   1   4
ATOM      4  C   UNL     1      15.265 -21.953 -23.212  1.00  0.00     0.034 C 
BRANCH   4   5
ATOM      5  C   UNL     1      15.010 -21.723 -21.718  1.00  0.00     0.032 C 
BRANCH   5   6
ATOM      6  C   UNL     1      15.363 -20.312 -21.309  1.00  0.00    -0.028 C 
ATOM      7  C   UNL     1      13.079 -19.803 -20.411  1.00  0.00     0.039 C 
ATOM      8  C   UNL     1      14.504 -19.432 -20.747  1.00  0.00    -0.080 C 
ATOM      9  C   UNL     1      14.994 -18.037 -20.457  1.00  0.00     0.039 C 
ENDBRANCH   5   6
ENDBRANCH   4   5
ENDBRANCH   1   4
BRANCH   2  10
ATOM     10  C   UNL     1      17.100 -25.372 -22.737  1.00  0.00     0.035 C 
BRANCH  10  11
ATOM     11  C   UNL     1      18.213 -25.371 -21.681  1.00  0.00     0.079 C 
BRANCH  11  12
ATOM     12  C   UNL     1      19.500 -24.811 -22.227  1.00  0.00     0.130 C 
ATOM     13  O   UNL     1      20.243 -25.525 -22.882  1.00  0.00    -0.300 OA
ATOM     14  C   UNL     1      19.881 -23.387 -21.958  1.00  0.00     0.087 C 
ENDBRANCH  11  12
ENDBRANCH  10  11
ENDBRANCH   2  10
TORSDOF 6
ENDMDL
