MODEL 1
REMARK VINA RESULT:    -4.681      0.000      0.000
REMARK INTER + INTRA:          -7.033
REMARK INTER:                  -6.323
REMARK INTRA:                  -0.711
REMARK UNBOUND:                -0.711
REMARK SMILES CC(=O)CCC=C(C)CCC=C(C)C
REMARK SMILES IDX 7 1 6 2 8 3 9 4 10 5 11 6 13 7 12 8 14 9 5 10 4 11 2 12 3 13
REMARK SMILES IDX 1 14
REMARK H PARENT
REMARK Flexibility Score: inf
ROOT
ATOM      1  C   UNL     1      26.784  31.234  30.535  1.00  0.00    -0.077 C 
ATOM      2  C   UNL     1      25.686  30.722  29.937  1.00  0.00    -0.028 C 
ATOM      3  C   UNL     1      27.462  30.518  31.678  1.00  0.00     0.039 C 
ENDROOT
BRANCH   1   4
ATOM      4  C   UNL     1      27.346  32.555  30.050  1.00  0.00     0.034 C 
BRANCH   4   5
ATOM      5  C   UNL     1      28.710  32.864  30.682  1.00  0.00     0.032 C 
BRANCH   5   6
ATOM      6  C   UNL     1      29.787  33.030  29.636  1.00  0.00    -0.028 C 
ATOM      7  C   UNL     1      31.699  32.391  28.233  1.00  0.00     0.039 C 
ATOM      8  C   UNL     1      30.642  32.057  29.253  1.00  0.00    -0.080 C 
ATOM      9  C   UNL     1      30.556  30.652  29.802  1.00  0.00     0.039 C 
ENDBRANCH   5   6
ENDBRANCH   4   5
ENDBRANCH   1   4
BRANCH   2  10
ATOM     10  C   UNL     1      25.050  29.418  30.357  1.00  0.00     0.035 C 
BRANCH  10  11
ATOM     11  C   UNL     1      24.257  28.765  29.216  1.00  0.00     0.079 C 
BRANCH  11  12
ATOM     12  C   UNL     1      25.083  27.753  28.464  1.00  0.00     0.130 C 
ATOM     13  O   UNL     1      24.932  26.560  28.685  1.00  0.00    -0.300 OA
ATOM     14  C   UNL     1      26.061  28.197  27.418  1.00  0.00     0.087 C 
ENDBRANCH  11  12
ENDBRANCH  10  11
ENDBRANCH   2  10
TORSDOF 6
ENDMDL
MODEL 2
REMARK VINA RESULT:    -4.457      4.929      7.890
REMARK INTER + INTRA:          -6.731
REMARK INTER:                  -5.886
REMARK INTRA:                  -0.845
REMARK UNBOUND:                -0.711
REMARK SMILES CC(=O)CCC=C(C)CCC=C(C)C
REMARK SMILES IDX 7 1 6 2 8 3 9 4 10 5 11 6 13 7 12 8 14 9 5 10 4 11 2 12 3 13
REMARK SMILES IDX 1 14
REMARK H PARENT
REMARK Flexibility Score: inf
ROOT
ATOM      1  C   UNL     1      21.879  31.904  30.862  1.00  0.00    -0.077 C 
ATOM      2  C   UNL     1      21.490  30.611  30.827  1.00  0.00    -0.028 C 
ATOM      3  C   UNL     1      23.339  32.284  30.942  1.00  0.00     0.039 C 
ENDROOT
BRANCH   1   4
ATOM      4  C   UNL     1      20.830  32.997  30.823  1.00  0.00     0.034 C 
BRANCH   4   5
ATOM      5  C   UNL     1      20.267  33.201  29.409  1.00  0.00     0.032 C 
BRANCH   5   6
ATOM      6  C   UNL     1      18.768  33.386  29.425  1.00  0.00    -0.028 C 
ATOM      7  C   UNL     1      16.405  32.746  29.227  1.00  0.00     0.039 C 
ATOM      8  C   UNL     1      17.870  32.395  29.236  1.00  0.00    -0.080 C 
ATOM      9  C   UNL     1      18.291  30.955  29.054  1.00  0.00     0.039 C 
ENDBRANCH   5   6
ENDBRANCH   4   5
ENDBRANCH   1   4
BRANCH   2  10
ATOM     10  C   UNL     1      22.462  29.456  30.872  1.00  0.00     0.035 C 
BRANCH  10  11
ATOM     11  C   UNL     1      22.464  28.650  29.566  1.00  0.00     0.079 C 
BRANCH  11  12
ATOM     12  C   UNL     1      23.862  28.306  29.117  1.00  0.00     0.130 C 
ATOM     13  O   UNL     1      24.045  27.352  28.376  1.00  0.00    -0.300 OA
ATOM     14  C   UNL     1      25.025  29.152  29.541  1.00  0.00     0.087 C 
ENDBRANCH  11  12
ENDBRANCH  10  11
ENDBRANCH   2  10
TORSDOF 6
ENDMDL
MODEL 3
REMARK VINA RESULT:    -4.452      2.319      5.066
REMARK INTER + INTRA:          -6.724
REMARK INTER:                  -5.528
REMARK INTRA:                  -1.196
REMARK UNBOUND:                -0.711
REMARK SMILES CC(=O)CCC=C(C)CCC=C(C)C
REMARK SMILES IDX 7 1 6 2 8 3 9 4 10 5 11 6 13 7 12 8 14 9 5 10 4 11 2 12 3 13
REMARK SMILES IDX 1 14
REMARK H PARENT
REMARK Flexibility Score: inf
ROOT
ATOM      1  C   UNL     1      28.237  33.661  29.841  1.00  0.00    -0.077 C 
ATOM      2  C   UNL     1      28.891  33.732  28.661  1.00  0.00    -0.028 C 
ATOM      3  C   UNL     1      28.921  33.161  31.091  1.00  0.00     0.039 C 
ENDROOT
BRANCH   1   4
ATOM      4  C   UNL     1      26.785  34.090  29.912  1.00  0.00     0.034 C 
BRANCH   4   5
ATOM      5  C   UNL     1      25.969  33.198  30.857  1.00  0.00     0.032 C 
BRANCH   5   6
ATOM      6  C   UNL     1      25.435  31.974  30.151  1.00  0.00    -0.028 C 
ATOM      7  C   UNL     1      25.176  29.585  29.642  1.00  0.00     0.039 C 
ATOM      8  C   UNL     1      25.750  30.702  30.476  1.00  0.00    -0.080 C 
ATOM      9  C   UNL     1      26.639  30.371  31.652  1.00  0.00     0.039 C 
ENDBRANCH   5   6
ENDBRANCH   4   5
ENDBRANCH   1   4
BRANCH   2  10
ATOM     10  C   UNL     1      30.334  33.317  28.493  1.00  0.00     0.035 C 
BRANCH  10  11
ATOM     11  C   UNL     1      30.479  32.069  27.612  1.00  0.00     0.079 C 
BRANCH  11  12
ATOM     12  C   UNL     1      29.999  30.824  28.314  1.00  0.00     0.130 C 
ATOM     13  O   UNL     1      30.735  30.247  29.100  1.00  0.00    -0.300 OA
ATOM     14  C   UNL     1      28.609  30.310  28.082  1.00  0.00     0.087 C 
ENDBRANCH  11  12
ENDBRANCH  10  11
ENDBRANCH   2  10
TORSDOF 6
ENDMDL
MODEL 4
REMARK VINA RESULT:    -4.396      6.277      9.490
REMARK INTER + INTRA:          -6.649
REMARK INTER:                  -5.638
REMARK INTRA:                  -1.011
REMARK UNBOUND:                -0.711
REMARK SMILES CC(=O)CCC=C(C)CCC=C(C)C
REMARK SMILES IDX 7 1 6 2 8 3 9 4 10 5 11 6 13 7 12 8 14 9 5 10 4 11 2 12 3 13
REMARK SMILES IDX 1 14
REMARK H PARENT
REMARK Flexibility Score: inf
ROOT
ATOM      1  C   UNL     1      19.645  32.698  30.361  1.00  0.00    -0.077 C 
ATOM      2  C   UNL     1      20.468  31.844  29.715  1.00  0.00    -0.028 C 
ATOM      3  C   UNL     1      19.565  32.725  31.869  1.00  0.00     0.039 C 
ENDROOT
BRANCH   1   4
ATOM      4  C   UNL     1      18.782  33.649  29.557  1.00  0.00     0.034 C 
BRANCH   4   5
ATOM      5  C   UNL     1      17.775  32.901  28.672  1.00  0.00     0.032 C 
BRANCH   5   6
ATOM      6  C   UNL     1      16.512  32.558  29.428  1.00  0.00    -0.028 C 
ATOM      7  C   UNL     1      14.875  31.129  30.572  1.00  0.00     0.039 C 
ATOM      8  C   UNL     1      16.199  31.325  29.880  1.00  0.00    -0.080 C 
ATOM      9  C   UNL     1      17.140  30.152  29.729  1.00  0.00     0.039 C 
ENDBRANCH   5   6
ENDBRANCH   4   5
ENDBRANCH   1   4
BRANCH   2  10
ATOM     10  C   UNL     1      21.357  30.855  30.431  1.00  0.00     0.035 C 
BRANCH  10  11
ATOM     11  C   UNL     1      21.122  29.414  29.956  1.00  0.00     0.079 C 
BRANCH  11  12
ATOM     12  C   UNL     1      22.394  28.764  29.476  1.00  0.00     0.130 C 
ATOM     13  O   UNL     1      22.342  27.857  28.658  1.00  0.00    -0.300 OA
ATOM     14  C   UNL     1      23.726  29.247  29.966  1.00  0.00     0.087 C 
ENDBRANCH  11  12
ENDBRANCH  10  11
ENDBRANCH   2  10
TORSDOF 6
ENDMDL
MODEL 5
REMARK VINA RESULT:    -4.341      6.571      9.561
REMARK INTER + INTRA:          -6.574
REMARK INTER:                  -5.454
REMARK INTRA:                  -1.120
REMARK UNBOUND:                -0.711
REMARK SMILES CC(=O)CCC=C(C)CCC=C(C)C
REMARK SMILES IDX 7 1 6 2 8 3 9 4 10 5 11 6 13 7 12 8 14 9 5 10 4 11 2 12 3 13
REMARK SMILES IDX 1 14
REMARK H PARENT
REMARK Flexibility Score: inf
ROOT
ATOM      1  C   UNL     1      19.834  32.920  30.459  1.00  0.00    -0.077 C 
ATOM      2  C   UNL     1      19.782  32.167  31.579  1.00  0.00    -0.028 C 
ATOM      3  C   UNL     1      21.087  32.992  29.617  1.00  0.00     0.039 C 
ENDROOT
BRANCH   1   4
ATOM      4  C   UNL     1      18.613  33.711  30.038  1.00  0.00     0.034 C 
BRANCH   4   5
ATOM      5  C   UNL     1      17.856  33.030  28.889  1.00  0.00     0.032 C 
BRANCH   5   6
ATOM      6  C   UNL     1      16.554  32.424  29.357  1.00  0.00    -0.028 C 
ATOM      7  C   UNL     1      15.001  30.652  30.048  1.00  0.00     0.039 C 
ATOM      8  C   UNL     1      16.375  31.116  29.642  1.00  0.00    -0.080 C 
ATOM      9  C   UNL     1      17.509  30.120  29.583  1.00  0.00     0.039 C 
ENDBRANCH   5   6
ENDBRANCH   4   5
ENDBRANCH   1   4
BRANCH   2  10
ATOM     10  C   UNL     1      20.951  31.353  32.081  1.00  0.00     0.035 C 
BRANCH  10  11
ATOM     11  C   UNL     1      20.783  29.855  31.789  1.00  0.00     0.079 C 
BRANCH  11  12
ATOM     12  C   UNL     1      21.877  29.329  30.895  1.00  0.00     0.130 C 
ATOM     13  O   UNL     1      22.944  28.983  31.379  1.00  0.00    -0.300 OA
ATOM     14  C   UNL     1      21.650  29.189  29.419  1.00  0.00     0.087 C 
ENDBRANCH  11  12
ENDBRANCH  10  11
ENDBRANCH   2  10
TORSDOF 6
ENDMDL
MODEL 6
REMARK VINA RESULT:    -4.320      2.527      5.676
REMARK INTER + INTRA:          -6.546
REMARK INTER:                  -5.647
REMARK INTRA:                  -0.899
REMARK UNBOUND:                -0.711
REMARK SMILES CC(=O)CCC=C(C)CCC=C(C)C
REMARK SMILES IDX 7 1 6 2 8 3 9 4 10 5 11 6 13 7 12 8 14 9 5 10 4 11 2 12 3 13
REMARK SMILES IDX 1 14
REMARK H PARENT
REMARK Flexibility Score: inf
ROOT
ATOM      1  C   UNL     1      27.694  31.611  31.251  1.00  0.00    -0.077 C 
ATOM      2  C   UNL     1      27.984  32.719  30.535  1.00  0.00    -0.028 C 
ATOM      3  C   UNL     1      28.783  30.755  31.852  1.00  0.00     0.039 C 
ENDROOT
BRANCH   1   4
ATOM      4  C   UNL     1      26.245  31.217  31.455  1.00  0.00     0.034 C 
BRANCH   4   5
ATOM      5  C   UNL     1      25.469  31.182  30.131  1.00  0.00     0.032 C 
BRANCH   5   6
ATOM      6  C   UNL     1      25.628  29.857  29.422  1.00  0.00    -0.028 C 
ATOM      7  C   UNL     1      25.018  27.595  28.686  1.00  0.00     0.039 C 
ATOM      8  C   UNL     1      24.691  28.886  29.391  1.00  0.00    -0.080 C 
ATOM      9  C   UNL     1      23.330  29.063  30.023  1.00  0.00     0.039 C 
ENDBRANCH   5   6
ENDBRANCH   4   5
ENDBRANCH   1   4
BRANCH   2  10
ATOM     10  C   UNL     1      29.397  33.185  30.272  1.00  0.00     0.035 C 
BRANCH  10  11
ATOM     11  C   UNL     1      29.782  33.060  28.791  1.00  0.00     0.079 C 
BRANCH  11  12
ATOM     12  C   UNL     1      30.565  31.802  28.515  1.00  0.00     0.130 C 
ATOM     13  O   UNL     1      31.786  31.832  28.526  1.00  0.00    -0.300 OA
ATOM     14  C   UNL     1      29.855  30.505  28.266  1.00  0.00     0.087 C 
ENDBRANCH  11  12
ENDBRANCH  10  11
ENDBRANCH   2  10
TORSDOF 6
ENDMDL
MODEL 7
REMARK VINA RESULT:    -4.297      2.952      6.153
REMARK INTER + INTRA:          -6.515
REMARK INTER:                  -5.363
REMARK INTRA:                  -1.153
REMARK UNBOUND:                -0.711
REMARK SMILES CC(=O)CCC=C(C)CCC=C(C)C
REMARK SMILES IDX 7 1 6 2 8 3 9 4 10 5 11 6 13 7 12 8 14 9 5 10 4 11 2 12 3 13
REMARK SMILES IDX 1 14
REMARK H PARENT
REMARK Flexibility Score: inf
ROOT
ATOM      1  C   UNL     1      29.733  31.570  30.610  1.00  0.00    -0.077 C 
ATOM      2  C   UNL     1      29.432  32.675  29.895  1.00  0.00    -0.028 C 
ATOM      3  C   UNL     1      30.342  30.352  29.956  1.00  0.00     0.039 C 
ENDROOT
BRANCH   1   4
ATOM      4  C   UNL     1      29.453  31.549  32.099  1.00  0.00     0.034 C 
BRANCH   4   5
ATOM      5  C   UNL     1      27.955  31.697  32.402  1.00  0.00     0.032 C 
BRANCH   5   6
ATOM      6  C   UNL     1      27.143  30.593  31.767  1.00  0.00    -0.028 C 
ATOM      7  C   UNL     1      25.399  29.587  30.360  1.00  0.00     0.039 C 
ATOM      8  C   UNL     1      26.155  30.788  30.866  1.00  0.00    -0.080 C 
ATOM      9  C   UNL     1      25.806  32.162  30.344  1.00  0.00     0.039 C 
ENDBRANCH   5   6
ENDBRANCH   4   5
ENDBRANCH   1   4
BRANCH   2  10
ATOM     10  C   UNL     1      29.667  32.784  28.406  1.00  0.00     0.035 C 
BRANCH  10  11
ATOM     11  C   UNL     1      30.821  33.739  28.070  1.00  0.00     0.079 C 
BRANCH  11  12
ATOM     12  C   UNL     1      32.165  33.128  28.375  1.00  0.00     0.130 C 
ATOM     13  O   UNL     1      32.580  32.201  27.695  1.00  0.00    -0.300 OA
ATOM     14  C   UNL     1      33.015  33.676  29.482  1.00  0.00     0.087 C 
ENDBRANCH  11  12
ENDBRANCH  10  11
ENDBRANCH   2  10
TORSDOF 6
ENDMDL
MODEL 8
REMARK VINA RESULT:    -4.281      2.653      6.164
REMARK INTER + INTRA:          -6.494
REMARK INTER:                  -5.667
REMARK INTRA:                  -0.827
REMARK UNBOUND:                -0.711
REMARK SMILES CC(=O)CCC=C(C)CCC=C(C)C
REMARK SMILES IDX 7 1 6 2 8 3 9 4 10 5 11 6 13 7 12 8 14 9 5 10 4 11 2 12 3 13
REMARK SMILES IDX 1 14
REMARK H PARENT
REMARK Flexibility Score: inf
ROOT
ATOM      1  C   UNL     1      27.190  31.909  30.101  1.00  0.00    -0.077 C 
ATOM      2  C   UNL     1      27.791  30.971  29.336  1.00  0.00    -0.028 C 
ATOM      3  C   UNL     1      27.688  33.335  30.132  1.00  0.00     0.039 C 
ENDROOT
BRANCH   1   4
ATOM      4  C   UNL     1      25.994  31.523  30.947  1.00  0.00     0.034 C 
BRANCH   4   5
ATOM      5  C   UNL     1      25.790  30.003  30.993  1.00  0.00     0.032 C 
BRANCH   5   6
ATOM      6  C   UNL     1      24.369  29.617  30.656  1.00  0.00    -0.028 C 
ATOM      7  C   UNL     1      22.537  28.649  29.337  1.00  0.00     0.039 C 
ATOM      8  C   UNL     1      24.003  28.911  29.565  1.00  0.00    -0.080 C 
ATOM      9  C   UNL     1      25.016  28.365  28.586  1.00  0.00     0.039 C 
ENDBRANCH   5   6
ENDBRANCH   4   5
ENDBRANCH   1   4
BRANCH   2  10
ATOM     10  C   UNL     1      28.993  31.260  28.469  1.00  0.00     0.035 C 
BRANCH  10  11
ATOM     11  C   UNL     1      30.314  30.948  29.186  1.00  0.00     0.079 C 
BRANCH  11  12
ATOM     12  C   UNL     1      31.340  32.032  28.975  1.00  0.00     0.130 C 
ATOM     13  O   UNL     1      32.084  31.985  28.007  1.00  0.00    -0.300 OA
ATOM     14  C   UNL     1      31.428  33.190  29.925  1.00  0.00     0.087 C 
ENDBRANCH  11  12
ENDBRANCH  10  11
ENDBRANCH   2  10
TORSDOF 6
ENDMDL
MODEL 9
REMARK VINA RESULT:    -4.272      6.548      8.665
REMARK INTER + INTRA:          -6.481
REMARK INTER:                  -5.644
REMARK INTRA:                  -0.837
REMARK UNBOUND:                -0.711
REMARK SMILES CC(=O)CCC=C(C)CCC=C(C)C
REMARK SMILES IDX 7 1 6 2 8 3 9 4 10 5 11 6 13 7 12 8 14 9 5 10 4 11 2 12 3 13
REMARK SMILES IDX 1 14
REMARK H PARENT
REMARK Flexibility Score: inf
ROOT
ATOM      1  C   UNL     1      19.571  31.704  29.828  1.00  0.00    -0.077 C 
ATOM      2  C   UNL     1      18.786  32.755  29.507  1.00  0.00    -0.028 C 
ATOM      3  C   UNL     1      19.248  30.307  29.354  1.00  0.00     0.039 C 
ENDROOT
BRANCH   1   4
ATOM      4  C   UNL     1      20.800  31.930  30.685  1.00  0.00     0.034 C 
BRANCH   4   5
ATOM      5  C   UNL     1      21.359  30.614  31.244  1.00  0.00     0.032 C 
BRANCH   5   6
ATOM      6  C   UNL     1      22.812  30.422  30.876  1.00  0.00    -0.028 C 
ATOM      7  C   UNL     1      24.769  29.323  29.879  1.00  0.00     0.039 C 
ATOM      8  C   UNL     1      23.284  29.410  30.116  1.00  0.00    -0.080 C 
ATOM      9  C   UNL     1      22.370  28.384  29.489  1.00  0.00     0.039 C 
ENDBRANCH   5   6
ENDBRANCH   4   5
ENDBRANCH   1   4
BRANCH   2  10
ATOM     10  C   UNL     1      17.537  32.625  28.666  1.00  0.00     0.035 C 
BRANCH  10  11
ATOM     11  C   UNL     1      16.287  33.120  29.406  1.00  0.00     0.079 C 
BRANCH  11  12
ATOM     12  C   UNL     1      15.647  32.030  30.226  1.00  0.00     0.130 C 
ATOM     13  O   UNL     1      15.201  32.285  31.335  1.00  0.00    -0.300 OA
ATOM     14  C   UNL     1      15.518  30.641  29.675  1.00  0.00     0.087 C 
ENDBRANCH  11  12
ENDBRANCH  10  11
ENDBRANCH   2  10
TORSDOF 6
ENDMDL
