MODEL 1
REMARK VINA RESULT:    -4.171      0.000      0.000
REMARK INTER + INTRA:         -11.034
REMARK INTER:                  -9.048
REMARK INTRA:                  -1.986
REMARK UNBOUND:                -1.986
REMARK SMILES CCCCCCCCCCCCCCCCCCCCCC(=O)[O-]
REMARK SMILES IDX 12 1 11 2 10 3 9 4 8 5 7 6 6 7 5 8 4 9 3 10 2 11 1 12 13 13
REMARK SMILES IDX 14 14 15 15 16 16 17 17 18 18 19 19 20 20 21 21 22 22 23 23
REMARK SMILES IDX 24 24
REMARK H PARENT
REMARK Flexibility Score: inf
ROOT
ATOM      1  C   UNL     1      44.821  30.057   1.330  1.00  0.00     0.000 C 
ENDROOT
BRANCH   1   2
ATOM      2  C   UNL     1      44.092  29.533   2.579  1.00  0.00     0.000 C 
BRANCH   2   3
ATOM      3  C   UNL     1      43.179  28.334   2.274  1.00  0.00     0.000 C 
BRANCH   3   4
ATOM      4  C   UNL     1      43.961  27.014   2.153  1.00  0.00    -0.000 C 
BRANCH   4   5
ATOM      5  C   UNL     1      44.721  26.659   3.442  1.00  0.00    -0.000 C 
BRANCH   5   6
ATOM      6  C   UNL     1      46.238  26.532   3.220  1.00  0.00    -0.000 C 
BRANCH   6   7
ATOM      7  C   UNL     1      47.053  27.344   4.239  1.00  0.00    -0.000 C 
BRANCH   7   8
ATOM      8  C   UNL     1      46.230  27.738   5.478  1.00  0.00    -0.000 C 
BRANCH   8   9
ATOM      9  C   UNL     1      46.668  26.990   6.749  1.00  0.00    -0.000 C 
BRANCH   9  10
ATOM     10  C   UNL     1      45.871  27.349   8.018  1.00  0.00    -0.000 C 
BRANCH  10  11
ATOM     11  C   UNL     1      45.532  28.844   8.107  1.00  0.00    -0.003 C 
ATOM     12  C   UNL     1      45.073  29.220   9.513  1.00  0.00     0.004 C 
ENDBRANCH  10  11
ENDBRANCH   9  10
ENDBRANCH   8   9
ENDBRANCH   7   8
ENDBRANCH   6   7
ENDBRANCH   5   6
ENDBRANCH   4   5
ENDBRANCH   3   4
ENDBRANCH   2   3
ENDBRANCH   1   2
BRANCH   1  13
ATOM     13  C   UNL     1      46.310  29.679   1.313  1.00  0.00     0.000 C 
BRANCH  13  14
ATOM     14  C   UNL     1      46.654  28.681   0.197  1.00  0.00     0.000 C 
BRANCH  14  15
ATOM     15  C   UNL     1      45.885  29.008  -1.089  1.00  0.00     0.000 C 
BRANCH  15  16
ATOM     16  C   UNL     1      46.427  28.196  -2.275  1.00  0.00     0.000 C 
BRANCH  16  17
ATOM     17  C   UNL     1      45.444  28.137  -3.457  1.00  0.00     0.000 C 
BRANCH  17  18
ATOM     18  C   UNL     1      45.902  27.268  -4.645  1.00  0.00     0.000 C 
BRANCH  18  19
ATOM     19  C   UNL     1      45.197  27.558  -5.983  1.00  0.00     0.000 C 
BRANCH  19  20
ATOM     20  C   UNL     1      44.569  28.960  -6.106  1.00  0.00     0.006 C 
BRANCH  20  21
ATOM     21  C   UNL     1      43.326  29.010  -7.013  1.00  0.00     0.053 C 
BRANCH  21  22
ATOM     22  C   UNL     1      42.047  29.016  -6.233  1.00  0.00     0.041 C 
ATOM     23  O   UNL     1      41.122  29.814  -6.536  1.00  0.00    -0.550 OA
ATOM     24  O   UNL     1      41.862  28.114  -5.191  1.00  0.00    -0.550 OA
ENDBRANCH  21  22
ENDBRANCH  20  21
ENDBRANCH  19  20
ENDBRANCH  18  19
ENDBRANCH  17  18
ENDBRANCH  16  17
ENDBRANCH  15  16
ENDBRANCH  14  15
ENDBRANCH  13  14
ENDBRANCH   1  13
TORSDOF 20
ENDMDL
MODEL 2
REMARK VINA RESULT:    -3.856      4.988     10.773
REMARK INTER + INTRA:         -10.350
REMARK INTER:                  -8.506
REMARK INTRA:                  -1.844
REMARK UNBOUND:                -1.986
REMARK SMILES CCCCCCCCCCCCCCCCCCCCCC(=O)[O-]
REMARK SMILES IDX 12 1 11 2 10 3 9 4 8 5 7 6 6 7 5 8 4 9 3 10 2 11 1 12 13 13
REMARK SMILES IDX 14 14 15 15 16 16 17 17 18 18 19 19 20 20 21 21 22 22 23 23
REMARK SMILES IDX 24 24
REMARK H PARENT
REMARK Flexibility Score: inf
ROOT
ATOM      1  C   UNL     1      44.445  27.465   1.477  1.00  0.00     0.000 C 
ENDROOT
BRANCH   1   2
ATOM      2  C   UNL     1      45.096  28.828   1.181  1.00  0.00     0.000 C 
BRANCH   2   3
ATOM      3  C   UNL     1      46.439  28.696   0.444  1.00  0.00     0.000 C 
BRANCH   3   4
ATOM      4  C   UNL     1      46.611  29.752  -0.662  1.00  0.00    -0.000 C 
BRANCH   4   5
ATOM      5  C   UNL     1      46.858  29.124  -2.044  1.00  0.00    -0.000 C 
BRANCH   5   6
ATOM      6  C   UNL     1      45.975  27.891  -2.300  1.00  0.00    -0.000 C 
BRANCH   6   7
ATOM      7  C   UNL     1      46.435  27.082  -3.524  1.00  0.00    -0.000 C 
BRANCH   7   8
ATOM      8  C   UNL     1      46.087  27.771  -4.855  1.00  0.00    -0.000 C 
BRANCH   8   9
ATOM      9  C   UNL     1      44.693  28.421  -4.846  1.00  0.00    -0.000 C 
BRANCH   9  10
ATOM     10  C   UNL     1      43.604  27.628  -5.593  1.00  0.00    -0.000 C 
BRANCH  10  11
ATOM     11  C   UNL     1      42.245  28.342  -5.603  1.00  0.00    -0.003 C 
ATOM     12  C   UNL     1      42.420  29.858  -5.655  1.00  0.00     0.004 C 
ENDBRANCH  10  11
ENDBRANCH   9  10
ENDBRANCH   8   9
ENDBRANCH   7   8
ENDBRANCH   6   7
ENDBRANCH   5   6
ENDBRANCH   4   5
ENDBRANCH   3   4
ENDBRANCH   2   3
ENDBRANCH   1   2
BRANCH   1  13
ATOM     13  C   UNL     1      44.089  27.291   2.961  1.00  0.00     0.000 C 
BRANCH  13  14
ATOM     14  C   UNL     1      44.893  26.168   3.634  1.00  0.00     0.000 C 
BRANCH  14  15
ATOM     15  C   UNL     1      46.396  26.356   3.405  1.00  0.00     0.000 C 
BRANCH  15  16
ATOM     16  C   UNL     1      47.053  27.049   4.609  1.00  0.00     0.000 C 
BRANCH  16  17
ATOM     17  C   UNL     1      47.100  28.581   4.463  1.00  0.00     0.000 C 
BRANCH  17  18
ATOM     18  C   UNL     1      46.098  29.352   5.345  1.00  0.00     0.000 C 
BRANCH  18  19
ATOM     19  C   UNL     1      46.520  29.537   6.814  1.00  0.00     0.000 C 
BRANCH  19  20
ATOM     20  C   UNL     1      45.628  28.825   7.849  1.00  0.00     0.006 C 
BRANCH  20  21
ATOM     21  C   UNL     1      46.056  27.377   8.151  1.00  0.00     0.053 C 
BRANCH  21  22
ATOM     22  C   UNL     1      46.077  27.080   9.619  1.00  0.00     0.041 C 
ATOM     23  O   UNL     1      46.369  27.984  10.446  1.00  0.00    -0.550 OA
ATOM     24  O   UNL     1      45.741  25.812  10.078  1.00  0.00    -0.550 OA
ENDBRANCH  21  22
ENDBRANCH  20  21
ENDBRANCH  19  20
ENDBRANCH  18  19
ENDBRANCH  17  18
ENDBRANCH  16  17
ENDBRANCH  15  16
ENDBRANCH  14  15
ENDBRANCH  13  14
ENDBRANCH   1  13
TORSDOF 20
ENDMDL
MODEL 3
REMARK VINA RESULT:    -3.722      1.424      2.514
REMARK INTER + INTRA:         -10.059
REMARK INTER:                  -8.542
REMARK INTRA:                  -1.517
REMARK UNBOUND:                -1.986
REMARK SMILES CCCCCCCCCCCCCCCCCCCCCC(=O)[O-]
REMARK SMILES IDX 12 1 11 2 10 3 9 4 8 5 7 6 6 7 5 8 4 9 3 10 2 11 1 12 13 13
REMARK SMILES IDX 14 14 15 15 16 16 17 17 18 18 19 19 20 20 21 21 22 22 23 23
REMARK SMILES IDX 24 24
REMARK H PARENT
REMARK Flexibility Score: inf
ROOT
ATOM      1  C   UNL     1      44.068  27.507   1.903  1.00  0.00     0.000 C 
ENDROOT
BRANCH   1   2
ATOM      2  C   UNL     1      44.776  27.508   3.270  1.00  0.00     0.000 C 
BRANCH   2   3
ATOM      3  C   UNL     1      45.122  26.091   3.759  1.00  0.00     0.000 C 
BRANCH   3   4
ATOM      4  C   UNL     1      46.553  25.995   4.316  1.00  0.00    -0.000 C 
BRANCH   4   5
ATOM      5  C   UNL     1      46.627  26.338   5.814  1.00  0.00    -0.000 C 
BRANCH   5   6
ATOM      6  C   UNL     1      47.089  27.784   6.067  1.00  0.00    -0.000 C 
BRANCH   6   7
ATOM      7  C   UNL     1      46.040  28.612   6.827  1.00  0.00    -0.000 C 
BRANCH   7   8
ATOM      8  C   UNL     1      46.380  28.776   8.319  1.00  0.00    -0.000 C 
BRANCH   8   9
ATOM      9  C   UNL     1      45.255  28.281   9.246  1.00  0.00    -0.000 C 
BRANCH   9  10
ATOM     10  C   UNL     1      45.309  26.779   9.582  1.00  0.00    -0.000 C 
BRANCH  10  11
ATOM     11  C   UNL     1      46.737  26.216   9.576  1.00  0.00    -0.003 C 
ATOM     12  C   UNL     1      46.944  25.228  10.721  1.00  0.00     0.004 C 
ENDBRANCH  10  11
ENDBRANCH   9  10
ENDBRANCH   8   9
ENDBRANCH   7   8
ENDBRANCH   6   7
ENDBRANCH   5   6
ENDBRANCH   4   5
ENDBRANCH   3   4
ENDBRANCH   2   3
ENDBRANCH   1   2
BRANCH   1  13
ATOM     13  C   UNL     1      45.021  27.836   0.745  1.00  0.00     0.000 C 
BRANCH  13  14
ATOM     14  C   UNL     1      46.358  28.421   1.226  1.00  0.00     0.000 C 
BRANCH  14  15
ATOM     15  C   UNL     1      46.977  29.328   0.157  1.00  0.00     0.000 C 
BRANCH  15  16
ATOM     16  C   UNL     1      46.908  28.671  -1.229  1.00  0.00     0.000 C 
BRANCH  16  17
ATOM     17  C   UNL     1      46.345  29.612  -2.309  1.00  0.00     0.000 C 
BRANCH  17  18
ATOM     18  C   UNL     1      45.579  28.914  -3.450  1.00  0.00     0.000 C 
BRANCH  18  19
ATOM     19  C   UNL     1      46.181  29.097  -4.856  1.00  0.00     0.000 C 
BRANCH  19  20
ATOM     20  C   UNL     1      45.294  28.613  -6.019  1.00  0.00     0.006 C 
BRANCH  20  21
ATOM     21  C   UNL     1      43.892  29.249  -6.040  1.00  0.00     0.053 C 
BRANCH  21  22
ATOM     22  C   UNL     1      42.821  28.290  -5.615  1.00  0.00     0.041 C 
ATOM     23  O   UNL     1      41.618  28.658  -5.578  1.00  0.00    -0.550 OA
ATOM     24  O   UNL     1      43.149  26.979  -5.291  1.00  0.00    -0.550 OA
ENDBRANCH  21  22
ENDBRANCH  20  21
ENDBRANCH  19  20
ENDBRANCH  18  19
ENDBRANCH  17  18
ENDBRANCH  16  17
ENDBRANCH  15  16
ENDBRANCH  14  15
ENDBRANCH  13  14
ENDBRANCH   1  13
TORSDOF 20
ENDMDL
MODEL 4
REMARK VINA RESULT:    -3.512      4.775     11.415
REMARK INTER + INTRA:          -9.604
REMARK INTER:                  -8.086
REMARK INTRA:                  -1.517
REMARK UNBOUND:                -1.986
REMARK SMILES CCCCCCCCCCCCCCCCCCCCCC(=O)[O-]
REMARK SMILES IDX 12 1 11 2 10 3 9 4 8 5 7 6 6 7 5 8 4 9 3 10 2 11 1 12 13 13
REMARK SMILES IDX 14 14 15 15 16 16 17 17 18 18 19 19 20 20 21 21 22 22 23 23
REMARK SMILES IDX 24 24
REMARK H PARENT
REMARK Flexibility Score: inf
ROOT
ATOM      1  C   UNL     1      44.801  26.778   3.371  1.00  0.00     0.000 C 
ENDROOT
BRANCH   1   2
ATOM      2  C   UNL     1      44.685  27.925   2.351  1.00  0.00     0.000 C 
BRANCH   2   3
ATOM      3  C   UNL     1      45.819  27.912   1.313  1.00  0.00     0.000 C 
BRANCH   3   4
ATOM      4  C   UNL     1      45.720  29.080   0.317  1.00  0.00    -0.000 C 
BRANCH   4   5
ATOM      5  C   UNL     1      46.114  28.672  -1.112  1.00  0.00    -0.000 C 
BRANCH   5   6
ATOM      6  C   UNL     1      46.561  29.870  -1.969  1.00  0.00    -0.000 C 
BRANCH   6   7
ATOM      7  C   UNL     1      45.822  29.939  -3.315  1.00  0.00    -0.000 C 
BRANCH   7   8
ATOM      8  C   UNL     1      45.418  28.551  -3.843  1.00  0.00    -0.000 C 
BRANCH   8   9
ATOM      9  C   UNL     1      45.355  28.492  -5.379  1.00  0.00    -0.000 C 
BRANCH   9  10
ATOM     10  C   UNL     1      44.183  27.669  -5.946  1.00  0.00    -0.000 C 
BRANCH  10  11
ATOM     11  C   UNL     1      42.824  28.084  -5.364  1.00  0.00    -0.003 C 
ATOM     12  C   UNL     1      42.126  29.098  -6.266  1.00  0.00     0.004 C 
ENDBRANCH  10  11
ENDBRANCH   9  10
ENDBRANCH   8   9
ENDBRANCH   7   8
ENDBRANCH   6   7
ENDBRANCH   5   6
ENDBRANCH   4   5
ENDBRANCH   3   4
ENDBRANCH   2   3
ENDBRANCH   1   2
BRANCH   1  13
ATOM     13  C   UNL     1      46.200  26.144   3.391  1.00  0.00     0.000 C 
BRANCH  13  14
ATOM     14  C   UNL     1      46.864  26.221   4.774  1.00  0.00     0.000 C 
BRANCH  14  15
ATOM     15  C   UNL     1      46.083  27.153   5.707  1.00  0.00     0.000 C 
BRANCH  15  16
ATOM     16  C   UNL     1      46.837  28.474   5.921  1.00  0.00     0.000 C 
BRANCH  16  17
ATOM     17  C   UNL     1      45.965  29.559   6.578  1.00  0.00     0.000 C 
BRANCH  17  18
ATOM     18  C   UNL     1      45.482  29.234   8.006  1.00  0.00     0.000 C 
BRANCH  18  19
ATOM     19  C   UNL     1      46.542  29.395   9.112  1.00  0.00     0.000 C 
BRANCH  19  20
ATOM     20  C   UNL     1      46.544  28.290  10.186  1.00  0.00     0.006 C 
BRANCH  20  21
ATOM     21  C   UNL     1      45.698  27.058   9.817  1.00  0.00     0.053 C 
BRANCH  21  22
ATOM     22  C   UNL     1      46.525  25.818   9.667  1.00  0.00     0.041 C 
ATOM     23  O   UNL     1      47.125  25.581   8.586  1.00  0.00    -0.550 OA
ATOM     24  O   UNL     1      46.662  24.939  10.735  1.00  0.00    -0.550 OA
ENDBRANCH  21  22
ENDBRANCH  20  21
ENDBRANCH  19  20
ENDBRANCH  18  19
ENDBRANCH  17  18
ENDBRANCH  16  17
ENDBRANCH  15  16
ENDBRANCH  14  15
ENDBRANCH  13  14
ENDBRANCH   1  13
TORSDOF 20
ENDMDL
MODEL 5
REMARK VINA RESULT:    -3.255      1.411      2.154
REMARK INTER + INTRA:          -9.048
REMARK INTER:                  -7.555
REMARK INTRA:                  -1.493
REMARK UNBOUND:                -1.986
REMARK SMILES CCCCCCCCCCCCCCCCCCCCCC(=O)[O-]
REMARK SMILES IDX 12 1 11 2 10 3 9 4 8 5 7 6 6 7 5 8 4 9 3 10 2 11 1 12 13 13
REMARK SMILES IDX 14 14 15 15 16 16 17 17 18 18 19 19 20 20 21 21 22 22 23 23
REMARK SMILES IDX 24 24
REMARK H PARENT
REMARK Flexibility Score: inf
ROOT
ATOM      1  C   UNL     1      45.606  28.562   0.205  1.00  0.00     0.000 C 
ENDROOT
BRANCH   1   2
ATOM      2  C   UNL     1      46.816  28.273   1.112  1.00  0.00     0.000 C 
BRANCH   2   3
ATOM      3  C   UNL     1      46.451  27.411   2.331  1.00  0.00     0.000 C 
BRANCH   3   4
ATOM      4  C   UNL     1      45.524  28.146   3.315  1.00  0.00    -0.000 C 
BRANCH   4   5
ATOM      5  C   UNL     1      46.302  28.983   4.344  1.00  0.00    -0.000 C 
BRANCH   5   6
ATOM      6  C   UNL     1      46.187  28.421   5.773  1.00  0.00    -0.000 C 
BRANCH   6   7
ATOM      7  C   UNL     1      46.361  26.895   5.820  1.00  0.00    -0.000 C 
BRANCH   7   8
ATOM      8  C   UNL     1      46.918  26.403   7.168  1.00  0.00    -0.000 C 
BRANCH   8   9
ATOM      9  C   UNL     1      47.094  27.538   8.192  1.00  0.00    -0.000 C 
BRANCH   9  10
ATOM     10  C   UNL     1      46.315  27.348   9.508  1.00  0.00    -0.000 C 
BRANCH  10  11
ATOM     11  C   UNL     1      44.990  28.122   9.535  1.00  0.00    -0.003 C 
ATOM     12  C   UNL     1      45.198  29.583   9.144  1.00  0.00     0.004 C 
ENDBRANCH  10  11
ENDBRANCH   9  10
ENDBRANCH   8   9
ENDBRANCH   7   8
ENDBRANCH   6   7
ENDBRANCH   5   6
ENDBRANCH   4   5
ENDBRANCH   3   4
ENDBRANCH   2   3
ENDBRANCH   1   2
BRANCH   1  13
ATOM     13  C   UNL     1      45.907  29.628  -0.859  1.00  0.00     0.000 C 
BRANCH  13  14
ATOM     14  C   UNL     1      46.518  29.033  -2.136  1.00  0.00     0.000 C 
BRANCH  14  15
ATOM     15  C   UNL     1      45.961  27.633  -2.411  1.00  0.00     0.000 C 
BRANCH  15  16
ATOM     16  C   UNL     1      46.103  27.266  -3.896  1.00  0.00     0.000 C 
BRANCH  16  17
ATOM     17  C   UNL     1      46.808  28.362  -4.716  1.00  0.00     0.000 C 
BRANCH  17  18
ATOM     18  C   UNL     1      46.796  28.145  -6.243  1.00  0.00     0.000 C 
BRANCH  18  19
ATOM     19  C   UNL     1      45.926  29.132  -7.042  1.00  0.00     0.000 C 
BRANCH  19  20
ATOM     20  C   UNL     1      44.791  29.802  -6.245  1.00  0.00     0.006 C 
BRANCH  20  21
ATOM     21  C   UNL     1      43.380  29.459  -6.757  1.00  0.00     0.053 C 
BRANCH  21  22
ATOM     22  C   UNL     1      42.782  28.284  -6.046  1.00  0.00     0.041 C 
ATOM     23  O   UNL     1      43.405  27.191  -5.989  1.00  0.00    -0.550 OA
ATOM     24  O   UNL     1      41.550  28.405  -5.415  1.00  0.00    -0.550 OA
ENDBRANCH  21  22
ENDBRANCH  20  21
ENDBRANCH  19  20
ENDBRANCH  18  19
ENDBRANCH  17  18
ENDBRANCH  16  17
ENDBRANCH  15  16
ENDBRANCH  14  15
ENDBRANCH  13  14
ENDBRANCH   1  13
TORSDOF 20
ENDMDL
MODEL 6
REMARK VINA RESULT:    -3.192      1.200      2.397
REMARK INTER + INTRA:          -8.909
REMARK INTER:                  -7.470
REMARK INTRA:                  -1.439
REMARK UNBOUND:                -1.986
REMARK SMILES CCCCCCCCCCCCCCCCCCCCCC(=O)[O-]
REMARK SMILES IDX 12 1 11 2 10 3 9 4 8 5 7 6 6 7 5 8 4 9 3 10 2 11 1 12 13 13
REMARK SMILES IDX 14 14 15 15 16 16 17 17 18 18 19 19 20 20 21 21 22 22 23 23
REMARK SMILES IDX 24 24
REMARK H PARENT
REMARK Flexibility Score: inf
ROOT
ATOM      1  C   UNL     1      44.041  27.706   2.668  1.00  0.00     0.000 C 
ENDROOT
BRANCH   1   2
ATOM      2  C   UNL     1      44.500  29.094   3.148  1.00  0.00     0.000 C 
BRANCH   2   3
ATOM      3  C   UNL     1      45.951  29.095   3.655  1.00  0.00     0.000 C 
BRANCH   3   4
ATOM      4  C   UNL     1      46.381  27.727   4.213  1.00  0.00    -0.000 C 
BRANCH   4   5
ATOM      5  C   UNL     1      46.860  27.810   5.672  1.00  0.00    -0.000 C 
BRANCH   5   6
ATOM      6  C   UNL     1      46.229  26.727   6.565  1.00  0.00    -0.000 C 
BRANCH   6   7
ATOM      7  C   UNL     1      47.112  26.372   7.772  1.00  0.00    -0.000 C 
BRANCH   7   8
ATOM      8  C   UNL     1      46.291  26.015   9.024  1.00  0.00    -0.000 C 
BRANCH   8   9
ATOM      9  C   UNL     1      45.322  27.135   9.442  1.00  0.00    -0.000 C 
BRANCH   9  10
ATOM     10  C   UNL     1      45.896  28.141  10.457  1.00  0.00    -0.000 C 
BRANCH  10  11
ATOM     11  C   UNL     1      46.065  29.550   9.872  1.00  0.00    -0.003 C 
ATOM     12  C   UNL     1      45.244  29.717   8.596  1.00  0.00     0.004 C 
ENDBRANCH  10  11
ENDBRANCH   9  10
ENDBRANCH   8   9
ENDBRANCH   7   8
ENDBRANCH   6   7
ENDBRANCH   5   6
ENDBRANCH   4   5
ENDBRANCH   3   4
ENDBRANCH   2   3
ENDBRANCH   1   2
BRANCH   1  13
ATOM     13  C   UNL     1      44.299  27.484   1.170  1.00  0.00     0.000 C 
BRANCH  13  14
ATOM     14  C   UNL     1      44.983  28.687   0.503  1.00  0.00     0.000 C 
BRANCH  14  15
ATOM     15  C   UNL     1      46.264  28.259  -0.223  1.00  0.00     0.000 C 
BRANCH  15  16
ATOM     16  C   UNL     1      46.960  29.466  -0.867  1.00  0.00     0.000 C 
BRANCH  16  17
ATOM     17  C   UNL     1      46.833  29.480  -2.401  1.00  0.00     0.000 C 
BRANCH  17  18
ATOM     18  C   UNL     1      45.854  28.443  -2.985  1.00  0.00     0.000 C 
BRANCH  18  19
ATOM     19  C   UNL     1      45.649  28.515  -4.509  1.00  0.00     0.000 C 
BRANCH  19  20
ATOM     20  C   UNL     1      44.476  27.678  -5.056  1.00  0.00     0.006 C 
BRANCH  20  21
ATOM     21  C   UNL     1      43.879  28.222  -6.367  1.00  0.00     0.053 C 
BRANCH  21  22
ATOM     22  C   UNL     1      42.607  28.982  -6.145  1.00  0.00     0.041 C 
ATOM     23  O   UNL     1      41.859  29.265  -7.118  1.00  0.00    -0.550 OA
ATOM     24  O   UNL     1      42.230  29.350  -4.859  1.00  0.00    -0.550 OA
ENDBRANCH  21  22
ENDBRANCH  20  21
ENDBRANCH  19  20
ENDBRANCH  18  19
ENDBRANCH  17  18
ENDBRANCH  16  17
ENDBRANCH  15  16
ENDBRANCH  14  15
ENDBRANCH  13  14
ENDBRANCH   1  13
TORSDOF 20
ENDMDL
MODEL 7
REMARK VINA RESULT:    -3.140      1.857      4.016
REMARK INTER + INTRA:          -8.799
REMARK INTER:                  -7.166
REMARK INTRA:                  -1.633
REMARK UNBOUND:                -1.986
REMARK SMILES CCCCCCCCCCCCCCCCCCCCCC(=O)[O-]
REMARK SMILES IDX 12 1 11 2 10 3 9 4 8 5 7 6 6 7 5 8 4 9 3 10 2 11 1 12 13 13
REMARK SMILES IDX 14 14 15 15 16 16 17 17 18 18 19 19 20 20 21 21 22 22 23 23
REMARK SMILES IDX 24 24
REMARK H PARENT
REMARK Flexibility Score: inf
ROOT
ATOM      1  C   UNL     1      44.294  29.879   3.531  1.00  0.00     0.000 C 
ENDROOT
BRANCH   1   2
ATOM      2  C   UNL     1      45.705  30.125   2.968  1.00  0.00     0.000 C 
BRANCH   2   3
ATOM      3  C   UNL     1      46.814  29.740   3.960  1.00  0.00     0.000 C 
BRANCH   3   4
ATOM      4  C   UNL     1      46.562  28.375   4.625  1.00  0.00    -0.000 C 
BRANCH   4   5
ATOM      5  C   UNL     1      46.596  28.453   6.160  1.00  0.00    -0.000 C 
BRANCH   5   6
ATOM      6  C   UNL     1      46.457  29.893   6.684  1.00  0.00    -0.000 C 
BRANCH   6   7
ATOM      7  C   UNL     1      45.173  30.100   7.504  1.00  0.00    -0.000 C 
BRANCH   7   8
ATOM      8  C   UNL     1      45.428  30.079   9.021  1.00  0.00    -0.000 C 
BRANCH   8   9
ATOM      9  C   UNL     1      44.943  28.780   9.690  1.00  0.00    -0.000 C 
BRANCH   9  10
ATOM     10  C   UNL     1      46.046  27.739   9.958  1.00  0.00    -0.000 C 
BRANCH  10  11
ATOM     11  C   UNL     1      45.710  26.353   9.390  1.00  0.00    -0.003 C 
ATOM     12  C   UNL     1      46.969  25.635   8.912  1.00  0.00     0.004 C 
ENDBRANCH  10  11
ENDBRANCH   9  10
ENDBRANCH   8   9
ENDBRANCH   7   8
ENDBRANCH   6   7
ENDBRANCH   5   6
ENDBRANCH   4   5
ENDBRANCH   3   4
ENDBRANCH   2   3
ENDBRANCH   1   2
BRANCH   1  13
ATOM     13  C   UNL     1      43.221  29.821   2.433  1.00  0.00     0.000 C 
BRANCH  13  14
ATOM     14  C   UNL     1      42.506  28.462   2.375  1.00  0.00     0.000 C 
BRANCH  14  15
ATOM     15  C   UNL     1      43.514  27.309   2.435  1.00  0.00     0.000 C 
BRANCH  15  16
ATOM     16  C   UNL     1      44.162  27.074   1.062  1.00  0.00     0.000 C 
BRANCH  16  17
ATOM     17  C   UNL     1      45.572  27.682   0.957  1.00  0.00     0.000 C 
BRANCH  17  18
ATOM     18  C   UNL     1      45.682  28.925   0.052  1.00  0.00     0.000 C 
BRANCH  18  19
ATOM     19  C   UNL     1      46.537  28.744  -1.216  1.00  0.00     0.000 C 
BRANCH  19  20
ATOM     20  C   UNL     1      45.762  28.809  -2.546  1.00  0.00     0.006 C 
BRANCH  20  21
ATOM     21  C   UNL     1      46.301  27.857  -3.630  1.00  0.00     0.053 C 
BRANCH  21  22
ATOM     22  C   UNL     1      45.326  27.651  -4.749  1.00  0.00     0.041 C 
ATOM     23  O   UNL     1      44.149  28.088  -4.655  1.00  0.00    -0.550 OA
ATOM     24  O   UNL     1      45.728  27.006  -5.913  1.00  0.00    -0.550 OA
ENDBRANCH  21  22
ENDBRANCH  20  21
ENDBRANCH  19  20
ENDBRANCH  18  19
ENDBRANCH  17  18
ENDBRANCH  16  17
ENDBRANCH  15  16
ENDBRANCH  14  15
ENDBRANCH  13  14
ENDBRANCH   1  13
TORSDOF 20
ENDMDL
MODEL 8
REMARK VINA RESULT:    -3.066      1.612      2.117
REMARK INTER + INTRA:          -8.637
REMARK INTER:                  -7.901
REMARK INTRA:                  -0.736
REMARK UNBOUND:                -1.986
REMARK SMILES CCCCCCCCCCCCCCCCCCCCCC(=O)[O-]
REMARK SMILES IDX 12 1 11 2 10 3 9 4 8 5 7 6 6 7 5 8 4 9 3 10 2 11 1 12 13 13
REMARK SMILES IDX 14 14 15 15 16 16 17 17 18 18 19 19 20 20 21 21 22 22 23 23
REMARK SMILES IDX 24 24
REMARK H PARENT
REMARK Flexibility Score: inf
ROOT
ATOM      1  C   UNL     1      45.008  29.416   1.916  1.00  0.00     0.000 C 
ENDROOT
BRANCH   1   2
ATOM      2  C   UNL     1      43.712  28.676   2.290  1.00  0.00     0.000 C 
BRANCH   2   3
ATOM      3  C   UNL     1      43.846  27.149   2.173  1.00  0.00     0.000 C 
BRANCH   3   4
ATOM      4  C   UNL     1      44.695  26.544   3.304  1.00  0.00    -0.000 C 
BRANCH   4   5
ATOM      5  C   UNL     1      46.184  26.442   2.933  1.00  0.00    -0.000 C 
BRANCH   5   6
ATOM      6  C   UNL     1      47.112  26.883   4.079  1.00  0.00    -0.000 C 
BRANCH   6   7
ATOM      7  C   UNL     1      46.431  27.873   5.038  1.00  0.00    -0.000 C 
BRANCH   7   8
ATOM      8  C   UNL     1      47.017  27.820   6.460  1.00  0.00    -0.000 C 
BRANCH   8   9
ATOM      9  C   UNL     1      45.943  27.605   7.541  1.00  0.00    -0.000 C 
BRANCH   9  10
ATOM     10  C   UNL     1      45.560  28.869   8.333  1.00  0.00    -0.000 C 
BRANCH  10  11
ATOM     11  C   UNL     1      45.068  28.557   9.754  1.00  0.00    -0.003 C 
ATOM     12  C   UNL     1      45.746  27.308  10.309  1.00  0.00     0.004 C 
ENDBRANCH  10  11
ENDBRANCH   9  10
ENDBRANCH   8   9
ENDBRANCH   7   8
ENDBRANCH   6   7
ENDBRANCH   5   6
ENDBRANCH   4   5
ENDBRANCH   3   4
ENDBRANCH   2   3
ENDBRANCH   1   2
BRANCH   1  13
ATOM     13  C   UNL     1      45.170  29.594   0.398  1.00  0.00     0.000 C 
BRANCH  13  14
ATOM     14  C   UNL     1      45.950  28.443  -0.253  1.00  0.00     0.000 C 
BRANCH  14  15
ATOM     15  C   UNL     1      46.830  28.954  -1.399  1.00  0.00     0.000 C 
BRANCH  15  16
ATOM     16  C   UNL     1      46.045  29.912  -2.309  1.00  0.00     0.000 C 
BRANCH  16  17
ATOM     17  C   UNL     1      46.580  29.936  -3.752  1.00  0.00     0.000 C 
BRANCH  17  18
ATOM     18  C   UNL     1      45.506  30.116  -4.844  1.00  0.00     0.000 C 
BRANCH  18  19
ATOM     19  C   UNL     1      44.055  29.886  -4.384  1.00  0.00     0.000 C 
BRANCH  19  20
ATOM     20  C   UNL     1      43.106  29.324  -5.460  1.00  0.00     0.006 C 
BRANCH  20  21
ATOM     21  C   UNL     1      43.219  27.802  -5.660  1.00  0.00     0.053 C 
BRANCH  21  22
ATOM     22  C   UNL     1      44.585  27.280  -5.331  1.00  0.00     0.041 C 
ATOM     23  O   UNL     1      45.486  27.264  -6.210  1.00  0.00    -0.550 OA
ATOM     24  O   UNL     1      44.873  26.844  -4.044  1.00  0.00    -0.550 OA
ENDBRANCH  21  22
ENDBRANCH  20  21
ENDBRANCH  19  20
ENDBRANCH  18  19
ENDBRANCH  17  18
ENDBRANCH  16  17
ENDBRANCH  15  16
ENDBRANCH  14  15
ENDBRANCH  13  14
ENDBRANCH   1  13
TORSDOF 20
ENDMDL
MODEL 9
REMARK VINA RESULT:    -3.021      1.626      2.754
REMARK INTER + INTRA:          -8.540
REMARK INTER:                  -7.040
REMARK INTRA:                  -1.500
REMARK UNBOUND:                -1.986
REMARK SMILES CCCCCCCCCCCCCCCCCCCCCC(=O)[O-]
REMARK SMILES IDX 12 1 11 2 10 3 9 4 8 5 7 6 6 7 5 8 4 9 3 10 2 11 1 12 13 13
REMARK SMILES IDX 14 14 15 15 16 16 17 17 18 18 19 19 20 20 21 21 22 22 23 23
REMARK SMILES IDX 24 24
REMARK H PARENT
REMARK Flexibility Score: inf
ROOT
ATOM      1  C   UNL     1      42.268  27.789   2.136  1.00  0.00     0.000 C 
ENDROOT
BRANCH   1   2
ATOM      2  C   UNL     1      42.219  29.095   2.948  1.00  0.00     0.000 C 
BRANCH   2   3
ATOM      3  C   UNL     1      43.461  29.975   2.731  1.00  0.00     0.000 C 
BRANCH   3   4
ATOM      4  C   UNL     1      44.314  30.113   4.004  1.00  0.00    -0.000 C 
BRANCH   4   5
ATOM      5  C   UNL     1      45.823  30.056   3.712  1.00  0.00    -0.000 C 
BRANCH   5   6
ATOM      6  C   UNL     1      46.609  29.304   4.801  1.00  0.00    -0.000 C 
BRANCH   6   7
ATOM      7  C   UNL     1      45.926  27.992   5.220  1.00  0.00    -0.000 C 
BRANCH   7   8
ATOM      8  C   UNL     1      46.813  27.127   6.132  1.00  0.00    -0.000 C 
BRANCH   8   9
ATOM      9  C   UNL     1      46.075  26.634   7.389  1.00  0.00    -0.000 C 
BRANCH   9  10
ATOM     10  C   UNL     1      46.345  27.457   8.663  1.00  0.00    -0.000 C 
BRANCH  10  11
ATOM     11  C   UNL     1      45.067  27.772   9.454  1.00  0.00    -0.003 C 
ATOM     12  C   UNL     1      44.837  29.277   9.551  1.00  0.00     0.004 C 
ENDBRANCH  10  11
ENDBRANCH   9  10
ENDBRANCH   8   9
ENDBRANCH   7   8
ENDBRANCH   6   7
ENDBRANCH   5   6
ENDBRANCH   4   5
ENDBRANCH   3   4
ENDBRANCH   2   3
ENDBRANCH   1   2
BRANCH   1  13
ATOM     13  C   UNL     1      43.681  27.191   2.064  1.00  0.00     0.000 C 
BRANCH  13  14
ATOM     14  C   UNL     1      44.537  27.825   0.957  1.00  0.00     0.000 C 
BRANCH  14  15
ATOM     15  C   UNL     1      46.029  27.587   1.211  1.00  0.00     0.000 C 
BRANCH  15  16
ATOM     16  C   UNL     1      46.873  28.746   0.660  1.00  0.00     0.000 C 
BRANCH  16  17
ATOM     17  C   UNL     1      46.280  29.360  -0.621  1.00  0.00     0.000 C 
BRANCH  17  18
ATOM     18  C   UNL     1      46.932  28.885  -1.935  1.00  0.00     0.000 C 
BRANCH  18  19
ATOM     19  C   UNL     1      45.949  28.504  -3.058  1.00  0.00     0.000 C 
BRANCH  19  20
ATOM     20  C   UNL     1      45.649  29.620  -4.076  1.00  0.00     0.006 C 
BRANCH  20  21
ATOM     21  C   UNL     1      44.494  29.292  -5.039  1.00  0.00     0.053 C 
BRANCH  21  22
ATOM     22  C   UNL     1      44.540  27.876  -5.530  1.00  0.00     0.041 C 
ATOM     23  O   UNL     1      43.727  27.024  -5.087  1.00  0.00    -0.550 OA
ATOM     24  O   UNL     1      45.461  27.507  -6.503  1.00  0.00    -0.550 OA
ENDBRANCH  21  22
ENDBRANCH  20  21
ENDBRANCH  19  20
ENDBRANCH  18  19
ENDBRANCH  17  18
ENDBRANCH  16  17
ENDBRANCH  15  16
ENDBRANCH  14  15
ENDBRANCH  13  14
ENDBRANCH   1  13
TORSDOF 20
ENDMDL
