MODEL 1
REMARK VINA RESULT:    -5.186      0.000      0.000
REMARK INTER + INTRA:          -7.942
REMARK INTER:                  -7.309
REMARK INTRA:                  -0.633
REMARK UNBOUND:                -0.633
REMARK SMILES CCCCCCCCC(=O)[O-]
REMARK SMILES IDX 6 1 7 2 8 3 9 4 10 5 11 6 5 7 4 8 3 9 2 10 1 11
REMARK H PARENT
REMARK Flexibility Score: inf
ROOT
ATOM      1  C   UNL     1     -14.939   1.563  -8.962  1.00  0.00     0.000 C 
ENDROOT
BRANCH   1   2
ATOM      2  C   UNL     1     -13.939   2.577  -9.548  1.00  0.00     0.006 C 
BRANCH   2   3
ATOM      3  C   UNL     1     -13.233   3.452  -8.500  1.00  0.00     0.053 C 
BRANCH   3   4
ATOM      4  C   UNL     1     -11.838   3.809  -8.912  1.00  0.00     0.041 C 
ATOM      5  O   UNL     1     -11.601   4.175 -10.093  1.00  0.00    -0.550 OA
ATOM      6  O   UNL     1     -10.806   3.770  -7.983  1.00  0.00    -0.550 OA
ENDBRANCH   3   4
ENDBRANCH   2   3
ENDBRANCH   1   2
BRANCH   1   7
ATOM      7  C   UNL     1     -14.799   0.163  -9.583  1.00  0.00     0.000 C 
BRANCH   7   8
ATOM      8  C   UNL     1     -13.880   0.154 -10.816  1.00  0.00    -0.000 C 
BRANCH   8   9
ATOM      9  C   UNL     1     -12.815  -0.952 -10.754  1.00  0.00    -0.000 C 
BRANCH   9  10
ATOM     10  C   UNL     1     -11.408  -0.368 -10.929  1.00  0.00    -0.003 C 
ATOM     11  C   UNL     1     -10.943   0.339  -9.660  1.00  0.00     0.004 C 
ENDBRANCH   9  10
ENDBRANCH   8   9
ENDBRANCH   7   8
ENDBRANCH   1   7
TORSDOF 7
ENDMDL
MODEL 2
REMARK VINA RESULT:    -5.064      2.866      4.745
REMARK INTER + INTRA:          -7.769
REMARK INTER:                  -7.269
REMARK INTRA:                  -0.500
REMARK UNBOUND:                -0.633
REMARK SMILES CCCCCCCCC(=O)[O-]
REMARK SMILES IDX 6 1 7 2 8 3 9 4 10 5 11 6 5 7 4 8 3 9 2 10 1 11
REMARK H PARENT
REMARK Flexibility Score: inf
ROOT
ATOM      1  C   UNL     1     -13.300   0.857  -9.977  1.00  0.00     0.000 C 
ENDROOT
BRANCH   1   2
ATOM      2  C   UNL     1     -11.770   0.690 -10.005  1.00  0.00     0.006 C 
BRANCH   2   3
ATOM      3  C   UNL     1     -11.275  -0.494 -10.851  1.00  0.00     0.053 C 
BRANCH   3   4
ATOM      4  C   UNL     1     -11.065  -1.727 -10.027  1.00  0.00     0.041 C 
ATOM      5  O   UNL     1     -10.224  -1.727  -9.091  1.00  0.00    -0.550 OA
ATOM      6  O   UNL     1     -11.822  -2.865 -10.273  1.00  0.00    -0.550 OA
ENDBRANCH   3   4
ENDBRANCH   2   3
ENDBRANCH   1   2
BRANCH   1   7
ATOM      7  C   UNL     1     -13.736   2.332  -9.966  1.00  0.00     0.000 C 
BRANCH   7   8
ATOM      8  C   UNL     1     -13.910   2.886  -8.541  1.00  0.00    -0.000 C 
BRANCH   8   9
ATOM      9  C   UNL     1     -13.138   4.194  -8.314  1.00  0.00    -0.000 C 
BRANCH   9  10
ATOM     10  C   UNL     1     -11.855   4.226  -9.154  1.00  0.00    -0.003 C 
ATOM     11  C   UNL     1     -10.644   3.806  -8.327  1.00  0.00     0.004 C 
ENDBRANCH   9  10
ENDBRANCH   8   9
ENDBRANCH   7   8
ENDBRANCH   1   7
TORSDOF 7
ENDMDL
MODEL 3
REMARK VINA RESULT:    -4.920      1.744      2.169
REMARK INTER + INTRA:          -7.566
REMARK INTER:                  -7.218
REMARK INTRA:                  -0.348
REMARK UNBOUND:                -0.633
REMARK SMILES CCCCCCCCC(=O)[O-]
REMARK SMILES IDX 6 1 7 2 8 3 9 4 10 5 11 6 5 7 4 8 3 9 2 10 1 11
REMARK H PARENT
REMARK Flexibility Score: inf
ROOT
ATOM      1  C   UNL     1     -13.514   1.044  -9.980  1.00  0.00     0.000 C 
ENDROOT
BRANCH   1   2
ATOM      2  C   UNL     1     -12.175   1.632  -9.501  1.00  0.00     0.006 C 
BRANCH   2   3
ATOM      3  C   UNL     1     -12.088   3.165  -9.583  1.00  0.00     0.053 C 
BRANCH   3   4
ATOM      4  C   UNL     1     -11.610   3.771  -8.300  1.00  0.00     0.041 C 
ATOM      5  O   UNL     1     -10.391   3.717  -7.990  1.00  0.00    -0.550 OA
ATOM      6  O   UNL     1     -12.506   4.425  -7.464  1.00  0.00    -0.550 OA
ENDBRANCH   3   4
ENDBRANCH   2   3
ENDBRANCH   1   2
BRANCH   1   7
ATOM      7  C   UNL     1     -13.350  -0.316 -10.679  1.00  0.00     0.000 C 
BRANCH   7   8
ATOM      8  C   UNL     1     -11.876  -0.697 -10.891  1.00  0.00    -0.000 C 
BRANCH   8   9
ATOM      9  C   UNL     1     -11.499  -2.020 -10.209  1.00  0.00    -0.000 C 
BRANCH   9  10
ATOM     10  C   UNL     1     -10.284  -1.837  -9.292  1.00  0.00    -0.003 C 
ATOM     11  C   UNL     1      -9.970  -3.121  -8.530  1.00  0.00     0.004 C 
ENDBRANCH   9  10
ENDBRANCH   8   9
ENDBRANCH   7   8
ENDBRANCH   1   7
TORSDOF 7
ENDMDL
MODEL 4
REMARK VINA RESULT:    -4.558      2.793      3.749
REMARK INTER + INTRA:          -7.057
REMARK INTER:                  -6.793
REMARK INTRA:                  -0.264
REMARK UNBOUND:                -0.633
REMARK SMILES CCCCCCCCC(=O)[O-]
REMARK SMILES IDX 6 1 7 2 8 3 9 4 10 5 11 6 5 7 4 8 3 9 2 10 1 11
REMARK H PARENT
REMARK Flexibility Score: inf
ROOT
ATOM      1  C   UNL     1     -11.768  -0.756 -10.753  1.00  0.00     0.000 C 
ENDROOT
BRANCH   1   2
ATOM      2  C   UNL     1     -12.278   0.599 -10.230  1.00  0.00     0.006 C 
BRANCH   2   3
ATOM      3  C   UNL     1     -11.268   1.364  -9.359  1.00  0.00     0.053 C 
BRANCH   3   4
ATOM      4  C   UNL     1     -11.730   2.755  -9.050  1.00  0.00     0.041 C 
ATOM      5  O   UNL     1     -12.841   3.162  -9.479  1.00  0.00    -0.550 OA
ATOM      6  O   UNL     1     -10.949   3.589  -8.261  1.00  0.00    -0.550 OA
ENDBRANCH   3   4
ENDBRANCH   2   3
ENDBRANCH   1   2
BRANCH   1   7
ATOM      7  C   UNL     1     -10.432  -1.175 -10.116  1.00  0.00     0.000 C 
BRANCH   7   8
ATOM      8  C   UNL     1     -10.492  -2.576  -9.485  1.00  0.00    -0.000 C 
BRANCH   8   9
ATOM      9  C   UNL     1      -9.115  -3.251  -9.403  1.00  0.00    -0.000 C 
BRANCH   9  10
ATOM     10  C   UNL     1      -9.076  -4.280  -8.266  1.00  0.00    -0.003 C 
ATOM     11  C   UNL     1     -10.081  -3.932  -7.173  1.00  0.00     0.004 C 
ENDBRANCH   9  10
ENDBRANCH   8   9
ENDBRANCH   7   8
ENDBRANCH   1   7
TORSDOF 7
ENDMDL
MODEL 5
REMARK VINA RESULT:    -4.207      1.277      2.022
REMARK INTER + INTRA:          -6.561
REMARK INTER:                  -6.684
REMARK INTRA:                   0.124
REMARK UNBOUND:                -0.633
REMARK SMILES CCCCCCCCC(=O)[O-]
REMARK SMILES IDX 6 1 7 2 8 3 9 4 10 5 11 6 5 7 4 8 3 9 2 10 1 11
REMARK H PARENT
REMARK Flexibility Score: inf
ROOT
ATOM      1  C   UNL     1     -14.184   1.859  -9.263  1.00  0.00     0.000 C 
ENDROOT
BRANCH   1   2
ATOM      2  C   UNL     1     -12.708   2.087  -9.637  1.00  0.00     0.006 C 
BRANCH   2   3
ATOM      3  C   UNL     1     -12.251   3.552  -9.553  1.00  0.00     0.053 C 
BRANCH   3   4
ATOM      4  C   UNL     1     -11.743   3.907  -8.190  1.00  0.00     0.041 C 
ATOM      5  O   UNL     1     -10.534   3.714  -7.894  1.00  0.00    -0.550 OA
ATOM      6  O   UNL     1     -12.597   4.481  -7.257  1.00  0.00    -0.550 OA
ENDBRANCH   3   4
ENDBRANCH   2   3
ENDBRANCH   1   2
BRANCH   1   7
ATOM      7  C   UNL     1     -14.676   0.445  -9.619  1.00  0.00     0.000 C 
BRANCH   7   8
ATOM      8  C   UNL     1     -13.999  -0.114 -10.882  1.00  0.00    -0.000 C 
BRANCH   8   9
ATOM      9  C   UNL     1     -12.696  -0.865 -10.575  1.00  0.00    -0.000 C 
BRANCH   9  10
ATOM     10  C   UNL     1     -12.889  -2.380 -10.721  1.00  0.00    -0.003 C 
ATOM     11  C   UNL     1     -14.321  -2.717 -11.125  1.00  0.00     0.004 C 
ENDBRANCH   9  10
ENDBRANCH   8   9
ENDBRANCH   7   8
ENDBRANCH   1   7
TORSDOF 7
ENDMDL
MODEL 6
REMARK VINA RESULT:    -4.142     14.776     16.396
REMARK INTER + INTRA:          -6.470
REMARK INTER:                  -5.775
REMARK INTRA:                  -0.695
REMARK UNBOUND:                -0.633
REMARK SMILES CCCCCCCCC(=O)[O-]
REMARK SMILES IDX 6 1 7 2 8 3 9 4 10 5 11 6 5 7 4 8 3 9 2 10 1 11
REMARK H PARENT
REMARK Flexibility Score: inf
ROOT
ATOM      1  C   UNL     1     -12.717   4.278   6.883  1.00  0.00     0.000 C 
ENDROOT
BRANCH   1   2
ATOM      2  C   UNL     1     -12.935   5.641   6.201  1.00  0.00     0.006 C 
BRANCH   2   3
ATOM      3  C   UNL     1     -12.564   5.671   4.710  1.00  0.00     0.053 C 
BRANCH   3   4
ATOM      4  C   UNL     1     -13.743   5.989   3.843  1.00  0.00     0.041 C 
ATOM      5  O   UNL     1     -14.893   6.081   4.346  1.00  0.00    -0.550 OA
ATOM      6  O   UNL     1     -13.566   6.217   2.484  1.00  0.00    -0.550 OA
ENDBRANCH   3   4
ENDBRANCH   2   3
ENDBRANCH   1   2
BRANCH   1   7
ATOM      7  C   UNL     1     -11.230   3.897   6.988  1.00  0.00     0.000 C 
BRANCH   7   8
ATOM      8  C   UNL     1     -10.568   4.450   8.261  1.00  0.00    -0.000 C 
BRANCH   8   9
ATOM      9  C   UNL     1      -9.747   5.721   7.999  1.00  0.00    -0.000 C 
BRANCH   9  10
ATOM     10  C   UNL     1      -9.151   5.707   6.585  1.00  0.00    -0.003 C 
ATOM     11  C   UNL     1      -9.355   7.049   5.888  1.00  0.00     0.004 C 
ENDBRANCH   9  10
ENDBRANCH   8   9
ENDBRANCH   7   8
ENDBRANCH   1   7
TORSDOF 7
ENDMDL
MODEL 7
REMARK VINA RESULT:    -4.065     14.657     16.312
REMARK INTER + INTRA:          -6.361
REMARK INTER:                  -5.868
REMARK INTRA:                  -0.493
REMARK UNBOUND:                -0.633
REMARK SMILES CCCCCCCCC(=O)[O-]
REMARK SMILES IDX 6 1 7 2 8 3 9 4 10 5 11 6 5 7 4 8 3 9 2 10 1 11
REMARK H PARENT
REMARK Flexibility Score: inf
ROOT
ATOM      1  C   UNL     1     -11.682   4.509   7.929  1.00  0.00     0.000 C 
ENDROOT
BRANCH   1   2
ATOM      2  C   UNL     1     -10.966   5.870   7.986  1.00  0.00     0.006 C 
BRANCH   2   3
ATOM      3  C   UNL     1      -9.495   5.833   7.540  1.00  0.00     0.053 C 
BRANCH   3   4
ATOM      4  C   UNL     1      -9.332   6.222   6.103  1.00  0.00     0.041 C 
ATOM      5  O   UNL     1      -9.373   5.345   5.201  1.00  0.00    -0.550 OA
ATOM      6  O   UNL     1      -9.168   7.558   5.758  1.00  0.00    -0.550 OA
ENDBRANCH   3   4
ENDBRANCH   2   3
ENDBRANCH   1   2
BRANCH   1   7
ATOM      7  C   UNL     1     -12.423   4.281   6.600  1.00  0.00     0.000 C 
BRANCH   7   8
ATOM      8  C   UNL     1     -13.131   5.549   6.095  1.00  0.00    -0.000 C 
BRANCH   8   9
ATOM      9  C   UNL     1     -12.827   5.851   4.620  1.00  0.00    -0.000 C 
BRANCH   9  10
ATOM     10  C   UNL     1     -14.082   5.673   3.755  1.00  0.00    -0.003 C 
ATOM     11  C   UNL     1     -13.955   6.432   2.437  1.00  0.00     0.004 C 
ENDBRANCH   9  10
ENDBRANCH   8   9
ENDBRANCH   7   8
ENDBRANCH   1   7
TORSDOF 7
ENDMDL
MODEL 8
REMARK VINA RESULT:    -3.897     14.690     16.444
REMARK INTER + INTRA:          -6.125
REMARK INTER:                  -5.778
REMARK INTRA:                  -0.346
REMARK UNBOUND:                -0.633
REMARK SMILES CCCCCCCCC(=O)[O-]
REMARK SMILES IDX 6 1 7 2 8 3 9 4 10 5 11 6 5 7 4 8 3 9 2 10 1 11
REMARK H PARENT
REMARK Flexibility Score: inf
ROOT
ATOM      1  C   UNL     1     -12.759   5.009   5.810  1.00  0.00     0.000 C 
ENDROOT
BRANCH   1   2
ATOM      2  C   UNL     1     -12.421   4.605   7.257  1.00  0.00     0.006 C 
BRANCH   2   3
ATOM      3  C   UNL     1     -10.978   4.116   7.459  1.00  0.00     0.053 C 
BRANCH   3   4
ATOM      4  C   UNL     1     -10.049   5.235   7.816  1.00  0.00     0.041 C 
ATOM      5  O   UNL     1     -10.043   5.705   8.983  1.00  0.00    -0.550 OA
ATOM      6  O   UNL     1      -9.167   5.737   6.867  1.00  0.00    -0.550 OA
ENDBRANCH   3   4
ENDBRANCH   2   3
ENDBRANCH   1   2
BRANCH   1   7
ATOM      7  C   UNL     1     -12.428   6.481   5.511  1.00  0.00     0.000 C 
BRANCH   7   8
ATOM      8  C   UNL     1     -13.595   7.224   4.840  1.00  0.00    -0.000 C 
BRANCH   8   9
ATOM      9  C   UNL     1     -14.843   6.344   4.674  1.00  0.00    -0.000 C 
BRANCH   9  10
ATOM     10  C   UNL     1     -15.039   5.944   3.206  1.00  0.00    -0.003 C 
ATOM     11  C   UNL     1     -14.075   6.698   2.295  1.00  0.00     0.004 C 
ENDBRANCH   9  10
ENDBRANCH   8   9
ENDBRANCH   7   8
ENDBRANCH   1   7
TORSDOF 7
ENDMDL
MODEL 9
REMARK VINA RESULT:    -3.856     14.843     16.559
REMARK INTER + INTRA:          -6.067
REMARK INTER:                  -5.438
REMARK INTRA:                  -0.629
REMARK UNBOUND:                -0.633
REMARK SMILES CCCCCCCCC(=O)[O-]
REMARK SMILES IDX 6 1 7 2 8 3 9 4 10 5 11 6 5 7 4 8 3 9 2 10 1 11
REMARK H PARENT
REMARK Flexibility Score: inf
ROOT
ATOM      1  C   UNL     1     -11.436   7.339   6.373  1.00  0.00     0.000 C 
ENDROOT
BRANCH   1   2
ATOM      2  C   UNL     1     -12.833   7.148   5.754  1.00  0.00     0.006 C 
BRANCH   2   3
ATOM      3  C   UNL     1     -12.966   5.907   4.857  1.00  0.00     0.053 C 
BRANCH   3   4
ATOM      4  C   UNL     1     -13.906   6.136   3.714  1.00  0.00     0.041 C 
ATOM      5  O   UNL     1     -15.125   6.361   3.932  1.00  0.00    -0.550 OA
ATOM      6  O   UNL     1     -13.429   6.133   2.409  1.00  0.00    -0.550 OA
ENDBRANCH   3   4
ENDBRANCH   2   3
ENDBRANCH   1   2
BRANCH   1   7
ATOM      7  C   UNL     1     -10.381   6.403   5.760  1.00  0.00     0.000 C 
BRANCH   7   8
ATOM      8  C   UNL     1      -9.502   5.727   6.826  1.00  0.00    -0.000 C 
BRANCH   8   9
ATOM      9  C   UNL     1     -10.155   5.717   8.216  1.00  0.00    -0.000 C 
BRANCH   9  10
ATOM     10  C   UNL     1     -10.608   4.303   8.598  1.00  0.00    -0.003 C 
ATOM     11  C   UNL     1     -11.889   3.917   7.865  1.00  0.00     0.004 C 
ENDBRANCH   9  10
ENDBRANCH   8   9
ENDBRANCH   7   8
ENDBRANCH   1   7
TORSDOF 7
ENDMDL
