MODEL 1
REMARK VINA RESULT:    -5.680      0.000      0.000
REMARK INTER + INTRA:          -6.273
REMARK INTER:                  -6.012
REMARK INTRA:                  -0.261
REMARK UNBOUND:                -0.261
REMARK SMILES CC(C)[C@H]1CC[C@@H](C)[C@H]2C=C[C@@H](C)C[C@@H]21
REMARK SMILES IDX 8 1 7 2 6 3 5 4 4 5 15 6 9 7 10 8 11 9 12 10 14 11 13 12
REMARK SMILES IDX 2 13 1 14 3 15
REMARK H PARENT
REMARK Flexibility Score: inf
ROOT
ATOM      1  C   UNL     1       3.004  -0.269  15.281  1.00  0.00     0.008 C 
ATOM      2  C   UNL     1       2.886  -1.795  15.083  1.00  0.00    -0.007 C 
ATOM      3  C   UNL     1       1.421  -2.263  15.153  1.00  0.00     0.004 C 
ATOM      4  C   UNL     1       0.862  -2.244  16.583  1.00  0.00     0.004 C 
ATOM      5  C   UNL     1       1.736  -3.071  17.562  1.00  0.00    -0.005 C 
ATOM      6  C   UNL     1       3.212  -2.552  17.520  1.00  0.00    -0.000 C 
ATOM      7  C   UNL     1       3.751  -2.622  16.066  1.00  0.00     0.018 C 
ATOM      8  C   UNL     1       5.215  -2.254  15.974  1.00  0.00    -0.027 C 
ATOM      9  C   UNL     1       6.061  -2.419  17.002  1.00  0.00    -0.028 C 
ATOM     10  C   UNL     1       5.607  -2.786  18.397  1.00  0.00     0.008 C 
ATOM     11  C   UNL     1       4.170  -3.354  18.432  1.00  0.00     0.012 C 
ATOM     12  C   UNL     1       5.758  -1.569  19.320  1.00  0.00     0.012 C 
ENDROOT
BRANCH   5  13
ATOM     13  C   UNL     1       1.118  -3.132  19.003  1.00  0.00    -0.014 C 
ATOM     14  C   UNL     1       0.607  -4.536  19.364  1.00  0.00     0.007 C 
ATOM     15  C   UNL     1       0.012  -2.091  19.251  1.00  0.00     0.007 C 
ENDBRANCH   5  13
TORSDOF 1
ENDMDL
MODEL 2
REMARK VINA RESULT:    -5.600      1.033      4.743
REMARK INTER + INTRA:          -6.188
REMARK INTER:                  -5.932
REMARK INTRA:                  -0.256
REMARK UNBOUND:                -0.261
REMARK SMILES CC(C)[C@H]1CC[C@@H](C)[C@H]2C=C[C@@H](C)C[C@@H]21
REMARK SMILES IDX 8 1 7 2 6 3 5 4 4 5 15 6 9 7 10 8 11 9 12 10 14 11 13 12
REMARK SMILES IDX 2 13 1 14 3 15
REMARK H PARENT
REMARK Flexibility Score: inf
ROOT
ATOM      1  C   UNL     1       1.340  -2.979  19.772  1.00  0.00     0.008 C 
ATOM      2  C   UNL     1       2.137  -4.094  19.065  1.00  0.00    -0.007 C 
ATOM      3  C   UNL     1       3.385  -4.497  19.873  1.00  0.00     0.004 C 
ATOM      4  C   UNL     1       4.497  -3.440  19.810  1.00  0.00     0.004 C 
ATOM      5  C   UNL     1       4.893  -3.096  18.349  1.00  0.00    -0.005 C 
ATOM      6  C   UNL     1       3.626  -2.639  17.553  1.00  0.00    -0.000 C 
ATOM      7  C   UNL     1       2.542  -3.747  17.610  1.00  0.00     0.018 C 
ATOM      8  C   UNL     1       1.338  -3.424  16.753  1.00  0.00    -0.027 C 
ATOM      9  C   UNL     1       1.419  -2.634  15.672  1.00  0.00    -0.028 C 
ATOM     10  C   UNL     1       2.654  -1.832  15.324  1.00  0.00     0.008 C 
ATOM     11  C   UNL     1       3.918  -2.322  16.067  1.00  0.00     0.012 C 
ATOM     12  C   UNL     1       2.386  -0.343  15.583  1.00  0.00     0.012 C 
ENDROOT
BRANCH   5  13
ATOM     13  C   UNL     1       6.093  -2.088  18.282  1.00  0.00    -0.014 C 
ATOM     14  C   UNL     1       7.334  -2.696  17.609  1.00  0.00     0.007 C 
ATOM     15  C   UNL     1       6.477  -1.484  19.644  1.00  0.00     0.007 C 
ENDBRANCH   5  13
TORSDOF 1
ENDMDL
MODEL 3
REMARK VINA RESULT:    -5.397      2.228      3.519
REMARK INTER + INTRA:          -5.974
REMARK INTER:                  -5.671
REMARK INTRA:                  -0.303
REMARK UNBOUND:                -0.261
REMARK SMILES CC(C)[C@H]1CC[C@@H](C)[C@H]2C=C[C@@H](C)C[C@@H]21
REMARK SMILES IDX 8 1 7 2 6 3 5 4 4 5 15 6 9 7 10 8 11 9 12 10 14 11 13 12
REMARK SMILES IDX 2 13 1 14 3 15
REMARK H PARENT
REMARK Flexibility Score: inf
ROOT
ATOM      1  C   UNL     1       0.814  -2.366  18.677  1.00  0.00     0.008 C 
ATOM      2  C   UNL     1       1.260  -3.780  18.253  1.00  0.00    -0.007 C 
ATOM      3  C   UNL     1       0.681  -4.860  19.185  1.00  0.00     0.004 C 
ATOM      4  C   UNL     1       1.364  -4.883  20.560  1.00  0.00     0.004 C 
ATOM      5  C   UNL     1       2.903  -5.045  20.444  1.00  0.00    -0.005 C 
ATOM      6  C   UNL     1       3.486  -3.911  19.537  1.00  0.00    -0.000 C 
ATOM      7  C   UNL     1       2.797  -3.945  18.147  1.00  0.00     0.018 C 
ATOM      8  C   UNL     1       3.404  -2.957  17.176  1.00  0.00    -0.027 C 
ATOM      9  C   UNL     1       4.677  -2.547  17.272  1.00  0.00    -0.028 C 
ATOM     10  C   UNL     1       5.560  -2.863  18.459  1.00  0.00     0.008 C 
ATOM     11  C   UNL     1       5.014  -4.022  19.324  1.00  0.00     0.012 C 
ATOM     12  C   UNL     1       5.775  -1.589  19.289  1.00  0.00     0.012 C 
ENDROOT
BRANCH   5  13
ATOM     13  C   UNL     1       3.594  -5.163  21.848  1.00  0.00    -0.014 C 
ATOM     14  C   UNL     1       3.141  -6.412  22.622  1.00  0.00     0.007 C 
ATOM     15  C   UNL     1       3.433  -3.912  22.729  1.00  0.00     0.007 C 
ENDBRANCH   5  13
TORSDOF 1
ENDMDL
MODEL 4
REMARK VINA RESULT:    -5.366      2.263      5.872
REMARK INTER + INTRA:          -5.941
REMARK INTER:                  -5.681
REMARK INTRA:                  -0.260
REMARK UNBOUND:                -0.261
REMARK SMILES CC(C)[C@H]1CC[C@@H](C)[C@H]2C=C[C@@H](C)C[C@@H]21
REMARK SMILES IDX 8 1 7 2 6 3 5 4 4 5 15 6 9 7 10 8 11 9 12 10 14 11 13 12
REMARK SMILES IDX 2 13 1 14 3 15
REMARK H PARENT
REMARK Flexibility Score: inf
ROOT
ATOM      1  C   UNL     1       3.014  -3.643  22.827  1.00  0.00     0.008 C 
ATOM      2  C   UNL     1       3.764  -4.716  22.012  1.00  0.00    -0.007 C 
ATOM      3  C   UNL     1       5.290  -4.516  22.082  1.00  0.00     0.004 C 
ATOM      4  C   UNL     1       5.768  -3.319  21.248  1.00  0.00     0.004 C 
ATOM      5  C   UNL     1       5.307  -3.416  19.769  1.00  0.00    -0.005 C 
ATOM      6  C   UNL     1       3.751  -3.566  19.710  1.00  0.00    -0.000 C 
ATOM      7  C   UNL     1       3.312  -4.807  20.533  1.00  0.00     0.018 C 
ATOM      8  C   UNL     1       1.830  -5.085  20.413  1.00  0.00    -0.027 C 
ATOM      9  C   UNL     1       1.116  -4.719  19.339  1.00  0.00    -0.028 C 
ATOM     10  C   UNL     1       1.662  -3.823  18.249  1.00  0.00     0.008 C 
ATOM     11  C   UNL     1       3.205  -3.721  18.271  1.00  0.00     0.012 C 
ATOM     12  C   UNL     1       1.001  -2.441  18.345  1.00  0.00     0.012 C 
ENDROOT
BRANCH   5  13
ATOM     13  C   UNL     1       5.873  -2.243  18.894  1.00  0.00    -0.014 C 
ATOM     14  C   UNL     1       6.906  -2.725  17.863  1.00  0.00     0.007 C 
ATOM     15  C   UNL     1       6.453  -1.078  19.713  1.00  0.00     0.007 C 
ENDBRANCH   5  13
TORSDOF 1
ENDMDL
MODEL 5
REMARK VINA RESULT:    -5.360      1.242      4.029
REMARK INTER + INTRA:          -5.934
REMARK INTER:                  -5.670
REMARK INTRA:                  -0.264
REMARK UNBOUND:                -0.261
REMARK SMILES CC(C)[C@H]1CC[C@@H](C)[C@H]2C=C[C@@H](C)C[C@@H]21
REMARK SMILES IDX 8 1 7 2 6 3 5 4 4 5 15 6 9 7 10 8 11 9 12 10 14 11 13 12
REMARK SMILES IDX 2 13 1 14 3 15
REMARK H PARENT
REMARK Flexibility Score: inf
ROOT
ATOM      1  C   UNL     1       5.002  -1.829  19.206  1.00  0.00     0.008 C 
ATOM      2  C   UNL     1       4.951  -3.026  18.234  1.00  0.00    -0.007 C 
ATOM      3  C   UNL     1       5.011  -2.566  16.766  1.00  0.00     0.004 C 
ATOM      4  C   UNL     1       3.700  -1.922  16.294  1.00  0.00     0.004 C 
ATOM      5  C   UNL     1       2.479  -2.855  16.514  1.00  0.00    -0.005 C 
ATOM      6  C   UNL     1       2.399  -3.274  18.019  1.00  0.00    -0.000 C 
ATOM      7  C   UNL     1       3.728  -3.952  18.446  1.00  0.00     0.018 C 
ATOM      8  C   UNL     1       3.672  -4.497  19.856  1.00  0.00    -0.027 C 
ATOM      9  C   UNL     1       2.522  -4.874  20.435  1.00  0.00    -0.028 C 
ATOM     10  C   UNL     1       1.164  -4.604  19.826  1.00  0.00     0.008 C 
ATOM     11  C   UNL     1       1.237  -4.248  18.324  1.00  0.00     0.012 C 
ATOM     12  C   UNL     1       0.450  -3.511  20.634  1.00  0.00     0.012 C 
ENDROOT
BRANCH   5  13
ATOM     13  C   UNL     1       1.152  -2.239  15.947  1.00  0.00    -0.014 C 
ATOM     14  C   UNL     1       0.693  -2.926  14.651  1.00  0.00     0.007 C 
ATOM     15  C   UNL     1       1.210  -0.715  15.742  1.00  0.00     0.007 C 
ENDBRANCH   5  13
TORSDOF 1
ENDMDL
MODEL 6
REMARK VINA RESULT:    -5.189      2.099      4.280
REMARK INTER + INTRA:          -5.753
REMARK INTER:                  -5.572
REMARK INTRA:                  -0.181
REMARK UNBOUND:                -0.261
REMARK SMILES CC(C)[C@H]1CC[C@@H](C)[C@H]2C=C[C@@H](C)C[C@@H]21
REMARK SMILES IDX 8 1 7 2 6 3 5 4 4 5 15 6 9 7 10 8 11 9 12 10 14 11 13 12
REMARK SMILES IDX 2 13 1 14 3 15
REMARK H PARENT
REMARK Flexibility Score: inf
ROOT
ATOM      1  C   UNL     1       6.052  -1.271  19.994  1.00  0.00     0.008 C 
ATOM      2  C   UNL     1       6.256  -2.643  19.318  1.00  0.00    -0.007 C 
ATOM      3  C   UNL     1       6.115  -2.545  17.788  1.00  0.00     0.004 C 
ATOM      4  C   UNL     1       4.659  -2.360  17.338  1.00  0.00     0.004 C 
ATOM      5  C   UNL     1       3.731  -3.474  17.891  1.00  0.00    -0.005 C 
ATOM      6  C   UNL     1       3.844  -3.528  19.451  1.00  0.00    -0.000 C 
ATOM      7  C   UNL     1       5.323  -3.753  19.863  1.00  0.00     0.018 C 
ATOM      8  C   UNL     1       5.485  -3.943  21.354  1.00  0.00    -0.027 C 
ATOM      9  C   UNL     1       4.503  -4.431  22.126  1.00  0.00    -0.028 C 
ATOM     10  C   UNL     1       3.089  -4.642  21.631  1.00  0.00     0.008 C 
ATOM     11  C   UNL     1       2.987  -4.647  20.088  1.00  0.00     0.012 C 
ATOM     12  C   UNL     1       2.166  -3.587  22.256  1.00  0.00     0.012 C 
ENDROOT
BRANCH   5  13
ATOM     13  C   UNL     1       2.262  -3.341  17.357  1.00  0.00    -0.014 C 
ATOM     14  C   UNL     1       2.211  -2.976  15.865  1.00  0.00     0.007 C 
ATOM     15  C   UNL     1       1.390  -2.365  18.167  1.00  0.00     0.007 C 
ENDBRANCH   5  13
TORSDOF 1
ENDMDL
MODEL 7
REMARK VINA RESULT:    -5.158      1.922      3.216
REMARK INTER + INTRA:          -5.721
REMARK INTER:                  -5.862
REMARK INTRA:                   0.141
REMARK UNBOUND:                -0.261
REMARK SMILES CC(C)[C@H]1CC[C@@H](C)[C@H]2C=C[C@@H](C)C[C@@H]21
REMARK SMILES IDX 8 1 7 2 6 3 5 4 4 5 15 6 9 7 10 8 11 9 12 10 14 11 13 12
REMARK SMILES IDX 2 13 1 14 3 15
REMARK H PARENT
REMARK Flexibility Score: inf
ROOT
ATOM      1  C   UNL     1       4.090  -1.946  17.850  1.00  0.00     0.008 C 
ATOM      2  C   UNL     1       3.199  -3.119  17.396  1.00  0.00    -0.007 C 
ATOM      3  C   UNL     1       1.876  -2.621  16.785  1.00  0.00     0.004 C 
ATOM      4  C   UNL     1       0.902  -2.081  17.842  1.00  0.00     0.004 C 
ATOM      5  C   UNL     1       0.619  -3.120  18.959  1.00  0.00    -0.005 C 
ATOM      6  C   UNL     1       1.967  -3.580  19.607  1.00  0.00    -0.000 C 
ATOM      7  C   UNL     1       2.907  -4.152  18.513  1.00  0.00     0.018 C 
ATOM      8  C   UNL     1       4.179  -4.733  19.089  1.00  0.00    -0.027 C 
ATOM      9  C   UNL     1       4.244  -5.220  20.337  1.00  0.00    -0.028 C 
ATOM     10  C   UNL     1       3.132  -5.054  21.349  1.00  0.00     0.008 C 
ATOM     11  C   UNL     1       1.784  -4.657  20.702  1.00  0.00     0.012 C 
ATOM     12  C   UNL     1       3.564  -4.045  22.422  1.00  0.00     0.012 C 
ENDROOT
BRANCH   5  13
ATOM     13  C   UNL     1      -0.447  -2.607  19.989  1.00  0.00    -0.014 C 
ATOM     14  C   UNL     1      -1.310  -1.468  19.423  1.00  0.00     0.007 C 
ATOM     15  C   UNL     1       0.147  -2.191  21.346  1.00  0.00     0.007 C 
ENDBRANCH   5  13
TORSDOF 1
ENDMDL
MODEL 8
REMARK VINA RESULT:    -5.149      2.503      5.188
REMARK INTER + INTRA:          -5.711
REMARK INTER:                  -5.430
REMARK INTRA:                  -0.281
REMARK UNBOUND:                -0.261
REMARK SMILES CC(C)[C@H]1CC[C@@H](C)[C@H]2C=C[C@@H](C)C[C@@H]21
REMARK SMILES IDX 8 1 7 2 6 3 5 4 4 5 15 6 9 7 10 8 11 9 12 10 14 11 13 12
REMARK SMILES IDX 2 13 1 14 3 15
REMARK H PARENT
REMARK Flexibility Score: inf
ROOT
ATOM      1  C   UNL     1       0.388  -2.936  21.396  1.00  0.00     0.008 C 
ATOM      2  C   UNL     1       0.512  -4.381  20.872  1.00  0.00    -0.007 C 
ATOM      3  C   UNL     1       1.034  -5.336  21.962  1.00  0.00     0.004 C 
ATOM      4  C   UNL     1       2.529  -5.143  22.250  1.00  0.00     0.004 C 
ATOM      5  C   UNL     1       3.393  -5.271  20.967  1.00  0.00    -0.005 C 
ATOM      6  C   UNL     1       2.885  -4.260  19.887  1.00  0.00    -0.000 C 
ATOM      7  C   UNL     1       1.382  -4.512  19.597  1.00  0.00     0.018 C 
ATOM      8  C   UNL     1       0.858  -3.652  18.468  1.00  0.00    -0.027 C 
ATOM      9  C   UNL     1       1.652  -3.193  17.489  1.00  0.00    -0.028 C 
ATOM     10  C   UNL     1       3.160  -3.310  17.523  1.00  0.00     0.008 C 
ATOM     11  C   UNL     1       3.659  -4.353  18.550  1.00  0.00     0.012 C 
ATOM     12  C   UNL     1       3.774  -1.926  17.776  1.00  0.00     0.012 C 
ENDROOT
BRANCH   5  13
ATOM     13  C   UNL     1       4.927  -5.168  21.273  1.00  0.00    -0.014 C 
ATOM     14  C   UNL     1       5.383  -6.179  22.338  1.00  0.00     0.007 C 
ATOM     15  C   UNL     1       5.393  -3.753  21.659  1.00  0.00     0.007 C 
ENDBRANCH   5  13
TORSDOF 1
ENDMDL
MODEL 9
REMARK VINA RESULT:    -5.147      1.053      4.216
REMARK INTER + INTRA:          -5.709
REMARK INTER:                  -5.886
REMARK INTRA:                   0.176
REMARK UNBOUND:                -0.261
REMARK SMILES CC(C)[C@H]1CC[C@@H](C)[C@H]2C=C[C@@H](C)C[C@@H]21
REMARK SMILES IDX 8 1 7 2 6 3 5 4 4 5 15 6 9 7 10 8 11 9 12 10 14 11 13 12
REMARK SMILES IDX 2 13 1 14 3 15
REMARK H PARENT
REMARK Flexibility Score: inf
ROOT
ATOM      1  C   UNL     1       2.391  -3.119  14.374  1.00  0.00     0.008 C 
ATOM      2  C   UNL     1       2.767  -1.761  15.003  1.00  0.00    -0.007 C 
ATOM      3  C   UNL     1       4.226  -1.378  14.691  1.00  0.00     0.004 C 
ATOM      4  C   UNL     1       5.239  -2.209  15.489  1.00  0.00     0.004 C 
ATOM      5  C   UNL     1       4.981  -2.135  17.018  1.00  0.00    -0.005 C 
ATOM      6  C   UNL     1       3.512  -2.577  17.326  1.00  0.00    -0.000 C 
ATOM      7  C   UNL     1       2.519  -1.690  16.530  1.00  0.00     0.018 C 
ATOM      8  C   UNL     1       1.076  -1.979  16.880  1.00  0.00    -0.027 C 
ATOM      9  C   UNL     1       0.712  -2.470  18.074  1.00  0.00    -0.028 C 
ATOM     10  C   UNL     1       1.705  -2.971  19.099  1.00  0.00     0.008 C 
ATOM     11  C   UNL     1       3.148  -2.486  18.827  1.00  0.00     0.012 C 
ATOM     12  C   UNL     1       1.628  -4.503  19.179  1.00  0.00     0.012 C 
ENDROOT
BRANCH   5  13
ATOM     13  C   UNL     1       6.070  -2.907  17.841  1.00  0.00    -0.014 C 
ATOM     14  C   UNL     1       6.209  -2.372  19.276  1.00  0.00     0.007 C 
ATOM     15  C   UNL     1       7.450  -2.952  17.162  1.00  0.00     0.007 C 
ENDBRANCH   5  13
TORSDOF 1
ENDMDL
