MODEL 1
REMARK VINA RESULT:    -4.343      0.000      0.000
REMARK INTER + INTRA:          -6.457
REMARK INTER:                  -5.866
REMARK INTRA:                  -0.591
REMARK UNBOUND:                -0.591
REMARK SMILES O=C[C@H](O)[C@@H](O)[C@H](O)CO
REMARK SMILES IDX 7 1 9 2 10 3 5 5 3 6 2 7 1 8 4 9 6 11 8 13
REMARK H PARENT 10 4 4 10 6 12 8 14
REMARK Flexibility Score: inf
ROOT
ATOM      1  C   UNL     1     -14.379   7.118 -22.306  1.00  0.00     0.171 C 
ENDROOT
BRANCH   1   2
ATOM      2  C   UNL     1     -14.800   8.124 -23.392  1.00  0.00     0.190 C 
BRANCH   2   3
ATOM      3  O   UNL     1     -16.062   7.805 -23.910  1.00  0.00    -0.394 OA
ATOM      4  H   UNL     1     -16.111   8.235 -24.803  1.00  0.00     0.210 HD
ENDBRANCH   2   3
ENDBRANCH   1   2
BRANCH   1   5
ATOM      5  C   UNL     1     -15.236   5.826 -22.327  1.00  0.00     0.181 C 
BRANCH   5   6
ATOM      6  C   UNL     1     -14.365   4.561 -22.101  1.00  0.00     0.209 C 
BRANCH   6   7
ATOM      7  C   UNL     1     -15.205   3.310 -22.049  1.00  0.00     0.258 C 
ATOM      8  O   UNL     1     -16.063   3.177 -21.189  1.00  0.00    -0.300 OA
ENDBRANCH   6   7
BRANCH   6   9
ATOM      9  O   UNL     1     -13.581   4.673 -20.939  1.00  0.00    -0.383 OA
ATOM     10  H   UNL     1     -14.087   4.262 -20.189  1.00  0.00     0.211 HD
ENDBRANCH   6   9
ENDBRANCH   5   6
BRANCH   5  11
ATOM     11  O   UNL     1     -16.255   5.902 -21.360  1.00  0.00    -0.387 OA
ATOM     12  H   UNL     1     -17.113   5.710 -21.824  1.00  0.00     0.211 HD
ENDBRANCH   5  11
ENDBRANCH   1   5
BRANCH   1  13
ATOM     13  O   UNL     1     -14.373   7.726 -21.037  1.00  0.00    -0.388 OA
ATOM     14  H   UNL     1     -13.817   8.545 -21.091  1.00  0.00     0.211 HD
ENDBRANCH   1  13
TORSDOF 8
ENDMDL
MODEL 2
REMARK VINA RESULT:    -4.133     19.007     20.969
REMARK INTER + INTRA:          -6.173
REMARK INTER:                  -5.276
REMARK INTRA:                  -0.897
REMARK UNBOUND:                -0.591
REMARK SMILES O=C[C@H](O)[C@@H](O)[C@H](O)CO
REMARK SMILES IDX 7 1 9 2 10 3 5 5 3 6 2 7 1 8 4 9 6 11 8 13
REMARK H PARENT 10 4 4 10 6 12 8 14
REMARK Flexibility Score: inf
ROOT
ATOM      1  C   UNL     1     -14.695  -6.898  -6.460  1.00  0.00     0.171 C 
ENDROOT
BRANCH   1   2
ATOM      2  C   UNL     1     -14.663  -6.412  -7.919  1.00  0.00     0.190 C 
BRANCH   2   3
ATOM      3  O   UNL     1     -15.559  -7.143  -8.712  1.00  0.00    -0.394 OA
ATOM      4  H   UNL     1     -15.298  -8.096  -8.614  1.00  0.00     0.210 HD
ENDBRANCH   2   3
ENDBRANCH   1   2
BRANCH   1   5
ATOM      5  C   UNL     1     -14.048  -8.297  -6.284  1.00  0.00     0.181 C 
BRANCH   5   6
ATOM      6  C   UNL     1     -15.123  -9.405  -6.128  1.00  0.00     0.209 C 
BRANCH   6   7
ATOM      7  C   UNL     1     -14.498 -10.753  -5.866  1.00  0.00     0.258 C 
ATOM      8  O   UNL     1     -13.980 -11.381  -6.777  1.00  0.00    -0.300 OA
ENDBRANCH   6   7
BRANCH   6   9
ATOM      9  O   UNL     1     -15.968  -9.468  -7.251  1.00  0.00    -0.383 OA
ATOM     10  H   UNL     1     -16.577  -8.685  -7.218  1.00  0.00     0.211 HD
ENDBRANCH   6   9
ENDBRANCH   5   6
BRANCH   5  11
ATOM     11  O   UNL     1     -13.200  -8.580  -7.370  1.00  0.00    -0.387 OA
ATOM     12  H   UNL     1     -12.408  -7.987  -7.285  1.00  0.00     0.211 HD
ENDBRANCH   5  11
ENDBRANCH   1   5
BRANCH   1  13
ATOM     13  O   UNL     1     -16.004  -6.854  -5.946  1.00  0.00    -0.388 OA
ATOM     14  H   UNL     1     -16.614  -6.587  -6.681  1.00  0.00     0.211 HD
ENDBRANCH   1  13
TORSDOF 8
ENDMDL
MODEL 3
REMARK VINA RESULT:    -4.048     10.873     11.933
REMARK INTER + INTRA:          -6.059
REMARK INTER:                  -5.104
REMARK INTRA:                  -0.955
REMARK UNBOUND:                -0.591
REMARK SMILES O=C[C@H](O)[C@@H](O)[C@H](O)CO
REMARK SMILES IDX 7 1 9 2 10 3 5 5 3 6 2 7 1 8 4 9 6 11 8 13
REMARK H PARENT 10 4 4 10 6 12 8 14
REMARK Flexibility Score: inf
ROOT
ATOM      1  C   UNL     1     -16.005  -2.999 -16.730  1.00  0.00     0.171 C 
ENDROOT
BRANCH   1   2
ATOM      2  C   UNL     1     -14.515  -3.381 -16.685  1.00  0.00     0.190 C 
BRANCH   2   3
ATOM      3  O   UNL     1     -14.342  -4.669 -16.160  1.00  0.00    -0.394 OA
ATOM      4  H   UNL     1     -14.813  -4.676 -15.287  1.00  0.00     0.210 HD
ENDBRANCH   2   3
ENDBRANCH   1   2
BRANCH   1   5
ATOM      5  C   UNL     1     -16.571  -2.643 -15.330  1.00  0.00     0.181 C 
BRANCH   5   6
ATOM      6  C   UNL     1     -17.543  -3.737 -14.814  1.00  0.00     0.209 C 
BRANCH   6   7
ATOM      7  C   UNL     1     -18.394  -3.233 -13.676  1.00  0.00     0.258 C 
ATOM      8  O   UNL     1     -18.338  -2.061 -13.335  1.00  0.00    -0.300 OA
ENDBRANCH   6   7
BRANCH   6   9
ATOM      9  O   UNL     1     -16.854  -4.902 -14.431  1.00  0.00    -0.383 OA
ATOM     10  H   UNL     1     -16.089  -4.630 -13.859  1.00  0.00     0.211 HD
ENDBRANCH   6   9
ENDBRANCH   5   6
BRANCH   5  11
ATOM     11  O   UNL     1     -15.520  -2.446 -14.416  1.00  0.00    -0.387 OA
ATOM     12  H   UNL     1     -15.600  -1.517 -14.074  1.00  0.00     0.211 HD
ENDBRANCH   5  11
ENDBRANCH   1   5
BRANCH   1  13
ATOM     13  O   UNL     1     -16.760  -4.003 -17.364  1.00  0.00    -0.388 OA
ATOM     14  H   UNL     1     -16.131  -4.615 -17.825  1.00  0.00     0.211 HD
ENDBRANCH   1  13
TORSDOF 8
ENDMDL
MODEL 4
REMARK VINA RESULT:    -4.044     10.365     11.764
REMARK INTER + INTRA:          -6.053
REMARK INTER:                  -5.436
REMARK INTRA:                  -0.617
REMARK UNBOUND:                -0.591
REMARK SMILES O=C[C@H](O)[C@@H](O)[C@H](O)CO
REMARK SMILES IDX 7 1 9 2 10 3 5 5 3 6 2 7 1 8 4 9 6 11 8 13
REMARK H PARENT 10 4 4 10 6 12 8 14
REMARK Flexibility Score: inf
ROOT
ATOM      1  C   UNL     1     -16.637  -0.039 -12.086  1.00  0.00     0.171 C 
ENDROOT
BRANCH   1   2
ATOM      2  C   UNL     1     -16.644  -0.993 -10.879  1.00  0.00     0.190 C 
BRANCH   2   3
ATOM      3  O   UNL     1     -17.548  -0.557  -9.900  1.00  0.00    -0.394 OA
ATOM      4  H   UNL     1     -17.019  -0.013  -9.259  1.00  0.00     0.210 HD
ENDBRANCH   2   3
ENDBRANCH   1   2
BRANCH   1   5
ATOM      5  C   UNL     1     -17.390  -0.623 -13.311  1.00  0.00     0.181 C 
BRANCH   5   6
ATOM      6  C   UNL     1     -16.404  -1.087 -14.416  1.00  0.00     0.209 C 
BRANCH   6   7
ATOM      7  C   UNL     1     -17.111  -1.325 -15.727  1.00  0.00     0.258 C 
ATOM      8  O   UNL     1     -17.903  -2.247 -15.842  1.00  0.00    -0.300 OA
ENDBRANCH   6   7
BRANCH   6   9
ATOM      9  O   UNL     1     -15.694  -2.237 -14.027  1.00  0.00    -0.383 OA
ATOM     10  H   UNL     1     -14.814  -2.222 -14.488  1.00  0.00     0.211 HD
ENDBRANCH   6   9
ENDBRANCH   5   6
BRANCH   5  11
ATOM     11  O   UNL     1     -18.218  -1.687 -12.911  1.00  0.00    -0.387 OA
ATOM     12  H   UNL     1     -18.247  -1.678 -11.918  1.00  0.00     0.211 HD
ENDBRANCH   5  11
ENDBRANCH   1   5
BRANCH   1  13
ATOM     13  O   UNL     1     -15.324   0.348 -12.410  1.00  0.00    -0.388 OA
ATOM     14  H   UNL     1     -14.773   0.281 -11.589  1.00  0.00     0.211 HD
ENDBRANCH   1  13
TORSDOF 8
ENDMDL
MODEL 5
REMARK VINA RESULT:    -4.021      9.668     11.465
REMARK INTER + INTRA:          -6.022
REMARK INTER:                  -5.052
REMARK INTRA:                  -0.970
REMARK UNBOUND:                -0.591
REMARK SMILES O=C[C@H](O)[C@@H](O)[C@H](O)CO
REMARK SMILES IDX 7 1 9 2 10 3 5 5 3 6 2 7 1 8 4 9 6 11 8 13
REMARK H PARENT 10 4 4 10 6 12 8 14
REMARK Flexibility Score: inf
ROOT
ATOM      1  C   UNL     1     -16.122  -1.535 -14.378  1.00  0.00     0.171 C 
ENDROOT
BRANCH   1   2
ATOM      2  C   UNL     1     -17.063  -0.926 -15.432  1.00  0.00     0.190 C 
BRANCH   2   3
ATOM      3  O   UNL     1     -17.145   0.466 -15.287  1.00  0.00    -0.394 OA
ATOM      4  H   UNL     1     -17.682   0.792 -16.056  1.00  0.00     0.210 HD
ENDBRANCH   2   3
ENDBRANCH   1   2
BRANCH   1   5
ATOM      5  C   UNL     1     -16.746  -1.543 -12.957  1.00  0.00     0.181 C 
BRANCH   5   6
ATOM      6  C   UNL     1     -16.072  -0.494 -12.034  1.00  0.00     0.209 C 
BRANCH   6   7
ATOM      7  C   UNL     1     -16.514  -0.649 -10.600  1.00  0.00     0.258 C 
ATOM      8  O   UNL     1     -17.610  -0.244 -10.245  1.00  0.00    -0.300 OA
ENDBRANCH   6   7
BRANCH   6   9
ATOM      9  O   UNL     1     -16.312   0.818 -12.480  1.00  0.00    -0.383 OA
ATOM     10  H   UNL     1     -16.520   0.777 -13.451  1.00  0.00     0.211 HD
ENDBRANCH   6   9
ENDBRANCH   5   6
BRANCH   5  11
ATOM     11  O   UNL     1     -18.132  -1.317 -13.033  1.00  0.00    -0.387 OA
ATOM     12  H   UNL     1     -18.580  -2.122 -12.664  1.00  0.00     0.211 HD
ENDBRANCH   5  11
ENDBRANCH   1   5
BRANCH   1  13
ATOM     13  O   UNL     1     -14.868  -0.898 -14.399  1.00  0.00    -0.388 OA
ATOM     14  H   UNL     1     -14.265  -1.389 -13.782  1.00  0.00     0.211 HD
ENDBRANCH   1  13
TORSDOF 8
ENDMDL
MODEL 6
REMARK VINA RESULT:    -3.988      9.413     11.352
REMARK INTER + INTRA:          -5.977
REMARK INTER:                  -5.253
REMARK INTRA:                  -0.725
REMARK UNBOUND:                -0.591
REMARK SMILES O=C[C@H](O)[C@@H](O)[C@H](O)CO
REMARK SMILES IDX 7 1 9 2 10 3 5 5 3 6 2 7 1 8 4 9 6 11 8 13
REMARK H PARENT 10 4 4 10 6 12 8 14
REMARK Flexibility Score: inf
ROOT
ATOM      1  C   UNL     1     -17.228  -0.595 -13.955  1.00  0.00     0.171 C 
ENDROOT
BRANCH   1   2
ATOM      2  C   UNL     1     -17.968   0.475 -14.776  1.00  0.00     0.190 C 
BRANCH   2   3
ATOM      3  O   UNL     1     -17.169   0.942 -15.829  1.00  0.00    -0.394 OA
ATOM      4  H   UNL     1     -16.234   0.917 -15.497  1.00  0.00     0.210 HD
ENDBRANCH   2   3
ENDBRANCH   1   2
BRANCH   1   5
ATOM      5  C   UNL     1     -17.394  -2.020 -14.547  1.00  0.00     0.181 C 
BRANCH   5   6
ATOM      6  C   UNL     1     -18.236  -2.930 -13.615  1.00  0.00     0.209 C 
BRANCH   6   7
ATOM      7  C   UNL     1     -18.027  -4.391 -13.926  1.00  0.00     0.258 C 
ATOM      8  O   UNL     1     -17.251  -4.729 -14.806  1.00  0.00    -0.300 OA
ENDBRANCH   6   7
BRANCH   6   9
ATOM      9  O   UNL     1     -19.604  -2.607 -13.674  1.00  0.00    -0.383 OA
ATOM     10  H   UNL     1     -20.042  -2.988 -12.868  1.00  0.00     0.211 HD
ENDBRANCH   6   9
ENDBRANCH   5   6
BRANCH   5  11
ATOM     11  O   UNL     1     -17.975  -1.951 -15.826  1.00  0.00    -0.387 OA
ATOM     12  H   UNL     1     -18.819  -2.473 -15.793  1.00  0.00     0.211 HD
ENDBRANCH   5  11
ENDBRANCH   1   5
BRANCH   1  13
ATOM     13  O   UNL     1     -17.609  -0.540 -12.602  1.00  0.00    -0.388 OA
ATOM     14  H   UNL     1     -18.588  -0.695 -12.552  1.00  0.00     0.211 HD
ENDBRANCH   1  13
TORSDOF 8
ENDMDL
MODEL 7
REMARK VINA RESULT:    -3.947     10.074     11.206
REMARK INTER + INTRA:          -5.923
REMARK INTER:                  -5.229
REMARK INTRA:                  -0.694
REMARK UNBOUND:                -0.591
REMARK SMILES O=C[C@H](O)[C@@H](O)[C@H](O)CO
REMARK SMILES IDX 7 1 9 2 10 3 5 5 3 6 2 7 1 8 4 9 6 11 8 13
REMARK H PARENT 10 4 4 10 6 12 8 14
REMARK Flexibility Score: inf
ROOT
ATOM      1  C   UNL     1     -16.547  -3.759 -16.448  1.00  0.00     0.171 C 
ENDROOT
BRANCH   1   2
ATOM      2  C   UNL     1     -16.467  -2.980 -17.773  1.00  0.00     0.190 C 
BRANCH   2   3
ATOM      3  O   UNL     1     -17.626  -3.168 -18.538  1.00  0.00    -0.394 OA
ATOM      4  H   UNL     1     -18.330  -3.465 -17.904  1.00  0.00     0.210 HD
ENDBRANCH   2   3
ENDBRANCH   1   2
BRANCH   1   5
ATOM      5  C   UNL     1     -17.293  -2.972 -15.339  1.00  0.00     0.181 C 
BRANCH   5   6
ATOM      6  C   UNL     1     -16.305  -2.372 -14.304  1.00  0.00     0.209 C 
BRANCH   6   7
ATOM      7  C   UNL     1     -17.001  -2.006 -13.017  1.00  0.00     0.258 C 
ATOM      8  O   UNL     1     -18.161  -1.623 -13.030  1.00  0.00    -0.300 OA
ENDBRANCH   6   7
BRANCH   6   9
ATOM      9  O   UNL     1     -15.623  -1.257 -14.826  1.00  0.00    -0.383 OA
ATOM     10  H   UNL     1     -14.980  -1.585 -15.508  1.00  0.00     0.211 HD
ENDBRANCH   6   9
ENDBRANCH   5   6
BRANCH   5  11
ATOM     11  O   UNL     1     -18.086  -1.960 -15.910  1.00  0.00    -0.387 OA
ATOM     12  H   UNL     1     -19.027  -2.273 -15.879  1.00  0.00     0.211 HD
ENDBRANCH   5  11
ENDBRANCH   1   5
BRANCH   1  13
ATOM     13  O   UNL     1     -15.269  -4.173 -16.032  1.00  0.00    -0.388 OA
ATOM     14  H   UNL     1     -15.285  -4.272 -15.045  1.00  0.00     0.211 HD
ENDBRANCH   1  13
TORSDOF 8
ENDMDL
MODEL 8
REMARK VINA RESULT:    -3.944     10.831     12.696
REMARK INTER + INTRA:          -5.918
REMARK INTER:                  -4.952
REMARK INTRA:                  -0.965
REMARK UNBOUND:                -0.591
REMARK SMILES O=C[C@H](O)[C@@H](O)[C@H](O)CO
REMARK SMILES IDX 7 1 9 2 10 3 5 5 3 6 2 7 1 8 4 9 6 11 8 13
REMARK H PARENT 10 4 4 10 6 12 8 14
REMARK Flexibility Score: inf
ROOT
ATOM      1  C   UNL     1     -17.428  -1.923 -14.460  1.00  0.00     0.171 C 
ENDROOT
BRANCH   1   2
ATOM      2  C   UNL     1     -15.971  -1.428 -14.467  1.00  0.00     0.190 C 
BRANCH   2   3
ATOM      3  O   UNL     1     -15.086  -2.476 -14.754  1.00  0.00    -0.394 OA
ATOM      4  H   UNL     1     -15.600  -3.315 -14.627  1.00  0.00     0.210 HD
ENDBRANCH   2   3
ENDBRANCH   1   2
BRANCH   1   5
ATOM      5  C   UNL     1     -17.682  -3.008 -13.380  1.00  0.00     0.181 C 
BRANCH   5   6
ATOM      6  C   UNL     1     -17.926  -4.401 -14.019  1.00  0.00     0.209 C 
BRANCH   6   7
ATOM      7  C   UNL     1     -18.361  -5.416 -12.991  1.00  0.00     0.258 C 
ATOM      8  O   UNL     1     -17.550  -5.889 -12.210  1.00  0.00    -0.300 OA
ENDBRANCH   6   7
BRANCH   6   9
ATOM      9  O   UNL     1     -16.790  -4.860 -14.709  1.00  0.00    -0.383 OA
ATOM     10  H   UNL     1     -16.048  -4.223 -14.533  1.00  0.00     0.211 HD
ENDBRANCH   6   9
ENDBRANCH   5   6
BRANCH   5  11
ATOM     11  O   UNL     1     -16.603  -3.060 -12.479  1.00  0.00    -0.387 OA
ATOM     12  H   UNL     1     -16.369  -4.017 -12.358  1.00  0.00     0.211 HD
ENDBRANCH   5  11
ENDBRANCH   1   5
BRANCH   1  13
ATOM     13  O   UNL     1     -17.817  -2.355 -15.741  1.00  0.00    -0.388 OA
ATOM     14  H   UNL     1     -18.797  -2.506 -15.729  1.00  0.00     0.211 HD
ENDBRANCH   1  13
TORSDOF 8
ENDMDL
MODEL 9
REMARK VINA RESULT:    -3.929     11.588     12.994
REMARK INTER + INTRA:          -5.898
REMARK INTER:                  -4.993
REMARK INTRA:                  -0.905
REMARK UNBOUND:                -0.591
REMARK SMILES O=C[C@H](O)[C@@H](O)[C@H](O)CO
REMARK SMILES IDX 7 1 9 2 10 3 5 5 3 6 2 7 1 8 4 9 6 11 8 13
REMARK H PARENT 10 4 4 10 6 12 8 14
REMARK Flexibility Score: inf
ROOT
ATOM      1  C   UNL     1     -16.171  -0.716 -10.112  1.00  0.00     0.171 C 
ENDROOT
BRANCH   1   2
ATOM      2  C   UNL     1     -15.460   0.161  -9.067  1.00  0.00     0.190 C 
BRANCH   2   3
ATOM      3  O   UNL     1     -14.349   0.807  -9.627  1.00  0.00    -0.394 OA
ATOM      4  H   UNL     1     -13.552   0.297  -9.326  1.00  0.00     0.210 HD
ENDBRANCH   2   3
ENDBRANCH   1   2
BRANCH   1   5
ATOM      5  C   UNL     1     -15.524  -0.611 -11.518  1.00  0.00     0.181 C 
BRANCH   5   6
ATOM      6  C   UNL     1     -15.860  -1.847 -12.394  1.00  0.00     0.209 C 
BRANCH   6   7
ATOM      7  C   UNL     1     -16.959  -1.546 -13.383  1.00  0.00     0.258 C 
ATOM      8  O   UNL     1     -18.100  -1.349 -12.996  1.00  0.00    -0.300 OA
ENDBRANCH   6   7
BRANCH   6   9
ATOM      9  O   UNL     1     -16.202  -2.961 -11.607  1.00  0.00    -0.383 OA
ATOM     10  H   UNL     1     -15.671  -2.917 -10.769  1.00  0.00     0.211 HD
ENDBRANCH   6   9
ENDBRANCH   5   6
BRANCH   5  11
ATOM     11  O   UNL     1     -15.937   0.573 -12.156  1.00  0.00    -0.387 OA
ATOM     12  H   UNL     1     -16.683   0.332 -12.765  1.00  0.00     0.211 HD
ENDBRANCH   5  11
ENDBRANCH   1   5
BRANCH   1  13
ATOM     13  O   UNL     1     -17.550  -0.438 -10.145  1.00  0.00    -0.388 OA
ATOM     14  H   UNL     1     -17.831  -0.176  -9.230  1.00  0.00     0.211 HD
ENDBRANCH   1  13
TORSDOF 8
ENDMDL
