MODEL 1
REMARK VINA RESULT:    -4.938      0.000      0.000
REMARK INTER + INTRA:          -6.545
REMARK INTER:                  -6.382
REMARK INTRA:                  -0.163
REMARK UNBOUND:                -0.163
REMARK SMILES CCO[C@@H]1O[C@@H](CO)[C@@H](O)[C@H](O)[C@H]1O
REMARK SMILES IDX 4 1 13 2 11 3 9 4 6 5 5 6 3 7 2 8 1 9 14 10 12 12 7 14 8 15
REMARK SMILES IDX 10 17
REMARK H PARENT 14 11 12 13 8 16 10 18
REMARK Flexibility Score: inf
ROOT
ATOM      1  C   UNL     1      13.627  12.039  35.161  1.00  0.00     0.281 C 
ATOM      2  C   UNL     1      13.666  10.597  34.597  1.00  0.00     0.202 C 
ATOM      3  C   UNL     1      14.784  10.412  33.532  1.00  0.00     0.179 C 
ATOM      4  C   UNL     1      15.877  11.507  33.602  1.00  0.00     0.177 C 
ATOM      5  C   UNL     1      15.271  12.947  33.724  1.00  0.00     0.178 C 
ATOM      6  O   UNL     1      13.915  12.992  34.151  1.00  0.00    -0.341 OA
ENDROOT
BRANCH   1   7
ATOM      7  O   UNL     1      12.378  12.304  35.785  1.00  0.00    -0.350 OA
BRANCH   7   8
ATOM      8  C   UNL     1      12.496  12.632  37.161  1.00  0.00     0.160 C 
ATOM      9  C   UNL     1      11.206  12.274  37.888  1.00  0.00     0.035 C 
ENDBRANCH   7   8
ENDBRANCH   1   7
BRANCH   2  10
ATOM     10  O   UNL     1      13.789   9.659  35.639  1.00  0.00    -0.385 OA
ATOM     11  H   UNL     1      13.001   9.755  36.233  1.00  0.00     0.211 HD
ENDBRANCH   2  10
BRANCH   3  12
ATOM     12  O   UNL     1      14.230  10.368  32.238  1.00  0.00    -0.387 OA
ATOM     13  H   UNL     1      13.433  10.961  32.230  1.00  0.00     0.211 HD
ENDBRANCH   3  12
BRANCH   5  14
ATOM     14  C   UNL     1      16.134  13.922  34.546  1.00  0.00     0.191 C 
BRANCH  14  15
ATOM     15  O   UNL     1      16.832  14.794  33.696  1.00  0.00    -0.394 OA
ATOM     16  H   UNL     1      17.601  15.145  34.217  1.00  0.00     0.210 HD
ENDBRANCH  14  15
ENDBRANCH   5  14
BRANCH   4  17
ATOM     17  O   UNL     1      16.821  11.222  34.608  1.00  0.00    -0.387 OA
ATOM     18  H   UNL     1      16.944  10.242  34.654  1.00  0.00     0.211 HD
ENDBRANCH   4  17
TORSDOF 7
ENDMDL
MODEL 2
REMARK VINA RESULT:    -4.937      5.746      7.154
REMARK INTER + INTRA:          -6.544
REMARK INTER:                  -6.210
REMARK INTRA:                  -0.334
REMARK UNBOUND:                -0.163
REMARK SMILES CCO[C@@H]1O[C@@H](CO)[C@@H](O)[C@H](O)[C@H]1O
REMARK SMILES IDX 4 1 13 2 11 3 9 4 6 5 5 6 3 7 2 8 1 9 14 10 12 12 7 14 8 15
REMARK SMILES IDX 10 17
REMARK H PARENT 14 11 12 13 8 16 10 18
REMARK Flexibility Score: inf
ROOT
ATOM      1  C   UNL     1      19.530  14.790  34.936  1.00  0.00     0.281 C 
ATOM      2  C   UNL     1      18.699  15.795  34.099  1.00  0.00     0.202 C 
ATOM      3  C   UNL     1      19.531  16.432  32.949  1.00  0.00     0.179 C 
ATOM      4  C   UNL     1      20.802  15.620  32.597  1.00  0.00     0.177 C 
ATOM      5  C   UNL     1      21.604  15.186  33.871  1.00  0.00     0.178 C 
ATOM      6  O   UNL     1      20.868  15.234  35.088  1.00  0.00    -0.341 OA
ENDROOT
BRANCH   1   7
ATOM      7  O   UNL     1      18.915  14.551  36.194  1.00  0.00    -0.350 OA
BRANCH   7   8
ATOM      8  C   UNL     1      19.837  14.195  37.212  1.00  0.00     0.160 C 
ATOM      9  C   UNL     1      19.122  13.405  38.301  1.00  0.00     0.035 C 
ENDBRANCH   7   8
ENDBRANCH   1   7
BRANCH   2  10
ATOM     10  O   UNL     1      17.529  15.184  33.609  1.00  0.00    -0.385 OA
ATOM     11  H   UNL     1      17.167  15.752  32.882  1.00  0.00     0.211 HD
ENDBRANCH   2  10
BRANCH   3  12
ATOM     12  O   UNL     1      19.881  17.758  33.271  1.00  0.00    -0.387 OA
ATOM     13  H   UNL     1      20.366  18.140  32.494  1.00  0.00     0.211 HD
ENDBRANCH   3  12
BRANCH   5  14
ATOM     14  C   UNL     1      22.328  13.835  33.725  1.00  0.00     0.191 C 
BRANCH  14  15
ATOM     15  O   UNL     1      23.384  13.942  32.807  1.00  0.00    -0.394 OA
ATOM     16  H   UNL     1      24.176  13.521  33.233  1.00  0.00     0.210 HD
ENDBRANCH  14  15
ENDBRANCH   5  14
BRANCH   4  17
ATOM     17  O   UNL     1      20.497  14.540  31.745  1.00  0.00    -0.387 OA
ATOM     18  H   UNL     1      21.064  13.772  31.998  1.00  0.00     0.211 HD
ENDBRANCH   4  17
TORSDOF 7
ENDMDL
MODEL 3
REMARK VINA RESULT:    -4.933      1.759      3.450
REMARK INTER + INTRA:          -6.538
REMARK INTER:                  -6.071
REMARK INTRA:                  -0.467
REMARK UNBOUND:                -0.163
REMARK SMILES CCO[C@@H]1O[C@@H](CO)[C@@H](O)[C@H](O)[C@H]1O
REMARK SMILES IDX 4 1 13 2 11 3 9 4 6 5 5 6 3 7 2 8 1 9 14 10 12 12 7 14 8 15
REMARK SMILES IDX 10 17
REMARK H PARENT 14 11 12 13 8 16 10 18
REMARK Flexibility Score: inf
ROOT
ATOM      1  C   UNL     1      14.341  11.203  36.359  1.00  0.00     0.281 C 
ATOM      2  C   UNL     1      14.761  12.674  36.610  1.00  0.00     0.202 C 
ATOM      3  C   UNL     1      15.433  13.314  35.362  1.00  0.00     0.179 C 
ATOM      4  C   UNL     1      15.126  12.553  34.049  1.00  0.00     0.177 C 
ATOM      5  C   UNL     1      15.295  11.003  34.205  1.00  0.00     0.178 C 
ATOM      6  O   UNL     1      15.290  10.532  35.547  1.00  0.00    -0.341 OA
ENDROOT
BRANCH   1   7
ATOM      7  O   UNL     1      14.133  10.522  37.588  1.00  0.00    -0.350 OA
BRANCH   7   8
ATOM      8  C   UNL     1      13.001   9.665  37.572  1.00  0.00     0.160 C 
ATOM      9  C   UNL     1      11.962  10.203  36.596  1.00  0.00     0.035 C 
ENDBRANCH   7   8
ENDBRANCH   1   7
BRANCH   2  10
ATOM     10  O   UNL     1      13.661  13.436  37.049  1.00  0.00    -0.385 OA
ATOM     11  H   UNL     1      13.892  14.394  36.949  1.00  0.00     0.211 HD
ENDBRANCH   2  10
BRANCH   3  12
ATOM     12  O   UNL     1      16.826  13.410  35.548  1.00  0.00    -0.387 OA
ATOM     13  H   UNL     1      17.108  14.319  35.263  1.00  0.00     0.211 HD
ENDBRANCH   3  12
BRANCH   5  14
ATOM     14  C   UNL     1      14.330  10.178  33.333  1.00  0.00     0.191 C 
BRANCH  14  15
ATOM     15  O   UNL     1      14.398  10.596  31.996  1.00  0.00    -0.394 OA
ATOM     16  H   UNL     1      13.514  10.992  31.776  1.00  0.00     0.210 HD
ENDBRANCH  14  15
ENDBRANCH   5  14
BRANCH   4  17
ATOM     17  O   UNL     1      13.869  12.919  33.529  1.00  0.00    -0.387 OA
ATOM     18  H   UNL     1      13.462  12.125  33.105  1.00  0.00     0.211 HD
ENDBRANCH   4  17
TORSDOF 7
ENDMDL
MODEL 4
REMARK VINA RESULT:    -4.891      4.703      7.580
REMARK INTER + INTRA:          -6.484
REMARK INTER:                  -6.128
REMARK INTRA:                  -0.356
REMARK UNBOUND:                -0.163
REMARK SMILES CCO[C@@H]1O[C@@H](CO)[C@@H](O)[C@H](O)[C@H]1O
REMARK SMILES IDX 4 1 13 2 11 3 9 4 6 5 5 6 3 7 2 8 1 9 14 10 12 12 7 14 8 15
REMARK SMILES IDX 10 17
REMARK H PARENT 14 11 12 13 8 16 10 18
REMARK Flexibility Score: inf
ROOT
ATOM      1  C   UNL     1      19.282  15.459  33.864  1.00  0.00     0.281 C 
ATOM      2  C   UNL     1      19.506  16.794  33.109  1.00  0.00     0.202 C 
ATOM      3  C   UNL     1      20.986  17.267  33.177  1.00  0.00     0.179 C 
ATOM      4  C   UNL     1      21.970  16.131  33.550  1.00  0.00     0.177 C 
ATOM      5  C   UNL     1      21.463  15.275  34.760  1.00  0.00     0.178 C 
ATOM      6  O   UNL     1      20.073  15.397  35.040  1.00  0.00    -0.341 OA
ENDROOT
BRANCH   1   7
ATOM      7  O   UNL     1      17.904  15.268  34.153  1.00  0.00    -0.350 OA
BRANCH   7   8
ATOM      8  C   UNL     1      17.592  13.943  34.554  1.00  0.00     0.160 C 
ATOM      9  C   UNL     1      16.131  13.642  34.245  1.00  0.00     0.035 C 
ENDBRANCH   7   8
ENDBRANCH   1   7
BRANCH   2  10
ATOM     10  O   UNL     1      19.060  16.692  31.778  1.00  0.00    -0.385 OA
ATOM     11  H   UNL     1      18.276  17.289  31.670  1.00  0.00     0.211 HD
ENDBRANCH   2  10
BRANCH   3  12
ATOM     12  O   UNL     1      21.120  18.336  34.085  1.00  0.00    -0.387 OA
ATOM     13  H   UNL     1      21.318  17.951  34.978  1.00  0.00     0.211 HD
ENDBRANCH   3  12
BRANCH   5  14
ATOM     14  C   UNL     1      21.878  13.794  34.697  1.00  0.00     0.191 C 
BRANCH  14  15
ATOM     15  O   UNL     1      23.275  13.679  34.646  1.00  0.00    -0.394 OA
ATOM     16  H   UNL     1      23.597  13.685  35.586  1.00  0.00     0.210 HD
ENDBRANCH  14  15
ENDBRANCH   5  14
BRANCH   4  17
ATOM     17  O   UNL     1      22.297  15.350  32.423  1.00  0.00    -0.387 OA
ATOM     18  H   UNL     1      22.831  15.903  31.803  1.00  0.00     0.211 HD
ENDBRANCH   4  17
TORSDOF 7
ENDMDL
MODEL 5
REMARK VINA RESULT:    -4.825      4.171      6.514
REMARK INTER + INTRA:          -6.398
REMARK INTER:                  -6.190
REMARK INTRA:                  -0.208
REMARK UNBOUND:                -0.163
REMARK SMILES CCO[C@@H]1O[C@@H](CO)[C@@H](O)[C@H](O)[C@H]1O
REMARK SMILES IDX 4 1 13 2 11 3 9 4 6 5 5 6 3 7 2 8 1 9 14 10 12 12 7 14 8 15
REMARK SMILES IDX 10 17
REMARK H PARENT 14 11 12 13 8 16 10 18
REMARK Flexibility Score: inf
ROOT
ATOM      1  C   UNL     1      18.992  14.334  34.217  1.00  0.00     0.281 C 
ATOM      2  C   UNL     1      19.615  15.606  33.588  1.00  0.00     0.202 C 
ATOM      3  C   UNL     1      20.897  15.288  32.767  1.00  0.00     0.179 C 
ATOM      4  C   UNL     1      21.008  13.796  32.367  1.00  0.00     0.177 C 
ATOM      5  C   UNL     1      20.699  12.833  33.565  1.00  0.00     0.178 C 
ATOM      6  O   UNL     1      19.997  13.431  34.648  1.00  0.00    -0.341 OA
ENDROOT
BRANCH   1   7
ATOM      7  O   UNL     1      18.110  14.676  35.277  1.00  0.00    -0.350 OA
BRANCH   7   8
ATOM      8  C   UNL     1      17.055  13.743  35.454  1.00  0.00     0.160 C 
ATOM      9  C   UNL     1      16.147  13.755  34.230  1.00  0.00     0.035 C 
ENDBRANCH   7   8
ENDBRANCH   1   7
BRANCH   2  10
ATOM     10  O   UNL     1      18.664  16.292  32.811  1.00  0.00    -0.385 OA
ATOM     11  H   UNL     1      18.261  17.001  33.374  1.00  0.00     0.211 HD
ENDBRANCH   2  10
BRANCH   3  12
ATOM     12  O   UNL     1      22.048  15.682  33.477  1.00  0.00    -0.387 OA
ATOM     13  H   UNL     1      21.752  16.221  34.258  1.00  0.00     0.211 HD
ENDBRANCH   3  12
BRANCH   5  14
ATOM     14  C   UNL     1      20.033  11.509  33.147  1.00  0.00     0.191 C 
BRANCH  14  15
ATOM     15  O   UNL     1      18.752  11.748  32.626  1.00  0.00    -0.394 OA
ATOM     16  H   UNL     1      18.281  12.324  33.283  1.00  0.00     0.210 HD
ENDBRANCH  14  15
ENDBRANCH   5  14
BRANCH   4  17
ATOM     17  O   UNL     1      20.235  13.516  31.223  1.00  0.00    -0.387 OA
ATOM     18  H   UNL     1      19.994  12.557  31.235  1.00  0.00     0.211 HD
ENDBRANCH   4  17
TORSDOF 7
ENDMDL
MODEL 6
REMARK VINA RESULT:    -4.726      4.313      6.416
REMARK INTER + INTRA:          -6.271
REMARK INTER:                  -5.857
REMARK INTRA:                  -0.414
REMARK UNBOUND:                -0.163
REMARK SMILES CCO[C@@H]1O[C@@H](CO)[C@@H](O)[C@H](O)[C@H]1O
REMARK SMILES IDX 4 1 13 2 11 3 9 4 6 5 5 6 3 7 2 8 1 9 14 10 12 12 7 14 8 15
REMARK SMILES IDX 10 17
REMARK H PARENT 14 11 12 13 8 16 10 18
REMARK Flexibility Score: inf
ROOT
ATOM      1  C   UNL     1      19.313  14.814  34.448  1.00  0.00     0.281 C 
ATOM      2  C   UNL     1      19.812  13.490  33.815  1.00  0.00     0.202 C 
ATOM      3  C   UNL     1      20.795  13.737  32.635  1.00  0.00     0.179 C 
ATOM      4  C   UNL     1      21.414  15.156  32.647  1.00  0.00     0.177 C 
ATOM      5  C   UNL     1      20.343  16.272  32.897  1.00  0.00     0.178 C 
ATOM      6  O   UNL     1      19.120  15.813  33.460  1.00  0.00    -0.341 OA
ENDROOT
BRANCH   1   7
ATOM      7  O   UNL     1      18.132  14.597  35.207  1.00  0.00    -0.350 OA
BRANCH   7   8
ATOM      8  C   UNL     1      17.032  14.162  34.423  1.00  0.00     0.160 C 
ATOM      9  C   UNL     1      16.143  13.241  35.250  1.00  0.00     0.035 C 
ENDBRANCH   7   8
ENDBRANCH   1   7
BRANCH   2  10
ATOM     10  O   UNL     1      20.383  12.657  34.795  1.00  0.00    -0.385 OA
ATOM     11  H   UNL     1      21.358  12.832  34.817  1.00  0.00     0.211 HD
ENDBRANCH   2  10
BRANCH   3  12
ATOM     12  O   UNL     1      20.154  13.501  31.403  1.00  0.00    -0.387 OA
ATOM     13  H   UNL     1      20.377  14.255  30.797  1.00  0.00     0.211 HD
ENDBRANCH   3  12
BRANCH   5  14
ATOM     14  C   UNL     1      20.877  17.490  33.673  1.00  0.00     0.191 C 
BRANCH  14  15
ATOM     15  O   UNL     1      21.983  18.046  33.011  1.00  0.00    -0.394 OA
ATOM     16  H   UNL     1      21.989  17.661  32.095  1.00  0.00     0.210 HD
ENDBRANCH  14  15
ENDBRANCH   5  14
BRANCH   4  17
ATOM     17  O   UNL     1      22.503  15.230  33.538  1.00  0.00    -0.387 OA
ATOM     18  H   UNL     1      22.388  14.536  34.231  1.00  0.00     0.211 HD
ENDBRANCH   4  17
TORSDOF 7
ENDMDL
MODEL 7
REMARK VINA RESULT:    -4.705      6.885      8.629
REMARK INTER + INTRA:          -6.243
REMARK INTER:                  -6.024
REMARK INTRA:                  -0.220
REMARK UNBOUND:                -0.163
REMARK SMILES CCO[C@@H]1O[C@@H](CO)[C@@H](O)[C@H](O)[C@H]1O
REMARK SMILES IDX 4 1 13 2 11 3 9 4 6 5 5 6 3 7 2 8 1 9 14 10 12 12 7 14 8 15
REMARK SMILES IDX 10 17
REMARK H PARENT 14 11 12 13 8 16 10 18
REMARK Flexibility Score: inf
ROOT
ATOM      1  C   UNL     1      20.055  17.666  33.536  1.00  0.00     0.281 C 
ATOM      2  C   UNL     1      19.328  16.366  33.105  1.00  0.00     0.202 C 
ATOM      3  C   UNL     1      20.273  15.130  33.126  1.00  0.00     0.179 C 
ATOM      4  C   UNL     1      21.541  15.350  33.986  1.00  0.00     0.177 C 
ATOM      5  C   UNL     1      22.221  16.733  33.705  1.00  0.00     0.178 C 
ATOM      6  O   UNL     1      21.390  17.689  33.057  1.00  0.00    -0.341 OA
ENDROOT
BRANCH   1   7
ATOM      7  O   UNL     1      19.331  18.813  33.113  1.00  0.00    -0.350 OA
BRANCH   7   8
ATOM      8  C   UNL     1      19.833  19.384  31.915  1.00  0.00     0.160 C 
ATOM      9  C   UNL     1      18.786  19.272  30.813  1.00  0.00     0.035 C 
ENDBRANCH   7   8
ENDBRANCH   1   7
BRANCH   2  10
ATOM     10  O   UNL     1      18.184  16.152  33.895  1.00  0.00    -0.385 OA
ATOM     11  H   UNL     1      17.721  17.021  34.007  1.00  0.00     0.211 HD
ENDBRANCH   2  10
BRANCH   3  12
ATOM     12  O   UNL     1      20.638  14.767  31.815  1.00  0.00    -0.387 OA
ATOM     13  H   UNL     1      19.901  15.043  31.208  1.00  0.00     0.211 HD
ENDBRANCH   3  12
BRANCH   5  14
ATOM     14  C   UNL     1      22.911  17.353  34.934  1.00  0.00     0.191 C 
BRANCH  14  15
ATOM     15  O   UNL     1      23.317  18.667  34.656  1.00  0.00    -0.394 OA
ATOM     16  H   UNL     1      22.653  19.043  34.021  1.00  0.00     0.210 HD
ENDBRANCH  14  15
ENDBRANCH   5  14
BRANCH   4  17
ATOM     17  O   UNL     1      21.273  15.138  35.354  1.00  0.00    -0.387 OA
ATOM     18  H   UNL     1      20.783  15.922  35.702  1.00  0.00     0.211 HD
ENDBRANCH   4  17
TORSDOF 7
ENDMDL
MODEL 8
REMARK VINA RESULT:    -4.691      4.524      6.979
REMARK INTER + INTRA:          -6.226
REMARK INTER:                  -5.846
REMARK INTRA:                  -0.379
REMARK UNBOUND:                -0.163
REMARK SMILES CCO[C@@H]1O[C@@H](CO)[C@@H](O)[C@H](O)[C@H]1O
REMARK SMILES IDX 4 1 13 2 11 3 9 4 6 5 5 6 3 7 2 8 1 9 14 10 12 12 7 14 8 15
REMARK SMILES IDX 10 17
REMARK H PARENT 14 11 12 13 8 16 10 18
REMARK Flexibility Score: inf
ROOT
ATOM      1  C   UNL     1      20.082  13.454  33.403  1.00  0.00     0.281 C 
ATOM      2  C   UNL     1      18.922  12.584  33.952  1.00  0.00     0.202 C 
ATOM      3  C   UNL     1      17.916  13.413  34.801  1.00  0.00     0.179 C 
ATOM      4  C   UNL     1      18.009  14.936  34.536  1.00  0.00     0.177 C 
ATOM      5  C   UNL     1      19.489  15.450  34.523  1.00  0.00     0.178 C 
ATOM      6  O   UNL     1      20.473  14.439  34.346  1.00  0.00    -0.341 OA
ENDROOT
BRANCH   1   7
ATOM      7  O   UNL     1      21.180  12.642  33.012  1.00  0.00    -0.350 OA
BRANCH   7   8
ATOM      8  C   UNL     1      22.404  13.355  32.926  1.00  0.00     0.160 C 
ATOM      9  C   UNL     1      22.532  13.995  31.550  1.00  0.00     0.035 C 
ENDBRANCH   7   8
ENDBRANCH   1   7
BRANCH   2  10
ATOM     10  O   UNL     1      18.274  11.904  32.905  1.00  0.00    -0.385 OA
ATOM     11  H   UNL     1      18.734  12.134  32.058  1.00  0.00     0.211 HD
ENDBRANCH   2  10
BRANCH   3  12
ATOM     12  O   UNL     1      18.096  13.152  36.173  1.00  0.00    -0.387 OA
ATOM     13  H   UNL     1      18.575  12.286  36.255  1.00  0.00     0.211 HD
ENDBRANCH   3  12
BRANCH   5  14
ATOM     14  C   UNL     1      19.736  16.626  33.560  1.00  0.00     0.191 C 
BRANCH  14  15
ATOM     15  O   UNL     1      18.791  17.642  33.775  1.00  0.00    -0.394 OA
ATOM     16  H   UNL     1      17.938  17.326  33.377  1.00  0.00     0.210 HD
ENDBRANCH  14  15
ENDBRANCH   5  14
BRANCH   4  17
ATOM     17  O   UNL     1      17.292  15.297  33.377  1.00  0.00    -0.387 OA
ATOM     18  H   UNL     1      17.168  14.490  32.822  1.00  0.00     0.211 HD
ENDBRANCH   4  17
TORSDOF 7
ENDMDL
MODEL 9
REMARK VINA RESULT:    -4.607      1.681      4.327
REMARK INTER + INTRA:          -6.117
REMARK INTER:                  -6.017
REMARK INTRA:                  -0.100
REMARK UNBOUND:                -0.163
REMARK SMILES CCO[C@@H]1O[C@@H](CO)[C@@H](O)[C@H](O)[C@H]1O
REMARK SMILES IDX 4 1 13 2 11 3 9 4 6 5 5 6 3 7 2 8 1 9 14 10 12 12 7 14 8 15
REMARK SMILES IDX 10 17
REMARK H PARENT 14 11 12 13 8 16 10 18
REMARK Flexibility Score: inf
ROOT
ATOM      1  C   UNL     1      15.997  12.370  34.466  1.00  0.00     0.281 C 
ATOM      2  C   UNL     1      15.815  12.303  36.004  1.00  0.00     0.202 C 
ATOM      3  C   UNL     1      14.324  12.134  36.413  1.00  0.00     0.179 C 
ATOM      4  C   UNL     1      13.433  11.612  35.258  1.00  0.00     0.177 C 
ATOM      5  C   UNL     1      13.698  12.368  33.912  1.00  0.00     0.178 C 
ATOM      6  O   UNL     1      14.930  13.077  33.855  1.00  0.00    -0.341 OA
ENDROOT
BRANCH   1   7
ATOM      7  O   UNL     1      17.256  12.937  34.131  1.00  0.00    -0.350 OA
BRANCH   7   8
ATOM      8  C   UNL     1      17.339  14.326  34.410  1.00  0.00     0.160 C 
ATOM      9  C   UNL     1      18.597  14.613  35.222  1.00  0.00     0.035 C 
ENDBRANCH   7   8
ENDBRANCH   1   7
BRANCH   2  10
ATOM     10  O   UNL     1      16.617  11.285  36.554  1.00  0.00    -0.385 OA
ATOM     11  H   UNL     1      17.295  11.711  37.137  1.00  0.00     0.211 HD
ENDBRANCH   2  10
BRANCH   3  12
ATOM     12  O   UNL     1      13.808  13.348  36.907  1.00  0.00    -0.387 OA
ATOM     13  H   UNL     1      14.131  13.456  37.840  1.00  0.00     0.211 HD
ENDBRANCH   3  12
BRANCH   5  14
ATOM     14  C   UNL     1      13.513  11.494  32.657  1.00  0.00     0.191 C 
BRANCH  14  15
ATOM     15  O   UNL     1      14.631  10.669  32.465  1.00  0.00    -0.394 OA
ATOM     16  H   UNL     1      14.415   9.795  32.882  1.00  0.00     0.210 HD
ENDBRANCH  14  15
ENDBRANCH   5  14
BRANCH   4  17
ATOM     17  O   UNL     1      13.531  10.212  35.131  1.00  0.00    -0.387 OA
ATOM     18  H   UNL     1      13.344   9.803  36.011  1.00  0.00     0.211 HD
ENDBRANCH   4  17
TORSDOF 7
ENDMDL
