MODEL 1
REMARK VINA RESULT:    -4.033      0.000      0.000
REMARK INTER + INTRA:         -15.453
REMARK INTER:                 -10.635
REMARK INTRA:                  -4.818
REMARK UNBOUND:                -4.818
REMARK SMILES CCCCCCCCCCCCCCCCCCCCCCCCCCCCCC(=O)[O-]
REMARK SMILES IDX 16 1 17 2 18 3 19 4 20 5 21 6 22 7 23 8 24 9 25 10 26 11
REMARK SMILES IDX 27 12 28 13 29 14 30 15 31 16 32 17 15 18 14 19 13 20 12 21
REMARK SMILES IDX 11 22 10 23 9 24 8 25 7 26 6 27 5 28 4 29 3 30 2 31 1 32
REMARK H PARENT
REMARK Flexibility Score: inf
ROOT
ATOM      1  C   UNL     1      13.396 132.955  57.917  1.00  0.00     0.000 C 
ENDROOT
BRANCH   1   2
ATOM      2  C   UNL     1      13.790 134.275  57.231  1.00  0.00     0.000 C 
BRANCH   2   3
ATOM      3  C   UNL     1      15.307 134.418  57.035  1.00  0.00     0.000 C 
BRANCH   3   4
ATOM      4  C   UNL     1      15.686 134.825  55.600  1.00  0.00     0.000 C 
BRANCH   4   5
ATOM      5  C   UNL     1      15.248 133.805  54.528  1.00  0.00     0.000 C 
BRANCH   5   6
ATOM      6  C   UNL     1      16.425 133.337  53.652  1.00  0.00     0.000 C 
BRANCH   6   7
ATOM      7  C   UNL     1      16.682 131.820  53.781  1.00  0.00     0.000 C 
BRANCH   7   8
ATOM      8  C   UNL     1      16.110 131.209  55.072  1.00  0.00     0.000 C 
BRANCH   8   9
ATOM      9  C   UNL     1      17.203 130.738  56.044  1.00  0.00     0.000 C 
BRANCH   9  10
ATOM     10  C   UNL     1      17.796 131.886  56.875  1.00  0.00     0.000 C 
BRANCH  10  11
ATOM     11  C   UNL     1      19.252 132.199  56.493  1.00  0.00     0.000 C 
BRANCH  11  12
ATOM     12  C   UNL     1      19.991 133.020  57.564  1.00  0.00     0.000 C 
BRANCH  12  13
ATOM     13  C   UNL     1      19.642 134.522  57.602  1.00  0.00     0.006 C 
BRANCH  13  14
ATOM     14  C   UNL     1      19.521 135.175  56.213  1.00  0.00     0.053 C 
BRANCH  14  15
ATOM     15  C   UNL     1      18.952 136.561  56.280  1.00  0.00     0.041 C 
ATOM     16  O   UNL     1      18.789 137.232  55.227  1.00  0.00    -0.550 OA
ATOM     17  O   UNL     1      18.639 137.129  57.509  1.00  0.00    -0.550 OA
ENDBRANCH  14  15
ENDBRANCH  13  14
ENDBRANCH  12  13
ENDBRANCH  11  12
ENDBRANCH  10  11
ENDBRANCH   9  10
ENDBRANCH   8   9
ENDBRANCH   7   8
ENDBRANCH   6   7
ENDBRANCH   5   6
ENDBRANCH   4   5
ENDBRANCH   3   4
ENDBRANCH   2   3
ENDBRANCH   1   2
BRANCH   1  18
ATOM     18  C   UNL     1      14.575 132.036  58.293  1.00  0.00     0.000 C 
BRANCH  18  19
ATOM     19  C   UNL     1      14.356 131.239  59.597  1.00  0.00     0.000 C 
BRANCH  19  20
ATOM     20  C   UNL     1      15.459 131.510  60.636  1.00  0.00     0.000 C 
BRANCH  20  21
ATOM     21  C   UNL     1      16.050 132.931  60.515  1.00  0.00     0.000 C 
BRANCH  21  22
ATOM     22  C   UNL     1      17.585 132.954  60.387  1.00  0.00     0.000 C 
BRANCH  22  23
ATOM     23  C   UNL     1      18.333 133.476  61.627  1.00  0.00     0.000 C 
BRANCH  23  24
ATOM     24  C   UNL     1      19.356 132.494  62.229  1.00  0.00    -0.000 C 
BRANCH  24  25
ATOM     25  C   UNL     1      19.000 132.063  63.661  1.00  0.00    -0.000 C 
BRANCH  25  26
ATOM     26  C   UNL     1      17.517 132.331  63.963  1.00  0.00    -0.000 C 
BRANCH  26  27
ATOM     27  C   UNL     1      16.678 131.044  64.003  1.00  0.00    -0.000 C 
BRANCH  27  28
ATOM     28  C   UNL     1      17.097 130.100  65.143  1.00  0.00    -0.000 C 
BRANCH  28  29
ATOM     29  C   UNL     1      17.004 128.613  64.756  1.00  0.00    -0.000 C 
BRANCH  29  30
ATOM     30  C   UNL     1      18.151 128.096  63.869  1.00  0.00    -0.000 C 
BRANCH  30  31
ATOM     31  C   UNL     1      19.539 128.472  64.405  1.00  0.00    -0.003 C 
ATOM     32  C   UNL     1      20.616 128.249  63.347  1.00  0.00     0.004 C 
ENDBRANCH  30  31
ENDBRANCH  29  30
ENDBRANCH  28  29
ENDBRANCH  27  28
ENDBRANCH  26  27
ENDBRANCH  25  26
ENDBRANCH  24  25
ENDBRANCH  23  24
ENDBRANCH  22  23
ENDBRANCH  21  22
ENDBRANCH  20  21
ENDBRANCH  19  20
ENDBRANCH  18  19
ENDBRANCH   1  18
TORSDOF 28
ENDMDL
MODEL 2
REMARK VINA RESULT:    -4.021      1.460      3.612
REMARK INTER + INTRA:         -15.422
REMARK INTER:                  -9.512
REMARK INTRA:                  -5.909
REMARK UNBOUND:                -4.818
REMARK SMILES CCCCCCCCCCCCCCCCCCCCCCCCCCCCCC(=O)[O-]
REMARK SMILES IDX 16 1 17 2 18 3 19 4 20 5 21 6 22 7 23 8 24 9 25 10 26 11
REMARK SMILES IDX 27 12 28 13 29 14 30 15 31 16 32 17 15 18 14 19 13 20 12 21
REMARK SMILES IDX 11 22 10 23 9 24 8 25 7 26 6 27 5 28 4 29 3 30 2 31 1 32
REMARK H PARENT
REMARK Flexibility Score: inf
ROOT
ATOM      1  C   UNL     1      17.170 135.809  58.521  1.00  0.00     0.000 C 
ENDROOT
BRANCH   1   2
ATOM      2  C   UNL     1      18.660 135.556  58.814  1.00  0.00     0.000 C 
BRANCH   2   3
ATOM      3  C   UNL     1      18.883 134.533  59.940  1.00  0.00     0.000 C 
BRANCH   3   4
ATOM      4  C   UNL     1      19.225 133.130  59.410  1.00  0.00     0.000 C 
BRANCH   4   5
ATOM      5  C   UNL     1      19.841 133.131  57.996  1.00  0.00     0.000 C 
BRANCH   5   6
ATOM      6  C   UNL     1      18.996 132.328  56.990  1.00  0.00     0.000 C 
BRANCH   6   7
ATOM      7  C   UNL     1      17.528 132.181  57.446  1.00  0.00     0.000 C 
BRANCH   7   8
ATOM      8  C   UNL     1      16.846 130.908  56.916  1.00  0.00     0.000 C 
BRANCH   8   9
ATOM      9  C   UNL     1      15.624 131.209  56.033  1.00  0.00     0.000 C 
BRANCH   9  10
ATOM     10  C   UNL     1      16.009 131.639  54.610  1.00  0.00     0.000 C 
BRANCH  10  11
ATOM     11  C   UNL     1      15.226 132.875  54.137  1.00  0.00     0.000 C 
BRANCH  11  12
ATOM     12  C   UNL     1      16.134 134.078  53.828  1.00  0.00     0.000 C 
BRANCH  12  13
ATOM     13  C   UNL     1      16.689 134.822  55.061  1.00  0.00     0.006 C 
BRANCH  13  14
ATOM     14  C   UNL     1      18.179 135.194  54.952  1.00  0.00     0.053 C 
BRANCH  14  15
ATOM     15  C   UNL     1      18.388 136.669  54.777  1.00  0.00     0.041 C 
ATOM     16  O   UNL     1      17.862 137.274  53.806  1.00  0.00    -0.550 OA
ATOM     17  O   UNL     1      19.198 137.370  55.663  1.00  0.00    -0.550 OA
ENDBRANCH  14  15
ENDBRANCH  13  14
ENDBRANCH  12  13
ENDBRANCH  11  12
ENDBRANCH  10  11
ENDBRANCH   9  10
ENDBRANCH   8   9
ENDBRANCH   7   8
ENDBRANCH   6   7
ENDBRANCH   5   6
ENDBRANCH   4   5
ENDBRANCH   3   4
ENDBRANCH   2   3
ENDBRANCH   1   2
BRANCH   1  18
ATOM     18  C   UNL     1      16.187 135.129  59.495  1.00  0.00     0.000 C 
BRANCH  18  19
ATOM     19  C   UNL     1      14.890 134.627  58.825  1.00  0.00     0.000 C 
BRANCH  19  20
ATOM     20  C   UNL     1      14.109 133.654  59.727  1.00  0.00     0.000 C 
BRANCH  20  21
ATOM     21  C   UNL     1      14.202 132.192  59.241  1.00  0.00     0.000 C 
BRANCH  21  22
ATOM     22  C   UNL     1      14.919 131.255  60.231  1.00  0.00     0.000 C 
BRANCH  22  23
ATOM     23  C   UNL     1      15.221 131.871  61.609  1.00  0.00     0.000 C 
BRANCH  23  24
ATOM     24  C   UNL     1      16.697 132.240  61.846  1.00  0.00    -0.000 C 
BRANCH  24  25
ATOM     25  C   UNL     1      16.882 133.284  62.958  1.00  0.00    -0.000 C 
BRANCH  25  26
ATOM     26  C   UNL     1      18.359 133.393  63.370  1.00  0.00    -0.000 C 
BRANCH  26  27
ATOM     27  C   UNL     1      19.105 132.052  63.264  1.00  0.00    -0.000 C 
BRANCH  27  28
ATOM     28  C   UNL     1      18.991 131.210  64.546  1.00  0.00    -0.000 C 
BRANCH  28  29
ATOM     29  C   UNL     1      18.523 129.768  64.276  1.00  0.00    -0.000 C 
BRANCH  29  30
ATOM     30  C   UNL     1      17.064 129.472  64.666  1.00  0.00    -0.000 C 
BRANCH  30  31
ATOM     31  C   UNL     1      16.441 130.571  65.538  1.00  0.00    -0.003 C 
ATOM     32  C   UNL     1      15.002 130.856  65.120  1.00  0.00     0.004 C 
ENDBRANCH  30  31
ENDBRANCH  29  30
ENDBRANCH  28  29
ENDBRANCH  27  28
ENDBRANCH  26  27
ENDBRANCH  25  26
ENDBRANCH  24  25
ENDBRANCH  23  24
ENDBRANCH  22  23
ENDBRANCH  21  22
ENDBRANCH  20  21
ENDBRANCH  19  20
ENDBRANCH  18  19
ENDBRANCH   1  18
TORSDOF 28
ENDMDL
MODEL 3
REMARK VINA RESULT:    -3.981      3.526      6.065
REMARK INTER + INTRA:         -15.316
REMARK INTER:                  -8.904
REMARK INTRA:                  -6.412
REMARK UNBOUND:                -4.818
REMARK SMILES CCCCCCCCCCCCCCCCCCCCCCCCCCCCCC(=O)[O-]
REMARK SMILES IDX 16 1 17 2 18 3 19 4 20 5 21 6 22 7 23 8 24 9 25 10 26 11
REMARK SMILES IDX 27 12 28 13 29 14 30 15 31 16 32 17 15 18 14 19 13 20 12 21
REMARK SMILES IDX 11 22 10 23 9 24 8 25 7 26 6 27 5 28 4 29 3 30 2 31 1 32
REMARK H PARENT
REMARK Flexibility Score: inf
ROOT
ATOM      1  C   UNL     1      19.858 132.525  56.512  1.00  0.00     0.000 C 
ENDROOT
BRANCH   1   2
ATOM      2  C   UNL     1      18.492 132.253  55.857  1.00  0.00     0.000 C 
BRANCH   2   3
ATOM      3  C   UNL     1      17.738 131.083  56.508  1.00  0.00     0.000 C 
BRANCH   3   4
ATOM      4  C   UNL     1      16.384 130.800  55.837  1.00  0.00     0.000 C 
BRANCH   4   5
ATOM      5  C   UNL     1      15.987 131.843  54.771  1.00  0.00     0.000 C 
BRANCH   5   6
ATOM      6  C   UNL     1      14.548 132.355  54.962  1.00  0.00     0.000 C 
BRANCH   6   7
ATOM      7  C   UNL     1      14.487 133.893  55.086  1.00  0.00     0.000 C 
BRANCH   7   8
ATOM      8  C   UNL     1      15.869 134.568  55.034  1.00  0.00     0.000 C 
BRANCH   8   9
ATOM      9  C   UNL     1      15.832 135.955  54.373  1.00  0.00     0.000 C 
BRANCH   9  10
ATOM     10  C   UNL     1      17.155 136.322  53.685  1.00  0.00     0.000 C 
BRANCH  10  11
ATOM     11  C   UNL     1      18.114 135.124  53.576  1.00  0.00     0.000 C 
BRANCH  11  12
ATOM     12  C   UNL     1      18.206 134.556  52.150  1.00  0.00     0.000 C 
BRANCH  12  13
ATOM     13  C   UNL     1      17.813 133.071  52.003  1.00  0.00     0.006 C 
BRANCH  13  14
ATOM     14  C   UNL     1      16.487 132.844  51.253  1.00  0.00     0.053 C 
BRANCH  14  15
ATOM     15  C   UNL     1      16.699 132.346  49.855  1.00  0.00     0.041 C 
ATOM     16  O   UNL     1      15.754 132.367  49.023  1.00  0.00    -0.550 OA
ATOM     17  O   UNL     1      17.929 131.819  49.480  1.00  0.00    -0.550 OA
ENDBRANCH  14  15
ENDBRANCH  13  14
ENDBRANCH  12  13
ENDBRANCH  11  12
ENDBRANCH  10  11
ENDBRANCH   9  10
ENDBRANCH   8   9
ENDBRANCH   7   8
ENDBRANCH   6   7
ENDBRANCH   5   6
ENDBRANCH   4   5
ENDBRANCH   3   4
ENDBRANCH   2   3
ENDBRANCH   1   2
BRANCH   1  18
ATOM     18  C   UNL     1      19.944 133.830  57.329  1.00  0.00     0.000 C 
BRANCH  18  19
ATOM     19  C   UNL     1      20.429 135.048  56.514  1.00  0.00     0.000 C 
BRANCH  19  20
ATOM     20  C   UNL     1      19.648 136.328  56.861  1.00  0.00     0.000 C 
BRANCH  20  21
ATOM     21  C   UNL     1      18.223 136.030  57.373  1.00  0.00     0.000 C 
BRANCH  21  22
ATOM     22  C   UNL     1      17.670 137.107  58.326  1.00  0.00     0.000 C 
BRANCH  22  23
ATOM     23  C   UNL     1      17.557 136.676  59.800  1.00  0.00     0.000 C 
BRANCH  23  24
ATOM     24  C   UNL     1      18.890 136.290  60.468  1.00  0.00    -0.000 C 
BRANCH  24  25
ATOM     25  C   UNL     1      18.952 134.808  60.866  1.00  0.00    -0.000 C 
BRANCH  25  26
ATOM     26  C   UNL     1      17.670 134.381  61.597  1.00  0.00    -0.000 C 
BRANCH  26  27
ATOM     27  C   UNL     1      17.110 133.044  61.081  1.00  0.00    -0.000 C 
BRANCH  27  28
ATOM     28  C   UNL     1      17.275 132.882  59.561  1.00  0.00    -0.000 C 
BRANCH  28  29
ATOM     29  C   UNL     1      16.047 133.367  58.769  1.00  0.00    -0.000 C 
BRANCH  29  30
ATOM     30  C   UNL     1      14.861 132.385  58.737  1.00  0.00    -0.000 C 
BRANCH  30  31
ATOM     31  C   UNL     1      13.542 133.024  59.193  1.00  0.00    -0.003 C 
ATOM     32  C   UNL     1      12.504 133.000  58.075  1.00  0.00     0.004 C 
ENDBRANCH  30  31
ENDBRANCH  29  30
ENDBRANCH  28  29
ENDBRANCH  27  28
ENDBRANCH  26  27
ENDBRANCH  25  26
ENDBRANCH  24  25
ENDBRANCH  23  24
ENDBRANCH  22  23
ENDBRANCH  21  22
ENDBRANCH  20  21
ENDBRANCH  19  20
ENDBRANCH  18  19
ENDBRANCH   1  18
TORSDOF 28
ENDMDL
MODEL 4
REMARK VINA RESULT:    -3.940      3.191      7.250
REMARK INTER + INTRA:         -15.207
REMARK INTER:                  -9.859
REMARK INTRA:                  -5.348
REMARK UNBOUND:                -4.818
REMARK SMILES CCCCCCCCCCCCCCCCCCCCCCCCCCCCCC(=O)[O-]
REMARK SMILES IDX 16 1 17 2 18 3 19 4 20 5 21 6 22 7 23 8 24 9 25 10 26 11
REMARK SMILES IDX 27 12 28 13 29 14 30 15 31 16 32 17 15 18 14 19 13 20 12 21
REMARK SMILES IDX 11 22 10 23 9 24 8 25 7 26 6 27 5 28 4 29 3 30 2 31 1 32
REMARK H PARENT
REMARK Flexibility Score: inf
ROOT
ATOM      1  C   UNL     1      17.642 133.491  52.846  1.00  0.00     0.000 C 
ENDROOT
BRANCH   1   2
ATOM      2  C   UNL     1      16.894 132.152  52.977  1.00  0.00     0.000 C 
BRANCH   2   3
ATOM      3  C   UNL     1      16.203 131.983  54.339  1.00  0.00     0.000 C 
BRANCH   3   4
ATOM      4  C   UNL     1      16.831 130.867  55.191  1.00  0.00     0.000 C 
BRANCH   4   5
ATOM      5  C   UNL     1      17.461 131.368  56.508  1.00  0.00     0.000 C 
BRANCH   5   6
ATOM      6  C   UNL     1      18.808 132.079  56.278  1.00  0.00     0.000 C 
BRANCH   6   7
ATOM      7  C   UNL     1      19.364 132.709  57.573  1.00  0.00     0.000 C 
BRANCH   7   8
ATOM      8  C   UNL     1      18.347 132.735  58.728  1.00  0.00     0.000 C 
BRANCH   8   9
ATOM      9  C   UNL     1      18.968 133.189  60.059  1.00  0.00     0.000 C 
BRANCH   9  10
ATOM     10  C   UNL     1      17.983 133.106  61.235  1.00  0.00     0.000 C 
BRANCH  10  11
ATOM     11  C   UNL     1      18.611 132.468  62.485  1.00  0.00     0.000 C 
BRANCH  11  12
ATOM     12  C   UNL     1      17.596 132.243  63.619  1.00  0.00     0.000 C 
BRANCH  12  13
ATOM     13  C   UNL     1      17.476 130.789  64.121  1.00  0.00     0.006 C 
BRANCH  13  14
ATOM     14  C   UNL     1      18.820 130.148  64.516  1.00  0.00     0.053 C 
BRANCH  14  15
ATOM     15  C   UNL     1      18.869 128.683  64.200  1.00  0.00     0.041 C 
ATOM     16  O   UNL     1      19.963 128.061  64.243  1.00  0.00    -0.550 OA
ATOM     17  O   UNL     1      17.714 128.011  63.818  1.00  0.00    -0.550 OA
ENDBRANCH  14  15
ENDBRANCH  13  14
ENDBRANCH  12  13
ENDBRANCH  11  12
ENDBRANCH  10  11
ENDBRANCH   9  10
ENDBRANCH   8   9
ENDBRANCH   7   8
ENDBRANCH   6   7
ENDBRANCH   5   6
ENDBRANCH   4   5
ENDBRANCH   3   4
ENDBRANCH   2   3
ENDBRANCH   1   2
BRANCH   1  18
ATOM     18  C   UNL     1      16.812 134.741  53.202  1.00  0.00     0.000 C 
BRANCH  18  19
ATOM     19  C   UNL     1      17.631 135.866  53.871  1.00  0.00     0.000 C 
BRANCH  19  20
ATOM     20  C   UNL     1      18.546 135.333  54.988  1.00  0.00     0.000 C 
BRANCH  20  21
ATOM     21  C   UNL     1      19.673 136.324  55.352  1.00  0.00     0.000 C 
BRANCH  21  22
ATOM     22  C   UNL     1      20.290 136.076  56.741  1.00  0.00     0.000 C 
BRANCH  22  23
ATOM     23  C   UNL     1      19.927 137.122  57.811  1.00  0.00     0.000 C 
BRANCH  23  24
ATOM     24  C   UNL     1      19.145 136.570  59.018  1.00  0.00    -0.000 C 
BRANCH  24  25
ATOM     25  C   UNL     1      17.740 137.177  59.148  1.00  0.00    -0.000 C 
BRANCH  25  26
ATOM     26  C   UNL     1      16.835 136.722  57.993  1.00  0.00    -0.000 C 
BRANCH  26  27
ATOM     27  C   UNL     1      16.106 135.402  58.294  1.00  0.00    -0.000 C 
BRANCH  27  28
ATOM     28  C   UNL     1      15.692 134.651  57.017  1.00  0.00    -0.000 C 
BRANCH  28  29
ATOM     29  C   UNL     1      14.629 133.568  57.276  1.00  0.00    -0.000 C 
BRANCH  29  30
ATOM     30  C   UNL     1      14.490 133.126  58.744  1.00  0.00    -0.000 C 
BRANCH  30  31
ATOM     31  C   UNL     1      14.656 131.612  58.933  1.00  0.00    -0.003 C 
ATOM     32  C   UNL     1      15.028 131.274  60.374  1.00  0.00     0.004 C 
ENDBRANCH  30  31
ENDBRANCH  29  30
ENDBRANCH  28  29
ENDBRANCH  27  28
ENDBRANCH  26  27
ENDBRANCH  25  26
ENDBRANCH  24  25
ENDBRANCH  23  24
ENDBRANCH  22  23
ENDBRANCH  21  22
ENDBRANCH  20  21
ENDBRANCH  19  20
ENDBRANCH  18  19
ENDBRANCH   1  18
TORSDOF 28
ENDMDL
MODEL 5
REMARK VINA RESULT:    -3.939      3.242      7.655
REMARK INTER + INTRA:         -15.204
REMARK INTER:                  -8.975
REMARK INTRA:                  -6.229
REMARK UNBOUND:                -4.818
REMARK SMILES CCCCCCCCCCCCCCCCCCCCCCCCCCCCCC(=O)[O-]
REMARK SMILES IDX 16 1 17 2 18 3 19 4 20 5 21 6 22 7 23 8 24 9 25 10 26 11
REMARK SMILES IDX 27 12 28 13 29 14 30 15 31 16 32 17 15 18 14 19 13 20 12 21
REMARK SMILES IDX 11 22 10 23 9 24 8 25 7 26 6 27 5 28 4 29 3 30 2 31 1 32
REMARK H PARENT
REMARK Flexibility Score: inf
ROOT
ATOM      1  C   UNL     1      14.769 131.401  60.422  1.00  0.00     0.000 C 
ENDROOT
BRANCH   1   2
ATOM      2  C   UNL     1      14.121 132.448  61.346  1.00  0.00     0.000 C 
BRANCH   2   3
ATOM      3  C   UNL     1      14.255 132.096  62.836  1.00  0.00     0.000 C 
BRANCH   3   4
ATOM      4  C   UNL     1      13.963 133.291  63.759  1.00  0.00     0.000 C 
BRANCH   4   5
ATOM      5  C   UNL     1      15.148 133.681  64.667  1.00  0.00     0.000 C 
BRANCH   5   6
ATOM      6  C   UNL     1      15.785 135.021  64.253  1.00  0.00     0.000 C 
BRANCH   6   7
ATOM      7  C   UNL     1      15.071 135.657  63.041  1.00  0.00     0.000 C 
BRANCH   7   8
ATOM      8  C   UNL     1      15.923 135.660  61.760  1.00  0.00     0.000 C 
BRANCH   8   9
ATOM      9  C   UNL     1      17.331 135.081  61.977  1.00  0.00     0.000 C 
BRANCH   9  10
ATOM     10  C   UNL     1      17.628 133.881  61.067  1.00  0.00     0.000 C 
BRANCH  10  11
ATOM     11  C   UNL     1      17.859 132.583  61.860  1.00  0.00     0.000 C 
BRANCH  11  12
ATOM     12  C   UNL     1      18.585 132.817  63.196  1.00  0.00     0.000 C 
BRANCH  12  13
ATOM     13  C   UNL     1      18.249 131.811  64.316  1.00  0.00     0.006 C 
BRANCH  13  14
ATOM     14  C   UNL     1      17.382 130.624  63.854  1.00  0.00     0.053 C 
BRANCH  14  15
ATOM     15  C   UNL     1      17.946 129.303  64.285  1.00  0.00     0.041 C 
ATOM     16  O   UNL     1      19.183 129.083  64.203  1.00  0.00    -0.550 OA
ATOM     17  O   UNL     1      17.101 128.297  64.739  1.00  0.00    -0.550 OA
ENDBRANCH  14  15
ENDBRANCH  13  14
ENDBRANCH  12  13
ENDBRANCH  11  12
ENDBRANCH  10  11
ENDBRANCH   9  10
ENDBRANCH   8   9
ENDBRANCH   7   8
ENDBRANCH   6   7
ENDBRANCH   5   6
ENDBRANCH   4   5
ENDBRANCH   3   4
ENDBRANCH   2   3
ENDBRANCH   1   2
BRANCH   1  18
ATOM     18  C   UNL     1      14.621 131.679  58.913  1.00  0.00     0.000 C 
BRANCH  18  19
ATOM     19  C   UNL     1      13.629 132.813  58.579  1.00  0.00     0.000 C 
BRANCH  19  20
ATOM     20  C   UNL     1      14.098 133.663  57.385  1.00  0.00     0.000 C 
BRANCH  20  21
ATOM     21  C   UNL     1      15.230 134.642  57.764  1.00  0.00     0.000 C 
BRANCH  21  22
ATOM     22  C   UNL     1      16.212 134.930  56.613  1.00  0.00     0.000 C 
BRANCH  22  23
ATOM     23  C   UNL     1      17.131 136.146  56.829  1.00  0.00     0.000 C 
BRANCH  23  24
ATOM     24  C   UNL     1      17.689 136.292  58.257  1.00  0.00    -0.000 C 
BRANCH  24  25
ATOM     25  C   UNL     1      19.062 135.625  58.432  1.00  0.00    -0.000 C 
BRANCH  25  26
ATOM     26  C   UNL     1      19.713 135.340  57.070  1.00  0.00    -0.000 C 
BRANCH  26  27
ATOM     27  C   UNL     1      19.954 133.840  56.829  1.00  0.00    -0.000 C 
BRANCH  27  28
ATOM     28  C   UNL     1      19.481 132.970  58.006  1.00  0.00    -0.000 C 
BRANCH  28  29
ATOM     29  C   UNL     1      18.161 132.233  57.715  1.00  0.00    -0.000 C 
BRANCH  29  30
ATOM     30  C   UNL     1      18.076 131.566  56.330  1.00  0.00    -0.000 C 
BRANCH  30  31
ATOM     31  C   UNL     1      16.760 130.806  56.111  1.00  0.00    -0.003 C 
ATOM     32  C   UNL     1      15.897 131.493  55.056  1.00  0.00     0.004 C 
ENDBRANCH  30  31
ENDBRANCH  29  30
ENDBRANCH  28  29
ENDBRANCH  27  28
ENDBRANCH  26  27
ENDBRANCH  25  26
ENDBRANCH  24  25
ENDBRANCH  23  24
ENDBRANCH  22  23
ENDBRANCH  21  22
ENDBRANCH  20  21
ENDBRANCH  19  20
ENDBRANCH  18  19
ENDBRANCH   1  18
TORSDOF 28
ENDMDL
MODEL 6
REMARK VINA RESULT:    -3.925      2.820      5.573
REMARK INTER + INTRA:         -15.167
REMARK INTER:                  -9.045
REMARK INTRA:                  -6.122
REMARK UNBOUND:                -4.818
REMARK SMILES CCCCCCCCCCCCCCCCCCCCCCCCCCCCCC(=O)[O-]
REMARK SMILES IDX 16 1 17 2 18 3 19 4 20 5 21 6 22 7 23 8 24 9 25 10 26 11
REMARK SMILES IDX 27 12 28 13 29 14 30 15 31 16 32 17 15 18 14 19 13 20 12 21
REMARK SMILES IDX 11 22 10 23 9 24 8 25 7 26 6 27 5 28 4 29 3 30 2 31 1 32
REMARK H PARENT
REMARK Flexibility Score: inf
ROOT
ATOM      1  C   UNL     1      16.875 131.028  54.941  1.00  0.00     0.000 C 
ENDROOT
BRANCH   1   2
ATOM      2  C   UNL     1      17.560 131.101  56.317  1.00  0.00     0.000 C 
BRANCH   2   3
ATOM      3  C   UNL     1      18.765 132.056  56.335  1.00  0.00     0.000 C 
BRANCH   3   4
ATOM      4  C   UNL     1      18.513 133.347  55.539  1.00  0.00     0.000 C 
BRANCH   4   5
ATOM      5  C   UNL     1      18.426 134.613  56.416  1.00  0.00     0.000 C 
BRANCH   5   6
ATOM      6  C   UNL     1      16.988 135.157  56.515  1.00  0.00     0.000 C 
BRANCH   6   7
ATOM      7  C   UNL     1      16.907 136.659  56.167  1.00  0.00     0.000 C 
BRANCH   7   8
ATOM      8  C   UNL     1      15.635 137.040  55.388  1.00  0.00     0.000 C 
BRANCH   8   9
ATOM      9  C   UNL     1      15.710 136.658  53.901  1.00  0.00     0.000 C 
BRANCH   9  10
ATOM     10  C   UNL     1      14.745 135.522  53.529  1.00  0.00     0.000 C 
BRANCH  10  11
ATOM     11  C   UNL     1      15.445 134.380  52.773  1.00  0.00     0.000 C 
BRANCH  11  12
ATOM     12  C   UNL     1      16.907 134.702  52.419  1.00  0.00     0.000 C 
BRANCH  12  13
ATOM     13  C   UNL     1      17.775 133.487  52.028  1.00  0.00     0.006 C 
BRANCH  13  14
ATOM     14  C   UNL     1      16.976 132.306  51.444  1.00  0.00     0.053 C 
BRANCH  14  15
ATOM     15  C   UNL     1      16.957 132.315  49.945  1.00  0.00     0.041 C 
ATOM     16  O   UNL     1      16.120 133.022  49.325  1.00  0.00    -0.550 OA
ATOM     17  O   UNL     1      17.837 131.511  49.230  1.00  0.00    -0.550 OA
ENDBRANCH  14  15
ENDBRANCH  13  14
ENDBRANCH  12  13
ENDBRANCH  11  12
ENDBRANCH  10  11
ENDBRANCH   9  10
ENDBRANCH   8   9
ENDBRANCH   7   8
ENDBRANCH   6   7
ENDBRANCH   5   6
ENDBRANCH   4   5
ENDBRANCH   3   4
ENDBRANCH   2   3
ENDBRANCH   1   2
BRANCH   1  18
ATOM     18  C   UNL     1      15.442 131.597  54.893  1.00  0.00     0.000 C 
BRANCH  18  19
ATOM     19  C   UNL     1      14.969 132.217  56.225  1.00  0.00     0.000 C 
BRANCH  19  20
ATOM     20  C   UNL     1      13.709 133.083  56.048  1.00  0.00     0.000 C 
BRANCH  20  21
ATOM     21  C   UNL     1      13.380 133.912  57.308  1.00  0.00     0.000 C 
BRANCH  21  22
ATOM     22  C   UNL     1      12.731 133.090  58.438  1.00  0.00     0.000 C 
BRANCH  22  23
ATOM     23  C   UNL     1      12.930 133.660  59.854  1.00  0.00     0.000 C 
BRANCH  23  24
ATOM     24  C   UNL     1      14.276 133.304  60.513  1.00  0.00    -0.000 C 
BRANCH  24  25
ATOM     25  C   UNL     1      14.647 131.822  60.352  1.00  0.00    -0.000 C 
BRANCH  25  26
ATOM     26  C   UNL     1      16.034 131.670  59.708  1.00  0.00    -0.000 C 
BRANCH  26  27
ATOM     27  C   UNL     1      16.660 133.020  59.321  1.00  0.00    -0.000 C 
BRANCH  27  28
ATOM     28  C   UNL     1      18.101 133.173  59.836  1.00  0.00    -0.000 C 
BRANCH  28  29
ATOM     29  C   UNL     1      18.170 133.731  61.269  1.00  0.00    -0.000 C 
BRANCH  29  30
ATOM     30  C   UNL     1      18.456 132.687  62.364  1.00  0.00    -0.000 C 
BRANCH  30  31
ATOM     31  C   UNL     1      17.301 132.537  63.364  1.00  0.00    -0.003 C 
ATOM     32  C   UNL     1      16.793 131.099  63.406  1.00  0.00     0.004 C 
ENDBRANCH  30  31
ENDBRANCH  29  30
ENDBRANCH  28  29
ENDBRANCH  27  28
ENDBRANCH  26  27
ENDBRANCH  25  26
ENDBRANCH  24  25
ENDBRANCH  23  24
ENDBRANCH  22  23
ENDBRANCH  21  22
ENDBRANCH  20  21
ENDBRANCH  19  20
ENDBRANCH  18  19
ENDBRANCH   1  18
TORSDOF 28
ENDMDL
MODEL 7
REMARK VINA RESULT:    -3.919      3.007      7.191
REMARK INTER + INTRA:         -15.151
REMARK INTER:                  -8.554
REMARK INTRA:                  -6.598
REMARK UNBOUND:                -4.818
REMARK SMILES CCCCCCCCCCCCCCCCCCCCCCCCCCCCCC(=O)[O-]
REMARK SMILES IDX 16 1 17 2 18 3 19 4 20 5 21 6 22 7 23 8 24 9 25 10 26 11
REMARK SMILES IDX 27 12 28 13 29 14 30 15 31 16 32 17 15 18 14 19 13 20 12 21
REMARK SMILES IDX 11 22 10 23 9 24 8 25 7 26 6 27 5 28 4 29 3 30 2 31 1 32
REMARK H PARENT
REMARK Flexibility Score: inf
ROOT
ATOM      1  C   UNL     1      19.020 132.388  55.817  1.00  0.00     0.000 C 
ENDROOT
BRANCH   1   2
ATOM      2  C   UNL     1      17.619 132.211  55.204  1.00  0.00     0.000 C 
BRANCH   2   3
ATOM      3  C   UNL     1      16.972 130.865  55.570  1.00  0.00     0.000 C 
BRANCH   3   4
ATOM      4  C   UNL     1      15.847 131.008  56.608  1.00  0.00     0.000 C 
BRANCH   4   5
ATOM      5  C   UNL     1      15.451 132.471  56.901  1.00  0.00     0.000 C 
BRANCH   5   6
ATOM      6  C   UNL     1      14.061 132.823  56.340  1.00  0.00     0.000 C 
BRANCH   6   7
ATOM      7  C   UNL     1      13.093 133.309  57.440  1.00  0.00     0.000 C 
BRANCH   7   8
ATOM      8  C   UNL     1      13.208 132.514  58.753  1.00  0.00     0.000 C 
BRANCH   8   9
ATOM      9  C   UNL     1      13.440 133.415  59.977  1.00  0.00     0.000 C 
BRANCH   9  10
ATOM     10  C   UNL     1      14.366 132.773  61.021  1.00  0.00     0.000 C 
BRANCH  10  11
ATOM     11  C   UNL     1      15.393 131.818  60.389  1.00  0.00     0.000 C 
BRANCH  11  12
ATOM     12  C   UNL     1      16.808 132.417  60.322  1.00  0.00     0.000 C 
BRANCH  12  13
ATOM     13  C   UNL     1      17.187 133.351  61.491  1.00  0.00     0.006 C 
BRANCH  13  14
ATOM     14  C   UNL     1      18.661 133.797  61.487  1.00  0.00     0.053 C 
BRANCH  14  15
ATOM     15  C   UNL     1      19.575 132.756  62.062  1.00  0.00     0.041 C 
ATOM     16  O   UNL     1      20.740 132.613  61.606  1.00  0.00    -0.550 OA
ATOM     17  O   UNL     1      19.127 131.914  63.074  1.00  0.00    -0.550 OA
ENDBRANCH  14  15
ENDBRANCH  13  14
ENDBRANCH  12  13
ENDBRANCH  11  12
ENDBRANCH  10  11
ENDBRANCH   9  10
ENDBRANCH   8   9
ENDBRANCH   7   8
ENDBRANCH   6   7
ENDBRANCH   5   6
ENDBRANCH   4   5
ENDBRANCH   3   4
ENDBRANCH   2   3
ENDBRANCH   1   2
BRANCH   1  18
ATOM     18  C   UNL     1      19.051 132.523  57.352  1.00  0.00     0.000 C 
BRANCH  18  19
ATOM     19  C   UNL     1      19.339 133.956  57.849  1.00  0.00     0.000 C 
BRANCH  19  20
ATOM     20  C   UNL     1      19.897 134.857  56.732  1.00  0.00     0.000 C 
BRANCH  20  21
ATOM     21  C   UNL     1      20.273 136.265  57.240  1.00  0.00     0.000 C 
BRANCH  21  22
ATOM     22  C   UNL     1      19.614 137.407  56.443  1.00  0.00     0.000 C 
BRANCH  22  23
ATOM     23  C   UNL     1      18.927 138.487  57.299  1.00  0.00     0.000 C 
BRANCH  23  24
ATOM     24  C   UNL     1      18.652 138.080  58.759  1.00  0.00    -0.000 C 
BRANCH  24  25
ATOM     25  C   UNL     1      17.168 137.788  59.029  1.00  0.00    -0.000 C 
BRANCH  25  26
ATOM     26  C   UNL     1      16.929 136.283  59.218  1.00  0.00    -0.000 C 
BRANCH  26  27
ATOM     27  C   UNL     1      15.861 135.726  58.262  1.00  0.00    -0.000 C 
BRANCH  27  28
ATOM     28  C   UNL     1      15.847 136.452  56.906  1.00  0.00    -0.000 C 
BRANCH  28  29
ATOM     29  C   UNL     1      16.556 135.658  55.793  1.00  0.00    -0.000 C 
BRANCH  29  30
ATOM     30  C   UNL     1      15.874 135.716  54.413  1.00  0.00    -0.000 C 
BRANCH  30  31
ATOM     31  C   UNL     1      16.763 135.175  53.284  1.00  0.00    -0.003 C 
ATOM     32  C   UNL     1      18.201 135.663  53.434  1.00  0.00     0.004 C 
ENDBRANCH  30  31
ENDBRANCH  29  30
ENDBRANCH  28  29
ENDBRANCH  27  28
ENDBRANCH  26  27
ENDBRANCH  25  26
ENDBRANCH  24  25
ENDBRANCH  23  24
ENDBRANCH  22  23
ENDBRANCH  21  22
ENDBRANCH  20  21
ENDBRANCH  19  20
ENDBRANCH  18  19
ENDBRANCH   1  18
TORSDOF 28
ENDMDL
MODEL 8
REMARK VINA RESULT:    -3.912      3.213      7.862
REMARK INTER + INTRA:         -15.133
REMARK INTER:                  -9.062
REMARK INTRA:                  -6.071
REMARK UNBOUND:                -4.818
REMARK SMILES CCCCCCCCCCCCCCCCCCCCCCCCCCCCCC(=O)[O-]
REMARK SMILES IDX 16 1 17 2 18 3 19 4 20 5 21 6 22 7 23 8 24 9 25 10 26 11
REMARK SMILES IDX 27 12 28 13 29 14 30 15 31 16 32 17 15 18 14 19 13 20 12 21
REMARK SMILES IDX 11 22 10 23 9 24 8 25 7 26 6 27 5 28 4 29 3 30 2 31 1 32
REMARK H PARENT
REMARK Flexibility Score: inf
ROOT
ATOM      1  C   UNL     1      15.020 131.243  60.592  1.00  0.00     0.000 C 
ENDROOT
BRANCH   1   2
ATOM      2  C   UNL     1      14.397 131.986  61.787  1.00  0.00     0.000 C 
BRANCH   2   3
ATOM      3  C   UNL     1      15.314 132.010  63.020  1.00  0.00     0.000 C 
BRANCH   3   4
ATOM      4  C   UNL     1      15.323 133.375  63.730  1.00  0.00     0.000 C 
BRANCH   4   5
ATOM      5  C   UNL     1      14.416 134.430  63.061  1.00  0.00     0.000 C 
BRANCH   5   6
ATOM      6  C   UNL     1      15.195 135.692  62.648  1.00  0.00     0.000 C 
BRANCH   6   7
ATOM      7  C   UNL     1      15.541 135.699  61.143  1.00  0.00     0.000 C 
BRANCH   7   8
ATOM      8  C   UNL     1      17.028 135.433  60.854  1.00  0.00     0.000 C 
BRANCH   8   9
ATOM      9  C   UNL     1      17.304 133.979  60.436  1.00  0.00     0.000 C 
BRANCH   9  10
ATOM     10  C   UNL     1      18.656 133.459  60.947  1.00  0.00     0.000 C 
BRANCH  10  11
ATOM     11  C   UNL     1      18.688 133.308  62.477  1.00  0.00     0.000 C 
BRANCH  11  12
ATOM     12  C   UNL     1      19.532 132.109  62.944  1.00  0.00     0.000 C 
BRANCH  12  13
ATOM     13  C   UNL     1      19.217 131.593  64.364  1.00  0.00     0.006 C 
BRANCH  13  14
ATOM     14  C   UNL     1      18.624 130.172  64.398  1.00  0.00     0.053 C 
BRANCH  14  15
ATOM     15  C   UNL     1      17.403 130.082  65.264  1.00  0.00     0.041 C 
ATOM     16  O   UNL     1      16.538 129.192  65.051  1.00  0.00    -0.550 OA
ATOM     17  O   UNL     1      17.197 131.008  66.280  1.00  0.00    -0.550 OA
ENDBRANCH  14  15
ENDBRANCH  13  14
ENDBRANCH  12  13
ENDBRANCH  11  12
ENDBRANCH  10  11
ENDBRANCH   9  10
ENDBRANCH   8   9
ENDBRANCH   7   8
ENDBRANCH   6   7
ENDBRANCH   5   6
ENDBRANCH   4   5
ENDBRANCH   3   4
ENDBRANCH   2   3
ENDBRANCH   1   2
BRANCH   1  18
ATOM     18  C   UNL     1      14.465 131.643  59.210  1.00  0.00     0.000 C 
BRANCH  18  19
ATOM     19  C   UNL     1      13.866 133.065  59.165  1.00  0.00     0.000 C 
BRANCH  19  20
ATOM     20  C   UNL     1      13.692 133.577  57.723  1.00  0.00     0.000 C 
BRANCH  20  21
ATOM     21  C   UNL     1      14.955 134.287  57.192  1.00  0.00     0.000 C 
BRANCH  21  22
ATOM     22  C   UNL     1      15.278 133.958  55.722  1.00  0.00     0.000 C 
BRANCH  22  23
ATOM     23  C   UNL     1      14.516 132.751  55.142  1.00  0.00     0.000 C 
BRANCH  23  24
ATOM     24  C   UNL     1      15.409 131.596  54.650  1.00  0.00    -0.000 C 
BRANCH  24  25
ATOM     25  C   UNL     1      16.842 131.672  55.199  1.00  0.00    -0.000 C 
BRANCH  25  26
ATOM     26  C   UNL     1      16.956 130.937  56.543  1.00  0.00    -0.000 C 
BRANCH  26  27
ATOM     27  C   UNL     1      17.714 131.753  57.604  1.00  0.00    -0.000 C 
BRANCH  27  28
ATOM     28  C   UNL     1      19.010 132.374  57.055  1.00  0.00    -0.000 C 
BRANCH  28  29
ATOM     29  C   UNL     1      19.129 133.879  57.360  1.00  0.00    -0.000 C 
BRANCH  29  30
ATOM     30  C   UNL     1      19.254 134.788  56.124  1.00  0.00    -0.000 C 
BRANCH  30  31
ATOM     31  C   UNL     1      18.263 135.961  56.141  1.00  0.00    -0.003 C 
ATOM     32  C   UNL     1      18.170 136.582  57.532  1.00  0.00     0.004 C 
ENDBRANCH  30  31
ENDBRANCH  29  30
ENDBRANCH  28  29
ENDBRANCH  27  28
ENDBRANCH  26  27
ENDBRANCH  25  26
ENDBRANCH  24  25
ENDBRANCH  23  24
ENDBRANCH  22  23
ENDBRANCH  21  22
ENDBRANCH  20  21
ENDBRANCH  19  20
ENDBRANCH  18  19
ENDBRANCH   1  18
TORSDOF 28
ENDMDL
MODEL 9
REMARK VINA RESULT:    -3.893      2.462      5.467
REMARK INTER + INTRA:         -15.084
REMARK INTER:                  -9.906
REMARK INTRA:                  -5.178
REMARK UNBOUND:                -4.818
REMARK SMILES CCCCCCCCCCCCCCCCCCCCCCCCCCCCCC(=O)[O-]
REMARK SMILES IDX 16 1 17 2 18 3 19 4 20 5 21 6 22 7 23 8 24 9 25 10 26 11
REMARK SMILES IDX 27 12 28 13 29 14 30 15 31 16 32 17 15 18 14 19 13 20 12 21
REMARK SMILES IDX 11 22 10 23 9 24 8 25 7 26 6 27 5 28 4 29 3 30 2 31 1 32
REMARK H PARENT
REMARK Flexibility Score: inf
ROOT
ATOM      1  C   UNL     1      18.668 131.982  56.217  1.00  0.00     0.000 C 
ENDROOT
BRANCH   1   2
ATOM      2  C   UNL     1      19.219 132.659  57.484  1.00  0.00     0.000 C 
BRANCH   2   3
ATOM      3  C   UNL     1      18.180 132.754  58.613  1.00  0.00     0.000 C 
BRANCH   3   4
ATOM      4  C   UNL     1      17.487 134.126  58.671  1.00  0.00     0.000 C 
BRANCH   4   5
ATOM      5  C   UNL     1      18.261 135.180  59.489  1.00  0.00     0.000 C 
BRANCH   5   6
ATOM      6  C   UNL     1      18.427 136.507  58.725  1.00  0.00     0.000 C 
BRANCH   6   7
ATOM      7  C   UNL     1      19.800 136.613  58.028  1.00  0.00     0.000 C 
BRANCH   7   8
ATOM      8  C   UNL     1      19.763 137.419  56.719  1.00  0.00     0.000 C 
BRANCH   8   9
ATOM      9  C   UNL     1      18.597 137.015  55.802  1.00  0.00     0.000 C 
BRANCH   9  10
ATOM     10  C   UNL     1      18.881 135.730  55.010  1.00  0.00     0.000 C 
BRANCH  10  11
ATOM     11  C   UNL     1      17.600 135.086  54.453  1.00  0.00     0.000 C 
BRANCH  11  12
ATOM     12  C   UNL     1      17.879 134.027  53.374  1.00  0.00     0.000 C 
BRANCH  12  13
ATOM     13  C   UNL     1      16.664 133.624  52.512  1.00  0.00     0.006 C 
BRANCH  13  14
ATOM     14  C   UNL     1      16.942 132.464  51.538  1.00  0.00     0.053 C 
BRANCH  14  15
ATOM     15  C   UNL     1      17.040 132.924  50.114  1.00  0.00     0.041 C 
ATOM     16  O   UNL     1      18.025 133.611  49.736  1.00  0.00    -0.550 OA
ATOM     17  O   UNL     1      16.024 132.629  49.213  1.00  0.00    -0.550 OA
ENDBRANCH  14  15
ENDBRANCH  13  14
ENDBRANCH  12  13
ENDBRANCH  11  12
ENDBRANCH  10  11
ENDBRANCH   9  10
ENDBRANCH   8   9
ENDBRANCH   7   8
ENDBRANCH   6   7
ENDBRANCH   5   6
ENDBRANCH   4   5
ENDBRANCH   3   4
ENDBRANCH   2   3
ENDBRANCH   1   2
BRANCH   1  18
ATOM     18  C   UNL     1      17.405 131.123  56.431  1.00  0.00     0.000 C 
BRANCH  18  19
ATOM     19  C   UNL     1      16.564 130.918  55.153  1.00  0.00     0.000 C 
BRANCH  19  20
ATOM     20  C   UNL     1      15.219 131.663  55.216  1.00  0.00     0.000 C 
BRANCH  20  21
ATOM     21  C   UNL     1      15.157 132.675  56.380  1.00  0.00     0.000 C 
BRANCH  21  22
ATOM     22  C   UNL     1      13.756 132.815  57.004  1.00  0.00     0.000 C 
BRANCH  22  23
ATOM     23  C   UNL     1      13.665 132.436  58.494  1.00  0.00     0.000 C 
BRANCH  23  24
ATOM     24  C   UNL     1      14.612 131.305  58.934  1.00  0.00    -0.000 C 
BRANCH  24  25
ATOM     25  C   UNL     1      15.074 131.444  60.393  1.00  0.00    -0.000 C 
BRANCH  25  26
ATOM     26  C   UNL     1      14.526 132.735  61.021  1.00  0.00    -0.000 C 
BRANCH  26  27
ATOM     27  C   UNL     1      15.613 133.554  61.737  1.00  0.00    -0.000 C 
BRANCH  27  28
ATOM     28  C   UNL     1      16.821 132.696  62.153  1.00  0.00    -0.000 C 
BRANCH  28  29
ATOM     29  C   UNL     1      17.940 133.519  62.817  1.00  0.00    -0.000 C 
BRANCH  29  30
ATOM     30  C   UNL     1      18.690 132.803  63.955  1.00  0.00    -0.000 C 
BRANCH  30  31
ATOM     31  C   UNL     1      19.366 131.501  63.501  1.00  0.00    -0.003 C 
ATOM     32  C   UNL     1      18.899 130.317  64.344  1.00  0.00     0.004 C 
ENDBRANCH  30  31
ENDBRANCH  29  30
ENDBRANCH  28  29
ENDBRANCH  27  28
ENDBRANCH  26  27
ENDBRANCH  25  26
ENDBRANCH  24  25
ENDBRANCH  23  24
ENDBRANCH  22  23
ENDBRANCH  21  22
ENDBRANCH  20  21
ENDBRANCH  19  20
ENDBRANCH  18  19
ENDBRANCH   1  18
TORSDOF 28
ENDMDL
