MODEL 1
REMARK VINA RESULT:    -3.905      0.000      0.000
REMARK INTER + INTRA:         -14.239
REMARK INTER:                  -9.842
REMARK INTRA:                  -4.398
REMARK UNBOUND:                -4.398
REMARK SMILES CCCCCCCCCCCCCCCCCCCCCCCCCCCC(=O)[O-]
REMARK SMILES IDX 15 1 16 2 17 3 18 4 19 5 20 6 21 7 22 8 23 9 24 10 25 11
REMARK SMILES IDX 26 12 27 13 28 14 29 15 30 16 14 17 13 18 12 19 11 20 10 21
REMARK SMILES IDX 9 22 8 23 7 24 6 25 5 26 4 27 3 28 2 29 1 30
REMARK H PARENT
REMARK Flexibility Score: inf
ROOT
ATOM      1  C   UNL     1     302.633 327.024 646.005  1.00  0.00     0.000 C 
ENDROOT
BRANCH   1   2
ATOM      2  C   UNL     1     301.878 327.989 645.074  1.00  0.00     0.000 C 
BRANCH   2   3
ATOM      3  C   UNL     1     300.399 328.226 645.440  1.00  0.00     0.000 C 
BRANCH   3   4
ATOM      4  C   UNL     1     299.421 328.219 644.250  1.00  0.00     0.000 C 
BRANCH   4   5
ATOM      5  C   UNL     1     300.136 328.146 642.894  1.00  0.00     0.000 C 
BRANCH   5   6
ATOM      6  C   UNL     1     300.156 329.516 642.206  1.00  0.00     0.000 C 
BRANCH   6   7
ATOM      7  C   UNL     1     299.095 330.448 642.810  1.00  0.00     0.000 C 
BRANCH   7   8
ATOM      8  C   UNL     1     299.699 331.735 643.393  1.00  0.00     0.000 C 
BRANCH   8   9
ATOM      9  C   UNL     1     301.121 331.529 643.943  1.00  0.00     0.000 C 
BRANCH   9  10
ATOM     10  C   UNL     1     302.149 332.462 643.268  1.00  0.00     0.000 C 
BRANCH  10  11
ATOM     11  C   UNL     1     301.516 333.504 642.324  1.00  0.00     0.000 C 
BRANCH  11  12
ATOM     12  C   UNL     1     301.483 334.939 642.875  1.00  0.00     0.006 C 
BRANCH  12  13
ATOM     13  C   UNL     1     302.128 335.057 644.263  1.00  0.00     0.053 C 
BRANCH  13  14
ATOM     14  C   UNL     1     301.075 335.076 645.325  1.00  0.00     0.041 C 
ATOM     15  O   UNL     1     301.060 334.186 646.217  1.00  0.00    -0.550 OA
ATOM     16  O   UNL     1     300.087 336.054 645.310  1.00  0.00    -0.550 OA
ENDBRANCH  13  14
ENDBRANCH  12  13
ENDBRANCH  11  12
ENDBRANCH  10  11
ENDBRANCH   9  10
ENDBRANCH   8   9
ENDBRANCH   7   8
ENDBRANCH   6   7
ENDBRANCH   5   6
ENDBRANCH   4   5
ENDBRANCH   3   4
ENDBRANCH   2   3
ENDBRANCH   1   2
BRANCH   1  17
ATOM     17  C   UNL     1     303.434 325.961 645.238  1.00  0.00     0.000 C 
BRANCH  17  18
ATOM     18  C   UNL     1     302.679 325.514 643.978  1.00  0.00     0.000 C 
BRANCH  18  19
ATOM     19  C   UNL     1     301.752 324.309 644.228  1.00  0.00     0.000 C 
BRANCH  19  20
ATOM     20  C   UNL     1     300.246 324.632 644.224  1.00  0.00     0.000 C 
BRANCH  20  21
ATOM     21  C   UNL     1     299.461 324.117 645.445  1.00  0.00     0.000 C 
BRANCH  21  22
ATOM     22  C   UNL     1     299.168 325.201 646.505  1.00  0.00    -0.000 C 
BRANCH  22  23
ATOM     23  C   UNL     1     299.990 325.009 647.793  1.00  0.00    -0.000 C 
BRANCH  23  24
ATOM     24  C   UNL     1     300.900 323.771 647.738  1.00  0.00    -0.000 C 
BRANCH  24  25
ATOM     25  C   UNL     1     302.339 324.075 648.190  1.00  0.00    -0.000 C 
BRANCH  25  26
ATOM     26  C   UNL     1     303.315 322.942 647.833  1.00  0.00    -0.000 C 
BRANCH  26  27
ATOM     27  C   UNL     1     304.773 323.429 647.738  1.00  0.00    -0.000 C 
BRANCH  27  28
ATOM     28  C   UNL     1     305.506 323.358 649.086  1.00  0.00    -0.000 C 
BRANCH  28  29
ATOM     29  C   UNL     1     305.007 322.201 649.968  1.00  0.00    -0.003 C 
ATOM     30  C   UNL     1     306.048 321.825 651.017  1.00  0.00     0.004 C 
ENDBRANCH  28  29
ENDBRANCH  27  28
ENDBRANCH  26  27
ENDBRANCH  25  26
ENDBRANCH  24  25
ENDBRANCH  23  24
ENDBRANCH  22  23
ENDBRANCH  21  22
ENDBRANCH  20  21
ENDBRANCH  19  20
ENDBRANCH  18  19
ENDBRANCH  17  18
ENDBRANCH   1  17
TORSDOF 26
ENDMDL
MODEL 2
REMARK VINA RESULT:    -3.860      4.412      9.809
REMARK INTER + INTRA:         -14.124
REMARK INTER:                 -10.249
REMARK INTRA:                  -3.874
REMARK UNBOUND:                -4.398
REMARK SMILES CCCCCCCCCCCCCCCCCCCCCCCCCCCC(=O)[O-]
REMARK SMILES IDX 15 1 16 2 17 3 18 4 19 5 20 6 21 7 22 8 23 9 24 10 25 11
REMARK SMILES IDX 26 12 27 13 28 14 29 15 30 16 14 17 13 18 12 19 11 20 10 21
REMARK SMILES IDX 9 22 8 23 7 24 6 25 5 26 4 27 3 28 2 29 1 30
REMARK H PARENT
REMARK Flexibility Score: inf
ROOT
ATOM      1  C   UNL     1     302.481 326.078 643.671  1.00  0.00     0.000 C 
ENDROOT
BRANCH   1   2
ATOM      2  C   UNL     1     301.480 324.964 644.025  1.00  0.00     0.000 C 
BRANCH   2   3
ATOM      3  C   UNL     1     299.994 325.369 643.935  1.00  0.00     0.000 C 
BRANCH   3   4
ATOM      4  C   UNL     1     299.096 324.813 645.056  1.00  0.00     0.000 C 
BRANCH   4   5
ATOM      5  C   UNL     1     298.932 325.791 646.227  1.00  0.00     0.000 C 
BRANCH   5   6
ATOM      6  C   UNL     1     299.713 325.314 647.458  1.00  0.00     0.000 C 
BRANCH   6   7
ATOM      7  C   UNL     1     299.852 323.785 647.458  1.00  0.00     0.000 C 
BRANCH   7   8
ATOM      8  C   UNL     1     301.311 323.322 647.604  1.00  0.00     0.000 C 
BRANCH   8   9
ATOM      9  C   UNL     1     302.289 324.493 647.802  1.00  0.00     0.000 C 
BRANCH   9  10
ATOM     10  C   UNL     1     303.755 324.018 647.900  1.00  0.00     0.000 C 
BRANCH  10  11
ATOM     11  C   UNL     1     303.903 322.498 648.106  1.00  0.00     0.000 C 
BRANCH  11  12
ATOM     12  C   UNL     1     305.353 321.991 648.160  1.00  0.00     0.006 C 
BRANCH  12  13
ATOM     13  C   UNL     1     306.012 322.223 649.527  1.00  0.00     0.053 C 
BRANCH  13  14
ATOM     14  C   UNL     1     306.346 320.916 650.173  1.00  0.00     0.041 C 
ATOM     15  O   UNL     1     307.098 320.093 649.584  1.00  0.00    -0.550 OA
ATOM     16  O   UNL     1     305.798 320.588 651.407  1.00  0.00    -0.550 OA
ENDBRANCH  13  14
ENDBRANCH  12  13
ENDBRANCH  11  12
ENDBRANCH  10  11
ENDBRANCH   9  10
ENDBRANCH   8   9
ENDBRANCH   7   8
ENDBRANCH   6   7
ENDBRANCH   5   6
ENDBRANCH   4   5
ENDBRANCH   3   4
ENDBRANCH   2   3
ENDBRANCH   1   2
BRANCH   1  17
ATOM     17  C   UNL     1     303.338 326.511 644.870  1.00  0.00     0.000 C 
BRANCH  17  18
ATOM     18  C   UNL     1     302.649 327.636 645.655  1.00  0.00     0.000 C 
BRANCH  18  19
ATOM     19  C   UNL     1     301.862 328.604 644.751  1.00  0.00     0.000 C 
BRANCH  19  20
ATOM     20  C   UNL     1     300.395 328.833 645.163  1.00  0.00     0.000 C 
BRANCH  20  21
ATOM     21  C   UNL     1     299.587 329.752 644.227  1.00  0.00     0.000 C 
BRANCH  21  22
ATOM     22  C   UNL     1     299.891 331.255 644.408  1.00  0.00    -0.000 C 
BRANCH  22  23
ATOM     23  C   UNL     1     299.861 332.030 643.078  1.00  0.00    -0.000 C 
BRANCH  23  24
ATOM     24  C   UNL     1     300.375 333.472 643.218  1.00  0.00    -0.000 C 
BRANCH  24  25
ATOM     25  C   UNL     1     299.823 334.177 644.470  1.00  0.00    -0.000 C 
BRANCH  25  26
ATOM     26  C   UNL     1     300.919 334.918 645.254  1.00  0.00    -0.000 C 
BRANCH  26  27
ATOM     27  C   UNL     1     301.724 333.979 646.170  1.00  0.00    -0.000 C 
BRANCH  27  28
ATOM     28  C   UNL     1     303.174 333.796 645.695  1.00  0.00    -0.000 C 
BRANCH  28  29
ATOM     29  C   UNL     1     303.527 332.324 645.431  1.00  0.00    -0.003 C 
ATOM     30  C   UNL     1     303.161 331.450 646.626  1.00  0.00     0.004 C 
ENDBRANCH  28  29
ENDBRANCH  27  28
ENDBRANCH  26  27
ENDBRANCH  25  26
ENDBRANCH  24  25
ENDBRANCH  23  24
ENDBRANCH  22  23
ENDBRANCH  21  22
ENDBRANCH  20  21
ENDBRANCH  19  20
ENDBRANCH  18  19
ENDBRANCH  17  18
ENDBRANCH   1  17
TORSDOF 26
ENDMDL
MODEL 3
REMARK VINA RESULT:    -3.677      4.036      8.846
REMARK INTER + INTRA:         -13.664
REMARK INTER:                  -8.380
REMARK INTRA:                  -5.284
REMARK UNBOUND:                -4.398
REMARK SMILES CCCCCCCCCCCCCCCCCCCCCCCCCCCC(=O)[O-]
REMARK SMILES IDX 15 1 16 2 17 3 18 4 19 5 20 6 21 7 22 8 23 9 24 10 25 11
REMARK SMILES IDX 26 12 27 13 28 14 29 15 30 16 14 17 13 18 12 19 11 20 10 21
REMARK SMILES IDX 9 22 8 23 7 24 6 25 5 26 4 27 3 28 2 29 1 30
REMARK H PARENT
REMARK Flexibility Score: inf
ROOT
ATOM      1  C   UNL     1     303.832 326.027 644.241  1.00  0.00     0.000 C 
ENDROOT
BRANCH   1   2
ATOM      2  C   UNL     1     303.605 324.516 644.424  1.00  0.00     0.000 C 
BRANCH   2   3
ATOM      3  C   UNL     1     302.134 324.061 644.331  1.00  0.00     0.000 C 
BRANCH   3   4
ATOM      4  C   UNL     1     301.335 324.664 643.161  1.00  0.00     0.000 C 
BRANCH   4   5
ATOM      5  C   UNL     1     300.010 325.295 643.609  1.00  0.00     0.000 C 
BRANCH   5   6
ATOM      6  C   UNL     1     299.466 324.604 644.865  1.00  0.00     0.000 C 
BRANCH   6   7
ATOM      7  C   UNL     1     298.897 325.633 645.853  1.00  0.00     0.000 C 
BRANCH   7   8
ATOM      8  C   UNL     1     299.628 325.623 647.205  1.00  0.00     0.000 C 
BRANCH   8   9
ATOM      9  C   UNL     1     299.686 324.223 647.839  1.00  0.00     0.000 C 
BRANCH   9  10
ATOM     10  C   UNL     1     301.097 323.600 647.750  1.00  0.00     0.000 C 
BRANCH  10  11
ATOM     11  C   UNL     1     302.236 324.603 648.017  1.00  0.00     0.000 C 
BRANCH  11  12
ATOM     12  C   UNL     1     303.652 324.010 647.938  1.00  0.00     0.006 C 
BRANCH  12  13
ATOM     13  C   UNL     1     303.649 322.475 647.877  1.00  0.00     0.053 C 
BRANCH  13  14
ATOM     14  C   UNL     1     304.862 321.926 648.559  1.00  0.00     0.041 C 
ATOM     15  O   UNL     1     305.857 321.554 647.880  1.00  0.00    -0.550 OA
ATOM     16  O   UNL     1     304.882 321.790 649.943  1.00  0.00    -0.550 OA
ENDBRANCH  13  14
ENDBRANCH  12  13
ENDBRANCH  11  12
ENDBRANCH  10  11
ENDBRANCH   9  10
ENDBRANCH   8   9
ENDBRANCH   7   8
ENDBRANCH   6   7
ENDBRANCH   5   6
ENDBRANCH   4   5
ENDBRANCH   3   4
ENDBRANCH   2   3
ENDBRANCH   1   2
BRANCH   1  17
ATOM     17  C   UNL     1     304.242 326.729 645.544  1.00  0.00     0.000 C 
BRANCH  17  18
ATOM     18  C   UNL     1     303.294 327.896 645.856  1.00  0.00     0.000 C 
BRANCH  18  19
ATOM     19  C   UNL     1     301.907 327.733 645.206  1.00  0.00     0.000 C 
BRANCH  19  20
ATOM     20  C   UNL     1     301.036 329.004 645.201  1.00  0.00     0.000 C 
BRANCH  20  21
ATOM     21  C   UNL     1     299.744 328.911 644.367  1.00  0.00     0.000 C 
BRANCH  21  22
ATOM     22  C   UNL     1     299.204 330.278 643.894  1.00  0.00    -0.000 C 
BRANCH  22  23
ATOM     23  C   UNL     1     299.970 331.464 644.509  1.00  0.00    -0.000 C 
BRANCH  23  24
ATOM     24  C   UNL     1     299.914 332.726 643.633  1.00  0.00    -0.000 C 
BRANCH  24  25
ATOM     25  C   UNL     1     301.105 332.827 642.664  1.00  0.00    -0.000 C 
BRANCH  25  26
ATOM     26  C   UNL     1     302.302 331.977 643.121  1.00  0.00    -0.000 C 
BRANCH  26  27
ATOM     27  C   UNL     1     302.920 331.165 641.968  1.00  0.00    -0.000 C 
BRANCH  27  28
ATOM     28  C   UNL     1     302.157 329.859 641.693  1.00  0.00    -0.000 C 
BRANCH  28  29
ATOM     29  C   UNL     1     303.048 328.615 641.833  1.00  0.00    -0.003 C 
ATOM     30  C   UNL     1     302.513 327.461 640.991  1.00  0.00     0.004 C 
ENDBRANCH  28  29
ENDBRANCH  27  28
ENDBRANCH  26  27
ENDBRANCH  25  26
ENDBRANCH  24  25
ENDBRANCH  23  24
ENDBRANCH  22  23
ENDBRANCH  21  22
ENDBRANCH  20  21
ENDBRANCH  19  20
ENDBRANCH  18  19
ENDBRANCH  17  18
ENDBRANCH   1  17
TORSDOF 26
ENDMDL
MODEL 4
REMARK VINA RESULT:    -3.675      4.048      9.606
REMARK INTER + INTRA:         -13.659
REMARK INTER:                  -9.276
REMARK INTRA:                  -4.382
REMARK UNBOUND:                -4.398
REMARK SMILES CCCCCCCCCCCCCCCCCCCCCCCCCCCC(=O)[O-]
REMARK SMILES IDX 15 1 16 2 17 3 18 4 19 5 20 6 21 7 22 8 23 9 24 10 25 11
REMARK SMILES IDX 26 12 27 13 28 14 29 15 30 16 14 17 13 18 12 19 11 20 10 21
REMARK SMILES IDX 9 22 8 23 7 24 6 25 5 26 4 27 3 28 2 29 1 30
REMARK H PARENT
REMARK Flexibility Score: inf
ROOT
ATOM      1  C   UNL     1     302.837 327.362 642.925  1.00  0.00     0.000 C 
ENDROOT
BRANCH   1   2
ATOM      2  C   UNL     1     301.455 326.697 642.805  1.00  0.00     0.000 C 
BRANCH   2   3
ATOM      3  C   UNL     1     300.903 326.097 644.114  1.00  0.00     0.000 C 
BRANCH   3   4
ATOM      4  C   UNL     1     299.368 326.054 644.219  1.00  0.00     0.000 C 
BRANCH   4   5
ATOM      5  C   UNL     1     298.875 325.789 645.648  1.00  0.00     0.000 C 
BRANCH   5   6
ATOM      6  C   UNL     1     299.046 324.313 646.026  1.00  0.00     0.000 C 
BRANCH   6   7
ATOM      7  C   UNL     1     299.592 324.174 647.455  1.00  0.00     0.000 C 
BRANCH   7   8
ATOM      8  C   UNL     1     301.084 323.808 647.487  1.00  0.00     0.000 C 
BRANCH   8   9
ATOM      9  C   UNL     1     302.000 325.044 647.487  1.00  0.00     0.000 C 
BRANCH   9  10
ATOM     10  C   UNL     1     303.412 324.723 646.951  1.00  0.00     0.000 C 
BRANCH  10  11
ATOM     11  C   UNL     1     303.620 323.238 646.599  1.00  0.00     0.000 C 
BRANCH  11  12
ATOM     12  C   UNL     1     304.929 322.626 647.125  1.00  0.00     0.006 C 
BRANCH  12  13
ATOM     13  C   UNL     1     305.265 323.081 648.553  1.00  0.00     0.053 C 
BRANCH  13  14
ATOM     14  C   UNL     1     305.081 321.952 649.516  1.00  0.00     0.041 C 
ATOM     15  O   UNL     1     304.632 320.844 649.115  1.00  0.00    -0.550 OA
ATOM     16  O   UNL     1     305.369 322.132 650.864  1.00  0.00    -0.550 OA
ENDBRANCH  13  14
ENDBRANCH  12  13
ENDBRANCH  11  12
ENDBRANCH  10  11
ENDBRANCH   9  10
ENDBRANCH   8   9
ENDBRANCH   7   8
ENDBRANCH   6   7
ENDBRANCH   5   6
ENDBRANCH   4   5
ENDBRANCH   3   4
ENDBRANCH   2   3
ENDBRANCH   1   2
BRANCH   1  17
ATOM     17  C   UNL     1     303.349 327.415 644.372  1.00  0.00     0.000 C 
BRANCH  17  18
ATOM     18  C   UNL     1     303.776 328.842 644.747  1.00  0.00     0.000 C 
BRANCH  18  19
ATOM     19  C   UNL     1     302.782 329.914 644.261  1.00  0.00     0.000 C 
BRANCH  19  20
ATOM     20  C   UNL     1     301.655 330.256 645.254  1.00  0.00     0.000 C 
BRANCH  20  21
ATOM     21  C   UNL     1     300.311 329.551 644.989  1.00  0.00     0.000 C 
BRANCH  21  22
ATOM     22  C   UNL     1     299.342 330.361 644.101  1.00  0.00    -0.000 C 
BRANCH  22  23
ATOM     23  C   UNL     1     299.355 329.897 642.633  1.00  0.00    -0.000 C 
BRANCH  23  24
ATOM     24  C   UNL     1     300.273 330.755 641.746  1.00  0.00    -0.000 C 
BRANCH  24  25
ATOM     25  C   UNL     1     299.627 332.093 641.347  1.00  0.00    -0.000 C 
BRANCH  25  26
ATOM     26  C   UNL     1     300.533 333.295 641.661  1.00  0.00    -0.000 C 
BRANCH  26  27
ATOM     27  C   UNL     1     301.680 332.932 642.621  1.00  0.00    -0.000 C 
BRANCH  27  28
ATOM     28  C   UNL     1     301.617 333.722 643.938  1.00  0.00    -0.000 C 
BRANCH  28  29
ATOM     29  C   UNL     1     300.175 333.972 644.406  1.00  0.00    -0.003 C 
ATOM     30  C   UNL     1     300.081 335.251 645.233  1.00  0.00     0.004 C 
ENDBRANCH  28  29
ENDBRANCH  27  28
ENDBRANCH  26  27
ENDBRANCH  25  26
ENDBRANCH  24  25
ENDBRANCH  23  24
ENDBRANCH  22  23
ENDBRANCH  21  22
ENDBRANCH  20  21
ENDBRANCH  19  20
ENDBRANCH  18  19
ENDBRANCH  17  18
ENDBRANCH   1  17
TORSDOF 26
ENDMDL
MODEL 5
REMARK VINA RESULT:    -3.672      1.842      2.719
REMARK INTER + INTRA:         -13.652
REMARK INTER:                 -11.006
REMARK INTRA:                  -2.645
REMARK UNBOUND:                -4.398
REMARK SMILES CCCCCCCCCCCCCCCCCCCCCCCCCCCC(=O)[O-]
REMARK SMILES IDX 15 1 16 2 17 3 18 4 19 5 20 6 21 7 22 8 23 9 24 10 25 11
REMARK SMILES IDX 26 12 27 13 28 14 29 15 30 16 14 17 13 18 12 19 11 20 10 21
REMARK SMILES IDX 9 22 8 23 7 24 6 25 5 26 4 27 3 28 2 29 1 30
REMARK H PARENT
REMARK Flexibility Score: inf
ROOT
ATOM      1  C   UNL     1     301.835 326.754 645.217  1.00  0.00     0.000 C 
ENDROOT
BRANCH   1   2
ATOM      2  C   UNL     1     301.658 328.213 644.762  1.00  0.00     0.000 C 
BRANCH   2   3
ATOM      3  C   UNL     1     300.339 328.880 645.205  1.00  0.00     0.000 C 
BRANCH   3   4
ATOM      4  C   UNL     1     299.193 328.808 644.178  1.00  0.00     0.000 C 
BRANCH   4   5
ATOM      5  C   UNL     1     299.024 330.110 643.383  1.00  0.00     0.000 C 
BRANCH   5   6
ATOM      6  C   UNL     1     299.595 331.306 644.155  1.00  0.00     0.000 C 
BRANCH   6   7
ATOM      7  C   UNL     1     300.686 332.014 643.338  1.00  0.00     0.000 C 
BRANCH   7   8
ATOM      8  C   UNL     1     300.500 333.538 643.297  1.00  0.00     0.000 C 
BRANCH   8   9
ATOM      9  C   UNL     1     299.752 334.081 644.527  1.00  0.00     0.000 C 
BRANCH   9  10
ATOM     10  C   UNL     1     300.695 334.809 645.509  1.00  0.00     0.000 C 
BRANCH  10  11
ATOM     11  C   UNL     1     301.627 333.864 646.292  1.00  0.00     0.000 C 
BRANCH  11  12
ATOM     12  C   UNL     1     303.129 334.095 646.057  1.00  0.00     0.006 C 
BRANCH  12  13
ATOM     13  C   UNL     1     303.503 335.584 646.031  1.00  0.00     0.053 C 
BRANCH  13  14
ATOM     14  C   UNL     1     304.635 335.852 646.971  1.00  0.00     0.041 C 
ATOM     15  O   UNL     1     305.686 336.409 646.555  1.00  0.00    -0.550 OA
ATOM     16  O   UNL     1     304.546 335.452 648.300  1.00  0.00    -0.550 OA
ENDBRANCH  13  14
ENDBRANCH  12  13
ENDBRANCH  11  12
ENDBRANCH  10  11
ENDBRANCH   9  10
ENDBRANCH   8   9
ENDBRANCH   7   8
ENDBRANCH   6   7
ENDBRANCH   5   6
ENDBRANCH   4   5
ENDBRANCH   3   4
ENDBRANCH   2   3
ENDBRANCH   1   2
BRANCH   1  17
ATOM     17  C   UNL     1     301.773 325.755 644.052  1.00  0.00     0.000 C 
BRANCH  17  18
ATOM     18  C   UNL     1     300.588 324.793 644.221  1.00  0.00     0.000 C 
BRANCH  18  19
ATOM     19  C   UNL     1     299.578 325.265 645.283  1.00  0.00     0.000 C 
BRANCH  19  20
ATOM     20  C   UNL     1     298.899 324.138 646.084  1.00  0.00     0.000 C 
BRANCH  20  21
ATOM     21  C   UNL     1     299.273 324.076 647.577  1.00  0.00     0.000 C 
BRANCH  21  22
ATOM     22  C   UNL     1     300.722 324.517 647.879  1.00  0.00    -0.000 C 
BRANCH  22  23
ATOM     23  C   UNL     1     301.744 323.387 647.656  1.00  0.00    -0.000 C 
BRANCH  23  24
ATOM     24  C   UNL     1     303.108 323.907 647.173  1.00  0.00    -0.000 C 
BRANCH  24  25
ATOM     25  C   UNL     1     304.278 323.375 648.020  1.00  0.00    -0.000 C 
BRANCH  25  26
ATOM     26  C   UNL     1     304.545 321.881 647.773  1.00  0.00    -0.000 C 
BRANCH  26  27
ATOM     27  C   UNL     1     305.714 321.345 648.619  1.00  0.00    -0.000 C 
BRANCH  27  28
ATOM     28  C   UNL     1     305.297 320.175 649.524  1.00  0.00    -0.000 C 
BRANCH  28  29
ATOM     29  C   UNL     1     305.661 320.412 650.998  1.00  0.00    -0.003 C 
ATOM     30  C   UNL     1     306.180 321.831 651.213  1.00  0.00     0.004 C 
ENDBRANCH  28  29
ENDBRANCH  27  28
ENDBRANCH  26  27
ENDBRANCH  25  26
ENDBRANCH  24  25
ENDBRANCH  23  24
ENDBRANCH  22  23
ENDBRANCH  21  22
ENDBRANCH  20  21
ENDBRANCH  19  20
ENDBRANCH  18  19
ENDBRANCH  17  18
ENDBRANCH   1  17
TORSDOF 26
ENDMDL
MODEL 6
REMARK VINA RESULT:    -3.646      5.399      7.948
REMARK INTER + INTRA:         -13.585
REMARK INTER:                  -8.340
REMARK INTRA:                  -5.244
REMARK UNBOUND:                -4.398
REMARK SMILES CCCCCCCCCCCCCCCCCCCCCCCCCCCC(=O)[O-]
REMARK SMILES IDX 15 1 16 2 17 3 18 4 19 5 20 6 21 7 22 8 23 9 24 10 25 11
REMARK SMILES IDX 26 12 27 13 28 14 29 15 30 16 14 17 13 18 12 19 11 20 10 21
REMARK SMILES IDX 9 22 8 23 7 24 6 25 5 26 4 27 3 28 2 29 1 30
REMARK H PARENT
REMARK Flexibility Score: inf
ROOT
ATOM      1  C   UNL     1     302.256 324.072 648.061  1.00  0.00     0.000 C 
ENDROOT
BRANCH   1   2
ATOM      2  C   UNL     1     300.939 323.548 647.462  1.00  0.00     0.000 C 
BRANCH   2   3
ATOM      3  C   UNL     1     299.691 324.395 647.787  1.00  0.00     0.000 C 
BRANCH   3   4
ATOM      4  C   UNL     1     299.027 325.073 646.574  1.00  0.00     0.000 C 
BRANCH   4   5
ATOM      5  C   UNL     1     299.549 324.537 645.233  1.00  0.00     0.000 C 
BRANCH   5   6
ATOM      6  C   UNL     1     300.107 325.672 644.365  1.00  0.00     0.000 C 
BRANCH   6   7
ATOM      7  C   UNL     1     300.606 326.833 645.237  1.00  0.00     0.000 C 
BRANCH   7   8
ATOM      8  C   UNL     1     302.107 326.734 645.553  1.00  0.00     0.000 C 
BRANCH   8   9
ATOM      9  C   UNL     1     302.923 326.146 644.389  1.00  0.00     0.000 C 
BRANCH   9  10
ATOM     10  C   UNL     1     303.779 324.938 644.829  1.00  0.00     0.000 C 
BRANCH  10  11
ATOM     11  C   UNL     1     303.155 323.574 644.475  1.00  0.00     0.000 C 
BRANCH  11  12
ATOM     12  C   UNL     1     303.912 322.776 643.400  1.00  0.00     0.006 C 
BRANCH  12  13
ATOM     13  C   UNL     1     303.294 322.928 642.003  1.00  0.00     0.053 C 
BRANCH  13  14
ATOM     14  C   UNL     1     303.033 321.584 641.401  1.00  0.00     0.041 C 
ATOM     15  O   UNL     1     303.237 321.389 640.173  1.00  0.00    -0.550 OA
ATOM     16  O   UNL     1     302.528 320.555 642.188  1.00  0.00    -0.550 OA
ENDBRANCH  13  14
ENDBRANCH  12  13
ENDBRANCH  11  12
ENDBRANCH  10  11
ENDBRANCH   9  10
ENDBRANCH   8   9
ENDBRANCH   7   8
ENDBRANCH   6   7
ENDBRANCH   5   6
ENDBRANCH   4   5
ENDBRANCH   3   4
ENDBRANCH   2   3
ENDBRANCH   1   2
BRANCH   1  17
ATOM     17  C   UNL     1     303.351 322.997 648.122  1.00  0.00     0.000 C 
BRANCH  17  18
ATOM     18  C   UNL     1     304.585 323.519 648.873  1.00  0.00     0.000 C 
BRANCH  18  19
ATOM     19  C   UNL     1     304.779 322.850 650.247  1.00  0.00     0.000 C 
BRANCH  19  20
ATOM     20  C   UNL     1     305.657 321.584 650.238  1.00  0.00     0.000 C 
BRANCH  20  21
ATOM     21  C   UNL     1     307.082 321.777 649.686  1.00  0.00     0.000 C 
BRANCH  21  22
ATOM     22  C   UNL     1     307.426 320.848 648.501  1.00  0.00    -0.000 C 
BRANCH  22  23
ATOM     23  C   UNL     1     306.173 320.281 647.808  1.00  0.00    -0.000 C 
BRANCH  23  24
ATOM     24  C   UNL     1     305.860 320.984 646.477  1.00  0.00    -0.000 C 
BRANCH  24  25
ATOM     25  C   UNL     1     307.102 321.640 645.849  1.00  0.00    -0.000 C 
BRANCH  25  26
ATOM     26  C   UNL     1     306.900 323.141 645.587  1.00  0.00    -0.000 C 
BRANCH  26  27
ATOM     27  C   UNL     1     307.632 324.022 646.616  1.00  0.00    -0.000 C 
BRANCH  27  28
ATOM     28  C   UNL     1     306.997 325.414 646.755  1.00  0.00    -0.000 C 
BRANCH  28  29
ATOM     29  C   UNL     1     307.044 325.942 648.198  1.00  0.00    -0.003 C 
ATOM     30  C   UNL     1     308.236 325.362 648.954  1.00  0.00     0.004 C 
ENDBRANCH  28  29
ENDBRANCH  27  28
ENDBRANCH  26  27
ENDBRANCH  25  26
ENDBRANCH  24  25
ENDBRANCH  23  24
ENDBRANCH  22  23
ENDBRANCH  21  22
ENDBRANCH  20  21
ENDBRANCH  19  20
ENDBRANCH  18  19
ENDBRANCH  17  18
ENDBRANCH   1  17
TORSDOF 26
ENDMDL
MODEL 7
REMARK VINA RESULT:    -3.619      1.315      3.069
REMARK INTER + INTRA:         -13.518
REMARK INTER:                  -8.982
REMARK INTRA:                  -4.536
REMARK UNBOUND:                -4.398
REMARK SMILES CCCCCCCCCCCCCCCCCCCCCCCCCCCC(=O)[O-]
REMARK SMILES IDX 15 1 16 2 17 3 18 4 19 5 20 6 21 7 22 8 23 9 24 10 25 11
REMARK SMILES IDX 26 12 27 13 28 14 29 15 30 16 14 17 13 18 12 19 11 20 10 21
REMARK SMILES IDX 9 22 8 23 7 24 6 25 5 26 4 27 3 28 2 29 1 30
REMARK H PARENT
REMARK Flexibility Score: inf
ROOT
ATOM      1  C   UNL     1     302.862 325.415 642.542  1.00  0.00     0.000 C 
ENDROOT
BRANCH   1   2
ATOM      2  C   UNL     1     304.180 325.282 643.325  1.00  0.00     0.000 C 
BRANCH   2   3
ATOM      3  C   UNL     1     304.033 325.313 644.860  1.00  0.00     0.000 C 
BRANCH   3   4
ATOM      4  C   UNL     1     304.749 326.482 645.563  1.00  0.00     0.000 C 
BRANCH   4   5
ATOM      5  C   UNL     1     303.774 327.508 646.155  1.00  0.00     0.000 C 
BRANCH   5   6
ATOM      6  C   UNL     1     302.326 327.011 646.064  1.00  0.00     0.000 C 
BRANCH   6   7
ATOM      7  C   UNL     1     301.434 328.048 645.368  1.00  0.00     0.000 C 
BRANCH   7   8
ATOM      8  C   UNL     1     302.111 328.689 644.147  1.00  0.00     0.000 C 
BRANCH   8   9
ATOM      9  C   UNL     1     301.100 329.275 643.145  1.00  0.00     0.000 C 
BRANCH   9  10
ATOM     10  C   UNL     1     299.684 329.394 643.748  1.00  0.00     0.000 C 
BRANCH  10  11
ATOM     11  C   UNL     1     299.346 330.805 644.267  1.00  0.00     0.000 C 
BRANCH  11  12
ATOM     12  C   UNL     1     300.310 331.911 643.805  1.00  0.00     0.006 C 
BRANCH  12  13
ATOM     13  C   UNL     1     301.135 332.499 644.959  1.00  0.00     0.053 C 
BRANCH  13  14
ATOM     14  C   UNL     1     300.856 333.961 645.106  1.00  0.00     0.041 C 
ATOM     15  O   UNL     1     299.731 334.428 644.781  1.00  0.00    -0.550 OA
ATOM     16  O   UNL     1     301.851 334.817 645.564  1.00  0.00    -0.550 OA
ENDBRANCH  13  14
ENDBRANCH  12  13
ENDBRANCH  11  12
ENDBRANCH  10  11
ENDBRANCH   9  10
ENDBRANCH   8   9
ENDBRANCH   7   8
ENDBRANCH   6   7
ENDBRANCH   5   6
ENDBRANCH   4   5
ENDBRANCH   3   4
ENDBRANCH   2   3
ENDBRANCH   1   2
BRANCH   1  17
ATOM     17  C   UNL     1     301.685 324.713 643.234  1.00  0.00     0.000 C 
BRANCH  17  18
ATOM     18  C   UNL     1     300.383 325.502 643.031  1.00  0.00     0.000 C 
BRANCH  18  19
ATOM     19  C   UNL     1     299.410 325.373 644.219  1.00  0.00     0.000 C 
BRANCH  19  20
ATOM     20  C   UNL     1     299.790 324.302 645.259  1.00  0.00     0.000 C 
BRANCH  20  21
ATOM     21  C   UNL     1     299.032 324.388 646.597  1.00  0.00     0.000 C 
BRANCH  21  22
ATOM     22  C   UNL     1     299.928 324.189 647.839  1.00  0.00    -0.000 C 
BRANCH  22  23
ATOM     23  C   UNL     1     301.356 323.744 647.475  1.00  0.00    -0.000 C 
BRANCH  23  24
ATOM     24  C   UNL     1     302.419 324.324 648.423  1.00  0.00    -0.000 C 
BRANCH  24  25
ATOM     25  C   UNL     1     303.838 323.830 648.092  1.00  0.00    -0.000 C 
BRANCH  25  26
ATOM     26  C   UNL     1     303.832 322.471 647.374  1.00  0.00    -0.000 C 
BRANCH  26  27
ATOM     27  C   UNL     1     305.162 321.713 647.538  1.00  0.00    -0.000 C 
BRANCH  27  28
ATOM     28  C   UNL     1     305.705 321.781 648.974  1.00  0.00    -0.000 C 
BRANCH  28  29
ATOM     29  C   UNL     1     305.051 320.743 649.900  1.00  0.00    -0.003 C 
ATOM     30  C   UNL     1     305.878 320.543 651.167  1.00  0.00     0.004 C 
ENDBRANCH  28  29
ENDBRANCH  27  28
ENDBRANCH  26  27
ENDBRANCH  25  26
ENDBRANCH  24  25
ENDBRANCH  23  24
ENDBRANCH  22  23
ENDBRANCH  21  22
ENDBRANCH  20  21
ENDBRANCH  19  20
ENDBRANCH  18  19
ENDBRANCH  17  18
ENDBRANCH   1  17
TORSDOF 26
ENDMDL
MODEL 8
REMARK VINA RESULT:    -3.584      5.008      9.177
REMARK INTER + INTRA:         -13.428
REMARK INTER:                  -8.273
REMARK INTRA:                  -5.156
REMARK UNBOUND:                -4.398
REMARK SMILES CCCCCCCCCCCCCCCCCCCCCCCCCCCC(=O)[O-]
REMARK SMILES IDX 15 1 16 2 17 3 18 4 19 5 20 6 21 7 22 8 23 9 24 10 25 11
REMARK SMILES IDX 26 12 27 13 28 14 29 15 30 16 14 17 13 18 12 19 11 20 10 21
REMARK SMILES IDX 9 22 8 23 7 24 6 25 5 26 4 27 3 28 2 29 1 30
REMARK H PARENT
REMARK Flexibility Score: inf
ROOT
ATOM      1  C   UNL     1     299.264 324.669 645.302  1.00  0.00     0.000 C 
ENDROOT
BRANCH   1   2
ATOM      2  C   UNL     1     299.011 324.843 646.810  1.00  0.00     0.000 C 
BRANCH   2   3
ATOM      3  C   UNL     1     299.902 323.980 647.726  1.00  0.00     0.000 C 
BRANCH   3   4
ATOM      4  C   UNL     1     301.299 323.656 647.163  1.00  0.00     0.000 C 
BRANCH   4   5
ATOM      5  C   UNL     1     302.386 324.602 647.689  1.00  0.00     0.000 C 
BRANCH   5   6
ATOM      6  C   UNL     1     303.405 323.846 648.551  1.00  0.00     0.000 C 
BRANCH   6   7
ATOM      7  C   UNL     1     303.815 322.526 647.883  1.00  0.00     0.000 C 
BRANCH   7   8
ATOM      8  C   UNL     1     304.587 321.596 648.833  1.00  0.00     0.000 C 
BRANCH   8   9
ATOM      9  C   UNL     1     305.102 322.321 650.088  1.00  0.00     0.000 C 
BRANCH   9  10
ATOM     10  C   UNL     1     306.604 322.063 650.336  1.00  0.00     0.000 C 
BRANCH  10  11
ATOM     11  C   UNL     1     307.521 322.634 649.237  1.00  0.00     0.000 C 
BRANCH  11  12
ATOM     12  C   UNL     1     307.283 324.115 648.900  1.00  0.00     0.006 C 
BRANCH  12  13
ATOM     13  C   UNL     1     307.020 324.349 647.405  1.00  0.00     0.053 C 
BRANCH  13  14
ATOM     14  C   UNL     1     307.634 323.254 646.592  1.00  0.00     0.041 C 
ATOM     15  O   UNL     1     306.920 322.312 646.157  1.00  0.00    -0.550 OA
ATOM     16  O   UNL     1     309.003 323.253 646.346  1.00  0.00    -0.550 OA
ENDBRANCH  13  14
ENDBRANCH  12  13
ENDBRANCH  11  12
ENDBRANCH  10  11
ENDBRANCH   9  10
ENDBRANCH   8   9
ENDBRANCH   7   8
ENDBRANCH   6   7
ENDBRANCH   5   6
ENDBRANCH   4   5
ENDBRANCH   3   4
ENDBRANCH   2   3
ENDBRANCH   1   2
BRANCH   1  17
ATOM     17  C   UNL     1     299.385 326.008 644.559  1.00  0.00     0.000 C 
BRANCH  17  18
ATOM     18  C   UNL     1     299.725 327.144 645.535  1.00  0.00     0.000 C 
BRANCH  18  19
ATOM     19  C   UNL     1     301.230 327.466 645.581  1.00  0.00     0.000 C 
BRANCH  19  20
ATOM     20  C   UNL     1     302.077 326.781 644.492  1.00  0.00     0.000 C 
BRANCH  20  21
ATOM     21  C   UNL     1     303.271 327.605 643.973  1.00  0.00     0.000 C 
BRANCH  21  22
ATOM     22  C   UNL     1     304.598 326.818 643.915  1.00  0.00    -0.000 C 
BRANCH  22  23
ATOM     23  C   UNL     1     304.611 325.606 644.865  1.00  0.00    -0.000 C 
BRANCH  23  24
ATOM     24  C   UNL     1     304.764 324.269 644.121  1.00  0.00    -0.000 C 
BRANCH  24  25
ATOM     25  C   UNL     1     303.577 323.320 644.362  1.00  0.00    -0.000 C 
BRANCH  25  26
ATOM     26  C   UNL     1     302.937 322.841 643.048  1.00  0.00    -0.000 C 
BRANCH  26  27
ATOM     27  C   UNL     1     301.644 323.606 642.711  1.00  0.00    -0.000 C 
BRANCH  27  28
ATOM     28  C   UNL     1     301.829 324.588 641.543  1.00  0.00    -0.000 C 
BRANCH  28  29
ATOM     29  C   UNL     1     300.517 325.280 641.141  1.00  0.00    -0.003 C 
ATOM     30  C   UNL     1     300.682 326.796 641.121  1.00  0.00     0.004 C 
ENDBRANCH  28  29
ENDBRANCH  27  28
ENDBRANCH  26  27
ENDBRANCH  25  26
ENDBRANCH  24  25
ENDBRANCH  23  24
ENDBRANCH  22  23
ENDBRANCH  21  22
ENDBRANCH  20  21
ENDBRANCH  19  20
ENDBRANCH  18  19
ENDBRANCH  17  18
ENDBRANCH   1  17
TORSDOF 26
ENDMDL
MODEL 9
REMARK VINA RESULT:    -3.580      4.035      9.455
REMARK INTER + INTRA:         -13.419
REMARK INTER:                  -9.228
REMARK INTRA:                  -4.190
REMARK UNBOUND:                -4.398
REMARK SMILES CCCCCCCCCCCCCCCCCCCCCCCCCCCC(=O)[O-]
REMARK SMILES IDX 15 1 16 2 17 3 18 4 19 5 20 6 21 7 22 8 23 9 24 10 25 11
REMARK SMILES IDX 26 12 27 13 28 14 29 15 30 16 14 17 13 18 12 19 11 20 10 21
REMARK SMILES IDX 9 22 8 23 7 24 6 25 5 26 4 27 3 28 2 29 1 30
REMARK H PARENT
REMARK Flexibility Score: inf
ROOT
ATOM      1  C   UNL     1     304.402 325.825 644.213  1.00  0.00     0.000 C 
ENDROOT
BRANCH   1   2
ATOM      2  C   UNL     1     304.130 324.323 644.024  1.00  0.00     0.000 C 
BRANCH   2   3
ATOM      3  C   UNL     1     302.640 323.923 644.026  1.00  0.00     0.000 C 
BRANCH   3   4
ATOM      4  C   UNL     1     301.765 324.660 642.995  1.00  0.00     0.000 C 
BRANCH   4   5
ATOM      5  C   UNL     1     300.376 325.018 643.541  1.00  0.00     0.000 C 
BRANCH   5   6
ATOM      6  C   UNL     1     300.050 324.201 644.798  1.00  0.00     0.000 C 
BRANCH   6   7
ATOM      7  C   UNL     1     299.078 324.965 645.709  1.00  0.00     0.000 C 
BRANCH   7   8
ATOM      8  C   UNL     1     299.602 325.106 647.147  1.00  0.00     0.000 C 
BRANCH   8   9
ATOM      9  C   UNL     1     300.418 323.886 647.606  1.00  0.00     0.000 C 
BRANCH   9  10
ATOM     10  C   UNL     1     301.862 324.265 648.003  1.00  0.00     0.000 C 
BRANCH  10  11
ATOM     11  C   UNL     1     302.907 323.193 647.640  1.00  0.00     0.000 C 
BRANCH  11  12
ATOM     12  C   UNL     1     304.343 323.512 648.087  1.00  0.00     0.006 C 
BRANCH  12  13
ATOM     13  C   UNL     1     304.679 322.926 649.466  1.00  0.00     0.053 C 
BRANCH  13  14
ATOM     14  C   UNL     1     305.154 321.515 649.330  1.00  0.00     0.041 C 
ATOM     15  O   UNL     1     305.704 321.131 648.263  1.00  0.00    -0.550 OA
ATOM     16  O   UNL     1     304.956 320.610 650.367  1.00  0.00    -0.550 OA
ENDBRANCH  13  14
ENDBRANCH  12  13
ENDBRANCH  11  12
ENDBRANCH  10  11
ENDBRANCH   9  10
ENDBRANCH   8   9
ENDBRANCH   7   8
ENDBRANCH   6   7
ENDBRANCH   5   6
ENDBRANCH   4   5
ENDBRANCH   3   4
ENDBRANCH   2   3
ENDBRANCH   1   2
BRANCH   1  17
ATOM     17  C   UNL     1     305.071 326.145 645.558  1.00  0.00     0.000 C 
BRANCH  17  18
ATOM     18  C   UNL     1     304.154 327.013 646.431  1.00  0.00     0.000 C 
BRANCH  18  19
ATOM     19  C   UNL     1     302.682 326.975 645.978  1.00  0.00     0.000 C 
BRANCH  19  20
ATOM     20  C   UNL     1     302.115 328.321 645.487  1.00  0.00     0.000 C 
BRANCH  20  21
ATOM     21  C   UNL     1     300.597 328.340 645.232  1.00  0.00     0.000 C 
BRANCH  21  22
ATOM     22  C   UNL     1     300.211 328.595 643.759  1.00  0.00    -0.000 C 
BRANCH  22  23
ATOM     23  C   UNL     1     298.875 329.346 643.616  1.00  0.00    -0.000 C 
BRANCH  23  24
ATOM     24  C   UNL     1     298.971 330.817 644.054  1.00  0.00    -0.000 C 
BRANCH  24  25
ATOM     25  C   UNL     1     300.166 331.547 643.417  1.00  0.00    -0.000 C 
BRANCH  25  26
ATOM     26  C   UNL     1     301.149 332.087 644.469  1.00  0.00    -0.000 C 
BRANCH  26  27
ATOM     27  C   UNL     1     302.011 333.243 643.930  1.00  0.00    -0.000 C 
BRANCH  27  28
ATOM     28  C   UNL     1     301.167 334.444 643.475  1.00  0.00    -0.000 C 
BRANCH  28  29
ATOM     29  C   UNL     1     301.039 335.520 644.564  1.00  0.00    -0.003 C 
ATOM     30  C   UNL     1     302.349 335.685 645.329  1.00  0.00     0.004 C 
ENDBRANCH  28  29
ENDBRANCH  27  28
ENDBRANCH  26  27
ENDBRANCH  25  26
ENDBRANCH  24  25
ENDBRANCH  23  24
ENDBRANCH  22  23
ENDBRANCH  21  22
ENDBRANCH  20  21
ENDBRANCH  19  20
ENDBRANCH  18  19
ENDBRANCH  17  18
ENDBRANCH   1  17
TORSDOF 26
ENDMDL
