MODEL 1
REMARK VINA RESULT:    -3.899      0.000      0.000
REMARK INTER + INTRA:          -4.949
REMARK INTER:                  -4.811
REMARK INTRA:                  -0.138
REMARK UNBOUND:                -0.138
REMARK SMILES C=CC[C@H](C)C(=O)CC
REMARK SMILES IDX 4 1 5 2 6 3 7 4 8 5 9 6 3 7 2 8 1 9
REMARK H PARENT
REMARK Flexibility Score: inf
ROOT
ATOM      1  C   UNL     1      13.392  30.891  29.133  1.00  0.00     0.057 C 
ATOM      2  C   UNL     1      12.371  30.659  30.255  1.00  0.00     0.016 C 
ENDROOT
BRANCH   1   3
ATOM      3  C   UNL     1      14.805  30.795  29.670  1.00  0.00     0.135 C 
ATOM      4  O   UNL     1      15.280  31.749  30.270  1.00  0.00    -0.299 OA
BRANCH   3   5
ATOM      5  C   UNL     1      15.639  29.547  29.510  1.00  0.00     0.072 C 
ATOM      6  C   UNL     1      16.967  29.680  30.247  1.00  0.00     0.012 C 
ENDBRANCH   3   5
ENDBRANCH   1   3
BRANCH   1   7
ATOM      7  C   UNL     1      13.172  32.240  28.419  1.00  0.00     0.038 C 
BRANCH   7   8
ATOM      8  C   UNL     1      11.707  32.558  28.280  1.00  0.00    -0.034 C 
ATOM      9  C   UNL     1      11.234  33.282  27.262  1.00  0.00     0.004 C 
ENDBRANCH   7   8
ENDBRANCH   1   7
TORSDOF 4
ENDMDL
MODEL 2
REMARK VINA RESULT:    -3.456      1.448      1.798
REMARK INTER + INTRA:          -4.402
REMARK INTER:                  -4.219
REMARK INTRA:                  -0.183
REMARK UNBOUND:                -0.138
REMARK SMILES C=CC[C@H](C)C(=O)CC
REMARK SMILES IDX 4 1 5 2 6 3 7 4 8 5 9 6 3 7 2 8 1 9
REMARK H PARENT
REMARK Flexibility Score: inf
ROOT
ATOM      1  C   UNL     1      12.777  31.505  28.532  1.00  0.00     0.057 C 
ATOM      2  C   UNL     1      11.352  31.853  28.986  1.00  0.00     0.016 C 
ENDROOT
BRANCH   1   3
ATOM      3  C   UNL     1      13.598  30.995  29.698  1.00  0.00     0.135 C 
ATOM      4  O   UNL     1      13.033  30.417  30.616  1.00  0.00    -0.299 OA
BRANCH   3   5
ATOM      5  C   UNL     1      15.098  31.154  29.750  1.00  0.00     0.072 C 
ATOM      6  C   UNL     1      15.792  29.797  29.722  1.00  0.00     0.012 C 
ENDBRANCH   3   5
ENDBRANCH   1   3
BRANCH   1   7
ATOM      7  C   UNL     1      13.476  32.701  27.855  1.00  0.00     0.038 C 
BRANCH   7   8
ATOM      8  C   UNL     1      12.633  33.280  26.750  1.00  0.00    -0.034 C 
ATOM      9  C   UNL     1      13.167  33.983  25.747  1.00  0.00     0.004 C 
ENDBRANCH   7   8
ENDBRANCH   1   7
TORSDOF 4
ENDMDL
MODEL 3
REMARK VINA RESULT:    -3.419     14.685     15.811
REMARK INTER + INTRA:          -4.357
REMARK INTER:                  -4.119
REMARK INTRA:                  -0.238
REMARK UNBOUND:                -0.138
REMARK SMILES C=CC[C@H](C)C(=O)CC
REMARK SMILES IDX 4 1 5 2 6 3 7 4 8 5 9 6 3 7 2 8 1 9
REMARK H PARENT
REMARK Flexibility Score: inf
ROOT
ATOM      1  C   UNL     1      28.144  28.546  23.775  1.00  0.00     0.057 C 
ATOM      2  C   UNL     1      28.891  28.914  22.486  1.00  0.00     0.016 C 
ENDROOT
BRANCH   1   3
ATOM      3  C   UNL     1      27.546  29.782  24.416  1.00  0.00     0.135 C 
ATOM      4  O   UNL     1      26.332  29.860  24.541  1.00  0.00    -0.299 OA
BRANCH   3   5
ATOM      5  C   UNL     1      28.405  30.912  24.930  1.00  0.00     0.072 C 
ATOM      6  C   UNL     1      28.177  32.183  24.119  1.00  0.00     0.012 C 
ENDBRANCH   3   5
ENDBRANCH   1   3
BRANCH   1   7
ATOM      7  C   UNL     1      29.047  27.798  24.775  1.00  0.00     0.038 C 
BRANCH   7   8
ATOM      8  C   UNL     1      28.238  26.958  25.729  1.00  0.00    -0.034 C 
ATOM      9  C   UNL     1      28.624  25.732  26.093  1.00  0.00     0.004 C 
ENDBRANCH   7   8
ENDBRANCH   1   7
TORSDOF 4
ENDMDL
MODEL 4
REMARK VINA RESULT:    -3.368      1.600      4.278
REMARK INTER + INTRA:          -4.293
REMARK INTER:                  -4.155
REMARK INTRA:                  -0.138
REMARK UNBOUND:                -0.138
REMARK SMILES C=CC[C@H](C)C(=O)CC
REMARK SMILES IDX 4 1 5 2 6 3 7 4 8 5 9 6 3 7 2 8 1 9
REMARK H PARENT
REMARK Flexibility Score: inf
ROOT
ATOM      1  C   UNL     1      12.734  31.219  29.834  1.00  0.00     0.057 C 
ATOM      2  C   UNL     1      11.570  30.325  30.284  1.00  0.00     0.016 C 
ENDROOT
BRANCH   1   3
ATOM      3  C   UNL     1      12.486  31.756  28.440  1.00  0.00     0.135 C 
ATOM      4  O   UNL     1      13.128  31.302  27.503  1.00  0.00    -0.299 OA
BRANCH   3   5
ATOM      5  C   UNL     1      11.450  32.819  28.165  1.00  0.00     0.072 C 
ATOM      6  C   UNL     1      11.768  33.571  26.877  1.00  0.00     0.012 C 
ENDBRANCH   3   5
ENDBRANCH   1   3
BRANCH   1   7
ATOM      7  C   UNL     1      14.088  30.483  29.900  1.00  0.00     0.038 C 
BRANCH   7   8
ATOM      8  C   UNL     1      15.226  31.442  30.128  1.00  0.00    -0.034 C 
ATOM      9  C   UNL     1      16.408  31.293  29.522  1.00  0.00     0.004 C 
ENDBRANCH   7   8
ENDBRANCH   1   7
TORSDOF 4
ENDMDL
MODEL 5
REMARK VINA RESULT:    -3.365     14.653     15.958
REMARK INTER + INTRA:          -4.291
REMARK INTER:                  -3.774
REMARK INTRA:                  -0.517
REMARK UNBOUND:                -0.138
REMARK SMILES C=CC[C@H](C)C(=O)CC
REMARK SMILES IDX 4 1 5 2 6 3 7 4 8 5 9 6 3 7 2 8 1 9
REMARK H PARENT
REMARK Flexibility Score: inf
ROOT
ATOM      1  C   UNL     1      27.642  29.104  23.939  1.00  0.00     0.057 C 
ATOM      2  C   UNL     1      26.358  28.668  23.220  1.00  0.00     0.016 C 
ENDROOT
BRANCH   1   3
ATOM      3  C   UNL     1      28.660  29.623  22.944  1.00  0.00     0.135 C 
ATOM      4  O   UNL     1      29.110  28.860  22.102  1.00  0.00    -0.299 OA
BRANCH   3   5
ATOM      5  C   UNL     1      29.118  31.061  22.944  1.00  0.00     0.072 C 
ATOM      6  C   UNL     1      28.365  31.873  23.993  1.00  0.00     0.012 C 
ENDBRANCH   3   5
ENDBRANCH   1   3
BRANCH   1   7
ATOM      7  C   UNL     1      28.243  27.968  24.791  1.00  0.00     0.038 C 
BRANCH   7   8
ATOM      8  C   UNL     1      29.125  28.507  25.886  1.00  0.00    -0.034 C 
ATOM      9  C   UNL     1      28.676  29.385  26.788  1.00  0.00     0.004 C 
ENDBRANCH   7   8
ENDBRANCH   1   7
TORSDOF 4
ENDMDL
MODEL 6
REMARK VINA RESULT:    -3.280     15.023     16.052
REMARK INTER + INTRA:          -4.186
REMARK INTER:                  -3.871
REMARK INTRA:                  -0.315
REMARK UNBOUND:                -0.138
REMARK SMILES C=CC[C@H](C)C(=O)CC
REMARK SMILES IDX 4 1 5 2 6 3 7 4 8 5 9 6 3 7 2 8 1 9
REMARK H PARENT
REMARK Flexibility Score: inf
ROOT
ATOM      1  C   UNL     1      28.865  31.008  24.470  1.00  0.00     0.057 C 
ATOM      2  C   UNL     1      29.125  31.342  25.946  1.00  0.00     0.016 C 
ENDROOT
BRANCH   1   3
ATOM      3  C   UNL     1      28.928  32.260  23.621  1.00  0.00     0.135 C 
ATOM      4  O   UNL     1      29.103  32.153  22.416  1.00  0.00    -0.299 OA
BRANCH   3   5
ATOM      5  C   UNL     1      28.756  33.638  24.213  1.00  0.00     0.072 C 
ATOM      6  C   UNL     1      27.622  34.390  23.524  1.00  0.00     0.012 C 
ENDBRANCH   3   5
ENDBRANCH   1   3
BRANCH   1   7
ATOM      7  C   UNL     1      27.520  30.281  24.270  1.00  0.00     0.038 C 
BRANCH   7   8
ATOM      8  C   UNL     1      27.714  28.926  23.641  1.00  0.00    -0.034 C 
ATOM      9  C   UNL     1      28.902  28.525  23.179  1.00  0.00     0.004 C 
ENDBRANCH   7   8
ENDBRANCH   1   7
TORSDOF 4
ENDMDL
MODEL 7
REMARK VINA RESULT:    -3.206     18.138     18.746
REMARK INTER + INTRA:          -4.094
REMARK INTER:                  -3.828
REMARK INTRA:                  -0.267
REMARK UNBOUND:                -0.138
REMARK SMILES C=CC[C@H](C)C(=O)CC
REMARK SMILES IDX 4 1 5 2 6 3 7 4 8 5 9 6 3 7 2 8 1 9
REMARK H PARENT
REMARK Flexibility Score: inf
ROOT
ATOM      1  C   UNL     1      26.567  41.109  20.386  1.00  0.00     0.057 C 
ATOM      2  C   UNL     1      27.542  41.133  21.571  1.00  0.00     0.016 C 
ENDROOT
BRANCH   1   3
ATOM      3  C   UNL     1      26.073  39.700  20.131  1.00  0.00     0.135 C 
ATOM      4  O   UNL     1      25.245  39.214  20.888  1.00  0.00    -0.299 OA
BRANCH   3   5
ATOM      5  C   UNL     1      26.552  38.886  18.954  1.00  0.00     0.072 C 
ATOM      6  C   UNL     1      27.698  37.965  19.358  1.00  0.00     0.012 C 
ENDBRANCH   3   5
ENDBRANCH   1   3
BRANCH   1   7
ATOM      7  C   UNL     1      27.193  41.707  19.110  1.00  0.00     0.038 C 
BRANCH   7   8
ATOM      8  C   UNL     1      27.373  43.197  19.229  1.00  0.00    -0.034 C 
ATOM      9  C   UNL     1      26.446  44.058  18.799  1.00  0.00     0.004 C 
ENDBRANCH   7   8
ENDBRANCH   1   7
TORSDOF 4
ENDMDL
MODEL 8
REMARK VINA RESULT:    -3.195     14.976     15.641
REMARK INTER + INTRA:          -4.080
REMARK INTER:                  -3.898
REMARK INTRA:                  -0.182
REMARK UNBOUND:                -0.138
REMARK SMILES C=CC[C@H](C)C(=O)CC
REMARK SMILES IDX 4 1 5 2 6 3 7 4 8 5 9 6 3 7 2 8 1 9
REMARK H PARENT
REMARK Flexibility Score: inf
ROOT
ATOM      1  C   UNL     1      29.000  30.265  24.038  1.00  0.00     0.057 C 
ATOM      2  C   UNL     1      28.739  29.520  22.722  1.00  0.00     0.016 C 
ENDROOT
BRANCH   1   3
ATOM      3  C   UNL     1      28.893  29.318  25.216  1.00  0.00     0.135 C 
ATOM      4  O   UNL     1      28.754  29.781  26.340  1.00  0.00    -0.299 OA
BRANCH   3   5
ATOM      5  C   UNL     1      28.927  27.819  25.044  1.00  0.00     0.072 C 
ATOM      6  C   UNL     1      27.600  27.193  25.459  1.00  0.00     0.012 C 
ENDBRANCH   3   5
ENDBRANCH   1   3
BRANCH   1   7
ATOM      7  C   UNL     1      28.054  31.469  24.220  1.00  0.00     0.038 C 
BRANCH   7   8
ATOM      8  C   UNL     1      28.570  32.688  23.503  1.00  0.00    -0.034 C 
ATOM      9  C   UNL     1      28.057  33.904  23.716  1.00  0.00     0.004 C 
ENDBRANCH   7   8
ENDBRANCH   1   7
TORSDOF 4
ENDMDL
MODEL 9
REMARK VINA RESULT:    -3.130     18.530     19.375
REMARK INTER + INTRA:          -4.000
REMARK INTER:                  -3.772
REMARK INTRA:                  -0.228
REMARK UNBOUND:                -0.138
REMARK SMILES C=CC[C@H](C)C(=O)CC
REMARK SMILES IDX 4 1 5 2 6 3 7 4 8 5 9 6 3 7 2 8 1 9
REMARK H PARENT
REMARK Flexibility Score: inf
ROOT
ATOM      1  C   UNL     1      27.006  40.510  20.082  1.00  0.00     0.057 C 
ATOM      2  C   UNL     1      25.793  39.686  20.536  1.00  0.00     0.016 C 
ENDROOT
BRANCH   1   3
ATOM      3  C   UNL     1      26.758  41.988  20.301  1.00  0.00     0.135 C 
ATOM      4  O   UNL     1      25.940  42.336  21.141  1.00  0.00    -0.299 OA
BRANCH   3   5
ATOM      5  C   UNL     1      27.510  43.048  19.533  1.00  0.00     0.072 C 
ATOM      6  C   UNL     1      26.547  43.964  18.785  1.00  0.00     0.012 C 
ENDBRANCH   3   5
ENDBRANCH   1   3
BRANCH   1   7
ATOM      7  C   UNL     1      27.376  40.232  18.611  1.00  0.00     0.038 C 
BRANCH   7   8
ATOM      8  C   UNL     1      27.486  38.755  18.339  1.00  0.00    -0.034 C 
ATOM      9  C   UNL     1      28.603  38.070  18.599  1.00  0.00     0.004 C 
ENDBRANCH   7   8
ENDBRANCH   1   7
TORSDOF 4
ENDMDL
