MODEL 1
REMARK VINA RESULT:    -3.175      0.000      0.000
REMARK INTER + INTRA:          -8.282
REMARK INTER:                  -5.960
REMARK INTRA:                  -2.323
REMARK UNBOUND:                -2.323
REMARK SMILES O=C([O-])CCCCCCCCCCCCCCC(=O)[O-]
REMARK SMILES IDX 10 1 9 2 8 3 7 4 6 5 5 6 4 7 2 8 1 9 3 10 11 11 12 12 13 13
REMARK SMILES IDX 14 14 15 15 16 16 17 17 18 18 19 19 20 20
REMARK H PARENT
REMARK Flexibility Score: inf
ROOT
ATOM      1  C   UNL     1      15.521   8.935  40.759  1.00  0.00     0.000 C 
ENDROOT
BRANCH   1   2
ATOM      2  C   UNL     1      16.112  10.111  39.961  1.00  0.00     0.000 C 
BRANCH   2   3
ATOM      3  C   UNL     1      16.440   9.731  38.508  1.00  0.00     0.000 C 
BRANCH   3   4
ATOM      4  C   UNL     1      17.934   9.422  38.299  1.00  0.00     0.000 C 
BRANCH   4   5
ATOM      5  C   UNL     1      18.177   8.535  37.060  1.00  0.00     0.000 C 
BRANCH   5   6
ATOM      6  C   UNL     1      19.595   8.664  36.479  1.00  0.00     0.006 C 
BRANCH   6   7
ATOM      7  C   UNL     1      20.402   9.799  37.121  1.00  0.00     0.053 C 
BRANCH   7   8
ATOM      8  C   UNL     1      21.869   9.562  36.944  1.00  0.00     0.041 C 
ATOM      9  O   UNL     1      22.299   8.990  35.907  1.00  0.00    -0.550 OA
ATOM     10  O   UNL     1      22.758   9.917  37.952  1.00  0.00    -0.550 OA
ENDBRANCH   7   8
ENDBRANCH   6   7
ENDBRANCH   5   6
ENDBRANCH   4   5
ENDBRANCH   3   4
ENDBRANCH   2   3
ENDBRANCH   1   2
BRANCH   1  11
ATOM     11  C   UNL     1      16.442   8.469  41.897  1.00  0.00     0.000 C 
BRANCH  11  12
ATOM     12  C   UNL     1      17.276   9.617  42.490  1.00  0.00     0.000 C 
BRANCH  12  13
ATOM     13  C   UNL     1      18.779   9.296  42.524  1.00  0.00     0.000 C 
BRANCH  13  14
ATOM     14  C   UNL     1      19.181   8.235  41.487  1.00  0.00     0.000 C 
BRANCH  14  15
ATOM     15  C   UNL     1      20.432   8.675  40.711  1.00  0.00     0.000 C 
BRANCH  15  16
ATOM     16  C   UNL     1      21.199   7.489  40.102  1.00  0.00     0.006 C 
BRANCH  16  17
ATOM     17  C   UNL     1      20.276   6.478  39.409  1.00  0.00     0.053 C 
BRANCH  17  18
ATOM     18  C   UNL     1      21.016   5.753  38.330  1.00  0.00     0.041 C 
ATOM     19  O   UNL     1      22.117   6.195  37.908  1.00  0.00    -0.550 OA
ATOM     20  O   UNL     1      20.520   4.553  37.834  1.00  0.00    -0.550 OA
ENDBRANCH  17  18
ENDBRANCH  16  17
ENDBRANCH  15  16
ENDBRANCH  14  15
ENDBRANCH  13  14
ENDBRANCH  12  13
ENDBRANCH  11  12
ENDBRANCH   1  11
TORSDOF 15
ENDMDL
MODEL 2
REMARK VINA RESULT:    -3.158      8.026     11.236
REMARK INTER + INTRA:          -8.250
REMARK INTER:                  -6.133
REMARK INTRA:                  -2.117
REMARK UNBOUND:                -2.323
REMARK SMILES O=C([O-])CCCCCCCCCCCCCCC(=O)[O-]
REMARK SMILES IDX 10 1 9 2 8 3 7 4 6 5 5 6 4 7 2 8 1 9 3 10 11 11 12 12 13 13
REMARK SMILES IDX 14 14 15 15 16 16 17 17 18 18 19 19 20 20
REMARK H PARENT
REMARK Flexibility Score: inf
ROOT
ATOM      1  C   UNL     1      19.754   4.126  27.628  1.00  0.00     0.000 C 
ENDROOT
BRANCH   1   2
ATOM      2  C   UNL     1      18.922   5.047  28.538  1.00  0.00     0.000 C 
BRANCH   2   3
ATOM      3  C   UNL     1      19.739   5.612  29.710  1.00  0.00     0.000 C 
BRANCH   3   4
ATOM      4  C   UNL     1      19.815   4.641  30.903  1.00  0.00     0.000 C 
BRANCH   4   5
ATOM      5  C   UNL     1      21.254   4.150  31.165  1.00  0.00     0.000 C 
BRANCH   5   6
ATOM      6  C   UNL     1      21.821   4.600  32.522  1.00  0.00     0.006 C 
BRANCH   6   7
ATOM      7  C   UNL     1      20.804   5.378  33.365  1.00  0.00     0.053 C 
BRANCH   7   8
ATOM      8  C   UNL     1      21.235   6.802  33.523  1.00  0.00     0.041 C 
ATOM      9  O   UNL     1      22.155   7.269  32.801  1.00  0.00    -0.550 OA
ATOM     10  O   UNL     1      20.663   7.597  34.509  1.00  0.00    -0.550 OA
ENDBRANCH   7   8
ENDBRANCH   6   7
ENDBRANCH   5   6
ENDBRANCH   4   5
ENDBRANCH   3   4
ENDBRANCH   2   3
ENDBRANCH   1   2
BRANCH   1  11
ATOM     11  C   UNL     1      20.333   4.862  26.409  1.00  0.00     0.000 C 
BRANCH  11  12
ATOM     12  C   UNL     1      21.871   4.829  26.375  1.00  0.00     0.000 C 
BRANCH  12  13
ATOM     13  C   UNL     1      22.460   3.841  27.394  1.00  0.00     0.000 C 
BRANCH  13  14
ATOM     14  C   UNL     1      23.495   4.496  28.324  1.00  0.00     0.000 C 
BRANCH  14  15
ATOM     15  C   UNL     1      23.237   6.004  28.454  1.00  0.00     0.000 C 
BRANCH  15  16
ATOM     16  C   UNL     1      23.535   6.537  29.864  1.00  0.00     0.006 C 
BRANCH  16  17
ATOM     17  C   UNL     1      24.168   7.935  29.850  1.00  0.00     0.053 C 
BRANCH  17  18
ATOM     18  C   UNL     1      25.497   7.897  29.164  1.00  0.00     0.041 C 
ATOM     19  O   UNL     1      26.367   7.055  29.513  1.00  0.00    -0.550 OA
ATOM     20  O   UNL     1      25.752   8.750  28.098  1.00  0.00    -0.550 OA
ENDBRANCH  17  18
ENDBRANCH  16  17
ENDBRANCH  15  16
ENDBRANCH  14  15
ENDBRANCH  13  14
ENDBRANCH  12  13
ENDBRANCH  11  12
ENDBRANCH   1  11
TORSDOF 15
ENDMDL
MODEL 3
REMARK VINA RESULT:    -3.103     11.602     13.371
REMARK INTER + INTRA:          -8.146
REMARK INTER:                  -5.730
REMARK INTRA:                  -2.416
REMARK UNBOUND:                -2.323
REMARK SMILES O=C([O-])CCCCCCCCCCCCCCC(=O)[O-]
REMARK SMILES IDX 10 1 9 2 8 3 7 4 6 5 5 6 4 7 2 8 1 9 3 10 11 11 12 12 13 13
REMARK SMILES IDX 14 14 15 15 16 16 17 17 18 18 19 19 20 20
REMARK H PARENT
REMARK Flexibility Score: inf
ROOT
ATOM      1  C   UNL     1      10.406   7.206  32.983  1.00  0.00     0.000 C 
ENDROOT
BRANCH   1   2
ATOM      2  C   UNL     1      10.467   8.175  31.790  1.00  0.00     0.000 C 
BRANCH   2   3
ATOM      3  C   UNL     1       9.421   7.849  30.711  1.00  0.00     0.000 C 
BRANCH   3   4
ATOM      4  C   UNL     1       8.396   6.799  31.178  1.00  0.00     0.000 C 
BRANCH   4   5
ATOM      5  C   UNL     1       8.380   5.555  30.265  1.00  0.00     0.000 C 
BRANCH   5   6
ATOM      6  C   UNL     1       9.511   5.540  29.224  1.00  0.00     0.006 C 
BRANCH   6   7
ATOM      7  C   UNL     1      10.713   4.693  29.659  1.00  0.00     0.053 C 
BRANCH   7   8
ATOM      8  C   UNL     1      11.860   4.892  28.720  1.00  0.00     0.041 C 
ATOM      9  O   UNL     1      12.172   3.988  27.899  1.00  0.00    -0.550 OA
ATOM     10  O   UNL     1      12.625   6.050  28.790  1.00  0.00    -0.550 OA
ENDBRANCH   7   8
ENDBRANCH   6   7
ENDBRANCH   5   6
ENDBRANCH   4   5
ENDBRANCH   3   4
ENDBRANCH   2   3
ENDBRANCH   1   2
BRANCH   1  11
ATOM     11  C   UNL     1      11.573   6.205  32.994  1.00  0.00     0.000 C 
BRANCH  11  12
ATOM     12  C   UNL     1      11.285   4.971  33.866  1.00  0.00     0.000 C 
BRANCH  12  13
ATOM     13  C   UNL     1       9.899   4.366  33.589  1.00  0.00     0.000 C 
BRANCH  13  14
ATOM     14  C   UNL     1       9.972   3.064  32.776  1.00  0.00     0.000 C 
BRANCH  14  15
ATOM     15  C   UNL     1       8.565   2.557  32.427  1.00  0.00     0.000 C 
BRANCH  15  16
ATOM     16  C   UNL     1       8.591   1.273  31.581  1.00  0.00     0.006 C 
BRANCH  16  17
ATOM     17  C   UNL     1       8.636   1.557  30.074  1.00  0.00     0.053 C 
BRANCH  17  18
ATOM     18  C   UNL     1       9.811   0.873  29.451  1.00  0.00     0.041 C 
ATOM     19  O   UNL     1       9.644   0.065  28.499  1.00  0.00    -0.550 OA
ATOM     20  O   UNL     1      11.098   1.176  29.878  1.00  0.00    -0.550 OA
ENDBRANCH  17  18
ENDBRANCH  16  17
ENDBRANCH  15  16
ENDBRANCH  14  15
ENDBRANCH  13  14
ENDBRANCH  12  13
ENDBRANCH  11  12
ENDBRANCH   1  11
TORSDOF 15
ENDMDL
MODEL 4
REMARK VINA RESULT:    -3.102      7.643     10.532
REMARK INTER + INTRA:          -8.145
REMARK INTER:                  -6.155
REMARK INTRA:                  -1.989
REMARK UNBOUND:                -2.323
REMARK SMILES O=C([O-])CCCCCCCCCCCCCCC(=O)[O-]
REMARK SMILES IDX 10 1 9 2 8 3 7 4 6 5 5 6 4 7 2 8 1 9 3 10 11 11 12 12 13 13
REMARK SMILES IDX 14 14 15 15 16 16 17 17 18 18 19 19 20 20
REMARK H PARENT
REMARK Flexibility Score: inf
ROOT
ATOM      1  C   UNL     1      20.131   3.342  27.753  1.00  0.00     0.000 C 
ENDROOT
BRANCH   1   2
ATOM      2  C   UNL     1      21.628   2.991  27.822  1.00  0.00     0.000 C 
BRANCH   2   3
ATOM      3  C   UNL     1      22.516   4.072  27.186  1.00  0.00     0.000 C 
BRANCH   3   4
ATOM      4  C   UNL     1      23.551   4.644  28.171  1.00  0.00     0.000 C 
BRANCH   4   5
ATOM      5  C   UNL     1      23.348   6.154  28.418  1.00  0.00     0.000 C 
BRANCH   5   6
ATOM      6  C   UNL     1      24.547   6.834  29.099  1.00  0.00     0.006 C 
BRANCH   6   7
ATOM      7  C   UNL     1      24.143   7.690  30.305  1.00  0.00     0.053 C 
BRANCH   7   8
ATOM      8  C   UNL     1      24.736   9.059  30.197  1.00  0.00     0.041 C 
ATOM      9  O   UNL     1      24.700   9.845  31.180  1.00  0.00    -0.550 OA
ATOM     10  O   UNL     1      25.276   9.490  28.990  1.00  0.00    -0.550 OA
ENDBRANCH   7   8
ENDBRANCH   6   7
ENDBRANCH   5   6
ENDBRANCH   4   5
ENDBRANCH   3   4
ENDBRANCH   2   3
ENDBRANCH   1   2
BRANCH   1  11
ATOM     11  C   UNL     1      19.866   4.846  27.934  1.00  0.00     0.000 C 
BRANCH  11  12
ATOM     12  C   UNL     1      19.943   5.286  29.406  1.00  0.00     0.000 C 
BRANCH  12  13
ATOM     13  C   UNL     1      19.443   4.200  30.372  1.00  0.00     0.000 C 
BRANCH  13  14
ATOM     14  C   UNL     1      20.488   3.826  31.435  1.00  0.00     0.000 C 
BRANCH  14  15
ATOM     15  C   UNL     1      21.727   4.727  31.326  1.00  0.00     0.000 C 
BRANCH  15  16
ATOM     16  C   UNL     1      22.180   5.278  32.687  1.00  0.00     0.006 C 
BRANCH  16  17
ATOM     17  C   UNL     1      21.037   5.934  33.473  1.00  0.00     0.053 C 
BRANCH  17  18
ATOM     18  C   UNL     1      21.318   7.388  33.685  1.00  0.00     0.041 C 
ATOM     19  O   UNL     1      22.142   7.989  32.945  1.00  0.00    -0.550 OA
ATOM     20  O   UNL     1      20.624   8.094  34.659  1.00  0.00    -0.550 OA
ENDBRANCH  17  18
ENDBRANCH  16  17
ENDBRANCH  15  16
ENDBRANCH  14  15
ENDBRANCH  13  14
ENDBRANCH  12  13
ENDBRANCH  11  12
ENDBRANCH   1  11
TORSDOF 15
ENDMDL
MODEL 5
REMARK VINA RESULT:    -3.091     11.253     13.378
REMARK INTER + INTRA:          -8.124
REMARK INTER:                  -5.620
REMARK INTRA:                  -2.504
REMARK UNBOUND:                -2.323
REMARK SMILES O=C([O-])CCCCCCCCCCCCCCC(=O)[O-]
REMARK SMILES IDX 10 1 9 2 8 3 7 4 6 5 5 6 4 7 2 8 1 9 3 10 11 11 12 12 13 13
REMARK SMILES IDX 14 14 15 15 16 16 17 17 18 18 19 19 20 20
REMARK H PARENT
REMARK Flexibility Score: inf
ROOT
ATOM      1  C   UNL     1       8.514   4.852  32.353  1.00  0.00     0.000 C 
ENDROOT
BRANCH   1   2
ATOM      2  C   UNL     1       9.060   4.504  30.957  1.00  0.00     0.000 C 
BRANCH   2   3
ATOM      3  C   UNL     1      10.564   4.190  30.974  1.00  0.00     0.000 C 
BRANCH   3   4
ATOM      4  C   UNL     1      10.860   2.693  30.770  1.00  0.00     0.000 C 
BRANCH   4   5
ATOM      5  C   UNL     1       9.724   1.973  30.012  1.00  0.00     0.000 C 
BRANCH   5   6
ATOM      6  C   UNL     1       9.047   0.861  30.830  1.00  0.00     0.006 C 
BRANCH   6   7
ATOM      7  C   UNL     1       9.967   0.259  31.898  1.00  0.00     0.053 C 
BRANCH   7   8
ATOM      8  C   UNL     1       9.202  -0.014  33.154  1.00  0.00     0.041 C 
ATOM      9  O   UNL     1       7.965  -0.249  33.105  1.00  0.00    -0.550 OA
ATOM     10  O   UNL     1       9.841   0.051  34.387  1.00  0.00    -0.550 OA
ENDBRANCH   7   8
ENDBRANCH   6   7
ENDBRANCH   5   6
ENDBRANCH   4   5
ENDBRANCH   3   4
ENDBRANCH   2   3
ENDBRANCH   1   2
BRANCH   1  11
ATOM     11  C   UNL     1       8.340   3.613  33.247  1.00  0.00     0.000 C 
BRANCH  11  12
ATOM     12  C   UNL     1       9.337   3.584  34.418  1.00  0.00     0.000 C 
BRANCH  12  13
ATOM     13  C   UNL     1       9.951   4.965  34.701  1.00  0.00     0.000 C 
BRANCH  13  14
ATOM     14  C   UNL     1      11.470   4.997  34.466  1.00  0.00     0.000 C 
BRANCH  14  15
ATOM     15  C   UNL     1      11.880   6.272  33.714  1.00  0.00     0.000 C 
BRANCH  15  16
ATOM     16  C   UNL     1      10.801   7.365  33.768  1.00  0.00     0.006 C 
BRANCH  16  17
ATOM     17  C   UNL     1      10.985   8.435  32.683  1.00  0.00     0.053 C 
BRANCH  17  18
ATOM     18  C   UNL     1      10.130   8.125  31.496  1.00  0.00     0.041 C 
ATOM     19  O   UNL     1      10.650   7.679  30.438  1.00  0.00    -0.550 OA
ATOM     20  O   UNL     1       8.750   8.268  31.577  1.00  0.00    -0.550 OA
ENDBRANCH  17  18
ENDBRANCH  16  17
ENDBRANCH  15  16
ENDBRANCH  14  15
ENDBRANCH  13  14
ENDBRANCH  12  13
ENDBRANCH  11  12
ENDBRANCH   1  11
TORSDOF 15
ENDMDL
MODEL 6
REMARK VINA RESULT:    -3.073      3.382      5.864
REMARK INTER + INTRA:          -8.091
REMARK INTER:                  -6.006
REMARK INTRA:                  -2.085
REMARK UNBOUND:                -2.323
REMARK SMILES O=C([O-])CCCCCCCCCCCCCCC(=O)[O-]
REMARK SMILES IDX 10 1 9 2 8 3 7 4 6 5 5 6 4 7 2 8 1 9 3 10 11 11 12 12 13 13
REMARK SMILES IDX 14 14 15 15 16 16 17 17 18 18 19 19 20 20
REMARK H PARENT
REMARK Flexibility Score: inf
ROOT
ATOM      1  C   UNL     1      19.135   6.303  35.839  1.00  0.00     0.000 C 
ENDROOT
BRANCH   1   2
ATOM      2  C   UNL     1      19.911   5.245  36.643  1.00  0.00     0.000 C 
BRANCH   2   3
ATOM      3  C   UNL     1      21.418   5.262  36.338  1.00  0.00     0.000 C 
BRANCH   3   4
ATOM      4  C   UNL     1      21.882   4.010  35.572  1.00  0.00     0.000 C 
BRANCH   4   5
ATOM      5  C   UNL     1      21.555   4.095  34.066  1.00  0.00     0.000 C 
BRANCH   5   6
ATOM      6  C   UNL     1      22.590   4.894  33.255  1.00  0.00     0.006 C 
BRANCH   6   7
ATOM      7  C   UNL     1      21.998   5.531  31.993  1.00  0.00     0.053 C 
BRANCH   7   8
ATOM      8  C   UNL     1      22.575   6.894  31.775  1.00  0.00     0.041 C 
ATOM      9  O   UNL     1      23.397   7.093  30.842  1.00  0.00    -0.550 OA
ATOM     10  O   UNL     1      22.252   7.932  32.640  1.00  0.00    -0.550 OA
ENDBRANCH   7   8
ENDBRANCH   6   7
ENDBRANCH   5   6
ENDBRANCH   4   5
ENDBRANCH   3   4
ENDBRANCH   2   3
ENDBRANCH   1   2
BRANCH   1  11
ATOM     11  C   UNL     1      20.048   7.392  35.255  1.00  0.00     0.000 C 
BRANCH  11  12
ATOM     12  C   UNL     1      19.617   8.810  35.668  1.00  0.00     0.000 C 
BRANCH  12  13
ATOM     13  C   UNL     1      20.815   9.730  35.952  1.00  0.00     0.000 C 
BRANCH  13  14
ATOM     14  C   UNL     1      22.094   8.949  36.293  1.00  0.00     0.000 C 
BRANCH  14  15
ATOM     15  C   UNL     1      22.724   9.470  37.593  1.00  0.00     0.000 C 
BRANCH  15  16
ATOM     16  C   UNL     1      22.849   8.380  38.670  1.00  0.00     0.006 C 
BRANCH  16  17
ATOM     17  C   UNL     1      21.496   7.763  39.050  1.00  0.00     0.053 C 
BRANCH  17  18
ATOM     18  C   UNL     1      20.672   8.749  39.816  1.00  0.00     0.041 C 
ATOM     19  O   UNL     1      21.037   9.127  40.961  1.00  0.00    -0.550 OA
ATOM     20  O   UNL     1      19.534   9.298  39.240  1.00  0.00    -0.550 OA
ENDBRANCH  17  18
ENDBRANCH  16  17
ENDBRANCH  15  16
ENDBRANCH  14  15
ENDBRANCH  13  14
ENDBRANCH  12  13
ENDBRANCH  11  12
ENDBRANCH   1  11
TORSDOF 15
ENDMDL
MODEL 7
REMARK VINA RESULT:    -3.063     10.686     12.759
REMARK INTER + INTRA:          -8.071
REMARK INTER:                  -5.789
REMARK INTRA:                  -2.282
REMARK UNBOUND:                -2.323
REMARK SMILES O=C([O-])CCCCCCCCCCCCCCC(=O)[O-]
REMARK SMILES IDX 10 1 9 2 8 3 7 4 6 5 5 6 4 7 2 8 1 9 3 10 11 11 12 12 13 13
REMARK SMILES IDX 14 14 15 15 16 16 17 17 18 18 19 19 20 20
REMARK H PARENT
REMARK Flexibility Score: inf
ROOT
ATOM      1  C   UNL     1      10.228   8.043  31.396  1.00  0.00     0.000 C 
ENDROOT
BRANCH   1   2
ATOM      2  C   UNL     1       8.718   8.319  31.500  1.00  0.00     0.000 C 
BRANCH   2   3
ATOM      3  C   UNL     1       7.875   7.283  30.740  1.00  0.00     0.000 C 
BRANCH   3   4
ATOM      4  C   UNL     1       8.184   5.837  31.170  1.00  0.00     0.000 C 
BRANCH   4   5
ATOM      5  C   UNL     1       8.790   5.004  30.020  1.00  0.00     0.000 C 
BRANCH   5   6
ATOM      6  C   UNL     1       9.250   3.602  30.452  1.00  0.00     0.006 C 
BRANCH   6   7
ATOM      7  C   UNL     1       9.008   3.326  31.940  1.00  0.00     0.053 C 
BRANCH   7   8
ATOM      8  C   UNL     1       9.486   1.955  32.302  1.00  0.00     0.041 C 
ATOM      9  O   UNL     1       8.927   0.939  31.812  1.00  0.00    -0.550 OA
ATOM     10  O   UNL     1      10.511   1.798  33.228  1.00  0.00    -0.550 OA
ENDBRANCH   7   8
ENDBRANCH   6   7
ENDBRANCH   5   6
ENDBRANCH   4   5
ENDBRANCH   3   4
ENDBRANCH   2   3
ENDBRANCH   1   2
BRANCH   1  11
ATOM     11  C   UNL     1      10.984   8.388  32.690  1.00  0.00     0.000 C 
BRANCH  11  12
ATOM     12  C   UNL     1      10.508   7.555  33.892  1.00  0.00     0.000 C 
BRANCH  12  13
ATOM     13  C   UNL     1      10.778   6.053  33.711  1.00  0.00     0.000 C 
BRANCH  13  14
ATOM     14  C   UNL     1      12.250   5.749  33.393  1.00  0.00     0.000 C 
BRANCH  14  15
ATOM     15  C   UNL     1      12.365   4.687  32.290  1.00  0.00     0.000 C 
BRANCH  15  16
ATOM     16  C   UNL     1      12.508   5.300  30.888  1.00  0.00     0.006 C 
BRANCH  16  17
ATOM     17  C   UNL     1      13.549   4.575  30.025  1.00  0.00     0.053 C 
BRANCH  17  18
ATOM     18  C   UNL     1      13.178   4.662  28.579  1.00  0.00     0.041 C 
ATOM     19  O   UNL     1      14.048   4.469  27.688  1.00  0.00    -0.550 OA
ATOM     20  O   UNL     1      11.858   4.893  28.213  1.00  0.00    -0.550 OA
ENDBRANCH  17  18
ENDBRANCH  16  17
ENDBRANCH  15  16
ENDBRANCH  14  15
ENDBRANCH  13  14
ENDBRANCH  12  13
ENDBRANCH  11  12
ENDBRANCH   1  11
TORSDOF 15
ENDMDL
MODEL 8
REMARK VINA RESULT:    -3.058     11.092     13.421
REMARK INTER + INTRA:          -8.063
REMARK INTER:                  -5.711
REMARK INTRA:                  -2.351
REMARK UNBOUND:                -2.323
REMARK SMILES O=C([O-])CCCCCCCCCCCCCCC(=O)[O-]
REMARK SMILES IDX 10 1 9 2 8 3 7 4 6 5 5 6 4 7 2 8 1 9 3 10 11 11 12 12 13 13
REMARK SMILES IDX 14 14 15 15 16 16 17 17 18 18 19 19 20 20
REMARK H PARENT
REMARK Flexibility Score: inf
ROOT
ATOM      1  C   UNL     1      11.274   7.546  33.402  1.00  0.00     0.000 C 
ENDROOT
BRANCH   1   2
ATOM      2  C   UNL     1      11.098   6.027  33.229  1.00  0.00     0.000 C 
BRANCH   2   3
ATOM      3  C   UNL     1      10.118   5.427  34.249  1.00  0.00     0.000 C 
BRANCH   3   4
ATOM      4  C   UNL     1       9.361   4.205  33.698  1.00  0.00     0.000 C 
BRANCH   4   5
ATOM      5  C   UNL     1      10.072   2.878  34.036  1.00  0.00     0.000 C 
BRANCH   5   6
ATOM      6  C   UNL     1       9.465   1.656  33.327  1.00  0.00     0.006 C 
BRANCH   6   7
ATOM      7  C   UNL     1       8.590   2.036  32.127  1.00  0.00     0.053 C 
BRANCH   7   8
ATOM      8  C   UNL     1       9.033   1.300  30.903  1.00  0.00     0.041 C 
ATOM      9  O   UNL     1       8.533   1.576  29.780  1.00  0.00    -0.550 OA
ATOM     10  O   UNL     1       9.957   0.266  31.009  1.00  0.00    -0.550 OA
ENDBRANCH   7   8
ENDBRANCH   6   7
ENDBRANCH   5   6
ENDBRANCH   4   5
ENDBRANCH   3   4
ENDBRANCH   2   3
ENDBRANCH   1   2
BRANCH   1  11
ATOM     11  C   UNL     1      10.734   8.345  32.205  1.00  0.00     0.000 C 
BRANCH  11  12
ATOM     12  C   UNL     1       9.198   8.322  32.123  1.00  0.00     0.000 C 
BRANCH  12  13
ATOM     13  C   UNL     1       8.688   7.739  30.796  1.00  0.00     0.000 C 
BRANCH  13  14
ATOM     14  C   UNL     1       7.908   6.429  30.986  1.00  0.00     0.000 C 
BRANCH  14  15
ATOM     15  C   UNL     1       8.595   5.270  30.248  1.00  0.00     0.000 C 
BRANCH  15  16
ATOM     16  C   UNL     1       9.943   5.676  29.632  1.00  0.00     0.006 C 
BRANCH  16  17
ATOM     17  C   UNL     1      11.027   4.606  29.819  1.00  0.00     0.053 C 
BRANCH  17  18
ATOM     18  C   UNL     1      12.387   5.213  29.676  1.00  0.00     0.041 C 
ATOM     19  O   UNL     1      12.648   5.963  28.698  1.00  0.00    -0.550 OA
ATOM     20  O   UNL     1      13.348   5.001  30.656  1.00  0.00    -0.550 OA
ENDBRANCH  17  18
ENDBRANCH  16  17
ENDBRANCH  15  16
ENDBRANCH  14  15
ENDBRANCH  13  14
ENDBRANCH  12  13
ENDBRANCH  11  12
ENDBRANCH   1  11
TORSDOF 15
ENDMDL
MODEL 9
REMARK VINA RESULT:    -3.018     10.709     12.624
REMARK INTER + INTRA:          -7.988
REMARK INTER:                  -5.425
REMARK INTRA:                  -2.563
REMARK UNBOUND:                -2.323
REMARK SMILES O=C([O-])CCCCCCCCCCCCCCC(=O)[O-]
REMARK SMILES IDX 10 1 9 2 8 3 7 4 6 5 5 6 4 7 2 8 1 9 3 10 11 11 12 12 13 13
REMARK SMILES IDX 14 14 15 15 16 16 17 17 18 18 19 19 20 20
REMARK H PARENT
REMARK Flexibility Score: inf
ROOT
ATOM      1  C   UNL     1      10.530   8.245  31.589  1.00  0.00     0.000 C 
ENDROOT
BRANCH   1   2
ATOM      2  C   UNL     1       8.993   8.180  31.602  1.00  0.00     0.000 C 
BRANCH   2   3
ATOM      3  C   UNL     1       8.408   7.799  30.232  1.00  0.00     0.000 C 
BRANCH   3   4
ATOM      4  C   UNL     1       7.977   6.322  30.162  1.00  0.00     0.000 C 
BRANCH   4   5
ATOM      5  C   UNL     1       8.143   5.601  31.516  1.00  0.00     0.000 C 
BRANCH   5   6
ATOM      6  C   UNL     1       9.013   4.336  31.438  1.00  0.00     0.006 C 
BRANCH   6   7
ATOM      7  C   UNL     1      10.344   4.570  30.713  1.00  0.00     0.053 C 
BRANCH   7   8
ATOM      8  C   UNL     1      11.115   3.292  30.611  1.00  0.00     0.041 C 
ATOM      9  O   UNL     1      10.868   2.475  29.685  1.00  0.00    -0.550 OA
ATOM     10  O   UNL     1      12.065   2.974  31.574  1.00  0.00    -0.550 OA
ENDBRANCH   7   8
ENDBRANCH   6   7
ENDBRANCH   5   6
ENDBRANCH   4   5
ENDBRANCH   3   4
ENDBRANCH   2   3
ENDBRANCH   1   2
BRANCH   1  11
ATOM     11  C   UNL     1      11.135   8.252  33.002  1.00  0.00     0.000 C 
BRANCH  11  12
ATOM     12  C   UNL     1      10.713   7.026  33.831  1.00  0.00     0.000 C 
BRANCH  12  13
ATOM     13  C   UNL     1      11.774   5.914  33.818  1.00  0.00     0.000 C 
BRANCH  13  14
ATOM     14  C   UNL     1      11.367   4.698  34.665  1.00  0.00     0.000 C 
BRANCH  14  15
ATOM     15  C   UNL     1       9.903   4.808  35.114  1.00  0.00     0.000 C 
BRANCH  15  16
ATOM     16  C   UNL     1       9.159   3.464  35.044  1.00  0.00     0.006 C 
BRANCH  16  17
ATOM     17  C   UNL     1       9.998   2.354  34.397  1.00  0.00     0.053 C 
BRANCH  17  18
ATOM     18  C   UNL     1       9.108   1.323  33.780  1.00  0.00     0.041 C 
ATOM     19  O   UNL     1       8.130   0.859  34.425  1.00  0.00    -0.550 OA
ATOM     20  O   UNL     1       9.320   0.918  32.468  1.00  0.00    -0.550 OA
ENDBRANCH  17  18
ENDBRANCH  16  17
ENDBRANCH  15  16
ENDBRANCH  14  15
ENDBRANCH  13  14
ENDBRANCH  12  13
ENDBRANCH  11  12
ENDBRANCH   1  11
TORSDOF 15
ENDMDL
