MODEL 1
REMARK VINA RESULT:    -6.651      0.000      0.000
REMARK INTER + INTRA:          -7.299
REMARK INTER:                  -7.234
REMARK INTRA:                  -0.065
REMARK UNBOUND:                -0.065
REMARK SMILES COc1cc2ccc(=O)oc2cc1O
REMARK SMILES IDX 3 1 13 2 12 3 11 4 5 5 4 6 6 7 7 8 8 9 9 10 10 11 2 12 1 13
REMARK SMILES IDX 14 14
REMARK H PARENT 14 15
REMARK Flexibility Score: inf
ROOT
ATOM      1  C   UNL     1       9.141 -54.963 -31.134  1.00  0.00     0.161 A 
ATOM      2  C   UNL     1       9.463 -55.377 -29.832  1.00  0.00     0.161 A 
ATOM      3  C   UNL     1       8.453 -55.775 -28.945  1.00  0.00     0.098 A 
ATOM      4  C   UNL     1       7.116 -55.765 -29.350  1.00  0.00     0.142 A 
ATOM      5  C   UNL     1       6.783 -55.350 -30.657  1.00  0.00     0.022 A 
ATOM      6  C   UNL     1       7.792 -54.951 -31.543  1.00  0.00     0.062 A 
ATOM      7  C   UNL     1       5.436 -55.349 -31.033  1.00  0.00     0.019 A 
ATOM      8  C   UNL     1       4.469 -55.754 -30.114  1.00  0.00     0.094 A 
ATOM      9  C   UNL     1       4.872 -56.153 -28.836  1.00  0.00     0.336 A 
ATOM     10  O   UNL     1       4.014 -56.522 -27.991  1.00  0.00    -0.246 OA
ATOM     11  O   UNL     1       6.161 -56.144 -28.504  1.00  0.00    -0.423 OA
ENDROOT
BRANCH   1  12
ATOM     12  O   UNL     1      10.185 -54.574 -31.988  1.00  0.00    -0.493 OA
ATOM     13  C   UNL     1      10.662 -55.347 -33.084  1.00  0.00     0.278 C 
ENDBRANCH   1  12
BRANCH   2  14
ATOM     14  O   UNL     1      10.796 -55.390 -29.425  1.00  0.00    -0.504 OA
ATOM     15  H   UNL     1      11.230 -54.578 -29.001  1.00  0.00     0.293 HD
ENDBRANCH   2  14
TORSDOF 2
ENDMDL
MODEL 2
REMARK VINA RESULT:    -6.452      1.201      4.946
REMARK INTER + INTRA:          -7.083
REMARK INTER:                  -7.020
REMARK INTRA:                  -0.063
REMARK UNBOUND:                -0.065
REMARK SMILES COc1cc2ccc(=O)oc2cc1O
REMARK SMILES IDX 3 1 13 2 12 3 11 4 5 5 4 6 6 7 7 8 8 9 9 10 10 11 2 12 1 13
REMARK SMILES IDX 14 14
REMARK H PARENT 14 15
REMARK Flexibility Score: inf
ROOT
ATOM      1  C   UNL     1       5.118 -56.169 -29.089  1.00  0.00     0.161 A 
ATOM      2  C   UNL     1       6.222 -56.507 -28.292  1.00  0.00     0.161 A 
ATOM      3  C   UNL     1       7.526 -56.270 -28.751  1.00  0.00     0.098 A 
ATOM      4  C   UNL     1       7.737 -55.694 -30.006  1.00  0.00     0.142 A 
ATOM      5  C   UNL     1       6.632 -55.350 -30.814  1.00  0.00     0.022 A 
ATOM      6  C   UNL     1       5.329 -55.588 -30.355  1.00  0.00     0.062 A 
ATOM      7  C   UNL     1       6.874 -54.775 -32.065  1.00  0.00     0.019 A 
ATOM      8  C   UNL     1       8.189 -54.559 -32.476  1.00  0.00     0.094 A 
ATOM      9  C   UNL     1       9.235 -54.925 -31.622  1.00  0.00     0.336 A 
ATOM     10  O   UNL     1      10.430 -54.739 -31.975  1.00  0.00    -0.246 OA
ATOM     11  O   UNL     1       8.977 -55.471 -30.436  1.00  0.00    -0.423 OA
ENDROOT
BRANCH   1  12
ATOM     12  O   UNL     1       3.831 -56.424 -28.588  1.00  0.00    -0.493 OA
ATOM     13  C   UNL     1       3.001 -55.451 -27.964  1.00  0.00     0.278 C 
ENDBRANCH   1  12
BRANCH   2  14
ATOM     14  O   UNL     1       6.016 -57.083 -27.039  1.00  0.00    -0.504 OA
ATOM     15  H   UNL     1       6.740 -57.620 -26.576  1.00  0.00     0.293 HD
ENDBRANCH   2  14
TORSDOF 2
ENDMDL
MODEL 3
REMARK VINA RESULT:    -6.405      1.694      2.706
REMARK INTER + INTRA:          -7.031
REMARK INTER:                  -6.986
REMARK INTRA:                  -0.045
REMARK UNBOUND:                -0.065
REMARK SMILES COc1cc2ccc(=O)oc2cc1O
REMARK SMILES IDX 3 1 13 2 12 3 11 4 5 5 4 6 6 7 7 8 8 9 9 10 10 11 2 12 1 13
REMARK SMILES IDX 14 14
REMARK H PARENT 14 15
REMARK Flexibility Score: inf
ROOT
ATOM      1  C   UNL     1       8.666 -54.618 -30.049  1.00  0.00     0.161 A 
ATOM      2  C   UNL     1       8.183 -54.385 -31.345  1.00  0.00     0.161 A 
ATOM      3  C   UNL     1       6.930 -54.881 -31.734  1.00  0.00     0.098 A 
ATOM      4  C   UNL     1       6.152 -55.612 -30.833  1.00  0.00     0.142 A 
ATOM      5  C   UNL     1       6.630 -55.852 -29.527  1.00  0.00     0.022 A 
ATOM      6  C   UNL     1       7.883 -55.356 -29.139  1.00  0.00     0.062 A 
ATOM      7  C   UNL     1       5.830 -56.587 -28.648  1.00  0.00     0.019 A 
ATOM      8  C   UNL     1       4.591 -57.059 -29.082  1.00  0.00     0.094 A 
ATOM      9  C   UNL     1       4.181 -56.783 -30.391  1.00  0.00     0.336 A 
ATOM     10  O   UNL     1       3.067 -57.201 -30.802  1.00  0.00    -0.246 OA
ATOM     11  O   UNL     1       4.964 -56.081 -31.207  1.00  0.00    -0.423 OA
ENDROOT
BRANCH   1  12
ATOM     12  O   UNL     1       9.926 -54.102 -29.704  1.00  0.00    -0.493 OA
ATOM     13  C   UNL     1      10.505 -54.190 -28.407  1.00  0.00     0.278 C 
ENDBRANCH   1  12
BRANCH   2  14
ATOM     14  O   UNL     1       8.956 -53.656 -32.247  1.00  0.00    -0.504 OA
ATOM     15  H   UNL     1       9.908 -53.924 -32.468  1.00  0.00     0.293 HD
ENDBRANCH   2  14
TORSDOF 2
ENDMDL
MODEL 4
REMARK VINA RESULT:    -6.352      1.950      5.327
REMARK INTER + INTRA:          -6.973
REMARK INTER:                  -6.910
REMARK INTRA:                  -0.063
REMARK UNBOUND:                -0.065
REMARK SMILES COc1cc2ccc(=O)oc2cc1O
REMARK SMILES IDX 3 1 13 2 12 3 11 4 5 5 4 6 6 7 7 8 8 9 9 10 10 11 2 12 1 13
REMARK SMILES IDX 14 14
REMARK H PARENT 14 15
REMARK Flexibility Score: inf
ROOT
ATOM      1  C   UNL     1       5.442 -56.120 -28.073  1.00  0.00     0.161 A 
ATOM      2  C   UNL     1       4.440 -55.756 -28.985  1.00  0.00     0.161 A 
ATOM      3  C   UNL     1       4.770 -55.443 -30.312  1.00  0.00     0.098 A 
ATOM      4  C   UNL     1       6.099 -55.493 -30.737  1.00  0.00     0.142 A 
ATOM      5  C   UNL     1       7.113 -55.858 -29.827  1.00  0.00     0.022 A 
ATOM      6  C   UNL     1       6.784 -56.170 -28.500  1.00  0.00     0.062 A 
ATOM      7  C   UNL     1       8.435 -55.899 -30.281  1.00  0.00     0.019 A 
ATOM      8  C   UNL     1       8.711 -55.579 -31.610  1.00  0.00     0.094 A 
ATOM      9  C   UNL     1       7.655 -55.226 -32.457  1.00  0.00     0.336 A 
ATOM     10  O   UNL     1       7.884 -54.934 -33.660  1.00  0.00    -0.246 OA
ATOM     11  O   UNL     1       6.406 -55.196 -31.998  1.00  0.00    -0.423 OA
ENDROOT
BRANCH   1  12
ATOM     12  O   UNL     1       5.065 -56.425 -26.755  1.00  0.00    -0.493 OA
ATOM     13  C   UNL     1       5.138 -57.723 -26.175  1.00  0.00     0.278 C 
ENDBRANCH   1  12
BRANCH   2  14
ATOM     14  O   UNL     1       3.112 -55.705 -28.564  1.00  0.00    -0.504 OA
ATOM     15  H   UNL     1       2.347 -55.640 -29.226  1.00  0.00     0.293 HD
ENDBRANCH   2  14
TORSDOF 2
ENDMDL
MODEL 5
REMARK VINA RESULT:    -6.314      1.479      5.423
REMARK INTER + INTRA:          -6.932
REMARK INTER:                  -6.887
REMARK INTRA:                  -0.045
REMARK UNBOUND:                -0.065
REMARK SMILES COc1cc2ccc(=O)oc2cc1O
REMARK SMILES IDX 3 1 13 2 12 3 11 4 5 5 4 6 6 7 7 8 8 9 9 10 10 11 2 12 1 13
REMARK SMILES IDX 14 14
REMARK H PARENT 14 15
REMARK Flexibility Score: inf
ROOT
ATOM      1  C   UNL     1       5.400 -56.619 -28.281  1.00  0.00     0.161 A 
ATOM      2  C   UNL     1       4.766 -56.242 -29.475  1.00  0.00     0.161 A 
ATOM      3  C   UNL     1       5.493 -55.615 -30.496  1.00  0.00     0.098 A 
ATOM      4  C   UNL     1       6.857 -55.361 -30.335  1.00  0.00     0.142 A 
ATOM      5  C   UNL     1       7.504 -55.737 -29.139  1.00  0.00     0.022 A 
ATOM      6  C   UNL     1       6.776 -56.363 -28.117  1.00  0.00     0.062 A 
ATOM      7  C   UNL     1       8.870 -55.469 -29.006  1.00  0.00     0.019 A 
ATOM      8  C   UNL     1       9.549 -54.843 -30.051  1.00  0.00     0.094 A 
ATOM      9  C   UNL     1       8.843 -54.499 -31.208  1.00  0.00     0.336 A 
ATOM     10  O   UNL     1       9.438 -53.933 -32.163  1.00  0.00    -0.246 OA
ATOM     11  O   UNL     1       7.543 -54.766 -31.308  1.00  0.00    -0.423 OA
ENDROOT
BRANCH   1  12
ATOM     12  O   UNL     1       4.632 -57.245 -27.286  1.00  0.00    -0.493 OA
ATOM     13  C   UNL     1       5.127 -57.627 -26.007  1.00  0.00     0.278 C 
ENDBRANCH   1  12
BRANCH   2  14
ATOM     14  O   UNL     1       3.405 -56.494 -29.639  1.00  0.00    -0.504 OA
ATOM     15  H   UNL     1       3.011 -56.715 -30.547  1.00  0.00     0.293 HD
ENDBRANCH   2  14
TORSDOF 2
ENDMDL
MODEL 6
REMARK VINA RESULT:    -6.272      1.605      2.857
REMARK INTER + INTRA:          -6.887
REMARK INTER:                  -6.823
REMARK INTRA:                  -0.064
REMARK UNBOUND:                -0.065
REMARK SMILES COc1cc2ccc(=O)oc2cc1O
REMARK SMILES IDX 3 1 13 2 12 3 11 4 5 5 4 6 6 7 7 8 8 9 9 10 10 11 2 12 1 13
REMARK SMILES IDX 14 14
REMARK H PARENT 14 15
REMARK Flexibility Score: inf
ROOT
ATOM      1  C   UNL     1       7.632 -55.832 -30.851  1.00  0.00     0.161 A 
ATOM      2  C   UNL     1       6.600 -55.272 -31.619  1.00  0.00     0.161 A 
ATOM      3  C   UNL     1       5.322 -55.096 -31.068  1.00  0.00     0.098 A 
ATOM      4  C   UNL     1       5.067 -55.476 -29.748  1.00  0.00     0.142 A 
ATOM      5  C   UNL     1       6.099 -56.039 -28.969  1.00  0.00     0.022 A 
ATOM      6  C   UNL     1       7.375 -56.216 -29.519  1.00  0.00     0.062 A 
ATOM      7  C   UNL     1       5.812 -56.410 -27.651  1.00  0.00     0.019 A 
ATOM      8  C   UNL     1       4.526 -56.214 -27.149  1.00  0.00     0.094 A 
ATOM      9  C   UNL     1       3.553 -55.650 -27.980  1.00  0.00     0.336 A 
ATOM     10  O   UNL     1       2.385 -55.466 -27.546  1.00  0.00    -0.246 OA
ATOM     11  O   UNL     1       3.852 -55.306 -29.230  1.00  0.00    -0.423 OA
ENDROOT
BRANCH   1  12
ATOM     12  O   UNL     1       8.895 -55.989 -31.444  1.00  0.00    -0.493 OA
ATOM     13  C   UNL     1       9.989 -55.096 -31.261  1.00  0.00     0.278 C 
ENDBRANCH   1  12
BRANCH   2  14
ATOM     14  O   UNL     1       6.851 -54.892 -32.936  1.00  0.00    -0.504 OA
ATOM     15  H   UNL     1       6.831 -53.920 -33.221  1.00  0.00     0.293 HD
ENDBRANCH   2  14
TORSDOF 2
ENDMDL
MODEL 7
REMARK VINA RESULT:    -6.165      2.810      4.188
REMARK INTER + INTRA:          -6.771
REMARK INTER:                  -6.814
REMARK INTRA:                   0.043
REMARK UNBOUND:                -0.065
REMARK SMILES COc1cc2ccc(=O)oc2cc1O
REMARK SMILES IDX 3 1 13 2 12 3 11 4 5 5 4 6 6 7 7 8 8 9 9 10 10 11 2 12 1 13
REMARK SMILES IDX 14 14
REMARK H PARENT 14 15
REMARK Flexibility Score: inf
ROOT
ATOM      1  C   UNL     1       4.938 -56.003 -29.998  1.00  0.00     0.161 A 
ATOM      2  C   UNL     1       6.008 -56.442 -29.204  1.00  0.00     0.161 A 
ATOM      3  C   UNL     1       5.877 -56.503 -27.809  1.00  0.00     0.098 A 
ATOM      4  C   UNL     1       4.677 -56.130 -27.198  1.00  0.00     0.142 A 
ATOM      5  C   UNL     1       3.596 -55.688 -27.988  1.00  0.00     0.022 A 
ATOM      6  C   UNL     1       3.727 -55.625 -29.382  1.00  0.00     0.062 A 
ATOM      7  C   UNL     1       2.408 -55.319 -27.348  1.00  0.00     0.019 A 
ATOM      8  C   UNL     1       2.327 -55.399 -25.959  1.00  0.00     0.094 A 
ATOM      9  C   UNL     1       3.440 -55.846 -25.239  1.00  0.00     0.336 A 
ATOM     10  O   UNL     1       3.387 -55.924 -23.983  1.00  0.00    -0.246 OA
ATOM     11  O   UNL     1       4.558 -56.190 -25.873  1.00  0.00    -0.423 OA
ENDROOT
BRANCH   1  12
ATOM     12  O   UNL     1       5.115 -55.959 -31.390  1.00  0.00    -0.493 OA
ATOM     13  C   UNL     1       5.818 -54.932 -32.081  1.00  0.00     0.278 C 
ENDBRANCH   1  12
BRANCH   2  14
ATOM     14  O   UNL     1       7.206 -56.816 -29.810  1.00  0.00    -0.504 OA
ATOM     15  H   UNL     1       7.222 -57.353 -30.669  1.00  0.00     0.293 HD
ENDBRANCH   2  14
TORSDOF 2
ENDMDL
MODEL 8
REMARK VINA RESULT:    -6.101      2.477      6.150
REMARK INTER + INTRA:          -6.700
REMARK INTER:                  -6.637
REMARK INTRA:                  -0.064
REMARK UNBOUND:                -0.065
REMARK SMILES COc1cc2ccc(=O)oc2cc1O
REMARK SMILES IDX 3 1 13 2 12 3 11 4 5 5 4 6 6 7 7 8 8 9 9 10 10 11 2 12 1 13
REMARK SMILES IDX 14 14
REMARK H PARENT 14 15
REMARK Flexibility Score: inf
ROOT
ATOM      1  C   UNL     1       2.800 -55.675 -26.829  1.00  0.00     0.161 A 
ATOM      2  C   UNL     1       3.826 -56.269 -26.078  1.00  0.00     0.161 A 
ATOM      3  C   UNL     1       5.063 -56.556 -26.673  1.00  0.00     0.098 A 
ATOM      4  C   UNL     1       5.285 -56.252 -28.018  1.00  0.00     0.142 A 
ATOM      5  C   UNL     1       4.259 -55.654 -28.780  1.00  0.00     0.022 A 
ATOM      6  C   UNL     1       3.022 -55.368 -28.186  1.00  0.00     0.062 A 
ATOM      7  C   UNL     1       4.510 -55.362 -30.125  1.00  0.00     0.019 A 
ATOM      8  C   UNL     1       5.757 -55.666 -30.669  1.00  0.00     0.094 A 
ATOM      9  C   UNL     1       6.727 -56.258 -29.854  1.00  0.00     0.336 A 
ATOM     10  O   UNL     1       7.860 -56.541 -30.327  1.00  0.00    -0.246 OA
ATOM     11  O   UNL     1       6.462 -56.526 -28.578  1.00  0.00    -0.423 OA
ENDROOT
BRANCH   1  12
ATOM     12  O   UNL     1       1.578 -55.406 -26.192  1.00  0.00    -0.493 OA
ATOM     13  C   UNL     1       1.091 -54.100 -25.899  1.00  0.00     0.278 C 
ENDBRANCH   1  12
BRANCH   2  14
ATOM     14  O   UNL     1       3.608 -56.574 -24.736  1.00  0.00    -0.504 OA
ATOM     15  H   UNL     1       4.361 -56.552 -24.058  1.00  0.00     0.293 HD
ENDBRANCH   2  14
TORSDOF 2
ENDMDL
MODEL 9
REMARK VINA RESULT:    -5.913      2.382      4.351
REMARK INTER + INTRA:          -6.496
REMARK INTER:                  -6.433
REMARK INTRA:                  -0.063
REMARK UNBOUND:                -0.065
REMARK SMILES COc1cc2ccc(=O)oc2cc1O
REMARK SMILES IDX 3 1 13 2 12 3 11 4 5 5 4 6 6 7 7 8 8 9 9 10 10 11 2 12 1 13
REMARK SMILES IDX 14 14
REMARK H PARENT 14 15
REMARK Flexibility Score: inf
ROOT
ATOM      1  C   UNL     1       6.090 -56.136 -29.383  1.00  0.00     0.161 A 
ATOM      2  C   UNL     1       5.009 -55.509 -30.021  1.00  0.00     0.161 A 
ATOM      3  C   UNL     1       3.813 -55.280 -29.324  1.00  0.00     0.098 A 
ATOM      4  C   UNL     1       3.689 -55.672 -27.990  1.00  0.00     0.142 A 
ATOM      5  C   UNL     1       4.771 -56.303 -27.341  1.00  0.00     0.022 A 
ATOM      6  C   UNL     1       5.966 -56.534 -28.037  1.00  0.00     0.062 A 
ATOM      7  C   UNL     1       4.617 -56.686 -26.005  1.00  0.00     0.019 A 
ATOM      8  C   UNL     1       3.408 -56.435 -25.357  1.00  0.00     0.094 A 
ATOM      9  C   UNL     1       2.378 -55.805 -26.063  1.00  0.00     0.336 A 
ATOM     10  O   UNL     1       1.279 -55.570 -25.495  1.00  0.00    -0.246 OA
ATOM     11  O   UNL     1       2.552 -55.451 -27.334  1.00  0.00    -0.423 OA
ENDROOT
BRANCH   1  12
ATOM     12  O   UNL     1       7.268 -56.346 -30.119  1.00  0.00    -0.493 OA
ATOM     13  C   UNL     1       8.509 -55.701 -29.855  1.00  0.00     0.278 C 
ENDBRANCH   1  12
BRANCH   2  14
ATOM     14  O   UNL     1       5.129 -55.116 -31.352  1.00  0.00    -0.504 OA
ATOM     15  H   UNL     1       5.177 -55.793 -32.104  1.00  0.00     0.293 HD
ENDBRANCH   2  14
TORSDOF 2
ENDMDL
