MODEL 1
REMARK VINA RESULT:    10.592      0.000      0.000
REMARK INTER + INTRA:          15.186
REMARK INTER:                  14.307
REMARK INTRA:                   0.878
REMARK UNBOUND:                 0.878
REMARK SMILES C=C1CCC=C(C)CC[C@H]2[C@@H]1CC2(C)C
REMARK SMILES IDX 11 1 12 2 13 3 10 4 14 5 15 6 9 7 8 8 6 9 7 10 5 11 2 13
REMARK SMILES IDX 1 14 3 15 4 16
REMARK H PARENT
REMARK Flexibility Score: 70.00
ROOT
ATOM      1  C   UNL     1       0.519   5.910 -10.756  1.00  0.00     0.018 C 
ATOM      2  C   UNL     1      -0.028   5.244 -12.027  1.00  0.00     0.015 C 
ATOM      3  C   UNL     1      -1.450   5.712 -11.665  1.00  0.00    -0.031 C 
ATOM      4  C   UNL     1      -0.899   6.385 -10.379  1.00  0.00     0.002 C 
ATOM      5  C   UNL     1      -2.003   6.736 -12.674  1.00  0.00     0.011 C 
ATOM      6  C   UNL     1      -2.434   4.539 -11.477  1.00  0.00     0.011 C 
ENDROOT
BRANCH   4   7
ATOM      7  C   UNL     1      -1.508   5.929  -9.027  1.00  0.00     0.009 C 
BRANCH   7   8
ATOM      8  C   UNL     1      -1.959   7.112  -8.145  1.00  0.00     0.030 C 
BRANCH   8   9
ATOM      9  C   UNL     1      -0.803   7.777  -7.419  1.00  0.00    -0.077 C 
ATOM     10  C   UNL     1      -0.983   9.195  -6.938  1.00  0.00     0.039 C 
ATOM     11  C   UNL     1       0.379   7.168  -7.167  1.00  0.00    -0.028 CG0
ATOM     12  G   UNL     1       0.704   5.722  -7.456  1.00  0.00     0.000 G0
ENDBRANCH   8   9
ENDBRANCH   7   8
ENDBRANCH   4   7
BRANCH   1  13
ATOM     13  C   UNL     1       1.273   5.003  -9.786  1.00  0.00    -0.074 C 
ATOM     14  C   UNL     1       1.464   3.688 -10.000  1.00  0.00     0.008 C 
BRANCH  13  15
ATOM     15  C   UNL     1       1.808   5.625  -8.515  1.00  0.00     0.035 C 
BRANCH  15  16
ATOM     16  C   UNL     1       0.721   5.733  -7.442  1.00  0.00     0.032 CG0
ATOM     17  G   UNL     1       0.384   7.177  -7.156  1.00  0.00     0.000 G0
ENDBRANCH  15  16
ENDBRANCH  13  15
ENDBRANCH   1  13
TORSDOF 0
ENDMDL
