MODEL 1
REMARK VINA RESULT:    -5.232      0.000      0.000
REMARK INTER + INTRA:          -5.691
REMARK INTER:                  -5.691
REMARK INTRA:                   0.000
REMARK UNBOUND:                 0.000
REMARK SMILES Cc1cc(O)c2c(c1)C(=O)c1cc(O)cc(O)c1C2=O
REMARK SMILES IDX 1 1 2 2 8 3 7 4 6 5 4 6 3 7 19 8 20 9 18 10 11 11 9 12 10 13
REMARK SMILES IDX 12 14 13 15 15 16 16 17 5 18 17 20 14 22
REMARK H PARENT 5 19 17 21 14 23
REMARK Flexibility Score: inf
ROOT
ATOM      1  C   UNL     1      81.075  86.148  -0.706  1.00  0.00     0.044 C 
ATOM      2  C   UNL     1      80.845  86.302   0.768  1.00  0.00    -0.047 A 
ATOM      3  C   UNL     1      81.919  86.561   1.627  1.00  0.00     0.016 A 
ATOM      4  C   UNL     1      81.718  86.677   3.012  1.00  0.00     0.038 A 
ATOM      5  C   UNL     1      80.419  86.533   3.548  1.00  0.00     0.076 A 
ATOM      6  C   UNL     1      79.349  86.186   2.684  1.00  0.00     0.127 A 
ATOM      7  C   UNL     1      79.570  86.095   1.307  1.00  0.00     0.050 A 
ATOM      8  C   UNL     1      80.221  86.809   4.995  1.00  0.00     0.201 C 
ATOM      9  O   UNL     1      79.114  87.252   5.403  1.00  0.00    -0.288 OA
ATOM     10  C   UNL     1      81.379  86.743   5.924  1.00  0.00     0.076 A 
ATOM     11  C   UNL     1      82.677  86.886   5.383  1.00  0.00     0.041 A 
ATOM     12  C   UNL     1      82.863  86.945   3.914  1.00  0.00     0.194 C 
ATOM     13  O   UNL     1      84.002  87.198   3.432  1.00  0.00    -0.289 OA
ATOM     14  C   UNL     1      83.786  86.966   6.242  1.00  0.00     0.059 A 
ATOM     15  C   UNL     1      83.617  86.891   7.627  1.00  0.00     0.120 A 
ATOM     16  C   UNL     1      82.343  86.710   8.162  1.00  0.00     0.093 A 
ATOM     17  C   UNL     1      81.225  86.606   7.329  1.00  0.00     0.131 A 
ENDROOT
BRANCH   6  18
ATOM     18  O   UNL     1      78.066  85.890   3.152  1.00  0.00    -0.507 OA
ATOM     19  H   UNL     1      77.367  85.411   2.601  1.00  0.00     0.293 HD
ENDBRANCH   6  18
BRANCH  17  20
ATOM     20  O   UNL     1      79.995  86.334   7.931  1.00  0.00    -0.507 OA
ATOM     21  H   UNL     1      79.545  85.429   7.900  1.00  0.00     0.293 HD
ENDBRANCH  17  20
BRANCH  15  22
ATOM     22  O   UNL     1      84.714  86.984   8.482  1.00  0.00    -0.508 OA
ATOM     23  H   UNL     1      84.600  87.147   9.475  1.00  0.00     0.293 HD
ENDBRANCH  15  22
TORSDOF 3
ENDMDL
MODEL 2
REMARK VINA RESULT:    -5.193     11.050     13.447
REMARK INTER + INTRA:          -5.649
REMARK INTER:                  -5.649
REMARK INTRA:                   0.000
REMARK UNBOUND:                 0.000
REMARK SMILES Cc1cc(O)c2c(c1)C(=O)c1cc(O)cc(O)c1C2=O
REMARK SMILES IDX 1 1 2 2 8 3 7 4 6 5 4 6 3 7 19 8 20 9 18 10 11 11 9 12 10 13
REMARK SMILES IDX 12 14 13 15 15 16 16 17 5 18 17 20 14 22
REMARK H PARENT 5 19 17 21 14 23
REMARK Flexibility Score: inf
ROOT
ATOM      1  C   UNL     1      76.108  87.957  10.787  1.00  0.00     0.044 C 
ATOM      2  C   UNL     1      75.518  89.170  11.445  1.00  0.00    -0.047 A 
ATOM      3  C   UNL     1      74.248  89.626  11.074  1.00  0.00     0.016 A 
ATOM      4  C   UNL     1      73.699  90.777  11.663  1.00  0.00     0.038 A 
ATOM      5  C   UNL     1      74.433  91.484  12.642  1.00  0.00     0.076 A 
ATOM      6  C   UNL     1      75.752  91.066  12.952  1.00  0.00     0.127 A 
ATOM      7  C   UNL     1      76.269  89.906  12.367  1.00  0.00     0.050 A 
ATOM      8  C   UNL     1      73.761  92.606  13.348  1.00  0.00     0.201 C 
ATOM      9  O   UNL     1      74.084  92.881  14.535  1.00  0.00    -0.288 OA
ATOM     10  C   UNL     1      72.589  93.275  12.726  1.00  0.00     0.076 A 
ATOM     11  C   UNL     1      71.860  92.565  11.745  1.00  0.00     0.041 A 
ATOM     12  C   UNL     1      72.356  91.256  11.258  1.00  0.00     0.194 C 
ATOM     13  O   UNL     1      71.646  90.562  10.479  1.00  0.00    -0.289 OA
ATOM     14  C   UNL     1      70.668  93.106  11.234  1.00  0.00     0.059 A 
ATOM     15  C   UNL     1      70.207  94.349  11.677  1.00  0.00     0.120 A 
ATOM     16  C   UNL     1      70.945  95.070  12.614  1.00  0.00     0.093 A 
ATOM     17  C   UNL     1      72.145  94.563  13.123  1.00  0.00     0.131 A 
ENDROOT
BRANCH   6  18
ATOM     18  O   UNL     1      76.592  91.789  13.803  1.00  0.00    -0.507 OA
ATOM     19  H   UNL     1      77.555  92.007  13.584  1.00  0.00     0.293 HD
ENDBRANCH   6  18
BRANCH  17  20
ATOM     20  O   UNL     1      72.875  95.381  13.988  1.00  0.00    -0.507 OA
ATOM     21  H   UNL     1      73.617  95.996  13.683  1.00  0.00     0.293 HD
ENDBRANCH  17  20
BRANCH  15  22
ATOM     22  O   UNL     1      69.019  94.883  11.181  1.00  0.00    -0.508 OA
ATOM     23  H   UNL     1      68.279  94.290  10.824  1.00  0.00     0.293 HD
ENDBRANCH  15  22
TORSDOF 3
ENDMDL
MODEL 3
REMARK VINA RESULT:    -5.015     11.796     13.896
REMARK INTER + INTRA:          -5.455
REMARK INTER:                  -5.455
REMARK INTRA:                   0.000
REMARK UNBOUND:                 0.000
REMARK SMILES Cc1cc(O)c2c(c1)C(=O)c1cc(O)cc(O)c1C2=O
REMARK SMILES IDX 1 1 2 2 8 3 7 4 6 5 4 6 3 7 19 8 20 9 18 10 11 11 9 12 10 13
REMARK SMILES IDX 12 14 13 15 15 16 16 17 5 18 17 20 14 22
REMARK H PARENT 5 19 17 21 14 23
REMARK Flexibility Score: inf
ROOT
ATOM      1  C   UNL     1      67.911  93.927  14.504  1.00  0.00     0.044 C 
ATOM      2  C   UNL     1      69.012  93.458  13.598  1.00  0.00    -0.047 A 
ATOM      3  C   UNL     1      70.228  93.021  14.135  1.00  0.00     0.016 A 
ATOM      4  C   UNL     1      71.275  92.606  13.295  1.00  0.00     0.038 A 
ATOM      5  C   UNL     1      71.101  92.629  11.893  1.00  0.00     0.076 A 
ATOM      6  C   UNL     1      69.899  93.152  11.353  1.00  0.00     0.127 A 
ATOM      7  C   UNL     1      68.864  93.540  12.210  1.00  0.00     0.050 A 
ATOM      8  C   UNL     1      72.172  92.045  11.044  1.00  0.00     0.201 C 
ATOM      9  O   UNL     1      71.877  91.522   9.935  1.00  0.00    -0.288 OA
ATOM     10  C   UNL     1      73.551  91.910  11.582  1.00  0.00     0.076 A 
ATOM     11  C   UNL     1      73.720  91.891  12.985  1.00  0.00     0.041 A 
ATOM     12  C   UNL     1      72.562  92.152  13.873  1.00  0.00     0.194 C 
ATOM     13  O   UNL     1      72.680  92.011  15.121  1.00  0.00    -0.289 OA
ATOM     14  C   UNL     1      74.987  91.628  13.532  1.00  0.00     0.059 A 
ATOM     15  C   UNL     1      76.085  91.400  12.698  1.00  0.00     0.120 A 
ATOM     16  C   UNL     1      75.931  91.459  11.314  1.00  0.00     0.093 A 
ATOM     17  C   UNL     1      74.684  91.739  10.745  1.00  0.00     0.131 A 
ENDROOT
BRANCH   6  18
ATOM     18  O   UNL     1      69.705  93.338   9.982  1.00  0.00    -0.507 OA
ATOM     19  H   UNL     1      68.793  93.427   9.554  1.00  0.00     0.293 HD
ENDBRANCH   6  18
BRANCH  17  20
ATOM     20  O   UNL     1      74.625  91.872   9.356  1.00  0.00    -0.507 OA
ATOM     21  H   UNL     1      73.868  91.513   8.792  1.00  0.00     0.293 HD
ENDBRANCH  17  20
BRANCH  15  22
ATOM     22  O   UNL     1      77.341  91.127  13.238  1.00  0.00    -0.508 OA
ATOM     23  H   UNL     1      78.178  91.577  12.888  1.00  0.00     0.293 HD
ENDBRANCH  15  22
TORSDOF 3
ENDMDL
MODEL 4
REMARK VINA RESULT:    -4.959     18.141     19.945
REMARK INTER + INTRA:          -5.394
REMARK INTER:                  -5.394
REMARK INTRA:                   0.000
REMARK UNBOUND:                 0.000
REMARK SMILES Cc1cc(O)c2c(c1)C(=O)c1cc(O)cc(O)c1C2=O
REMARK SMILES IDX 1 1 2 2 8 3 7 4 6 5 4 6 3 7 19 8 20 9 18 10 11 11 9 12 10 13
REMARK SMILES IDX 12 14 13 15 15 16 16 17 5 18 17 20 14 22
REMARK H PARENT 5 19 17 21 14 23
REMARK Flexibility Score: inf
ROOT
ATOM      1  C   UNL     1      69.931  95.474   9.097  1.00  0.00     0.044 C 
ATOM      2  C   UNL     1      69.647  96.933   8.895  1.00  0.00    -0.047 A 
ATOM      3  C   UNL     1      68.606  97.338   8.051  1.00  0.00     0.016 A 
ATOM      4  C   UNL     1      68.351  98.702   7.833  1.00  0.00     0.038 A 
ATOM      5  C   UNL     1      69.149  99.678   8.470  1.00  0.00     0.076 A 
ATOM      6  C   UNL     1      70.254  99.262   9.256  1.00  0.00     0.127 A 
ATOM      7  C   UNL     1      70.476  97.899   9.475  1.00  0.00     0.050 A 
ATOM      8  C   UNL     1      68.756 101.105   8.334  1.00  0.00     0.201 C 
ATOM      9  O   UNL     1      69.018 101.918   9.261  1.00  0.00    -0.288 OA
ATOM     10  C   UNL     1      67.896 101.529   7.199  1.00  0.00     0.076 A 
ATOM     11  C   UNL     1      67.101 100.549   6.562  1.00  0.00     0.041 A 
ATOM     12  C   UNL     1      67.251  99.121   6.931  1.00  0.00     0.194 C 
ATOM     13  O   UNL     1      66.458  98.261   6.459  1.00  0.00    -0.289 OA
ATOM     14  C   UNL     1      66.175 100.933   5.578  1.00  0.00     0.059 A 
ATOM     15  C   UNL     1      66.044 102.276   5.213  1.00  0.00     0.120 A 
ATOM     16  C   UNL     1      66.855 103.240   5.810  1.00  0.00     0.093 A 
ATOM     17  C   UNL     1      67.800 102.881   6.778  1.00  0.00     0.131 A 
ENDROOT
BRANCH   6  18
ATOM     18  O   UNL     1      71.171 100.161   9.805  1.00  0.00    -0.507 OA
ATOM     19  H   UNL     1      71.906 100.606   9.271  1.00  0.00     0.293 HD
ENDBRANCH   6  18
BRANCH  17  20
ATOM     20  O   UNL     1      68.638 103.886   7.264  1.00  0.00    -0.507 OA
ATOM     21  H   UNL     1      69.647 103.850   7.205  1.00  0.00     0.293 HD
ENDBRANCH  17  20
BRANCH  15  22
ATOM     22  O   UNL     1      65.117 102.662   4.247  1.00  0.00    -0.508 OA
ATOM     23  H   UNL     1      64.428 103.381   4.430  1.00  0.00     0.293 HD
ENDBRANCH  15  22
TORSDOF 3
ENDMDL
MODEL 5
REMARK VINA RESULT:    -4.835      1.394      3.797
REMARK INTER + INTRA:          -5.259
REMARK INTER:                  -5.259
REMARK INTRA:                   0.000
REMARK UNBOUND:                 0.000
REMARK SMILES Cc1cc(O)c2c(c1)C(=O)c1cc(O)cc(O)c1C2=O
REMARK SMILES IDX 1 1 2 2 8 3 7 4 6 5 4 6 3 7 19 8 20 9 18 10 11 11 9 12 10 13
REMARK SMILES IDX 12 14 13 15 15 16 16 17 5 18 17 20 14 22
REMARK H PARENT 5 19 17 21 14 23
REMARK Flexibility Score: inf
ROOT
ATOM      1  C   UNL     1      81.053  87.166  -2.255  1.00  0.00     0.044 C 
ATOM      2  C   UNL     1      81.487  87.098  -0.820  1.00  0.00    -0.047 A 
ATOM      3  C   UNL     1      80.574  86.731   0.176  1.00  0.00     0.016 A 
ATOM      4  C   UNL     1      80.963  86.692   1.525  1.00  0.00     0.038 A 
ATOM      5  C   UNL     1      82.287  87.027   1.885  1.00  0.00     0.076 A 
ATOM      6  C   UNL     1      83.183  87.480   0.883  1.00  0.00     0.127 A 
ATOM      7  C   UNL     1      82.779  87.490  -0.456  1.00  0.00     0.050 A 
ATOM      8  C   UNL     1      82.701  86.831   3.299  1.00  0.00     0.201 C 
ATOM      9  O   UNL     1      83.901  86.554   3.568  1.00  0.00    -0.288 OA
ATOM     10  C   UNL     1      81.672  86.777   4.369  1.00  0.00     0.076 A 
ATOM     11  C   UNL     1      80.347  86.445   4.004  1.00  0.00     0.041 A 
ATOM     12  C   UNL     1      79.987  86.309   2.573  1.00  0.00     0.194 C 
ATOM     13  O   UNL     1      78.842  85.889   2.248  1.00  0.00    -0.289 OA
ATOM     14  C   UNL     1      79.377  86.250   5.002  1.00  0.00     0.059 A 
ATOM     15  C   UNL     1      79.707  86.397   6.351  1.00  0.00     0.120 A 
ATOM     16  C   UNL     1      81.003  86.764   6.713  1.00  0.00     0.093 A 
ATOM     17  C   UNL     1      81.982  86.985   5.739  1.00  0.00     0.131 A 
ENDROOT
BRANCH   6  18
ATOM     18  O   UNL     1      84.462  87.960   1.174  1.00  0.00    -0.507 OA
ATOM     19  H   UNL     1      85.267  87.797   0.586  1.00  0.00     0.293 HD
ENDBRANCH   6  18
BRANCH  17  20
ATOM     20  O   UNL     1      83.230  87.439   6.171  1.00  0.00    -0.507 OA
ATOM     21  H   UNL     1      83.353  88.108   6.918  1.00  0.00     0.293 HD
ENDBRANCH  17  20
BRANCH  15  22
ATOM     22  O   UNL     1      78.750  86.191   7.343  1.00  0.00    -0.508 OA
ATOM     23  H   UNL     1      78.322  85.285   7.487  1.00  0.00     0.293 HD
ENDBRANCH  15  22
TORSDOF 3
ENDMDL
MODEL 6
REMARK VINA RESULT:    -4.802      1.432      3.733
REMARK INTER + INTRA:          -5.223
REMARK INTER:                  -5.223
REMARK INTRA:                   0.000
REMARK UNBOUND:                 0.000
REMARK SMILES Cc1cc(O)c2c(c1)C(=O)c1cc(O)cc(O)c1C2=O
REMARK SMILES IDX 1 1 2 2 8 3 7 4 6 5 4 6 3 7 19 8 20 9 18 10 11 11 9 12 10 13
REMARK SMILES IDX 12 14 13 15 15 16 16 17 5 18 17 20 14 22
REMARK H PARENT 5 19 17 21 14 23
REMARK Flexibility Score: inf
ROOT
ATOM      1  C   UNL     1      80.280  86.530   1.060  1.00  0.00     0.044 C 
ATOM      2  C   UNL     1      80.925  86.613   2.412  1.00  0.00    -0.047 A 
ATOM      3  C   UNL     1      80.166  86.400   3.569  1.00  0.00     0.016 A 
ATOM      4  C   UNL     1      80.754  86.504   4.840  1.00  0.00     0.038 A 
ATOM      5  C   UNL     1      82.124  86.826   4.957  1.00  0.00     0.076 A 
ATOM      6  C   UNL     1      82.867  87.123   3.786  1.00  0.00     0.127 A 
ATOM      7  C   UNL     1      82.266  86.993   2.531  1.00  0.00     0.050 A 
ATOM      8  C   UNL     1      82.744  86.780   6.308  1.00  0.00     0.201 C 
ATOM      9  O   UNL     1      83.964  86.489   6.428  1.00  0.00    -0.288 OA
ATOM     10  C   UNL     1      81.888  86.892   7.517  1.00  0.00     0.076 A 
ATOM     11  C   UNL     1      80.516  86.572   7.395  1.00  0.00     0.041 A 
ATOM     12  C   UNL     1      79.940  86.284   6.060  1.00  0.00     0.194 C 
ATOM     13  O   UNL     1      78.751  85.875   5.961  1.00  0.00    -0.289 OA
ATOM     14  C   UNL     1      79.704  86.533   8.541  1.00  0.00     0.059 A 
ATOM     15  C   UNL     1      80.239  86.823   9.799  1.00  0.00     0.120 A 
ATOM     16  C   UNL     1      81.581  87.178   9.918  1.00  0.00     0.093 A 
ATOM     17  C   UNL     1      82.407  87.245   8.790  1.00  0.00     0.131 A 
ENDROOT
BRANCH   6  18
ATOM     18  O   UNL     1      84.186  87.583   3.825  1.00  0.00    -0.507 OA
ATOM     19  H   UNL     1      84.440  88.558   3.746  1.00  0.00     0.293 HD
ENDBRANCH   6  18
BRANCH  17  20
ATOM     20  O   UNL     1      83.715  87.697   8.975  1.00  0.00    -0.507 OA
ATOM     21  H   UNL     1      84.086  88.529   8.537  1.00  0.00     0.293 HD
ENDBRANCH  17  20
BRANCH  15  22
ATOM     22  O   UNL     1      79.439  86.772  10.939  1.00  0.00    -0.508 OA
ATOM     23  H   UNL     1      79.840  86.687  11.865  1.00  0.00     0.293 HD
ENDBRANCH  15  22
TORSDOF 3
ENDMDL
MODEL 7
REMARK VINA RESULT:    -4.737     11.193     13.101
REMARK INTER + INTRA:          -5.152
REMARK INTER:                  -5.152
REMARK INTRA:                   0.000
REMARK UNBOUND:                 0.000
REMARK SMILES Cc1cc(O)c2c(c1)C(=O)c1cc(O)cc(O)c1C2=O
REMARK SMILES IDX 1 1 2 2 8 3 7 4 6 5 4 6 3 7 19 8 20 9 18 10 11 11 9 12 10 13
REMARK SMILES IDX 12 14 13 15 15 16 16 17 5 18 17 20 14 22
REMARK H PARENT 5 19 17 21 14 23
REMARK Flexibility Score: inf
ROOT
ATOM      1  C   UNL     1      68.440  94.732  11.813  1.00  0.00     0.044 C 
ATOM      2  C   UNL     1      69.394  93.574  11.827  1.00  0.00    -0.047 A 
ATOM      3  C   UNL     1      70.720  93.758  12.233  1.00  0.00     0.016 A 
ATOM      4  C   UNL     1      71.629  92.687  12.223  1.00  0.00     0.038 A 
ATOM      5  C   UNL     1      71.203  91.409  11.799  1.00  0.00     0.076 A 
ATOM      6  C   UNL     1      69.882  91.247  11.309  1.00  0.00     0.127 A 
ATOM      7  C   UNL     1      68.990  92.323  11.348  1.00  0.00     0.050 A 
ATOM      8  C   UNL     1      72.148  90.270  11.943  1.00  0.00     0.201 C 
ATOM      9  O   UNL     1      71.703  89.107  12.139  1.00  0.00    -0.288 OA
ATOM     10  C   UNL     1      73.607  90.530  12.042  1.00  0.00     0.076 A 
ATOM     11  C   UNL     1      74.029  91.812  12.463  1.00  0.00     0.041 A 
ATOM     12  C   UNL     1      73.034  92.894  12.648  1.00  0.00     0.194 C 
ATOM     13  O   UNL     1      73.388  93.999  13.144  1.00  0.00    -0.289 OA
ATOM     14  C   UNL     1      75.393  92.055  12.701  1.00  0.00     0.059 A 
ATOM     15  C   UNL     1      76.337  91.043  12.509  1.00  0.00     0.120 A 
ATOM     16  C   UNL     1      75.929  89.789  12.055  1.00  0.00     0.093 A 
ATOM     17  C   UNL     1      74.581  89.528  11.791  1.00  0.00     0.131 A 
ENDROOT
BRANCH   6  18
ATOM     18  O   UNL     1      69.427  90.053  10.745  1.00  0.00    -0.507 OA
ATOM     19  H   UNL     1      69.648  89.139  11.117  1.00  0.00     0.293 HD
ENDBRANCH   6  18
BRANCH  17  20
ATOM     20  O   UNL     1      74.260  88.281  11.252  1.00  0.00    -0.507 OA
ATOM     21  H   UNL     1      73.613  87.635  11.683  1.00  0.00     0.293 HD
ENDBRANCH  17  20
BRANCH  15  22
ATOM     22  O   UNL     1      77.688  91.277  12.756  1.00  0.00    -0.508 OA
ATOM     23  H   UNL     1      78.409  90.677  12.374  1.00  0.00     0.293 HD
ENDBRANCH  15  22
TORSDOF 3
ENDMDL
MODEL 8
REMARK VINA RESULT:    -4.697     17.199     18.565
REMARK INTER + INTRA:          -5.108
REMARK INTER:                  -5.108
REMARK INTRA:                   0.000
REMARK UNBOUND:                 0.000
REMARK SMILES Cc1cc(O)c2c(c1)C(=O)c1cc(O)cc(O)c1C2=O
REMARK SMILES IDX 1 1 2 2 8 3 7 4 6 5 4 6 3 7 19 8 20 9 18 10 11 11 9 12 10 13
REMARK SMILES IDX 12 14 13 15 15 16 16 17 5 18 17 20 14 22
REMARK H PARENT 5 19 17 21 14 23
REMARK Flexibility Score: inf
ROOT
ATOM      1  C   UNL     1      66.533 102.381   5.185  1.00  0.00     0.044 C 
ATOM      2  C   UNL     1      67.377 101.815   6.289  1.00  0.00    -0.047 A 
ATOM      3  C   UNL     1      67.620 100.438   6.354  1.00  0.00     0.016 A 
ATOM      4  C   UNL     1      68.385  99.894   7.399  1.00  0.00     0.038 A 
ATOM      5  C   UNL     1      68.917 100.743   8.396  1.00  0.00     0.076 A 
ATOM      6  C   UNL     1      68.596 102.124   8.372  1.00  0.00     0.127 A 
ATOM      7  C   UNL     1      67.850 102.645   7.310  1.00  0.00     0.050 A 
ATOM      8  C   UNL     1      69.842 100.154   9.399  1.00  0.00     0.201 C 
ATOM      9  O   UNL     1      70.749 100.865   9.909  1.00  0.00    -0.288 OA
ATOM     10  C   UNL     1      69.816  98.691   9.659  1.00  0.00     0.076 A 
ATOM     11  C   UNL     1      69.280  97.846   8.660  1.00  0.00     0.041 A 
ATOM     12  C   UNL     1      68.631  98.434   7.464  1.00  0.00     0.194 C 
ATOM     13  O   UNL     1      68.267  97.689   6.513  1.00  0.00    -0.289 OA
ATOM     14  C   UNL     1      69.363  96.451   8.808  1.00  0.00     0.059 A 
ATOM     15  C   UNL     1      69.956  95.893   9.943  1.00  0.00     0.120 A 
ATOM     16  C   UNL     1      70.449  96.723  10.949  1.00  0.00     0.093 A 
ATOM     17  C   UNL     1      70.361  98.114  10.836  1.00  0.00     0.131 A 
ENDROOT
BRANCH   6  18
ATOM     18  O   UNL     1      68.965 103.003   9.393  1.00  0.00    -0.507 OA
ATOM     19  H   UNL     1      69.559 103.808   9.249  1.00  0.00     0.293 HD
ENDBRANCH   6  18
BRANCH  17  20
ATOM     20  O   UNL     1      70.791  98.878  11.923  1.00  0.00    -0.507 OA
ATOM     21  H   UNL     1      70.192  99.513  12.432  1.00  0.00     0.293 HD
ENDBRANCH  17  20
BRANCH  15  22
ATOM     22  O   UNL     1      70.051  94.510  10.087  1.00  0.00    -0.508 OA
ATOM     23  H   UNL     1      70.946  94.047  10.189  1.00  0.00     0.293 HD
ENDBRANCH  15  22
TORSDOF 3
ENDMDL
MODEL 9
REMARK VINA RESULT:    -4.478      8.046     10.509
REMARK INTER + INTRA:          -4.870
REMARK INTER:                  -4.870
REMARK INTRA:                   0.000
REMARK UNBOUND:                 0.000
REMARK SMILES Cc1cc(O)c2c(c1)C(=O)c1cc(O)cc(O)c1C2=O
REMARK SMILES IDX 1 1 2 2 8 3 7 4 6 5 4 6 3 7 19 8 20 9 18 10 11 11 9 12 10 13
REMARK SMILES IDX 12 14 13 15 15 16 16 17 5 18 17 20 14 22
REMARK H PARENT 5 19 17 21 14 23
REMARK Flexibility Score: inf
ROOT
ATOM      1  C   UNL     1      72.929  93.586  13.171  1.00  0.00     0.044 C 
ATOM      2  C   UNL     1      73.274  92.208  12.687  1.00  0.00    -0.047 A 
ATOM      3  C   UNL     1      74.593  91.891  12.344  1.00  0.00     0.016 A 
ATOM      4  C   UNL     1      74.922  90.614  11.863  1.00  0.00     0.038 A 
ATOM      5  C   UNL     1      73.913  89.635  11.722  1.00  0.00     0.076 A 
ATOM      6  C   UNL     1      72.565  89.987  11.990  1.00  0.00     0.127 A 
ATOM      7  C   UNL     1      72.266  91.259  12.487  1.00  0.00     0.050 A 
ATOM      8  C   UNL     1      74.320  88.254  11.354  1.00  0.00     0.201 C 
ATOM      9  O   UNL     1      73.639  87.271  11.753  1.00  0.00    -0.288 OA
ATOM     10  C   UNL     1      75.625  88.024  10.680  1.00  0.00     0.076 A 
ATOM     11  C   UNL     1      76.630  89.007  10.820  1.00  0.00     0.041 A 
ATOM     12  C   UNL     1      76.321  90.290  11.496  1.00  0.00     0.194 C 
ATOM     13  O   UNL     1      77.245  91.115  11.736  1.00  0.00    -0.289 OA
ATOM     14  C   UNL     1      77.919  88.765  10.315  1.00  0.00     0.059 A 
ATOM     15  C   UNL     1      78.210  87.565   9.660  1.00  0.00     0.120 A 
ATOM     16  C   UNL     1      77.209  86.610   9.484  1.00  0.00     0.093 A 
ATOM     17  C   UNL     1      75.913  86.835   9.959  1.00  0.00     0.131 A 
ENDROOT
BRANCH   6  18
ATOM     18  O   UNL     1      71.496  89.123  11.744  1.00  0.00    -0.507 OA
ATOM     19  H   UNL     1      70.719  89.000  12.380  1.00  0.00     0.293 HD
ENDBRANCH   6  18
BRANCH  17  20
ATOM     20  O   UNL     1      74.943  85.875   9.665  1.00  0.00    -0.507 OA
ATOM     21  H   UNL     1      74.418  85.857   8.802  1.00  0.00     0.293 HD
ENDBRANCH  17  20
BRANCH  15  22
ATOM     22  O   UNL     1      79.490  87.317   9.169  1.00  0.00    -0.508 OA
ATOM     23  H   UNL     1      79.645  86.703   8.378  1.00  0.00     0.293 HD
ENDBRANCH  15  22
TORSDOF 3
ENDMDL
