MODEL 1
REMARK VINA RESULT:    -7.659      0.000      0.000
REMARK INTER + INTRA:          -9.216
REMARK INTER:                  -9.450
REMARK INTRA:                   0.233
REMARK UNBOUND:                 0.233
REMARK SMILES O=c1c(O)c(-c2cc(O)c(O)c(O)c2)oc2cc(O)cc(O)c12
REMARK SMILES IDX 5 1 3 2 2 3 1 4 23 5 21 6 20 7 18 8 17 9 16 10 15 11 6 12
REMARK SMILES IDX 7 13 8 14 14 15 10 16 12 17 9 18 11 20 13 22 4 24 22 26
REMARK SMILES IDX 19 28
REMARK H PARENT 9 19 11 21 13 23 4 25 22 27 19 29
REMARK Flexibility Score: inf
ROOT
ATOM      1  C   UNL     1      -8.043   4.489  -9.249  1.00  0.00     0.180 A 
ATOM      2  C   UNL     1      -9.217   4.232  -9.977  1.00  0.00     0.208 A 
ATOM      3  C   UNL     1     -10.423   4.817  -9.556  1.00  0.00     0.238 A 
ATOM      4  O   UNL     1     -11.459   4.625 -10.244  1.00  0.00    -0.285 OA
ATOM      5  C   UNL     1     -10.442   5.639  -8.404  1.00  0.00     0.111 A 
ATOM      6  C   UNL     1     -11.614   6.250  -7.864  1.00  0.00     0.134 A 
ATOM      7  C   UNL     1     -11.494   7.148  -6.797  1.00  0.00     0.093 A 
ATOM      8  C   UNL     1     -10.254   7.407  -6.208  1.00  0.00     0.123 A 
ATOM      9  C   UNL     1      -9.113   6.769  -6.689  1.00  0.00     0.094 A 
ATOM     10  C   UNL     1      -9.195   5.896  -7.776  1.00  0.00     0.146 A 
ATOM     11  O   UNL     1      -8.081   5.317  -8.210  1.00  0.00    -0.452 OA
ENDROOT
BRANCH   1  12
ATOM     12  C   UNL     1      -6.741   3.889  -9.616  1.00  0.00     0.029 A 
ATOM     13  C   UNL     1      -6.708   2.607 -10.187  1.00  0.00     0.062 A 
ATOM     14  C   UNL     1      -5.493   2.024 -10.562  1.00  0.00     0.162 A 
ATOM     15  C   UNL     1      -5.538   4.598  -9.458  1.00  0.00     0.062 A 
ATOM     16  C   UNL     1      -4.291   2.729 -10.382  1.00  0.00     0.200 A 
ATOM     17  C   UNL     1      -4.316   4.022  -9.833  1.00  0.00     0.162 A 
BRANCH  14  18
ATOM     18  O   UNL     1      -5.501   0.742 -11.113  1.00  0.00    -0.504 OA
ATOM     19  H   UNL     1      -5.216   0.564 -12.068  1.00  0.00     0.293 HD
ENDBRANCH  14  18
BRANCH  16  20
ATOM     20  O   UNL     1      -3.082   2.139 -10.757  1.00  0.00    -0.502 OA
ATOM     21  H   UNL     1      -2.213   2.336 -10.276  1.00  0.00     0.293 HD
ENDBRANCH  16  20
BRANCH  17  22
ATOM     22  O   UNL     1      -3.128   4.733  -9.665  1.00  0.00    -0.504 OA
ATOM     23  H   UNL     1      -3.126   5.698  -9.357  1.00  0.00     0.293 HD
ENDBRANCH  17  22
ENDBRANCH   1  12
BRANCH   2  24
ATOM     24  O   UNL     1      -9.171   3.435 -11.125  1.00  0.00    -0.502 OA
ATOM     25  H   UNL     1      -8.320   2.986 -11.441  1.00  0.00     0.293 HD
ENDBRANCH   2  24
BRANCH   6  26
ATOM     26  O   UNL     1     -12.910   5.989  -8.319  1.00  0.00    -0.507 OA
ATOM     27  H   UNL     1     -13.141   5.687  -9.253  1.00  0.00     0.293 HD
ENDBRANCH   6  26
BRANCH   8  28
ATOM     28  O   UNL     1     -10.146   8.291  -5.135  1.00  0.00    -0.508 OA
ATOM     29  H   UNL     1     -10.078   9.291  -5.278  1.00  0.00     0.293 HD
ENDBRANCH   8  28
TORSDOF 7
ENDMDL
MODEL 2
REMARK VINA RESULT:    -7.490      1.375      2.099
REMARK INTER + INTRA:          -9.007
REMARK INTER:                  -8.642
REMARK INTRA:                  -0.365
REMARK UNBOUND:                 0.233
REMARK SMILES O=c1c(O)c(-c2cc(O)c(O)c(O)c2)oc2cc(O)cc(O)c12
REMARK SMILES IDX 5 1 3 2 2 3 1 4 23 5 21 6 20 7 18 8 17 9 16 10 15 11 6 12
REMARK SMILES IDX 7 13 8 14 14 15 10 16 12 17 9 18 11 20 13 22 4 24 22 26
REMARK SMILES IDX 19 28
REMARK H PARENT 9 19 11 21 13 23 4 25 22 27 19 29
REMARK Flexibility Score: inf
ROOT
ATOM      1  C   UNL     1      -6.968   4.360  -9.222  1.00  0.00     0.180 A 
ATOM      2  C   UNL     1      -7.964   3.792 -10.035  1.00  0.00     0.208 A 
ATOM      3  C   UNL     1      -9.312   4.071  -9.756  1.00  0.00     0.238 A 
ATOM      4  O   UNL     1     -10.196   3.603 -10.520  1.00  0.00    -0.285 OA
ATOM      5  C   UNL     1      -9.647   4.903  -8.661  1.00  0.00     0.111 A 
ATOM      6  C   UNL     1     -10.981   5.220  -8.263  1.00  0.00     0.134 A 
ATOM      7  C   UNL     1     -11.193   6.157  -7.244  1.00  0.00     0.093 A 
ATOM      8  C   UNL     1     -10.119   6.738  -6.565  1.00  0.00     0.123 A 
ATOM      9  C   UNL     1      -8.814   6.389  -6.906  1.00  0.00     0.094 A 
ATOM     10  C   UNL     1      -8.571   5.485  -7.942  1.00  0.00     0.146 A 
ATOM     11  O   UNL     1      -7.311   5.188  -8.242  1.00  0.00    -0.452 OA
ENDROOT
BRANCH   1  12
ATOM     12  C   UNL     1      -5.528   4.092  -9.437  1.00  0.00     0.029 A 
ATOM     13  C   UNL     1      -4.758   5.006 -10.173  1.00  0.00     0.062 A 
ATOM     14  C   UNL     1      -3.391   4.788 -10.374  1.00  0.00     0.162 A 
ATOM     15  C   UNL     1      -4.901   2.968  -8.872  1.00  0.00     0.062 A 
ATOM     16  C   UNL     1      -2.773   3.652  -9.824  1.00  0.00     0.200 A 
ATOM     17  C   UNL     1      -3.531   2.744  -9.068  1.00  0.00     0.162 A 
BRANCH  14  18
ATOM     18  O   UNL     1      -2.663   5.713 -11.123  1.00  0.00    -0.504 OA
ATOM     19  H   UNL     1      -3.069   6.212 -11.905  1.00  0.00     0.293 HD
ENDBRANCH  14  18
BRANCH  16  20
ATOM     20  O   UNL     1      -1.408   3.441 -10.032  1.00  0.00    -0.502 OA
ATOM     21  H   UNL     1      -0.782   3.179  -9.281  1.00  0.00     0.293 HD
ENDBRANCH  16  20
BRANCH  17  22
ATOM     22  O   UNL     1      -2.921   1.622  -8.507  1.00  0.00    -0.504 OA
ATOM     23  H   UNL     1      -3.286   1.180  -7.671  1.00  0.00     0.293 HD
ENDBRANCH  17  22
ENDBRANCH   1  12
BRANCH   2  24
ATOM     24  O   UNL     1      -7.610   2.992 -11.125  1.00  0.00    -0.502 OA
ATOM     25  H   UNL     1      -7.098   2.124 -11.019  1.00  0.00     0.293 HD
ENDBRANCH   2  24
BRANCH   6  26
ATOM     26  O   UNL     1     -12.122   4.628  -8.813  1.00  0.00    -0.507 OA
ATOM     27  H   UNL     1     -12.498   4.844  -9.723  1.00  0.00     0.293 HD
ENDBRANCH   6  26
BRANCH   8  28
ATOM     28  O   UNL     1     -10.339   7.658  -5.541  1.00  0.00    -0.508 OA
ATOM     29  H   UNL     1      -9.593   7.949  -4.921  1.00  0.00     0.293 HD
ENDBRANCH   8  28
TORSDOF 7
ENDMDL
MODEL 3
REMARK VINA RESULT:    -7.054      1.830      7.076
REMARK INTER + INTRA:          -8.470
REMARK INTER:                  -8.107
REMARK INTRA:                  -0.363
REMARK UNBOUND:                 0.233
REMARK SMILES O=c1c(O)c(-c2cc(O)c(O)c(O)c2)oc2cc(O)cc(O)c12
REMARK SMILES IDX 5 1 3 2 2 3 1 4 23 5 21 6 20 7 18 8 17 9 16 10 15 11 6 12
REMARK SMILES IDX 7 13 8 14 14 15 10 16 12 17 9 18 11 20 13 22 4 24 22 26
REMARK SMILES IDX 19 28
REMARK H PARENT 9 19 11 21 13 23 4 25 22 27 19 29
REMARK Flexibility Score: inf
ROOT
ATOM      1  C   UNL     1      -7.010   5.492  -9.098  1.00  0.00     0.180 A 
ATOM      2  C   UNL     1      -6.340   6.604  -9.636  1.00  0.00     0.208 A 
ATOM      3  C   UNL     1      -4.949   6.537  -9.820  1.00  0.00     0.238 A 
ATOM      4  O   UNL     1      -4.362   7.515 -10.352  1.00  0.00    -0.285 OA
ATOM      5  C   UNL     1      -4.245   5.365  -9.450  1.00  0.00     0.111 A 
ATOM      6  C   UNL     1      -2.831   5.203  -9.555  1.00  0.00     0.134 A 
ATOM      7  C   UNL     1      -2.257   3.955  -9.282  1.00  0.00     0.093 A 
ATOM      8  C   UNL     1      -3.039   2.884  -8.845  1.00  0.00     0.123 A 
ATOM      9  C   UNL     1      -4.412   3.050  -8.681  1.00  0.00     0.094 A 
ATOM     10  C   UNL     1      -5.018   4.272  -8.980  1.00  0.00     0.146 A 
ATOM     11  O   UNL     1      -6.332   4.384  -8.821  1.00  0.00    -0.452 OA
ENDROOT
BRANCH   1  12
ATOM     12  C   UNL     1      -8.470   5.497  -8.851  1.00  0.00     0.029 A 
ATOM     13  C   UNL     1      -9.342   5.048  -9.855  1.00  0.00     0.062 A 
ATOM     14  C   UNL     1     -10.724   5.022  -9.642  1.00  0.00     0.162 A 
ATOM     15  C   UNL     1      -9.001   5.887  -7.609  1.00  0.00     0.062 A 
ATOM     16  C   UNL     1     -11.251   5.434  -8.406  1.00  0.00     0.200 A 
ATOM     17  C   UNL     1     -10.385   5.862  -7.387  1.00  0.00     0.162 A 
BRANCH  14  18
ATOM     18  O   UNL     1     -11.558   4.584 -10.671  1.00  0.00    -0.504 OA
ATOM     19  H   UNL     1     -12.560   4.502 -10.554  1.00  0.00     0.293 HD
ENDBRANCH  14  18
BRANCH  16  20
ATOM     20  O   UNL     1     -12.632   5.407  -8.202  1.00  0.00    -0.502 OA
ATOM     21  H   UNL     1     -13.221   6.210  -8.390  1.00  0.00     0.293 HD
ENDBRANCH  16  20
BRANCH  17  22
ATOM     22  O   UNL     1     -10.900   6.258  -6.153  1.00  0.00    -0.504 OA
ATOM     23  H   UNL     1     -11.887   6.180  -5.939  1.00  0.00     0.293 HD
ENDBRANCH  17  22
ENDBRANCH   1  12
BRANCH   2  24
ATOM     24  O   UNL     1      -7.057   7.742 -10.015  1.00  0.00    -0.502 OA
ATOM     25  H   UNL     1      -7.366   8.438  -9.346  1.00  0.00     0.293 HD
ENDBRANCH   2  24
BRANCH   6  26
ATOM     26  O   UNL     1      -1.950   6.234  -9.895  1.00  0.00    -0.507 OA
ATOM     27  H   UNL     1      -1.469   6.822  -9.230  1.00  0.00     0.293 HD
ENDBRANCH   6  26
BRANCH   8  28
ATOM     28  O   UNL     1      -2.457   1.649  -8.560  1.00  0.00    -0.508 OA
ATOM     29  H   UNL     1      -1.693   1.282  -9.115  1.00  0.00     0.293 HD
ENDBRANCH   8  28
TORSDOF 7
ENDMDL
MODEL 4
REMARK VINA RESULT:    -6.813      1.631      6.904
REMARK INTER + INTRA:          -8.172
REMARK INTER:                  -8.429
REMARK INTRA:                   0.256
REMARK UNBOUND:                 0.233
REMARK SMILES O=c1c(O)c(-c2cc(O)c(O)c(O)c2)oc2cc(O)cc(O)c12
REMARK SMILES IDX 5 1 3 2 2 3 1 4 23 5 21 6 20 7 18 8 17 9 16 10 15 11 6 12
REMARK SMILES IDX 7 13 8 14 14 15 10 16 12 17 9 18 11 20 13 22 4 24 22 26
REMARK SMILES IDX 19 28
REMARK H PARENT 9 19 11 21 13 23 4 25 22 27 19 29
REMARK Flexibility Score: inf
ROOT
ATOM      1  C   UNL     1      -6.578   3.979  -9.421  1.00  0.00     0.180 A 
ATOM      2  C   UNL     1      -6.276   2.789 -10.104  1.00  0.00     0.208 A 
ATOM      3  C   UNL     1      -4.931   2.406 -10.242  1.00  0.00     0.238 A 
ATOM      4  O   UNL     1      -4.670   1.312 -10.807  1.00  0.00    -0.285 OA
ATOM      5  C   UNL     1      -3.907   3.225  -9.709  1.00  0.00     0.111 A 
ATOM      6  C   UNL     1      -2.510   2.954  -9.825  1.00  0.00     0.134 A 
ATOM      7  C   UNL     1      -1.591   3.764  -9.147  1.00  0.00     0.093 A 
ATOM      8  C   UNL     1      -2.015   4.873  -8.411  1.00  0.00     0.123 A 
ATOM      9  C   UNL     1      -3.372   5.181  -8.341  1.00  0.00     0.094 A 
ATOM     10  C   UNL     1      -4.315   4.370  -8.977  1.00  0.00     0.146 A 
ATOM     11  O   UNL     1      -5.600   4.693  -8.876  1.00  0.00    -0.452 OA
ENDROOT
BRANCH   1  12
ATOM     12  C   UNL     1      -7.969   4.462  -9.257  1.00  0.00     0.029 A 
ATOM     13  C   UNL     1      -8.920   4.174 -10.248  1.00  0.00     0.062 A 
ATOM     14  C   UNL     1     -10.245   4.599 -10.111  1.00  0.00     0.162 A 
ATOM     15  C   UNL     1      -8.372   5.153  -8.102  1.00  0.00     0.062 A 
ATOM     16  C   UNL     1     -10.639   5.309  -8.963  1.00  0.00     0.200 A 
ATOM     17  C   UNL     1      -9.698   5.581  -7.955  1.00  0.00     0.162 A 
BRANCH  14  18
ATOM     18  O   UNL     1     -11.157   4.307 -11.124  1.00  0.00    -0.504 OA
ATOM     19  H   UNL     1     -10.861   4.043 -12.056  1.00  0.00     0.293 HD
ENDBRANCH  14  18
BRANCH  16  20
ATOM     20  O   UNL     1     -11.963   5.732  -8.834  1.00  0.00    -0.502 OA
ATOM     21  H   UNL     1     -12.234   6.467  -8.192  1.00  0.00     0.293 HD
ENDBRANCH  16  20
BRANCH  17  22
ATOM     22  O   UNL     1     -10.085   6.272  -6.808  1.00  0.00    -0.504 OA
ATOM     23  H   UNL     1      -9.829   7.241  -6.659  1.00  0.00     0.293 HD
ENDBRANCH  17  22
ENDBRANCH   1  12
BRANCH   2  24
ATOM     24  O   UNL     1      -7.303   1.984 -10.603  1.00  0.00    -0.502 OA
ATOM     25  H   UNL     1      -7.162   1.011 -10.847  1.00  0.00     0.293 HD
ENDBRANCH   2  24
BRANCH   6  26
ATOM     26  O   UNL     1      -1.977   1.927 -10.610  1.00  0.00    -0.507 OA
ATOM     27  H   UNL     1      -2.283   1.699 -11.543  1.00  0.00     0.293 HD
ENDBRANCH   6  26
BRANCH   8  28
ATOM     28  O   UNL     1      -1.092   5.684  -7.752  1.00  0.00    -0.508 OA
ATOM     29  H   UNL     1      -0.138   5.776  -8.080  1.00  0.00     0.293 HD
ENDBRANCH   8  28
TORSDOF 7
ENDMDL
MODEL 5
REMARK VINA RESULT:    -6.753      1.563      6.938
REMARK INTER + INTRA:          -8.099
REMARK INTER:                  -8.080
REMARK INTRA:                  -0.019
REMARK UNBOUND:                 0.233
REMARK SMILES O=c1c(O)c(-c2cc(O)c(O)c(O)c2)oc2cc(O)cc(O)c12
REMARK SMILES IDX 5 1 3 2 2 3 1 4 23 5 21 6 20 7 18 8 17 9 16 10 15 11 6 12
REMARK SMILES IDX 7 13 8 14 14 15 10 16 12 17 9 18 11 20 13 22 4 24 22 26
REMARK SMILES IDX 19 28
REMARK H PARENT 9 19 11 21 13 23 4 25 22 27 19 29
REMARK Flexibility Score: inf
ROOT
ATOM      1  C   UNL     1      -6.902   4.131  -9.386  1.00  0.00     0.180 A 
ATOM      2  C   UNL     1      -6.509   2.934 -10.007  1.00  0.00     0.208 A 
ATOM      3  C   UNL     1      -5.139   2.668 -10.169  1.00  0.00     0.238 A 
ATOM      4  O   UNL     1      -4.794   1.570 -10.677  1.00  0.00    -0.285 OA
ATOM      5  C   UNL     1      -4.181   3.609  -9.721  1.00  0.00     0.111 A 
ATOM      6  C   UNL     1      -2.769   3.460  -9.870  1.00  0.00     0.134 A 
ATOM      7  C   UNL     1      -1.911   4.392  -9.273  1.00  0.00     0.093 A 
ATOM      8  C   UNL     1      -2.415   5.501  -8.590  1.00  0.00     0.123 A 
ATOM      9  C   UNL     1      -3.792   5.686  -8.491  1.00  0.00     0.094 A 
ATOM     10  C   UNL     1      -4.673   4.755  -9.044  1.00  0.00     0.146 A 
ATOM     11  O   UNL     1      -5.979   4.964  -8.918  1.00  0.00    -0.452 OA
ENDROOT
BRANCH   1  12
ATOM     12  C   UNL     1      -8.326   4.494  -9.203  1.00  0.00     0.029 A 
ATOM     13  C   UNL     1      -8.755   5.004  -7.968  1.00  0.00     0.062 A 
ATOM     14  C   UNL     1     -10.090   5.374  -7.773  1.00  0.00     0.162 A 
ATOM     15  C   UNL     1      -9.248   4.393 -10.258  1.00  0.00     0.062 A 
ATOM     16  C   UNL     1     -11.013   5.250  -8.826  1.00  0.00     0.200 A 
ATOM     17  C   UNL     1     -10.587   4.762 -10.072  1.00  0.00     0.162 A 
BRANCH  14  18
ATOM     18  O   UNL     1     -10.480   5.862  -6.526  1.00  0.00    -0.504 OA
ATOM     19  H   UNL     1      -9.958   6.582  -6.041  1.00  0.00     0.293 HD
ENDBRANCH  14  18
BRANCH  16  20
ATOM     20  O   UNL     1     -12.344   5.619  -8.622  1.00  0.00    -0.502 OA
ATOM     21  H   UNL     1     -13.007   5.010  -8.158  1.00  0.00     0.293 HD
ENDBRANCH  16  20
BRANCH  17  22
ATOM     22  O   UNL     1     -11.495   4.651 -11.125  1.00  0.00    -0.504 OA
ATOM     23  H   UNL     1     -12.493   4.588 -10.962  1.00  0.00     0.293 HD
ENDBRANCH  17  22
ENDBRANCH   1  12
BRANCH   2  24
ATOM     24  O   UNL     1      -7.471   2.009 -10.421  1.00  0.00    -0.502 OA
ATOM     25  H   UNL     1      -8.243   1.724  -9.829  1.00  0.00     0.293 HD
ENDBRANCH   2  24
BRANCH   6  26
ATOM     26  O   UNL     1      -2.166   2.440 -10.610  1.00  0.00    -0.507 OA
ATOM     27  H   UNL     1      -1.210   2.451 -10.932  1.00  0.00     0.293 HD
ENDBRANCH   6  26
BRANCH   8  28
ATOM     28  O   UNL     1      -1.553   6.432  -8.012  1.00  0.00    -0.508 OA
ATOM     29  H   UNL     1      -0.555   6.265  -7.953  1.00  0.00     0.293 HD
ENDBRANCH   8  28
TORSDOF 7
ENDMDL
MODEL 6
REMARK VINA RESULT:    -6.641      2.472      4.142
REMARK INTER + INTRA:          -7.961
REMARK INTER:                  -7.617
REMARK INTRA:                  -0.343
REMARK UNBOUND:                 0.233
REMARK SMILES O=c1c(O)c(-c2cc(O)c(O)c(O)c2)oc2cc(O)cc(O)c12
REMARK SMILES IDX 5 1 3 2 2 3 1 4 23 5 21 6 20 7 18 8 17 9 16 10 15 11 6 12
REMARK SMILES IDX 7 13 8 14 14 15 10 16 12 17 9 18 11 20 13 22 4 24 22 26
REMARK SMILES IDX 19 28
REMARK H PARENT 9 19 11 21 13 23 4 25 22 27 19 29
REMARK Flexibility Score: inf
ROOT
ATOM      1  C   UNL     1      -4.836   4.201  -9.269  1.00  0.00     0.180 A 
ATOM      2  C   UNL     1      -5.494   3.010  -9.619  1.00  0.00     0.208 A 
ATOM      3  C   UNL     1      -6.884   3.034  -9.821  1.00  0.00     0.238 A 
ATOM      4  O   UNL     1      -7.459   1.976 -10.186  1.00  0.00    -0.285 OA
ATOM      5  C   UNL     1      -7.599   4.244  -9.656  1.00  0.00     0.111 A 
ATOM      6  C   UNL     1      -9.014   4.375  -9.797  1.00  0.00     0.134 A 
ATOM      7  C   UNL     1      -9.598   5.646  -9.740  1.00  0.00     0.093 A 
ATOM      8  C   UNL     1      -8.828   6.782  -9.482  1.00  0.00     0.123 A 
ATOM      9  C   UNL     1      -7.455   6.657  -9.284  1.00  0.00     0.094 A 
ATOM     10  C   UNL     1      -6.837   5.407  -9.371  1.00  0.00     0.146 A 
ATOM     11  O   UNL     1      -5.524   5.334  -9.186  1.00  0.00    -0.452 OA
ENDROOT
BRANCH   1  12
ATOM     12  C   UNL     1      -3.378   4.250  -9.015  1.00  0.00     0.029 A 
ATOM     13  C   UNL     1      -2.884   3.871  -7.757  1.00  0.00     0.062 A 
ATOM     14  C   UNL     1      -1.510   3.887  -7.495  1.00  0.00     0.162 A 
ATOM     15  C   UNL     1      -2.471   4.613 -10.025  1.00  0.00     0.062 A 
ATOM     16  C   UNL     1      -0.608   4.272  -8.503  1.00  0.00     0.200 A 
ATOM     17  C   UNL     1      -1.093   4.631  -9.772  1.00  0.00     0.162 A 
BRANCH  14  18
ATOM     18  O   UNL     1      -1.059   3.518  -6.228  1.00  0.00    -0.504 OA
ATOM     19  H   UNL     1      -1.628   3.634  -5.399  1.00  0.00     0.293 HD
ENDBRANCH  14  18
BRANCH  16  20
ATOM     20  O   UNL     1       0.762   4.288  -8.233  1.00  0.00    -0.502 OA
ATOM     21  H   UNL     1       1.206   3.584  -7.656  1.00  0.00     0.293 HD
ENDBRANCH  16  20
BRANCH  17  22
ATOM     22  O   UNL     1      -0.202   4.999 -10.780  1.00  0.00    -0.504 OA
ATOM     23  H   UNL     1      -0.511   5.503 -11.603  1.00  0.00     0.293 HD
ENDBRANCH  17  22
ENDBRANCH   1  12
BRANCH   2  24
ATOM     24  O   UNL     1      -4.766   1.831  -9.797  1.00  0.00    -0.502 OA
ATOM     25  H   UNL     1      -4.750   1.091  -9.105  1.00  0.00     0.293 HD
ENDBRANCH   2  24
BRANCH   6  26
ATOM     26  O   UNL     1      -9.884   3.294  -9.965  1.00  0.00    -0.507 OA
ATOM     27  H   UNL     1     -10.037   2.567  -9.283  1.00  0.00     0.293 HD
ENDBRANCH   6  26
BRANCH   8  28
ATOM     28  O   UNL     1      -9.420   8.042  -9.411  1.00  0.00    -0.508 OA
ATOM     29  H   UNL     1      -9.608   8.587 -10.245  1.00  0.00     0.293 HD
ENDBRANCH   8  28
TORSDOF 7
ENDMDL
MODEL 7
REMARK VINA RESULT:    -6.599      1.846      7.392
REMARK INTER + INTRA:          -7.908
REMARK INTER:                  -7.827
REMARK INTRA:                  -0.081
REMARK UNBOUND:                 0.233
REMARK SMILES O=c1c(O)c(-c2cc(O)c(O)c(O)c2)oc2cc(O)cc(O)c12
REMARK SMILES IDX 5 1 3 2 2 3 1 4 23 5 21 6 20 7 18 8 17 9 16 10 15 11 6 12
REMARK SMILES IDX 7 13 8 14 14 15 10 16 12 17 9 18 11 20 13 22 4 24 22 26
REMARK SMILES IDX 19 28
REMARK H PARENT 9 19 11 21 13 23 4 25 22 27 19 29
REMARK Flexibility Score: inf
ROOT
ATOM      1  C   UNL     1      -6.760   6.292  -8.524  1.00  0.00     0.180 A 
ATOM      2  C   UNL     1      -5.618   6.985  -8.959  1.00  0.00     0.208 A 
ATOM      3  C   UNL     1      -4.655   6.301  -9.720  1.00  0.00     0.238 A 
ATOM      4  O   UNL     1      -3.661   6.941 -10.152  1.00  0.00    -0.285 OA
ATOM      5  C   UNL     1      -4.840   4.930 -10.022  1.00  0.00     0.111 A 
ATOM      6  C   UNL     1      -3.910   4.129 -10.751  1.00  0.00     0.134 A 
ATOM      7  C   UNL     1      -4.256   2.819 -11.104  1.00  0.00     0.093 A 
ATOM      8  C   UNL     1      -5.471   2.261 -10.698  1.00  0.00     0.123 A 
ATOM      9  C   UNL     1      -6.359   3.015  -9.935  1.00  0.00     0.094 A 
ATOM     10  C   UNL     1      -6.058   4.337  -9.598  1.00  0.00     0.146 A 
ATOM     11  O   UNL     1      -6.937   5.025  -8.878  1.00  0.00    -0.452 OA
ENDROOT
BRANCH   1  12
ATOM     12  C   UNL     1      -7.806   6.938  -7.697  1.00  0.00     0.029 A 
ATOM     13  C   UNL     1      -9.153   6.819  -8.072  1.00  0.00     0.062 A 
ATOM     14  C   UNL     1     -10.163   7.402  -7.300  1.00  0.00     0.162 A 
ATOM     15  C   UNL     1      -7.483   7.620  -6.512  1.00  0.00     0.062 A 
ATOM     16  C   UNL     1      -9.833   8.101  -6.125  1.00  0.00     0.200 A 
ATOM     17  C   UNL     1      -8.489   8.205  -5.731  1.00  0.00     0.162 A 
BRANCH  14  18
ATOM     18  O   UNL     1     -11.489   7.274  -7.714  1.00  0.00    -0.504 OA
ATOM     19  H   UNL     1     -11.735   6.947  -8.640  1.00  0.00     0.293 HD
ENDBRANCH  14  18
BRANCH  16  20
ATOM     20  O   UNL     1     -10.848   8.681  -5.361  1.00  0.00    -0.502 OA
ATOM     21  H   UNL     1     -10.828   9.657  -5.092  1.00  0.00     0.293 HD
ENDBRANCH  16  20
BRANCH  17  22
ATOM     22  O   UNL     1      -8.157   8.885  -4.559  1.00  0.00    -0.504 OA
ATOM     23  H   UNL     1      -8.636   8.704  -3.685  1.00  0.00     0.293 HD
ENDBRANCH  17  22
ENDBRANCH   1  12
BRANCH   2  24
ATOM     24  O   UNL     1      -5.466   8.344  -8.668  1.00  0.00    -0.502 OA
ATOM     25  H   UNL     1      -5.315   8.684  -7.726  1.00  0.00     0.293 HD
ENDBRANCH   2  24
BRANCH   6  26
ATOM     26  O   UNL     1      -2.634   4.560 -11.125  1.00  0.00    -0.507 OA
ATOM     27  H   UNL     1      -1.824   3.963 -11.198  1.00  0.00     0.293 HD
ENDBRANCH   6  26
BRANCH   8  28
ATOM     28  O   UNL     1      -5.801   0.950 -11.040  1.00  0.00    -0.508 OA
ATOM     29  H   UNL     1      -5.908   0.230 -10.336  1.00  0.00     0.293 HD
ENDBRANCH   8  28
TORSDOF 7
ENDMDL
MODEL 8
REMARK VINA RESULT:    -6.582      1.736      3.084
REMARK INTER + INTRA:          -7.887
REMARK INTER:                  -7.992
REMARK INTRA:                   0.105
REMARK UNBOUND:                 0.233
REMARK SMILES O=c1c(O)c(-c2cc(O)c(O)c(O)c2)oc2cc(O)cc(O)c12
REMARK SMILES IDX 5 1 3 2 2 3 1 4 23 5 21 6 20 7 18 8 17 9 16 10 15 11 6 12
REMARK SMILES IDX 7 13 8 14 14 15 10 16 12 17 9 18 11 20 13 22 4 24 22 26
REMARK SMILES IDX 19 28
REMARK H PARENT 9 19 11 21 13 23 4 25 22 27 19 29
REMARK Flexibility Score: inf
ROOT
ATOM      1  C   UNL     1      -6.846   5.015  -8.985  1.00  0.00     0.180 A 
ATOM      2  C   UNL     1      -6.885   6.414  -9.107  1.00  0.00     0.208 A 
ATOM      3  C   UNL     1      -8.058   7.097  -8.743  1.00  0.00     0.238 A 
ATOM      4  O   UNL     1      -8.068   8.354  -8.804  1.00  0.00    -0.285 OA
ATOM      5  C   UNL     1      -9.180   6.371  -8.277  1.00  0.00     0.111 A 
ATOM      6  C   UNL     1     -10.432   6.956  -7.920  1.00  0.00     0.134 A 
ATOM      7  C   UNL     1     -11.429   6.156  -7.348  1.00  0.00     0.093 A 
ATOM      8  C   UNL     1     -11.243   4.782  -7.182  1.00  0.00     0.123 A 
ATOM      9  C   UNL     1     -10.047   4.192  -7.584  1.00  0.00     0.094 A 
ATOM     10  C   UNL     1      -9.020   4.969  -8.124  1.00  0.00     0.146 A 
ATOM     11  O   UNL     1      -7.892   4.368  -8.484  1.00  0.00    -0.452 OA
ENDROOT
BRANCH   1  12
ATOM     12  C   UNL     1      -5.656   4.224  -9.372  1.00  0.00     0.029 A 
ATOM     13  C   UNL     1      -4.380   4.659  -8.979  1.00  0.00     0.062 A 
ATOM     14  C   UNL     1      -3.240   3.921  -9.313  1.00  0.00     0.162 A 
ATOM     15  C   UNL     1      -5.779   3.013 -10.075  1.00  0.00     0.062 A 
ATOM     16  C   UNL     1      -3.367   2.721 -10.036  1.00  0.00     0.200 A 
ATOM     17  C   UNL     1      -4.642   2.267 -10.413  1.00  0.00     0.162 A 
BRANCH  14  18
ATOM     18  O   UNL     1      -1.989   4.394  -8.918  1.00  0.00    -0.504 OA
ATOM     19  H   UNL     1      -1.133   3.896  -9.129  1.00  0.00     0.293 HD
ENDBRANCH  14  18
BRANCH  16  20
ATOM     20  O   UNL     1      -2.224   1.992 -10.367  1.00  0.00    -0.502 OA
ATOM     21  H   UNL     1      -2.169   0.988 -10.242  1.00  0.00     0.293 HD
ENDBRANCH  16  20
BRANCH  17  22
ATOM     22  O   UNL     1      -4.776   1.071 -11.117  1.00  0.00    -0.504 OA
ATOM     23  H   UNL     1      -5.097   1.053 -12.078  1.00  0.00     0.293 HD
ENDBRANCH  17  22
ENDBRANCH   1  12
BRANCH   2  24
ATOM     24  O   UNL     1      -5.758   7.113  -9.548  1.00  0.00    -0.502 OA
ATOM     25  H   UNL     1      -5.025   7.416  -8.918  1.00  0.00     0.293 HD
ENDBRANCH   2  24
BRANCH   6  26
ATOM     26  O   UNL     1     -10.753   8.301  -8.129  1.00  0.00    -0.507 OA
ATOM     27  H   UNL     1     -11.216   8.892  -7.456  1.00  0.00     0.293 HD
ENDBRANCH   6  26
BRANCH   8  28
ATOM     28  O   UNL     1     -12.248   3.991  -6.627  1.00  0.00    -0.508 OA
ATOM     29  H   UNL     1     -13.218   4.283  -6.635  1.00  0.00     0.293 HD
ENDBRANCH   8  28
TORSDOF 7
ENDMDL
MODEL 9
REMARK VINA RESULT:    -5.243      0.093      1.757
REMARK INTER + INTRA:          -6.236
REMARK INTER:                  -6.401
REMARK INTRA:                   0.165
REMARK UNBOUND:                 0.233
REMARK SMILES O=c1c(O)c(-c2cc(O)c(O)c(O)c2)oc2cc(O)cc(O)c12
REMARK SMILES IDX 5 1 3 2 2 3 1 4 23 5 21 6 20 7 18 8 17 9 16 10 15 11 6 12
REMARK SMILES IDX 7 13 8 14 14 15 10 16 12 17 9 18 11 20 13 22 4 24 22 26
REMARK SMILES IDX 19 28
REMARK H PARENT 9 19 11 21 13 23 4 25 22 27 19 29
REMARK Flexibility Score: inf
ROOT
ATOM      1  C   UNL     1      -8.053   4.430  -9.278  1.00  0.00     0.180 A 
ATOM      2  C   UNL     1      -9.247   4.190  -9.979  1.00  0.00     0.208 A 
ATOM      3  C   UNL     1     -10.433   4.795  -9.531  1.00  0.00     0.238 A 
ATOM      4  O   UNL     1     -11.488   4.619 -10.194  1.00  0.00    -0.285 OA
ATOM      5  C   UNL     1     -10.412   5.620  -8.381  1.00  0.00     0.111 A 
ATOM      6  C   UNL     1     -11.561   6.251  -7.816  1.00  0.00     0.134 A 
ATOM      7  C   UNL     1     -11.402   7.150  -6.754  1.00  0.00     0.093 A 
ATOM      8  C   UNL     1     -10.145   7.390  -6.195  1.00  0.00     0.123 A 
ATOM      9  C   UNL     1      -9.026   6.732  -6.701  1.00  0.00     0.094 A 
ATOM     10  C   UNL     1      -9.147   5.858  -7.783  1.00  0.00     0.146 A 
ATOM     11  O   UNL     1      -8.053   5.260  -8.241  1.00  0.00    -0.452 OA
ENDROOT
BRANCH   1  12
ATOM     12  C   UNL     1      -6.768   3.807  -9.674  1.00  0.00     0.029 A 
ATOM     13  C   UNL     1      -5.568   4.495  -9.441  1.00  0.00     0.062 A 
ATOM     14  C   UNL     1      -4.339   3.923  -9.785  1.00  0.00     0.162 A 
ATOM     15  C   UNL     1      -6.721   2.516 -10.225  1.00  0.00     0.062 A 
ATOM     16  C   UNL     1      -4.298   2.639 -10.357  1.00  0.00     0.200 A 
ATOM     17  C   UNL     1      -5.493   1.934 -10.572  1.00  0.00     0.162 A 
BRANCH  14  18
ATOM     18  O   UNL     1      -3.168   4.645  -9.552  1.00  0.00    -0.504 OA
ATOM     19  H   UNL     1      -2.264   4.327  -9.879  1.00  0.00     0.293 HD
ENDBRANCH  14  18
BRANCH  16  20
ATOM     20  O   UNL     1      -3.067   2.077 -10.700  1.00  0.00    -0.502 OA
ATOM     21  H   UNL     1      -2.978   1.378 -11.428  1.00  0.00     0.293 HD
ENDBRANCH  16  20
BRANCH  17  22
ATOM     22  O   UNL     1      -5.459   0.655 -11.125  1.00  0.00    -0.504 OA
ATOM     23  H   UNL     1      -5.590   0.501 -12.118  1.00  0.00     0.293 HD
ENDBRANCH  17  22
ENDBRANCH   1  12
BRANCH   2  24
ATOM     24  O   UNL     1      -9.240   3.390 -11.125  1.00  0.00    -0.502 OA
ATOM     25  H   UNL     1      -9.534   2.420 -11.113  1.00  0.00     0.293 HD
ENDBRANCH   2  24
BRANCH   6  26
ATOM     26  O   UNL     1     -12.871   6.010  -8.240  1.00  0.00    -0.507 OA
ATOM     27  H   UNL     1     -13.145   5.848  -9.197  1.00  0.00     0.293 HD
ENDBRANCH   6  26
BRANCH   8  28
ATOM     28  O   UNL     1      -9.998   8.274  -5.128  1.00  0.00    -0.508 OA
ATOM     29  H   UNL     1     -10.071   7.962  -4.167  1.00  0.00     0.293 HD
ENDBRANCH   8  28
TORSDOF 7
ENDMDL
