MODEL 1
REMARK VINA RESULT:    -4.323      0.000      0.000
REMARK INTER + INTRA:          -6.374
REMARK INTER:                  -5.839
REMARK INTRA:                  -0.535
REMARK UNBOUND:                -0.535
REMARK SMILES CCCCCCCC(=O)[O-]
REMARK SMILES IDX 5 1 6 2 7 3 8 4 9 5 10 6 4 7 3 8 2 9 1 10
REMARK H PARENT
REMARK Flexibility Score: inf
ROOT
ATOM      1  C   UNL     1      18.005  20.600  11.692  1.00  0.00     0.000 C 
ENDROOT
BRANCH   1   2
ATOM      2  C   UNL     1      17.724  19.401  12.610  1.00  0.00     0.006 C 
BRANCH   2   3
ATOM      3  C   UNL     1      18.598  19.417  13.870  1.00  0.00     0.053 C 
BRANCH   3   4
ATOM      4  C   UNL     1      17.778  19.590  15.112  1.00  0.00     0.041 C 
ATOM      5  O   UNL     1      18.184  20.337  16.042  1.00  0.00    -0.550 OA
ATOM      6  O   UNL     1      16.551  18.951  15.230  1.00  0.00    -0.550 OA
ENDBRANCH   3   4
ENDBRANCH   2   3
ENDBRANCH   1   2
BRANCH   1   7
ATOM      7  C   UNL     1      16.700  21.169  11.116  1.00  0.00     0.000 C 
BRANCH   7   8
ATOM      8  C   UNL     1      15.560  21.198  12.147  1.00  0.00    -0.000 C 
BRANCH   8   9
ATOM      9  C   UNL     1      15.555  22.481  12.989  1.00  0.00    -0.003 C 
ATOM     10  C   UNL     1      15.203  22.183  14.444  1.00  0.00     0.004 C 
ENDBRANCH   8   9
ENDBRANCH   7   8
ENDBRANCH   1   7
TORSDOF 6
ENDMDL
MODEL 2
REMARK VINA RESULT:    -4.317      1.127      3.021
REMARK INTER + INTRA:          -6.367
REMARK INTER:                  -5.919
REMARK INTRA:                  -0.448
REMARK UNBOUND:                -0.535
REMARK SMILES CCCCCCCC(=O)[O-]
REMARK SMILES IDX 5 1 6 2 7 3 8 4 9 5 10 6 4 7 3 8 2 9 1 10
REMARK H PARENT
REMARK Flexibility Score: inf
ROOT
ATOM      1  C   UNL     1      15.352  22.524  13.257  1.00  0.00     0.000 C 
ENDROOT
BRANCH   1   2
ATOM      2  C   UNL     1      15.335  22.262  14.770  1.00  0.00     0.006 C 
BRANCH   2   3
ATOM      3  C   UNL     1      15.722  20.818  15.114  1.00  0.00     0.053 C 
BRANCH   3   4
ATOM      4  C   UNL     1      16.864  20.765  16.081  1.00  0.00     0.041 C 
ATOM      5  O   UNL     1      17.854  20.018  15.854  1.00  0.00    -0.550 OA
ATOM      6  O   UNL     1      16.851  21.563  17.217  1.00  0.00    -0.550 OA
ENDBRANCH   3   4
ENDBRANCH   2   3
ENDBRANCH   1   2
BRANCH   1   7
ATOM      7  C   UNL     1      15.550  21.217  12.475  1.00  0.00     0.000 C 
BRANCH   7   8
ATOM      8  C   UNL     1      16.265  21.432  11.131  1.00  0.00    -0.000 C 
BRANCH   8   9
ATOM      9  C   UNL     1      17.487  20.519  10.958  1.00  0.00    -0.003 C 
ATOM     10  C   UNL     1      18.056  20.102  12.311  1.00  0.00     0.004 C 
ENDBRANCH   8   9
ENDBRANCH   7   8
ENDBRANCH   1   7
TORSDOF 6
ENDMDL
MODEL 3
REMARK VINA RESULT:    -4.306      1.708      3.430
REMARK INTER + INTRA:          -6.352
REMARK INTER:                  -5.974
REMARK INTRA:                  -0.378
REMARK UNBOUND:                -0.535
REMARK SMILES CCCCCCCC(=O)[O-]
REMARK SMILES IDX 5 1 6 2 7 3 8 4 9 5 10 6 4 7 3 8 2 9 1 10
REMARK H PARENT
REMARK Flexibility Score: inf
ROOT
ATOM      1  C   UNL     1      15.375  22.601  13.099  1.00  0.00     0.000 C 
ENDROOT
BRANCH   1   2
ATOM      2  C   UNL     1      14.833  22.127  14.456  1.00  0.00     0.006 C 
BRANCH   2   3
ATOM      3  C   UNL     1      15.893  21.378  15.274  1.00  0.00     0.053 C 
BRANCH   3   4
ATOM      4  C   UNL     1      16.086  21.993  16.626  1.00  0.00     0.041 C 
ATOM      5  O   UNL     1      15.488  23.060  16.930  1.00  0.00    -0.550 OA
ATOM      6  O   UNL     1      16.903  21.373  17.562  1.00  0.00    -0.550 OA
ENDBRANCH   3   4
ENDBRANCH   2   3
ENDBRANCH   1   2
BRANCH   1   7
ATOM      7  C   UNL     1      15.588  21.415  12.147  1.00  0.00     0.000 C 
BRANCH   7   8
ATOM      8  C   UNL     1      16.848  21.568  11.281  1.00  0.00    -0.000 C 
BRANCH   8   9
ATOM      9  C   UNL     1      17.696  20.288  11.239  1.00  0.00    -0.003 C 
ATOM     10  C   UNL     1      18.158  19.889  12.638  1.00  0.00     0.004 C 
ENDBRANCH   8   9
ENDBRANCH   7   8
ENDBRANCH   1   7
TORSDOF 6
ENDMDL
MODEL 4
REMARK VINA RESULT:    -4.263     14.181     15.436
REMARK INTER + INTRA:          -6.294
REMARK INTER:                  -5.862
REMARK INTRA:                  -0.432
REMARK UNBOUND:                -0.535
REMARK SMILES CCCCCCCC(=O)[O-]
REMARK SMILES IDX 5 1 6 2 7 3 8 4 9 5 10 6 4 7 3 8 2 9 1 10
REMARK H PARENT
REMARK Flexibility Score: inf
ROOT
ATOM      1  C   UNL     1      30.610  16.541   6.494  1.00  0.00     0.000 C 
ENDROOT
BRANCH   1   2
ATOM      2  C   UNL     1      31.649  17.002   7.528  1.00  0.00     0.006 C 
BRANCH   2   3
ATOM      3  C   UNL     1      31.381  18.428   8.024  1.00  0.00     0.053 C 
BRANCH   3   4
ATOM      4  C   UNL     1      32.621  19.269   7.992  1.00  0.00     0.041 C 
ATOM      5  O   UNL     1      32.578  20.477   8.346  1.00  0.00    -0.550 OA
ATOM      6  O   UNL     1      33.831  18.709   7.603  1.00  0.00    -0.550 OA
ENDBRANCH   3   4
ENDBRANCH   2   3
ENDBRANCH   1   2
BRANCH   1   7
ATOM      7  C   UNL     1      29.861  17.741   5.896  1.00  0.00     0.000 C 
BRANCH   7   8
ATOM      8  C   UNL     1      28.445  17.378   5.421  1.00  0.00    -0.000 C 
BRANCH   8   9
ATOM      9  C   UNL     1      27.388  17.559   6.519  1.00  0.00    -0.003 C 
ATOM     10  C   UNL     1      27.707  18.768   7.395  1.00  0.00     0.004 C 
ENDBRANCH   8   9
ENDBRANCH   7   8
ENDBRANCH   1   7
TORSDOF 6
ENDMDL
MODEL 5
REMARK VINA RESULT:    -4.218     13.415     14.599
REMARK INTER + INTRA:          -6.233
REMARK INTER:                  -5.663
REMARK INTRA:                  -0.570
REMARK UNBOUND:                -0.535
REMARK SMILES CCCCCCCC(=O)[O-]
REMARK SMILES IDX 5 1 6 2 7 3 8 4 9 5 10 6 4 7 3 8 2 9 1 10
REMARK H PARENT
REMARK Flexibility Score: inf
ROOT
ATOM      1  C   UNL     1      27.691  18.594   7.259  1.00  0.00     0.000 C 
ENDROOT
BRANCH   1   2
ATOM      2  C   UNL     1      28.075  18.231   5.817  1.00  0.00     0.006 C 
BRANCH   2   3
ATOM      3  C   UNL     1      28.957  16.978   5.748  1.00  0.00     0.053 C 
BRANCH   3   4
ATOM      4  C   UNL     1      30.371  17.273   6.146  1.00  0.00     0.041 C 
ATOM      5  O   UNL     1      30.906  16.645   7.098  1.00  0.00    -0.550 OA
ATOM      6  O   UNL     1      31.108  18.219   5.446  1.00  0.00    -0.550 OA
ENDBRANCH   3   4
ENDBRANCH   2   3
ENDBRANCH   1   2
BRANCH   1   7
ATOM      7  C   UNL     1      28.253  19.969   7.647  1.00  0.00     0.000 C 
BRANCH   7   8
ATOM      8  C   UNL     1      28.830  19.993   9.072  1.00  0.00    -0.000 C 
BRANCH   8   9
ATOM      9  C   UNL     1      30.288  19.518   9.128  1.00  0.00    -0.003 C 
ATOM     10  C   UNL     1      31.178  20.370   8.227  1.00  0.00     0.004 C 
ENDBRANCH   8   9
ENDBRANCH   7   8
ENDBRANCH   1   7
TORSDOF 6
ENDMDL
MODEL 6
REMARK VINA RESULT:    -4.142      1.416      2.719
REMARK INTER + INTRA:          -6.130
REMARK INTER:                  -5.702
REMARK INTRA:                  -0.429
REMARK UNBOUND:                -0.535
REMARK SMILES CCCCCCCC(=O)[O-]
REMARK SMILES IDX 5 1 6 2 7 3 8 4 9 5 10 6 4 7 3 8 2 9 1 10
REMARK H PARENT
REMARK Flexibility Score: inf
ROOT
ATOM      1  C   UNL     1      15.433  20.762  14.422  1.00  0.00     0.000 C 
ENDROOT
BRANCH   1   2
ATOM      2  C   UNL     1      16.614  20.523  15.374  1.00  0.00     0.006 C 
BRANCH   2   3
ATOM      3  C   UNL     1      17.279  19.160  15.144  1.00  0.00     0.053 C 
BRANCH   3   4
ATOM      4  C   UNL     1      18.630  19.301  14.511  1.00  0.00     0.041 C 
ATOM      5  O   UNL     1      19.604  19.732  15.184  1.00  0.00    -0.550 OA
ATOM      6  O   UNL     1      18.820  18.927  13.187  1.00  0.00    -0.550 OA
ENDBRANCH   3   4
ENDBRANCH   2   3
ENDBRANCH   1   2
BRANCH   1   7
ATOM      7  C   UNL     1      15.296  22.253  14.079  1.00  0.00     0.000 C 
BRANCH   7   8
ATOM      8  C   UNL     1      15.549  22.545  12.591  1.00  0.00    -0.000 C 
BRANCH   8   9
ATOM      9  C   UNL     1      15.835  21.274  11.779  1.00  0.00    -0.003 C 
ATOM     10  C   UNL     1      17.214  21.337  11.127  1.00  0.00     0.004 C 
ENDBRANCH   8   9
ENDBRANCH   7   8
ENDBRANCH   1   7
TORSDOF 6
ENDMDL
MODEL 7
REMARK VINA RESULT:    -4.100     12.959     14.344
REMARK INTER + INTRA:          -6.074
REMARK INTER:                  -5.554
REMARK INTRA:                  -0.520
REMARK UNBOUND:                -0.535
REMARK SMILES CCCCCCCC(=O)[O-]
REMARK SMILES IDX 5 1 6 2 7 3 8 4 9 5 10 6 4 7 3 8 2 9 1 10
REMARK H PARENT
REMARK Flexibility Score: inf
ROOT
ATOM      1  C   UNL     1      28.045  19.574   7.321  1.00  0.00     0.000 C 
ENDROOT
BRANCH   1   2
ATOM      2  C   UNL     1      28.590  19.676   8.753  1.00  0.00     0.006 C 
BRANCH   2   3
ATOM      3  C   UNL     1      30.057  20.121   8.786  1.00  0.00     0.053 C 
BRANCH   3   4
ATOM      4  C   UNL     1      30.876  19.264   9.703  1.00  0.00     0.041 C 
ATOM      5  O   UNL     1      30.676  19.295  10.947  1.00  0.00    -0.550 OA
ATOM      6  O   UNL     1      31.838  18.409   9.182  1.00  0.00    -0.550 OA
ENDBRANCH   3   4
ENDBRANCH   2   3
ENDBRANCH   1   2
BRANCH   1   7
ATOM      7  C   UNL     1      27.690  18.121   6.970  1.00  0.00     0.000 C 
BRANCH   7   8
ATOM      8  C   UNL     1      28.515  17.578   5.792  1.00  0.00    -0.000 C 
BRANCH   8   9
ATOM      9  C   UNL     1      29.937  17.171   6.204  1.00  0.00    -0.003 C 
ATOM     10  C   UNL     1      30.968  18.161   5.669  1.00  0.00     0.004 C 
ENDBRANCH   8   9
ENDBRANCH   7   8
ENDBRANCH   1   7
TORSDOF 6
ENDMDL
MODEL 8
REMARK VINA RESULT:    -4.100     12.815     14.216
REMARK INTER + INTRA:          -6.074
REMARK INTER:                  -5.621
REMARK INTRA:                  -0.453
REMARK UNBOUND:                -0.535
REMARK SMILES CCCCCCCC(=O)[O-]
REMARK SMILES IDX 5 1 6 2 7 3 8 4 9 5 10 6 4 7 3 8 2 9 1 10
REMARK H PARENT
REMARK Flexibility Score: inf
ROOT
ATOM      1  C   UNL     1      30.910  18.047   6.072  1.00  0.00     0.000 C 
ENDROOT
BRANCH   1   2
ATOM      2  C   UNL     1      31.099  18.640   7.477  1.00  0.00     0.006 C 
BRANCH   2   3
ATOM      3  C   UNL     1      30.619  20.094   7.563  1.00  0.00     0.053 C 
BRANCH   3   4
ATOM      4  C   UNL     1      29.701  20.308   8.727  1.00  0.00     0.041 C 
ATOM      5  O   UNL     1      28.666  19.600   8.858  1.00  0.00    -0.550 OA
ATOM      6  O   UNL     1      30.003  21.266   9.685  1.00  0.00    -0.550 OA
ENDBRANCH   3   4
ENDBRANCH   2   3
ENDBRANCH   1   2
BRANCH   1   7
ATOM      7  C   UNL     1      29.849  16.937   6.082  1.00  0.00     0.000 C 
BRANCH   7   8
ATOM      8  C   UNL     1      28.539  17.363   5.401  1.00  0.00    -0.000 C 
BRANCH   8   9
ATOM      9  C   UNL     1      27.379  17.517   6.395  1.00  0.00    -0.003 C 
ATOM     10  C   UNL     1      26.589  18.795   6.124  1.00  0.00     0.004 C 
ENDBRANCH   8   9
ENDBRANCH   7   8
ENDBRANCH   1   7
TORSDOF 6
ENDMDL
MODEL 9
REMARK VINA RESULT:    -4.080     13.462     14.913
REMARK INTER + INTRA:          -6.046
REMARK INTER:                  -5.662
REMARK INTRA:                  -0.384
REMARK UNBOUND:                -0.535
REMARK SMILES CCCCCCCC(=O)[O-]
REMARK SMILES IDX 5 1 6 2 7 3 8 4 9 5 10 6 4 7 3 8 2 9 1 10
REMARK H PARENT
REMARK Flexibility Score: inf
ROOT
ATOM      1  C   UNL     1      30.654  16.555   6.457  1.00  0.00     0.000 C 
ENDROOT
BRANCH   1   2
ATOM      2  C   UNL     1      29.927  17.714   5.758  1.00  0.00     0.006 C 
BRANCH   2   3
ATOM      3  C   UNL     1      28.474  17.365   5.413  1.00  0.00     0.053 C 
BRANCH   3   4
ATOM      4  C   UNL     1      27.505  18.089   6.298  1.00  0.00     0.041 C 
ATOM      5  O   UNL     1      27.916  18.716   7.310  1.00  0.00    -0.550 OA
ATOM      6  O   UNL     1      26.152  18.099   5.986  1.00  0.00    -0.550 OA
ENDBRANCH   3   4
ENDBRANCH   2   3
ENDBRANCH   1   2
BRANCH   1   7
ATOM      7  C   UNL     1      31.582  17.077   7.563  1.00  0.00     0.000 C 
BRANCH   7   8
ATOM      8  C   UNL     1      31.473  18.597   7.762  1.00  0.00    -0.000 C 
BRANCH   8   9
ATOM      9  C   UNL     1      31.144  18.982   9.211  1.00  0.00    -0.003 C 
ATOM     10  C   UNL     1      32.239  18.514  10.166  1.00  0.00     0.004 C 
ENDBRANCH   8   9
ENDBRANCH   7   8
ENDBRANCH   1   7
TORSDOF 6
ENDMDL
