MODEL 1
REMARK VINA RESULT:    -3.587      0.000      0.000
REMARK INTER + INTRA:          -5.147
REMARK INTER:                  -4.846
REMARK INTRA:                  -0.302
REMARK UNBOUND:                -0.302
REMARK SMILES CCCCCCCC(=O)[O-]
REMARK SMILES IDX 5 1 6 2 7 3 8 4 9 5 10 6 4 7 3 8 2 9 1 10
REMARK H PARENT
REMARK Flexibility Score: inf
ROOT
ATOM      1  C   UNL     1      -9.636   1.011  15.060  1.00  0.00     0.000 C 
ENDROOT
BRANCH   1   2
ATOM      2  C   UNL     1     -10.334   1.804  16.176  1.00  0.00     0.006 C 
BRANCH   2   3
ATOM      3  C   UNL     1     -10.457   3.300  15.853  1.00  0.00     0.053 C 
BRANCH   3   4
ATOM      4  C   UNL     1     -11.735   3.849  16.403  1.00  0.00     0.041 C 
ATOM      5  O   UNL     1     -11.786   5.034  16.825  1.00  0.00    -0.550 OA
ATOM      6  O   UNL     1     -12.858   3.036  16.496  1.00  0.00    -0.550 OA
ENDBRANCH   3   4
ENDBRANCH   2   3
ENDBRANCH   1   2
BRANCH   1   7
ATOM      7  C   UNL     1     -10.613   0.549  13.965  1.00  0.00     0.000 C 
BRANCH   7   8
ATOM      8  C   UNL     1     -11.990   0.162  14.528  1.00  0.00    -0.000 C 
BRANCH   8   9
ATOM      9  C   UNL     1     -12.851  -0.605  13.513  1.00  0.00    -0.003 C 
ATOM     10  C   UNL     1     -12.383  -2.051  13.378  1.00  0.00     0.004 C 
ENDBRANCH   8   9
ENDBRANCH   7   8
ENDBRANCH   1   7
TORSDOF 6
ENDMDL
MODEL 2
REMARK VINA RESULT:    -3.564      1.442      2.359
REMARK INTER + INTRA:          -5.116
REMARK INTER:                  -4.695
REMARK INTRA:                  -0.420
REMARK UNBOUND:                -0.302
REMARK SMILES CCCCCCCC(=O)[O-]
REMARK SMILES IDX 5 1 6 2 7 3 8 4 9 5 10 6 4 7 3 8 2 9 1 10
REMARK H PARENT
REMARK Flexibility Score: inf
ROOT
ATOM      1  C   UNL     1     -10.065   2.926  15.867  1.00  0.00     0.000 C 
ENDROOT
BRANCH   1   2
ATOM      2  C   UNL     1     -11.334   3.772  16.054  1.00  0.00     0.006 C 
BRANCH   2   3
ATOM      3  C   UNL     1     -12.332   3.138  17.033  1.00  0.00     0.053 C 
BRANCH   3   4
ATOM      4  C   UNL     1     -12.664   4.096  18.133  1.00  0.00     0.041 C 
ATOM      5  O   UNL     1     -13.702   3.931  18.825  1.00  0.00    -0.550 OA
ATOM      6  O   UNL     1     -11.851   5.199  18.363  1.00  0.00    -0.550 OA
ENDBRANCH   3   4
ENDBRANCH   2   3
ENDBRANCH   1   2
BRANCH   1   7
ATOM      7  C   UNL     1     -10.352   1.415  15.903  1.00  0.00     0.000 C 
BRANCH   7   8
ATOM      8  C   UNL     1     -10.075   0.731  14.554  1.00  0.00    -0.000 C 
BRANCH   8   9
ATOM      9  C   UNL     1     -11.351   0.199  13.886  1.00  0.00    -0.003 C 
ATOM     10  C   UNL     1     -12.552   0.319  14.821  1.00  0.00     0.004 C 
ENDBRANCH   8   9
ENDBRANCH   7   8
ENDBRANCH   1   7
TORSDOF 6
ENDMDL
MODEL 3
REMARK VINA RESULT:    -3.541      2.417      4.956
REMARK INTER + INTRA:          -5.084
REMARK INTER:                  -4.761
REMARK INTRA:                  -0.323
REMARK UNBOUND:                -0.302
REMARK SMILES CCCCCCCC(=O)[O-]
REMARK SMILES IDX 5 1 6 2 7 3 8 4 9 5 10 6 4 7 3 8 2 9 1 10
REMARK H PARENT
REMARK Flexibility Score: inf
ROOT
ATOM      1  C   UNL     1     -10.047   2.671  15.502  1.00  0.00     0.000 C 
ENDROOT
BRANCH   1   2
ATOM      2  C   UNL     1     -10.023   1.138  15.396  1.00  0.00     0.006 C 
BRANCH   2   3
ATOM      3  C   UNL     1     -10.619   0.625  14.078  1.00  0.00     0.053 C 
BRANCH   3   4
ATOM      4  C   UNL     1     -12.044   0.216  14.273  1.00  0.00     0.041 C 
ATOM      5  O   UNL     1     -12.599  -0.560  13.452  1.00  0.00    -0.550 OA
ATOM      6  O   UNL     1     -12.775   0.730  15.337  1.00  0.00    -0.550 OA
ENDBRANCH   3   4
ENDBRANCH   2   3
ENDBRANCH   1   2
BRANCH   1   7
ATOM      7  C   UNL     1     -10.189   3.161  16.953  1.00  0.00     0.000 C 
BRANCH   7   8
ATOM      8  C   UNL     1     -10.103   2.014  17.973  1.00  0.00    -0.000 C 
BRANCH   8   9
ATOM      9  C   UNL     1      -9.091   2.293  19.095  1.00  0.00    -0.003 C 
ATOM     10  C   UNL     1      -7.991   3.239  18.619  1.00  0.00     0.004 C 
ENDBRANCH   8   9
ENDBRANCH   7   8
ENDBRANCH   1   7
TORSDOF 6
ENDMDL
MODEL 4
REMARK VINA RESULT:    -3.508      1.787      2.221
REMARK INTER + INTRA:          -5.040
REMARK INTER:                  -4.821
REMARK INTRA:                  -0.219
REMARK UNBOUND:                -0.302
REMARK SMILES CCCCCCCC(=O)[O-]
REMARK SMILES IDX 5 1 6 2 7 3 8 4 9 5 10 6 4 7 3 8 2 9 1 10
REMARK H PARENT
REMARK Flexibility Score: inf
ROOT
ATOM      1  C   UNL     1     -12.548   1.128  15.643  1.00  0.00     0.000 C 
ENDROOT
BRANCH   1   2
ATOM      2  C   UNL     1     -11.901   2.220  16.510  1.00  0.00     0.006 C 
BRANCH   2   3
ATOM      3  C   UNL     1     -10.736   2.926  15.803  1.00  0.00     0.053 C 
BRANCH   3   4
ATOM      4  C   UNL     1      -9.697   3.341  16.796  1.00  0.00     0.041 C 
ATOM      5  O   UNL     1      -9.184   2.490  17.569  1.00  0.00    -0.550 OA
ATOM      6  O   UNL     1      -9.331   4.677  16.901  1.00  0.00    -0.550 OA
ENDBRANCH   3   4
ENDBRANCH   2   3
ENDBRANCH   1   2
BRANCH   1   7
ATOM      7  C   UNL     1     -11.580   0.560  14.590  1.00  0.00     0.000 C 
BRANCH   7   8
ATOM      8  C   UNL     1     -12.314  -0.085  13.403  1.00  0.00    -0.000 C 
BRANCH   8   9
ATOM      9  C   UNL     1     -12.986  -1.416  13.773  1.00  0.00    -0.003 C 
ATOM     10  C   UNL     1     -12.326  -2.585  13.047  1.00  0.00     0.004 C 
ENDBRANCH   8   9
ENDBRANCH   7   8
ENDBRANCH   1   7
TORSDOF 6
ENDMDL
MODEL 5
REMARK VINA RESULT:    -3.465      2.091      4.561
REMARK INTER + INTRA:          -4.981
REMARK INTER:                  -4.636
REMARK INTRA:                  -0.346
REMARK UNBOUND:                -0.302
REMARK SMILES CCCCCCCC(=O)[O-]
REMARK SMILES IDX 5 1 6 2 7 3 8 4 9 5 10 6 4 7 3 8 2 9 1 10
REMARK H PARENT
REMARK Flexibility Score: inf
ROOT
ATOM      1  C   UNL     1      -9.808   1.334  16.022  1.00  0.00     0.000 C 
ENDROOT
BRANCH   1   2
ATOM      2  C   UNL     1     -10.239   1.440  14.551  1.00  0.00     0.006 C 
BRANCH   2   3
ATOM      3  C   UNL     1     -10.605   0.081  13.940  1.00  0.00     0.053 C 
BRANCH   3   4
ATOM      4  C   UNL     1     -12.081  -0.150  14.025  1.00  0.00     0.041 C 
ATOM      5  O   UNL     1     -12.628  -1.026  13.306  1.00  0.00    -0.550 OA
ATOM      6  O   UNL     1     -12.859   0.637  14.865  1.00  0.00    -0.550 OA
ENDBRANCH   3   4
ENDBRANCH   2   3
ENDBRANCH   1   2
BRANCH   1   7
ATOM      7  C   UNL     1     -10.269   2.538  16.861  1.00  0.00     0.000 C 
BRANCH   7   8
ATOM      8  C   UNL     1     -11.233   3.457  16.093  1.00  0.00    -0.000 C 
BRANCH   8   9
ATOM      9  C   UNL     1     -12.601   3.588  16.779  1.00  0.00    -0.003 C 
ATOM     10  C   UNL     1     -12.460   3.542  18.298  1.00  0.00     0.004 C 
ENDBRANCH   8   9
ENDBRANCH   7   8
ENDBRANCH   1   7
TORSDOF 6
ENDMDL
MODEL 6
REMARK VINA RESULT:    -3.452      2.694      5.105
REMARK INTER + INTRA:          -4.965
REMARK INTER:                  -4.533
REMARK INTRA:                  -0.432
REMARK UNBOUND:                -0.302
REMARK SMILES CCCCCCCC(=O)[O-]
REMARK SMILES IDX 5 1 6 2 7 3 8 4 9 5 10 6 4 7 3 8 2 9 1 10
REMARK H PARENT
REMARK Flexibility Score: inf
ROOT
ATOM      1  C   UNL     1     -11.287   3.530  15.885  1.00  0.00     0.000 C 
ENDROOT
BRANCH   1   2
ATOM      2  C   UNL     1      -9.949   2.774  15.867  1.00  0.00     0.006 C 
BRANCH   2   3
ATOM      3  C   UNL     1     -10.129   1.250  15.884  1.00  0.00     0.053 C 
BRANCH   3   4
ATOM      4  C   UNL     1     -10.265   0.725  14.490  1.00  0.00     0.041 C 
ATOM      5  O   UNL     1     -11.404   0.474  14.015  1.00  0.00    -0.550 OA
ATOM      6  O   UNL     1      -9.130   0.468  13.731  1.00  0.00    -0.550 OA
ENDBRANCH   3   4
ENDBRANCH   2   3
ENDBRANCH   1   2
BRANCH   1   7
ATOM      7  C   UNL     1     -12.363   2.807  16.714  1.00  0.00     0.000 C 
BRANCH   7   8
ATOM      8  C   UNL     1     -12.947   3.695  17.825  1.00  0.00    -0.000 C 
BRANCH   8   9
ATOM      9  C   UNL     1     -11.946   4.744  18.334  1.00  0.00    -0.003 C 
ATOM     10  C   UNL     1     -11.263   4.274  19.615  1.00  0.00     0.004 C 
ENDBRANCH   8   9
ENDBRANCH   7   8
ENDBRANCH   1   7
TORSDOF 6
ENDMDL
MODEL 7
REMARK VINA RESULT:    -3.435      2.851      4.951
REMARK INTER + INTRA:          -4.941
REMARK INTER:                  -4.512
REMARK INTRA:                  -0.429
REMARK UNBOUND:                -0.302
REMARK SMILES CCCCCCCC(=O)[O-]
REMARK SMILES IDX 5 1 6 2 7 3 8 4 9 5 10 6 4 7 3 8 2 9 1 10
REMARK H PARENT
REMARK Flexibility Score: inf
ROOT
ATOM      1  C   UNL     1     -12.495   2.997  16.797  1.00  0.00     0.000 C 
ENDROOT
BRANCH   1   2
ATOM      2  C   UNL     1     -12.119   1.671  16.117  1.00  0.00     0.006 C 
BRANCH   2   3
ATOM      3  C   UNL     1     -10.798   1.756  15.341  1.00  0.00     0.053 C 
BRANCH   3   4
ATOM      4  C   UNL     1     -10.662   0.591  14.412  1.00  0.00     0.041 C 
ATOM      5  O   UNL     1      -9.527   0.107  14.165  1.00  0.00    -0.550 OA
ATOM      6  O   UNL     1     -11.785   0.070  13.783  1.00  0.00    -0.550 OA
ENDBRANCH   3   4
ENDBRANCH   2   3
ENDBRANCH   1   2
BRANCH   1   7
ATOM      7  C   UNL     1     -11.630   3.291  18.035  1.00  0.00     0.000 C 
BRANCH   7   8
ATOM      8  C   UNL     1     -11.650   2.141  19.055  1.00  0.00    -0.000 C 
BRANCH   8   9
ATOM      9  C   UNL     1     -10.283   1.913  19.717  1.00  0.00    -0.003 C 
ATOM     10  C   UNL     1      -9.173   1.832  18.672  1.00  0.00     0.004 C 
ENDBRANCH   8   9
ENDBRANCH   7   8
ENDBRANCH   1   7
TORSDOF 6
ENDMDL
MODEL 8
REMARK VINA RESULT:    -3.307      2.548      3.078
REMARK INTER + INTRA:          -4.769
REMARK INTER:                  -4.380
REMARK INTRA:                  -0.390
REMARK UNBOUND:                -0.302
REMARK SMILES CCCCCCCC(=O)[O-]
REMARK SMILES IDX 5 1 6 2 7 3 8 4 9 5 10 6 4 7 3 8 2 9 1 10
REMARK H PARENT
REMARK Flexibility Score: inf
ROOT
ATOM      1  C   UNL     1     -10.932   2.985  15.914  1.00  0.00     0.000 C 
ENDROOT
BRANCH   1   2
ATOM      2  C   UNL     1     -10.946   3.308  17.417  1.00  0.00     0.006 C 
BRANCH   2   3
ATOM      3  C   UNL     1     -11.210   2.071  18.286  1.00  0.00     0.053 C 
BRANCH   3   4
ATOM      4  C   UNL     1     -10.072   1.844  19.230  1.00  0.00     0.041 C 
ATOM      5  O   UNL     1      -9.972   2.532  20.280  1.00  0.00    -0.550 OA
ATOM      6  O   UNL     1      -9.094   0.906  18.926  1.00  0.00    -0.550 OA
ENDBRANCH   3   4
ENDBRANCH   2   3
ENDBRANCH   1   2
BRANCH   1   7
ATOM      7  C   UNL     1      -9.869   1.937  15.546  1.00  0.00     0.000 C 
BRANCH   7   8
ATOM      8  C   UNL     1     -10.440   0.791  14.694  1.00  0.00    -0.000 C 
BRANCH   8   9
ATOM      9  C   UNL     1     -11.960   0.636  14.852  1.00  0.00    -0.003 C 
ATOM     10  C   UNL     1     -12.543  -0.231  13.740  1.00  0.00     0.004 C 
ENDBRANCH   8   9
ENDBRANCH   7   8
ENDBRANCH   1   7
TORSDOF 6
ENDMDL
MODEL 9
REMARK VINA RESULT:    -3.280      2.785      3.822
REMARK INTER + INTRA:          -4.732
REMARK INTER:                  -4.384
REMARK INTRA:                  -0.348
REMARK UNBOUND:                -0.302
REMARK SMILES CCCCCCCC(=O)[O-]
REMARK SMILES IDX 5 1 6 2 7 3 8 4 9 5 10 6 4 7 3 8 2 9 1 10
REMARK H PARENT
REMARK Flexibility Score: inf
ROOT
ATOM      1  C   UNL     1     -12.632   3.335  17.060  1.00  0.00     0.000 C 
ENDROOT
BRANCH   1   2
ATOM      2  C   UNL     1     -12.105   3.419  18.501  1.00  0.00     0.006 C 
BRANCH   2   3
ATOM      3  C   UNL     1     -11.552   2.081  19.010  1.00  0.00     0.053 C 
BRANCH   3   4
ATOM      4  C   UNL     1     -10.147   2.248  19.495  1.00  0.00     0.041 C 
ATOM      5  O   UNL     1      -9.915   2.880  20.559  1.00  0.00    -0.550 OA
ATOM      6  O   UNL     1      -9.090   1.747  18.747  1.00  0.00    -0.550 OA
ENDBRANCH   3   4
ENDBRANCH   2   3
ENDBRANCH   1   2
BRANCH   1   7
ATOM      7  C   UNL     1     -12.141   2.076  16.325  1.00  0.00     0.000 C 
BRANCH   7   8
ATOM      8  C   UNL     1     -10.877   2.337  15.489  1.00  0.00    -0.000 C 
BRANCH   8   9
ATOM      9  C   UNL     1      -9.946   1.117  15.427  1.00  0.00    -0.003 C 
ATOM     10  C   UNL     1      -9.811   0.601  13.996  1.00  0.00     0.004 C 
ENDBRANCH   8   9
ENDBRANCH   7   8
ENDBRANCH   1   7
TORSDOF 6
ENDMDL
