MODEL 1
REMARK VINA RESULT:    -4.224      0.000      0.000
REMARK INTER + INTRA:          -7.436
REMARK INTER:                  -6.693
REMARK INTRA:                  -0.744
REMARK UNBOUND:                -0.744
REMARK SMILES CCCCCCCCCCCC(=O)[O-]
REMARK SMILES IDX 7 1 8 2 9 3 10 4 11 5 12 6 13 7 14 8 6 9 5 10 4 11 3 12 2 13
REMARK SMILES IDX 1 14
REMARK H PARENT
REMARK Flexibility Score: inf
ROOT
ATOM      1  C   UNL     1      29.579  26.906 -15.729  1.00  0.00     0.000 C 
ENDROOT
BRANCH   1   2
ATOM      2  C   UNL     1      29.445  28.087 -16.699  1.00  0.00     0.000 C 
BRANCH   2   3
ATOM      3  C   UNL     1      27.968  28.431 -16.948  1.00  0.00     0.000 C 
BRANCH   3   4
ATOM      4  C   UNL     1      27.786  29.791 -17.641  1.00  0.00     0.006 C 
BRANCH   4   5
ATOM      5  C   UNL     1      26.583  29.813 -18.592  1.00  0.00     0.053 C 
BRANCH   5   6
ATOM      6  C   UNL     1      26.618  31.040 -19.449  1.00  0.00     0.041 C 
ATOM      7  O   UNL     1      27.356  31.080 -20.469  1.00  0.00    -0.550 OA
ATOM      8  O   UNL     1      25.799  32.121 -19.149  1.00  0.00    -0.550 OA
ENDBRANCH   5   6
ENDBRANCH   4   5
ENDBRANCH   3   4
ENDBRANCH   2   3
ENDBRANCH   1   2
BRANCH   1   9
ATOM      9  C   UNL     1      30.707  25.935 -16.119  1.00  0.00     0.000 C 
BRANCH   9  10
ATOM     10  C   UNL     1      30.197  24.591 -16.684  1.00  0.00    -0.000 C 
BRANCH  10  11
ATOM     11  C   UNL     1      29.109  24.789 -17.755  1.00  0.00    -0.000 C 
BRANCH  11  12
ATOM     12  C   UNL     1      27.784  24.104 -17.385  1.00  0.00    -0.000 C 
BRANCH  12  13
ATOM     13  C   UNL     1      26.583  25.055 -17.466  1.00  0.00    -0.003 C 
ATOM     14  C   UNL     1      25.972  25.053 -18.864  1.00  0.00     0.004 C 
ENDBRANCH  12  13
ENDBRANCH  11  12
ENDBRANCH  10  11
ENDBRANCH   9  10
ENDBRANCH   1   9
TORSDOF 10
ENDMDL
MODEL 2
REMARK VINA RESULT:    -4.132      3.164      4.854
REMARK INTER + INTRA:          -7.291
REMARK INTER:                  -6.078
REMARK INTRA:                  -1.213
REMARK UNBOUND:                -0.744
REMARK SMILES CCCCCCCCCCCC(=O)[O-]
REMARK SMILES IDX 7 1 8 2 9 3 10 4 11 5 12 6 13 7 14 8 6 9 5 10 4 11 3 12 2 13
REMARK SMILES IDX 1 14
REMARK H PARENT
REMARK Flexibility Score: inf
ROOT
ATOM      1  C   UNL     1      29.243  27.806 -16.585  1.00  0.00     0.000 C 
ENDROOT
BRANCH   1   2
ATOM      2  C   UNL     1      27.806  27.313 -16.803  1.00  0.00     0.000 C 
BRANCH   2   3
ATOM      3  C   UNL     1      27.729  25.782 -16.706  1.00  0.00     0.000 C 
BRANCH   3   4
ATOM      4  C   UNL     1      26.673  25.182 -17.648  1.00  0.00     0.006 C 
BRANCH   4   5
ATOM      5  C   UNL     1      27.269  24.180 -18.645  1.00  0.00     0.053 C 
BRANCH   5   6
ATOM      6  C   UNL     1      26.655  24.360 -19.997  1.00  0.00     0.041 C 
ATOM      7  O   UNL     1      26.990  23.611 -20.951  1.00  0.00    -0.550 OA
ATOM      8  O   UNL     1      25.673  25.324 -20.191  1.00  0.00    -0.550 OA
ENDBRANCH   5   6
ENDBRANCH   4   5
ENDBRANCH   3   4
ENDBRANCH   2   3
ENDBRANCH   1   2
BRANCH   1   9
ATOM      9  C   UNL     1      30.295  26.706 -16.810  1.00  0.00     0.000 C 
BRANCH   9  10
ATOM     10  C   UNL     1      31.433  26.717 -15.767  1.00  0.00    -0.000 C 
BRANCH  10  11
ATOM     11  C   UNL     1      30.896  26.739 -14.324  1.00  0.00    -0.000 C 
BRANCH  11  12
ATOM     12  C   UNL     1      30.560  25.335 -13.797  1.00  0.00    -0.000 C 
BRANCH  12  13
ATOM     13  C   UNL     1      29.091  25.197 -13.376  1.00  0.00    -0.003 C 
ATOM     14  C   UNL     1      28.490  26.555 -13.024  1.00  0.00     0.004 C 
ENDBRANCH  12  13
ENDBRANCH  11  12
ENDBRANCH  10  11
ENDBRANCH   9  10
ENDBRANCH   1   9
TORSDOF 10
ENDMDL
MODEL 3
REMARK VINA RESULT:    -4.070      1.219      1.911
REMARK INTER + INTRA:          -7.193
REMARK INTER:                  -6.001
REMARK INTRA:                  -1.192
REMARK UNBOUND:                -0.744
REMARK SMILES CCCCCCCCCCCC(=O)[O-]
REMARK SMILES IDX 7 1 8 2 9 3 10 4 11 5 12 6 13 7 14 8 6 9 5 10 4 11 3 12 2 13
REMARK SMILES IDX 1 14
REMARK H PARENT
REMARK Flexibility Score: inf
ROOT
ATOM      1  C   UNL     1      30.338  26.924 -15.857  1.00  0.00     0.000 C 
ENDROOT
BRANCH   1   2
ATOM      2  C   UNL     1      29.852  27.816 -17.007  1.00  0.00     0.000 C 
BRANCH   2   3
ATOM      3  C   UNL     1      28.408  28.285 -16.769  1.00  0.00     0.000 C 
BRANCH   3   4
ATOM      4  C   UNL     1      28.088  29.604 -17.491  1.00  0.00     0.006 C 
BRANCH   4   5
ATOM      5  C   UNL     1      26.803  29.524 -18.325  1.00  0.00     0.053 C 
BRANCH   5   6
ATOM      6  C   UNL     1      26.698  30.707 -19.235  1.00  0.00     0.041 C 
ATOM      7  O   UNL     1      25.923  31.658 -18.952  1.00  0.00    -0.550 OA
ATOM      8  O   UNL     1      27.494  30.783 -20.371  1.00  0.00    -0.550 OA
ENDBRANCH   5   6
ENDBRANCH   4   5
ENDBRANCH   3   4
ENDBRANCH   2   3
ENDBRANCH   1   2
BRANCH   1   9
ATOM      9  C   UNL     1      29.346  26.869 -14.682  1.00  0.00     0.000 C 
BRANCH   9  10
ATOM     10  C   UNL     1      28.749  25.465 -14.443  1.00  0.00    -0.000 C 
BRANCH  10  11
ATOM     11  C   UNL     1      27.211  25.472 -14.496  1.00  0.00    -0.000 C 
BRANCH  11  12
ATOM     12  C   UNL     1      26.666  25.079 -15.878  1.00  0.00    -0.000 C 
BRANCH  12  13
ATOM     13  C   UNL     1      27.643  24.201 -16.672  1.00  0.00    -0.003 C 
ATOM     14  C   UNL     1      27.863  24.756 -18.077  1.00  0.00     0.004 C 
ENDBRANCH  12  13
ENDBRANCH  11  12
ENDBRANCH  10  11
ENDBRANCH   9  10
ENDBRANCH   1   9
TORSDOF 10
ENDMDL
MODEL 4
REMARK VINA RESULT:    -4.040      2.564      5.358
REMARK INTER + INTRA:          -7.145
REMARK INTER:                  -6.533
REMARK INTRA:                  -0.612
REMARK UNBOUND:                -0.744
REMARK SMILES CCCCCCCCCCCC(=O)[O-]
REMARK SMILES IDX 7 1 8 2 9 3 10 4 11 5 12 6 13 7 14 8 6 9 5 10 4 11 3 12 2 13
REMARK SMILES IDX 1 14
REMARK H PARENT
REMARK Flexibility Score: inf
ROOT
ATOM      1  C   UNL     1      30.244  26.841 -17.131  1.00  0.00     0.000 C 
ENDROOT
BRANCH   1   2
ATOM      2  C   UNL     1      30.303  25.737 -16.067  1.00  0.00     0.000 C 
BRANCH   2   3
ATOM      3  C   UNL     1      29.614  24.457 -16.564  1.00  0.00     0.000 C 
BRANCH   3   4
ATOM      4  C   UNL     1      28.927  24.645 -17.926  1.00  0.00     0.006 C 
BRANCH   4   5
ATOM      5  C   UNL     1      27.512  24.054 -17.962  1.00  0.00     0.053 C 
BRANCH   5   6
ATOM      6  C   UNL     1      26.779  24.529 -19.177  1.00  0.00     0.041 C 
ATOM      7  O   UNL     1      25.929  25.453 -19.085  1.00  0.00    -0.550 OA
ATOM      8  O   UNL     1      27.072  23.985 -20.422  1.00  0.00    -0.550 OA
ENDBRANCH   5   6
ENDBRANCH   4   5
ENDBRANCH   3   4
ENDBRANCH   2   3
ENDBRANCH   1   2
BRANCH   1   9
ATOM      9  C   UNL     1      29.576  28.130 -16.620  1.00  0.00     0.000 C 
BRANCH   9  10
ATOM     10  C   UNL     1      28.099  28.270 -17.045  1.00  0.00    -0.000 C 
BRANCH  10  11
ATOM     11  C   UNL     1      27.732  29.724 -17.394  1.00  0.00    -0.000 C 
BRANCH  11  12
ATOM     12  C   UNL     1      26.520  29.817 -18.336  1.00  0.00    -0.000 C 
BRANCH  12  13
ATOM     13  C   UNL     1      26.517  31.106 -19.170  1.00  0.00    -0.003 C 
ATOM     14  C   UNL     1      27.314  30.928 -20.459  1.00  0.00     0.004 C 
ENDBRANCH  12  13
ENDBRANCH  11  12
ENDBRANCH  10  11
ENDBRANCH   9  10
ENDBRANCH   1   9
TORSDOF 10
ENDMDL
MODEL 5
REMARK VINA RESULT:    -3.985      3.212      4.819
REMARK INTER + INTRA:          -7.058
REMARK INTER:                  -5.643
REMARK INTRA:                  -1.415
REMARK UNBOUND:                -0.744
REMARK SMILES CCCCCCCCCCCC(=O)[O-]
REMARK SMILES IDX 7 1 8 2 9 3 10 4 11 5 12 6 13 7 14 8 6 9 5 10 4 11 3 12 2 13
REMARK SMILES IDX 1 14
REMARK H PARENT
REMARK Flexibility Score: inf
ROOT
ATOM      1  C   UNL     1      31.029  25.502 -17.521  1.00  0.00     0.000 C 
ENDROOT
BRANCH   1   2
ATOM      2  C   UNL     1      30.926  23.995 -17.253  1.00  0.00     0.000 C 
BRANCH   2   3
ATOM      3  C   UNL     1      29.465  23.523 -17.321  1.00  0.00     0.000 C 
BRANCH   3   4
ATOM      4  C   UNL     1      28.814  23.808 -18.684  1.00  0.00     0.006 C 
BRANCH   4   5
ATOM      5  C   UNL     1      27.346  24.238 -18.560  1.00  0.00     0.053 C 
BRANCH   5   6
ATOM      6  C   UNL     1      26.730  24.386 -19.916  1.00  0.00     0.041 C 
ATOM      7  O   UNL     1      27.083  23.630 -20.858  1.00  0.00    -0.550 OA
ATOM      8  O   UNL     1      25.729  25.325 -20.125  1.00  0.00    -0.550 OA
ENDBRANCH   5   6
ENDBRANCH   4   5
ENDBRANCH   3   4
ENDBRANCH   2   3
ENDBRANCH   1   2
BRANCH   1   9
ATOM      9  C   UNL     1      31.505  26.298 -16.293  1.00  0.00     0.000 C 
BRANCH   9  10
ATOM     10  C   UNL     1      30.436  27.260 -15.730  1.00  0.00    -0.000 C 
BRANCH  10  11
ATOM     11  C   UNL     1      29.369  27.620 -16.780  1.00  0.00    -0.000 C 
BRANCH  11  12
ATOM     12  C   UNL     1      27.964  27.140 -16.382  1.00  0.00    -0.000 C 
BRANCH  12  13
ATOM     13  C   UNL     1      27.921  26.539 -14.971  1.00  0.00    -0.003 C 
ATOM     14  C   UNL     1      27.226  25.180 -14.973  1.00  0.00     0.004 C 
ENDBRANCH  12  13
ENDBRANCH  11  12
ENDBRANCH  10  11
ENDBRANCH   9  10
ENDBRANCH   1   9
TORSDOF 10
ENDMDL
MODEL 6
REMARK VINA RESULT:    -3.977      3.362      5.248
REMARK INTER + INTRA:          -7.045
REMARK INTER:                  -5.560
REMARK INTRA:                  -1.485
REMARK UNBOUND:                -0.744
REMARK SMILES CCCCCCCCCCCC(=O)[O-]
REMARK SMILES IDX 7 1 8 2 9 3 10 4 11 5 12 6 13 7 14 8 6 9 5 10 4 11 3 12 2 13
REMARK SMILES IDX 1 14
REMARK H PARENT
REMARK Flexibility Score: inf
ROOT
ATOM      1  C   UNL     1      27.982  26.618 -15.226  1.00  0.00     0.000 C 
ENDROOT
BRANCH   1   2
ATOM      2  C   UNL     1      27.353  25.250 -15.520  1.00  0.00     0.000 C 
BRANCH   2   3
ATOM      3  C   UNL     1      28.416  24.243 -15.984  1.00  0.00     0.000 C 
BRANCH   3   4
ATOM      4  C   UNL     1      27.993  23.477 -17.248  1.00  0.00     0.006 C 
BRANCH   4   5
ATOM      5  C   UNL     1      28.092  24.332 -18.518  1.00  0.00     0.053 C 
BRANCH   5   6
ATOM      6  C   UNL     1      26.771  24.379 -19.219  1.00  0.00     0.041 C 
ATOM      7  O   UNL     1      25.750  24.808 -18.620  1.00  0.00    -0.550 OA
ATOM      8  O   UNL     1      26.677  23.995 -20.551  1.00  0.00    -0.550 OA
ENDBRANCH   5   6
ENDBRANCH   4   5
ENDBRANCH   3   4
ENDBRANCH   2   3
ENDBRANCH   1   2
BRANCH   1   9
ATOM      9  C   UNL     1      28.253  27.439 -16.499  1.00  0.00     0.000 C 
BRANCH   9  10
ATOM     10  C   UNL     1      29.755  27.646 -16.792  1.00  0.00    -0.000 C 
BRANCH  10  11
ATOM     11  C   UNL     1      30.640  27.230 -15.603  1.00  0.00    -0.000 C 
BRANCH  11  12
ATOM     12  C   UNL     1      31.898  26.463 -16.042  1.00  0.00    -0.000 C 
BRANCH  12  13
ATOM     13  C   UNL     1      31.846  26.036 -17.515  1.00  0.00    -0.003 C 
ATOM     14  C   UNL     1      31.772  24.517 -17.644  1.00  0.00     0.004 C 
ENDBRANCH  12  13
ENDBRANCH  11  12
ENDBRANCH  10  11
ENDBRANCH   9  10
ENDBRANCH   1   9
TORSDOF 10
ENDMDL
MODEL 7
REMARK VINA RESULT:    -3.935      4.318      6.713
REMARK INTER + INTRA:          -6.980
REMARK INTER:                  -6.474
REMARK INTRA:                  -0.506
REMARK UNBOUND:                -0.744
REMARK SMILES CCCCCCCCCCCC(=O)[O-]
REMARK SMILES IDX 7 1 8 2 9 3 10 4 11 5 12 6 13 7 14 8 6 9 5 10 4 11 3 12 2 13
REMARK SMILES IDX 1 14
REMARK H PARENT
REMARK Flexibility Score: inf
ROOT
ATOM      1  C   UNL     1      27.137  25.732 -17.438  1.00  0.00     0.000 C 
ENDROOT
BRANCH   1   2
ATOM      2  C   UNL     1      27.480  24.386 -18.091  1.00  0.00     0.000 C 
BRANCH   2   3
ATOM      3  C   UNL     1      26.852  24.277 -19.489  1.00  0.00     0.000 C 
BRANCH   3   4
ATOM      4  C   UNL     1      27.668  23.382 -20.435  1.00  0.00     0.006 C 
BRANCH   4   5
ATOM      5  C   UNL     1      29.154  23.322 -20.059  1.00  0.00     0.053 C 
BRANCH   5   6
ATOM      6  C   UNL     1      29.642  21.908 -20.085  1.00  0.00     0.041 C 
ATOM      7  O   UNL     1      29.455  21.154 -19.094  1.00  0.00    -0.550 OA
ATOM      8  O   UNL     1      30.260  21.407 -21.224  1.00  0.00    -0.550 OA
ENDBRANCH   5   6
ENDBRANCH   4   5
ENDBRANCH   3   4
ENDBRANCH   2   3
ENDBRANCH   1   2
BRANCH   1   9
ATOM      9  C   UNL     1      28.278  26.282 -16.564  1.00  0.00     0.000 C 
BRANCH   9  10
ATOM     10  C   UNL     1      28.406  27.820 -16.614  1.00  0.00    -0.000 C 
BRANCH  10  11
ATOM     11  C   UNL     1      27.262  28.471 -17.411  1.00  0.00    -0.000 C 
BRANCH  11  12
ATOM     12  C   UNL     1      27.581  29.916 -17.830  1.00  0.00    -0.000 C 
BRANCH  12  13
ATOM     13  C   UNL     1      26.537  30.496 -18.794  1.00  0.00    -0.003 C 
ATOM     14  C   UNL     1      27.178  30.903 -20.118  1.00  0.00     0.004 C 
ENDBRANCH  12  13
ENDBRANCH  11  12
ENDBRANCH  10  11
ENDBRANCH   9  10
ENDBRANCH   1   9
TORSDOF 10
ENDMDL
MODEL 8
REMARK VINA RESULT:    -3.881      3.394      5.374
REMARK INTER + INTRA:          -6.893
REMARK INTER:                  -5.355
REMARK INTRA:                  -1.537
REMARK UNBOUND:                -0.744
REMARK SMILES CCCCCCCCCCCC(=O)[O-]
REMARK SMILES IDX 7 1 8 2 9 3 10 4 11 5 12 6 13 7 14 8 6 9 5 10 4 11 3 12 2 13
REMARK SMILES IDX 1 14
REMARK H PARENT
REMARK Flexibility Score: inf
ROOT
ATOM      1  C   UNL     1      27.281  24.005 -15.131  1.00  0.00     0.000 C 
ENDROOT
BRANCH   1   2
ATOM      2  C   UNL     1      28.792  23.748 -15.059  1.00  0.00     0.000 C 
BRANCH   2   3
ATOM      3  C   UNL     1      29.351  23.356 -16.436  1.00  0.00     0.000 C 
BRANCH   3   4
ATOM      4  C   UNL     1      28.245  23.126 -17.479  1.00  0.00     0.006 C 
BRANCH   4   5
ATOM      5  C   UNL     1      28.354  24.081 -18.675  1.00  0.00     0.053 C 
BRANCH   5   6
ATOM      6  C   UNL     1      26.994  24.396 -19.216  1.00  0.00     0.041 C 
ATOM      7  O   UNL     1      26.087  24.810 -18.448  1.00  0.00    -0.550 OA
ATOM      8  O   UNL     1      26.744  24.280 -20.577  1.00  0.00    -0.550 OA
ENDBRANCH   5   6
ENDBRANCH   4   5
ENDBRANCH   3   4
ENDBRANCH   2   3
ENDBRANCH   1   2
BRANCH   1   9
ATOM      9  C   UNL     1      26.884  25.398 -14.611  1.00  0.00     0.000 C 
BRANCH   9  10
ATOM     10  C   UNL     1      27.954  26.481 -14.867  1.00  0.00    -0.000 C 
BRANCH  10  11
ATOM     11  C   UNL     1      27.925  26.992 -16.319  1.00  0.00    -0.000 C 
BRANCH  11  12
ATOM     12  C   UNL     1      29.209  27.743 -16.707  1.00  0.00    -0.000 C 
BRANCH  12  13
ATOM     13  C   UNL     1      30.473  27.093 -16.128  1.00  0.00    -0.003 C 
ATOM     14  C   UNL     1      31.209  26.282 -17.191  1.00  0.00     0.004 C 
ENDBRANCH  12  13
ENDBRANCH  11  12
ENDBRANCH  10  11
ENDBRANCH   9  10
ENDBRANCH   1   9
TORSDOF 10
ENDMDL
MODEL 9
REMARK VINA RESULT:    -3.860      3.413      5.310
REMARK INTER + INTRA:          -6.861
REMARK INTER:                  -5.977
REMARK INTRA:                  -0.883
REMARK UNBOUND:                -0.744
REMARK SMILES CCCCCCCCCCCC(=O)[O-]
REMARK SMILES IDX 7 1 8 2 9 3 10 4 11 5 12 6 13 7 14 8 6 9 5 10 4 11 3 12 2 13
REMARK SMILES IDX 1 14
REMARK H PARENT
REMARK Flexibility Score: inf
ROOT
ATOM      1  C   UNL     1      29.738  27.817 -16.647  1.00  0.00     0.000 C 
ENDROOT
BRANCH   1   2
ATOM      2  C   UNL     1      28.248  27.474 -16.780  1.00  0.00     0.000 C 
BRANCH   2   3
ATOM      3  C   UNL     1      27.835  26.409 -15.752  1.00  0.00     0.000 C 
BRANCH   3   4
ATOM      4  C   UNL     1      27.272  25.139 -16.409  1.00  0.00     0.006 C 
BRANCH   4   5
ATOM      5  C   UNL     1      27.866  24.880 -17.800  1.00  0.00     0.053 C 
BRANCH   5   6
ATOM      6  C   UNL     1      26.779  24.588 -18.786  1.00  0.00     0.041 C 
ATOM      7  O   UNL     1      25.587  24.897 -18.525  1.00  0.00    -0.550 OA
ATOM      8  O   UNL     1      27.090  24.020 -20.015  1.00  0.00    -0.550 OA
ENDBRANCH   5   6
ENDBRANCH   4   5
ENDBRANCH   3   4
ENDBRANCH   2   3
ENDBRANCH   1   2
BRANCH   1   9
ATOM      9  C   UNL     1      30.409  27.122 -15.449  1.00  0.00     0.000 C 
BRANCH   9  10
ATOM     10  C   UNL     1      31.554  26.169 -15.851  1.00  0.00    -0.000 C 
BRANCH  10  11
ATOM     11  C   UNL     1      31.698  26.047 -17.379  1.00  0.00    -0.000 C 
BRANCH  11  12
ATOM     12  C   UNL     1      33.165  25.962 -17.830  1.00  0.00    -0.000 C 
BRANCH  12  13
ATOM     13  C   UNL     1      33.356  26.362 -19.299  1.00  0.00    -0.003 C 
ATOM     14  C   UNL     1      34.818  26.683 -19.595  1.00  0.00     0.004 C 
ENDBRANCH  12  13
ENDBRANCH  11  12
ENDBRANCH  10  11
ENDBRANCH   9  10
ENDBRANCH   1   9
TORSDOF 10
ENDMDL
