MODEL 1
REMARK VINA RESULT:    -3.609      0.000      0.000
REMARK INTER + INTRA:          -5.221
REMARK INTER:                  -4.875
REMARK INTRA:                  -0.346
REMARK UNBOUND:                -0.346
REMARK SMILES CCCCCCC=CC(=O)[O-]
REMARK SMILES IDX 5 1 6 2 7 3 8 4 9 5 10 6 11 7 4 8 3 9 2 10 1 11
REMARK H PARENT
REMARK Flexibility Score: inf
ROOT
ATOM      1  C   UNL     1       8.039   1.483   5.196  1.00  0.00     0.004 C 
ENDROOT
BRANCH   1   2
ATOM      2  C   UNL     1       7.142   1.347   6.437  1.00  0.00     0.027 C 
BRANCH   2   3
ATOM      3  C   UNL     1       6.165   2.484   6.524  1.00  0.00    -0.025 C 
ATOM      4  C   UNL     1       6.292   3.576   5.761  1.00  0.00     0.020 C 
BRANCH   4   5
ATOM      5  C   UNL     1       5.337   4.694   5.818  1.00  0.00     0.064 C 
ATOM      6  O   UNL     1       5.560   5.704   6.537  1.00  0.00    -0.545 OA
ATOM      7  O   UNL     1       4.171   4.635   5.066  1.00  0.00    -0.545 OA
ENDBRANCH   4   5
ENDBRANCH   2   3
ENDBRANCH   1   2
BRANCH   1   8
ATOM      8  C   UNL     1       9.146   0.416   5.146  1.00  0.00     0.000 C 
BRANCH   8   9
ATOM      9  C   UNL     1       9.263  -0.377   6.460  1.00  0.00    -0.000 C 
BRANCH   9  10
ATOM     10  C   UNL     1       9.657  -1.844   6.227  1.00  0.00    -0.003 C 
ATOM     11  C   UNL     1       9.561  -2.258   4.758  1.00  0.00     0.004 C 
ENDBRANCH   9  10
ENDBRANCH   8   9
ENDBRANCH   1   8
TORSDOF 6
ENDMDL
MODEL 2
REMARK VINA RESULT:    -3.428     12.437     13.704
REMARK INTER + INTRA:          -4.977
REMARK INTER:                  -4.475
REMARK INTRA:                  -0.501
REMARK UNBOUND:                -0.346
REMARK SMILES CCCCCCC=CC(=O)[O-]
REMARK SMILES IDX 5 1 6 2 7 3 8 4 9 5 10 6 11 7 4 8 3 9 2 10 1 11
REMARK H PARENT
REMARK Flexibility Score: inf
ROOT
ATOM      1  C   UNL     1       4.597  -5.969  -5.856  1.00  0.00     0.004 C 
ENDROOT
BRANCH   1   2
ATOM      2  C   UNL     1       3.455  -5.520  -6.783  1.00  0.00     0.027 C 
BRANCH   2   3
ATOM      3  C   UNL     1       3.465  -4.030  -6.968  1.00  0.00    -0.025 C 
ATOM      4  C   UNL     1       2.335  -3.343  -7.173  1.00  0.00     0.020 C 
BRANCH   4   5
ATOM      5  C   UNL     1       2.319  -1.882  -7.341  1.00  0.00     0.064 C 
ATOM      6  O   UNL     1       3.281  -1.278  -7.887  1.00  0.00    -0.545 OA
ATOM      7  O   UNL     1       1.225  -1.155  -6.891  1.00  0.00    -0.545 OA
ENDBRANCH   4   5
ENDBRANCH   2   3
ENDBRANCH   1   2
BRANCH   1   8
ATOM      8  C   UNL     1       5.567  -4.827  -5.516  1.00  0.00     0.000 C 
BRANCH   8   9
ATOM      9  C   UNL     1       5.901  -4.760  -4.015  1.00  0.00    -0.000 C 
BRANCH   9  10
ATOM     10  C   UNL     1       6.119  -3.320  -3.525  1.00  0.00    -0.003 C 
ATOM     11  C   UNL     1       5.583  -2.274  -4.502  1.00  0.00     0.004 C 
ENDBRANCH   9  10
ENDBRANCH   8   9
ENDBRANCH   1   8
TORSDOF 6
ENDMDL
MODEL 3
REMARK VINA RESULT:    -3.406     13.082     14.285
REMARK INTER + INTRA:          -4.947
REMARK INTER:                  -4.599
REMARK INTRA:                  -0.349
REMARK UNBOUND:                -0.346
REMARK SMILES CCCCCCC=CC(=O)[O-]
REMARK SMILES IDX 5 1 6 2 7 3 8 4 9 5 10 6 11 7 4 8 3 9 2 10 1 11
REMARK H PARENT
REMARK Flexibility Score: inf
ROOT
ATOM      1  C   UNL     1       3.667  -5.479  -6.789  1.00  0.00     0.004 C 
ENDROOT
BRANCH   1   2
ATOM      2  C   UNL     1       2.255  -5.350  -7.383  1.00  0.00     0.027 C 
BRANCH   2   3
ATOM      3  C   UNL     1       1.819  -3.914  -7.431  1.00  0.00    -0.025 C 
ATOM      4  C   UNL     1       2.694  -2.911  -7.291  1.00  0.00     0.020 C 
BRANCH   4   5
ATOM      5  C   UNL     1       2.291  -1.498  -7.350  1.00  0.00     0.064 C 
ATOM      6  O   UNL     1       1.326  -1.066  -6.666  1.00  0.00    -0.545 OA
ATOM      7  O   UNL     1       2.988  -0.623  -8.175  1.00  0.00    -0.545 OA
ENDBRANCH   4   5
ENDBRANCH   2   3
ENDBRANCH   1   2
BRANCH   1   8
ATOM      8  C   UNL     1       3.853  -6.775  -5.982  1.00  0.00     0.000 C 
BRANCH   8   9
ATOM      9  C   UNL     1       5.014  -6.684  -4.976  1.00  0.00    -0.000 C 
BRANCH   9  10
ATOM     10  C   UNL     1       5.515  -5.244  -4.785  1.00  0.00    -0.003 C 
ATOM     11  C   UNL     1       6.532  -5.116  -3.650  1.00  0.00     0.004 C 
ENDBRANCH   9  10
ENDBRANCH   8   9
ENDBRANCH   1   8
TORSDOF 6
ENDMDL
MODEL 4
REMARK VINA RESULT:    -3.370     12.196     13.855
REMARK INTER + INTRA:          -4.899
REMARK INTER:                  -4.419
REMARK INTRA:                  -0.479
REMARK UNBOUND:                -0.346
REMARK SMILES CCCCCCC=CC(=O)[O-]
REMARK SMILES IDX 5 1 6 2 7 3 8 4 9 5 10 6 11 7 4 8 3 9 2 10 1 11
REMARK H PARENT
REMARK Flexibility Score: inf
ROOT
ATOM      1  C   UNL     1       3.964  -6.713  -5.948  1.00  0.00     0.004 C 
ENDROOT
BRANCH   1   2
ATOM      2  C   UNL     1       5.177  -6.425  -5.049  1.00  0.00     0.027 C 
BRANCH   2   3
ATOM      3  C   UNL     1       5.414  -4.948  -4.918  1.00  0.00    -0.025 C 
ATOM      4  C   UNL     1       5.991  -4.425  -3.830  1.00  0.00     0.020 C 
BRANCH   4   5
ATOM      5  C   UNL     1       6.247  -2.984  -3.687  1.00  0.00     0.064 C 
ATOM      6  O   UNL     1       5.787  -2.155  -4.517  1.00  0.00    -0.545 OA
ATOM      7  O   UNL     1       7.010  -2.529  -2.619  1.00  0.00    -0.545 OA
ENDBRANCH   4   5
ENDBRANCH   2   3
ENDBRANCH   1   2
BRANCH   1   8
ATOM      8  C   UNL     1       3.738  -5.619  -7.005  1.00  0.00     0.000 C 
BRANCH   8   9
ATOM      9  C   UNL     1       2.246  -5.368  -7.288  1.00  0.00    -0.000 C 
BRANCH   9  10
ATOM     10  C   UNL     1       1.916  -3.873  -7.417  1.00  0.00    -0.003 C 
ATOM     11  C   UNL     1       3.139  -2.977  -7.224  1.00  0.00     0.004 C 
ENDBRANCH   9  10
ENDBRANCH   8   9
ENDBRANCH   1   8
TORSDOF 6
ENDMDL
MODEL 5
REMARK VINA RESULT:    -3.358     12.546     14.157
REMARK INTER + INTRA:          -4.882
REMARK INTER:                  -4.574
REMARK INTRA:                  -0.308
REMARK UNBOUND:                -0.346
REMARK SMILES CCCCCCC=CC(=O)[O-]
REMARK SMILES IDX 5 1 6 2 7 3 8 4 9 5 10 6 11 7 4 8 3 9 2 10 1 11
REMARK H PARENT
REMARK Flexibility Score: inf
ROOT
ATOM      1  C   UNL     1       4.077  -6.738  -5.822  1.00  0.00     0.004 C 
ENDROOT
BRANCH   1   2
ATOM      2  C   UNL     1       5.397  -6.372  -5.123  1.00  0.00     0.027 C 
BRANCH   2   3
ATOM      3  C   UNL     1       5.467  -4.900  -4.838  1.00  0.00    -0.025 C 
ATOM      4  C   UNL     1       6.173  -4.419  -3.807  1.00  0.00     0.020 C 
BRANCH   4   5
ATOM      5  C   UNL     1       6.269  -2.980  -3.519  1.00  0.00     0.064 C 
ATOM      6  O   UNL     1       6.974  -2.551  -2.568  1.00  0.00    -0.545 OA
ATOM      7  O   UNL     1       5.570  -2.078  -4.311  1.00  0.00    -0.545 OA
ENDBRANCH   4   5
ENDBRANCH   2   3
ENDBRANCH   1   2
BRANCH   1   8
ATOM      8  C   UNL     1       3.611  -5.656  -6.809  1.00  0.00     0.000 C 
BRANCH   8   9
ATOM      9  C   UNL     1       2.185  -5.905  -7.331  1.00  0.00    -0.000 C 
BRANCH   9  10
ATOM     10  C   UNL     1       1.739  -7.365  -7.149  1.00  0.00    -0.003 C 
ATOM     11  C   UNL     1       1.325  -8.027  -8.463  1.00  0.00     0.004 C 
ENDBRANCH   9  10
ENDBRANCH   8   9
ENDBRANCH   1   8
TORSDOF 6
ENDMDL
MODEL 6
REMARK VINA RESULT:    -3.283      1.718      2.557
REMARK INTER + INTRA:          -4.780
REMARK INTER:                  -4.141
REMARK INTRA:                  -0.639
REMARK UNBOUND:                -0.346
REMARK SMILES CCCCCCC=CC(=O)[O-]
REMARK SMILES IDX 5 1 6 2 7 3 8 4 9 5 10 6 11 7 4 8 3 9 2 10 1 11
REMARK H PARENT
REMARK Flexibility Score: inf
ROOT
ATOM      1  C   UNL     1       8.476   1.621   5.008  1.00  0.00     0.004 C 
ENDROOT
BRANCH   1   2
ATOM      2  C   UNL     1       8.585   3.077   5.489  1.00  0.00     0.027 C 
BRANCH   2   3
ATOM      3  C   UNL     1       7.294   3.814   5.277  1.00  0.00    -0.025 C 
ATOM      4  C   UNL     1       6.591   4.303   6.306  1.00  0.00     0.020 C 
BRANCH   4   5
ATOM      5  C   UNL     1       5.333   5.042   6.121  1.00  0.00     0.064 C 
ATOM      6  O   UNL     1       5.044   6.030   6.848  1.00  0.00    -0.545 OA
ATOM      7  O   UNL     1       4.448   4.645   5.127  1.00  0.00    -0.545 OA
ENDBRANCH   4   5
ENDBRANCH   2   3
ENDBRANCH   1   2
BRANCH   1   8
ATOM      8  C   UNL     1       7.759   0.715   6.023  1.00  0.00     0.000 C 
BRANCH   8   9
ATOM      9  C   UNL     1       8.543   0.563   7.338  1.00  0.00    -0.000 C 
BRANCH   9  10
ATOM     10  C   UNL     1       7.870   1.292   8.512  1.00  0.00    -0.003 C 
ATOM     11  C   UNL     1       6.344   1.267   8.428  1.00  0.00     0.004 C 
ENDBRANCH   9  10
ENDBRANCH   8   9
ENDBRANCH   1   8
TORSDOF 6
ENDMDL
MODEL 7
REMARK VINA RESULT:    -3.232     14.061     15.368
REMARK INTER + INTRA:          -4.712
REMARK INTER:                  -4.099
REMARK INTRA:                  -0.613
REMARK UNBOUND:                -0.346
REMARK SMILES CCCCCCC=CC(=O)[O-]
REMARK SMILES IDX 5 1 6 2 7 3 8 4 9 5 10 6 11 7 4 8 3 9 2 10 1 11
REMARK H PARENT
REMARK Flexibility Score: inf
ROOT
ATOM      1  C   UNL     1       4.684  -5.488  -5.696  1.00  0.00     0.004 C 
ENDROOT
BRANCH   1   2
ATOM      2  C   UNL     1       4.340  -4.931  -7.087  1.00  0.00     0.027 C 
BRANCH   2   3
ATOM      3  C   UNL     1       3.367  -3.792  -6.987  1.00  0.00    -0.025 C 
ATOM      4  C   UNL     1       2.345  -3.668  -7.841  1.00  0.00     0.020 C 
BRANCH   4   5
ATOM      5  C   UNL     1       1.370  -2.569  -7.752  1.00  0.00     0.064 C 
ATOM      6  O   UNL     1       0.335  -2.557  -8.470  1.00  0.00    -0.545 OA
ATOM      7  O   UNL     1       1.595  -1.529  -6.860  1.00  0.00    -0.545 OA
ENDBRANCH   4   5
ENDBRANCH   2   3
ENDBRANCH   1   2
BRANCH   1   8
ATOM      8  C   UNL     1       4.567  -7.019  -5.626  1.00  0.00     0.000 C 
BRANCH   8   9
ATOM      9  C   UNL     1       3.868  -7.616  -6.860  1.00  0.00    -0.000 C 
BRANCH   9  10
ATOM     10  C   UNL     1       2.422  -8.048  -6.566  1.00  0.00    -0.003 C 
ATOM     11  C   UNL     1       1.396  -7.306  -7.423  1.00  0.00     0.004 C 
ENDBRANCH   9  10
ENDBRANCH   8   9
ENDBRANCH   1   8
TORSDOF 6
ENDMDL
MODEL 8
REMARK VINA RESULT:    -3.227     14.045     14.809
REMARK INTER + INTRA:          -4.706
REMARK INTER:                  -4.377
REMARK INTRA:                  -0.329
REMARK UNBOUND:                -0.346
REMARK SMILES CCCCCCC=CC(=O)[O-]
REMARK SMILES IDX 5 1 6 2 7 3 8 4 9 5 10 6 11 7 4 8 3 9 2 10 1 11
REMARK H PARENT
REMARK Flexibility Score: inf
ROOT
ATOM      1  C   UNL     1       2.985  -6.770  -7.049  1.00  0.00     0.004 C 
ENDROOT
BRANCH   1   2
ATOM      2  C   UNL     1       2.054  -5.742  -7.713  1.00  0.00     0.027 C 
BRANCH   2   3
ATOM      3  C   UNL     1       2.174  -4.399  -7.051  1.00  0.00    -0.025 C 
ATOM      4  C   UNL     1       1.943  -3.265  -7.723  1.00  0.00     0.020 C 
BRANCH   4   5
ATOM      5  C   UNL     1       2.038  -1.940  -7.090  1.00  0.00     0.064 C 
ATOM      6  O   UNL     1       3.115  -1.542  -6.571  1.00  0.00    -0.545 OA
ATOM      7  O   UNL     1       0.922  -1.114  -7.066  1.00  0.00    -0.545 OA
ENDBRANCH   4   5
ENDBRANCH   2   3
ENDBRANCH   1   2
BRANCH   1   8
ATOM      8  C   UNL     1       4.083  -6.112  -6.199  1.00  0.00     0.000 C 
BRANCH   8   9
ATOM      9  C   UNL     1       4.634  -7.052  -5.112  1.00  0.00    -0.000 C 
BRANCH   9  10
ATOM     10  C   UNL     1       3.950  -8.428  -5.124  1.00  0.00    -0.003 C 
ATOM     11  C   UNL     1       4.449  -9.347  -4.009  1.00  0.00     0.004 C 
ENDBRANCH   9  10
ENDBRANCH   8   9
ENDBRANCH   1   8
TORSDOF 6
ENDMDL
MODEL 9
REMARK VINA RESULT:    -3.193     12.278     14.465
REMARK INTER + INTRA:          -4.659
REMARK INTER:                  -4.358
REMARK INTRA:                  -0.301
REMARK UNBOUND:                -0.346
REMARK SMILES CCCCCCC=CC(=O)[O-]
REMARK SMILES IDX 5 1 6 2 7 3 8 4 9 5 10 6 11 7 4 8 3 9 2 10 1 11
REMARK H PARENT
REMARK Flexibility Score: inf
ROOT
ATOM      1  C   UNL     1      -5.980   4.060  -0.185  1.00  0.00     0.004 C 
ENDROOT
BRANCH   1   2
ATOM      2  C   UNL     1      -5.905   5.219   0.823  1.00  0.00     0.027 C 
BRANCH   2   3
ATOM      3  C   UNL     1      -4.496   5.717   0.968  1.00  0.00    -0.025 C 
ATOM      4  C   UNL     1      -3.633   5.686  -0.054  1.00  0.00     0.020 C 
BRANCH   4   5
ATOM      5  C   UNL     1      -2.254   6.183   0.062  1.00  0.00     0.064 C 
ATOM      6  O   UNL     1      -1.473   6.176  -0.927  1.00  0.00    -0.545 OA
ATOM      7  O   UNL     1      -1.804   6.670   1.282  1.00  0.00    -0.545 OA
ENDBRANCH   4   5
ENDBRANCH   2   3
ENDBRANCH   1   2
BRANCH   1   8
ATOM      8  C   UNL     1      -7.309   3.292  -0.104  1.00  0.00     0.000 C 
BRANCH   8   9
ATOM      9  C   UNL     1      -7.115   1.765  -0.152  1.00  0.00    -0.000 C 
BRANCH   9  10
ATOM     10  C   UNL     1      -7.813   1.048   1.014  1.00  0.00    -0.003 C 
ATOM     11  C   UNL     1      -8.302   2.011   2.096  1.00  0.00     0.004 C 
ENDBRANCH   9  10
ENDBRANCH   8   9
ENDBRANCH   1   8
TORSDOF 6
ENDMDL
