MODEL 1
REMARK VINA RESULT:    -4.557      0.000      0.000
REMARK INTER + INTRA:          -4.864
REMARK INTER:                  -5.623
REMARK INTRA:                   0.759
REMARK UNBOUND:                 0.759
REMARK SMILES CC1=CC=CC(C)(C)CC1=O
REMARK SMILES IDX 1 1 2 2 3 3 10 4 11 5 9 6 4 8 5 9 6 10 7 11 8 12
REMARK H PARENT
REMARK Flexibility Score: 80.00
ROOT
ATOM      1  C   UNL     1      26.529 -14.880  32.168  1.00  0.00     0.048 C 
ATOM      2  C   UNL     1      26.662 -14.007  30.942  1.00  0.00    -0.008 C 
ATOM      3  C   UNL     1      26.029 -14.405  29.818  1.00  0.00     0.007 C 
ENDROOT
BRANCH   2   4
ATOM      4  C   UNL     1      27.544 -12.817  31.053  1.00  0.00     0.159 C 
ATOM      5  O   UNL     1      28.281 -12.698  32.069  1.00  0.00    -0.295 OA
BRANCH   4   6
ATOM      6  C   UNL     1      27.599 -11.731  30.023  1.00  0.00     0.091 CG0
ATOM      7  G   UNL     1      28.028 -12.237  28.627  1.00  0.00     0.000 G0
ENDBRANCH   4   6
ENDBRANCH   2   4
BRANCH   3   8
ATOM      8  C   UNL     1      25.995 -13.783  28.473  1.00  0.00    -0.003 C 
ATOM      9  C   UNL     1      26.829 -12.879  27.941  1.00  0.00    -0.020 C 
BRANCH   9  10
ATOM     10  C   UNL     1      28.018 -12.244  28.621  1.00  0.00    -0.010 CG0
ATOM     11  C   UNL     1      28.462 -11.025  27.781  1.00  0.00     0.016 C 
ATOM     12  C   UNL     1      29.195 -13.245  28.669  1.00  0.00     0.016 C 
ATOM     13  G   UNL     1      27.608 -11.738  30.022  1.00  0.00     0.000 G0
ENDBRANCH   9  10
ENDBRANCH   3   8
TORSDOF 0
ENDMDL
MODEL 2
REMARK VINA RESULT:    -4.443      1.768      3.007
REMARK INTER + INTRA:          -4.723
REMARK INTER:                  -5.472
REMARK INTRA:                   0.749
REMARK UNBOUND:                 0.759
REMARK SMILES CC1=CC=CC(C)(C)CC1=O
REMARK SMILES IDX 1 1 2 2 3 3 10 4 11 5 9 6 4 8 5 9 6 10 7 11 8 12
REMARK H PARENT
REMARK Flexibility Score: 80.00
ROOT
ATOM      1  C   UNL     1      25.296 -14.324  28.359  1.00  0.00     0.048 C 
ATOM      2  C   UNL     1      26.430 -13.935  29.278  1.00  0.00    -0.008 C 
ATOM      3  C   UNL     1      26.320 -14.264  30.583  1.00  0.00     0.007 C 
ENDROOT
BRANCH   2   4
ATOM      4  C   UNL     1      27.544 -13.154  28.683  1.00  0.00     0.159 C 
ATOM      5  O   UNL     1      27.403 -12.679  27.523  1.00  0.00    -0.295 OA
BRANCH   4   6
ATOM      6  C   UNL     1      28.845 -12.906  29.382  1.00  0.00     0.091 CG0
ATOM      7  G   UNL     1      28.683 -12.155  30.723  1.00  0.00     0.000 G0
ENDBRANCH   4   6
ENDBRANCH   2   4
BRANCH   3   8
ATOM      8  C   UNL     1      27.242 -13.999  31.713  1.00  0.00    -0.003 C 
ATOM      9  C   UNL     1      28.237 -13.106  31.798  1.00  0.00    -0.020 C 
BRANCH   9  10
ATOM     10  C   UNL     1      28.683 -12.152  30.715  1.00  0.00    -0.010 CG0
ATOM     11  C   UNL     1      30.067 -11.588  31.108  1.00  0.00     0.016 C 
ATOM     12  C   UNL     1      27.694 -10.968  30.617  1.00  0.00     0.016 C 
ATOM     13  G   UNL     1      28.835 -12.914  29.380  1.00  0.00     0.000 G0
ENDBRANCH   9  10
ENDBRANCH   3   8
TORSDOF 0
ENDMDL
MODEL 3
REMARK VINA RESULT:    -4.331      1.126      1.205
REMARK INTER + INTRA:          -4.585
REMARK INTER:                  -5.328
REMARK INTRA:                   0.744
REMARK UNBOUND:                 0.759
REMARK SMILES CC1=CC=CC(C)(C)CC1=O
REMARK SMILES IDX 1 1 2 2 3 3 10 4 11 5 9 6 4 8 5 9 6 10 7 11 8 12
REMARK H PARENT
REMARK Flexibility Score: 80.00
ROOT
ATOM      1  C   UNL     1      27.649 -13.962  31.992  1.00  0.00     0.048 C 
ATOM      2  C   UNL     1      27.592 -13.379  30.600  1.00  0.00    -0.008 C 
ATOM      3  C   UNL     1      26.668 -13.875  29.750  1.00  0.00     0.007 C 
ENDROOT
BRANCH   2   4
ATOM      4  C   UNL     1      28.612 -12.356  30.254  1.00  0.00     0.159 C 
ATOM      5  O   UNL     1      29.579 -12.170  31.042  1.00  0.00    -0.295 OA
BRANCH   4   6
ATOM      6  C   UNL     1      28.551 -11.514  29.017  1.00  0.00     0.091 CG0
ATOM      7  G   UNL     1      28.550 -12.344  27.714  1.00  0.00     0.000 G0
ENDBRANCH   4   6
ENDBRANCH   2   4
BRANCH   3   8
ATOM      8  C   UNL     1      26.392 -13.529  28.335  1.00  0.00    -0.003 C 
ATOM      9  C   UNL     1      27.176 -12.895  27.454  1.00  0.00    -0.020 C 
BRANCH   9  10
ATOM     10  C   UNL     1      28.557 -12.342  27.715  1.00  0.00    -0.010 CG0
ATOM     11  C   UNL     1      28.919 -11.380  26.561  1.00  0.00     0.016 C 
ATOM     12  C   UNL     1      29.591 -13.491  27.722  1.00  0.00     0.016 C 
ATOM     13  G   UNL     1      28.554 -11.534  29.032  1.00  0.00     0.000 G0
ENDBRANCH   9  10
ENDBRANCH   3   8
TORSDOF 0
ENDMDL
MODEL 4
REMARK VINA RESULT:    -4.320      1.405      2.014
REMARK INTER + INTRA:          -4.572
REMARK INTER:                  -5.325
REMARK INTRA:                   0.753
REMARK UNBOUND:                 0.759
REMARK SMILES CC1=CC=CC(C)(C)CC1=O
REMARK SMILES IDX 1 1 2 2 3 3 10 4 11 5 9 6 4 8 5 9 6 10 7 11 8 12
REMARK H PARENT
REMARK Flexibility Score: 80.00
ROOT
ATOM      1  C   UNL     1      25.639 -14.726  29.533  1.00  0.00     0.048 C 
ATOM      2  C   UNL     1      26.631 -13.589  29.471  1.00  0.00    -0.008 C 
ATOM      3  C   UNL     1      26.701 -12.881  28.323  1.00  0.00     0.007 C 
ENDROOT
BRANCH   2   4
ATOM      4  C   UNL     1      27.505 -13.390  30.655  1.00  0.00     0.159 C 
ATOM      5  O   UNL     1      27.509 -14.265  31.563  1.00  0.00    -0.295 OA
BRANCH   4   6
ATOM      6  C   UNL     1      28.382 -12.190  30.842  1.00  0.00     0.091 CG0
ATOM      7  G   UNL     1      29.407 -12.001  29.702  1.00  0.00     0.000 G0
ENDBRANCH   4   6
ENDBRANCH   2   4
BRANCH   3   8
ATOM      8  C   UNL     1      27.581 -11.745  27.957  1.00  0.00    -0.003 C 
ATOM      9  C   UNL     1      28.734 -11.357  28.517  1.00  0.00    -0.020 C 
BRANCH   9  10
ATOM     10  C   UNL     1      29.413 -11.991  29.708  1.00  0.00    -0.010 CG0
ATOM     11  C   UNL     1      30.504 -11.022  30.215  1.00  0.00     0.016 C 
ATOM     12  C   UNL     1      30.103 -13.308  29.282  1.00  0.00     0.016 C 
ATOM     13  G   UNL     1      28.386 -12.197  30.844  1.00  0.00     0.000 G0
ENDBRANCH   9  10
ENDBRANCH   3   8
TORSDOF 0
ENDMDL
MODEL 5
REMARK VINA RESULT:    -4.194      1.622      2.564
REMARK INTER + INTRA:          -4.416
REMARK INTER:                  -5.162
REMARK INTRA:                   0.746
REMARK UNBOUND:                 0.759
REMARK SMILES CC1=CC=CC(C)(C)CC1=O
REMARK SMILES IDX 1 1 2 2 3 3 10 4 11 5 9 6 4 8 5 9 6 10 7 11 8 12
REMARK H PARENT
REMARK Flexibility Score: 80.00
ROOT
ATOM      1  C   UNL     1      26.358 -14.371  31.653  1.00  0.00     0.048 C 
ATOM      2  C   UNL     1      27.301 -13.590  30.769  1.00  0.00    -0.008 C 
ATOM      3  C   UNL     1      28.303 -12.911  31.368  1.00  0.00     0.007 C 
ENDROOT
BRANCH   2   4
ATOM      4  C   UNL     1      27.004 -13.572  29.314  1.00  0.00     0.159 C 
ATOM      5  O   UNL     1      25.893 -14.014  28.914  1.00  0.00    -0.295 OA
BRANCH   4   6
ATOM      6  C   UNL     1      27.963 -13.065  28.281  1.00  0.00     0.091 CG0
ATOM      7  G   UNL     1      28.352 -11.584  28.486  1.00  0.00     0.000 G0
ENDBRANCH   4   6
ENDBRANCH   2   4
BRANCH   3   8
ATOM      8  C   UNL     1      29.353 -12.047  30.778  1.00  0.00    -0.003 C 
ATOM      9  C   UNL     1      29.386 -11.462  29.573  1.00  0.00    -0.020 C 
BRANCH   9  10
ATOM     10  C   UNL     1      28.339 -11.575  28.491  1.00  0.00    -0.010 CG0
ATOM     11  C   UNL     1      28.951 -11.059  27.169  1.00  0.00     0.016 C 
ATOM     12  C   UNL     1      27.126 -10.681  28.837  1.00  0.00     0.016 C 
ATOM     13  G   UNL     1      27.950 -13.057  28.295  1.00  0.00     0.000 G0
ENDBRANCH   9  10
ENDBRANCH   3   8
TORSDOF 0
ENDMDL
MODEL 6
REMARK VINA RESULT:    -4.082      2.319      4.133
REMARK INTER + INTRA:          -4.277
REMARK INTER:                  -5.023
REMARK INTRA:                   0.746
REMARK UNBOUND:                 0.759
REMARK SMILES CC1=CC=CC(C)(C)CC1=O
REMARK SMILES IDX 1 1 2 2 3 3 10 4 11 5 9 6 4 8 5 9 6 10 7 11 8 12
REMARK H PARENT
REMARK Flexibility Score: 80.00
ROOT
ATOM      1  C   UNL     1      31.624 -14.369  28.008  1.00  0.00     0.048 C 
ATOM      2  C   UNL     1      30.967 -13.334  28.890  1.00  0.00    -0.008 C 
ATOM      3  C   UNL     1      31.457 -13.172  30.138  1.00  0.00     0.007 C 
ENDROOT
BRANCH   2   4
ATOM      4  C   UNL     1      29.782 -12.629  28.338  1.00  0.00     0.159 C 
ATOM      5  O   UNL     1      29.259 -13.061  27.275  1.00  0.00    -0.295 OA
BRANCH   4   6
ATOM      6  C   UNL     1      29.175 -11.414  28.969  1.00  0.00     0.091 CG0
ATOM      7  G   UNL     1      28.685 -11.657  30.414  1.00  0.00     0.000 G0
ENDBRANCH   4   6
ENDBRANCH   2   4
BRANCH   3   8
ATOM      8  C   UNL     1      31.012 -12.268  31.226  1.00  0.00    -0.003 C 
ATOM      9  C   UNL     1      29.844 -11.630  31.367  1.00  0.00    -0.020 C 
BRANCH   9  10
ATOM     10  C   UNL     1      28.681 -11.662  30.405  1.00  0.00    -0.010 CG0
ATOM     11  C   UNL     1      27.718 -10.508  30.769  1.00  0.00     0.016 C 
ATOM     12  C   UNL     1      27.909 -12.993  30.554  1.00  0.00     0.016 C 
ATOM     13  G   UNL     1      29.190 -11.426  28.965  1.00  0.00     0.000 G0
ENDBRANCH   9  10
ENDBRANCH   3   8
TORSDOF 0
ENDMDL
MODEL 7
REMARK VINA RESULT:    -3.939      2.214      3.468
REMARK INTER + INTRA:          -4.100
REMARK INTER:                  -5.146
REMARK INTRA:                   1.046
REMARK UNBOUND:                 0.759
REMARK SMILES CC1=CC=CC(C)(C)CC1=O
REMARK SMILES IDX 1 1 2 2 3 3 10 4 11 5 9 6 4 8 5 9 6 10 7 11 8 12
REMARK H PARENT
REMARK Flexibility Score: 80.00
ROOT
ATOM      1  C   UNL     1      27.485 -13.795  26.499  1.00  0.00     0.048 C 
ATOM      2  C   UNL     1      27.777 -12.969  27.729  1.00  0.00    -0.008 C 
ATOM      3  C   UNL     1      27.303 -13.417  28.912  1.00  0.00     0.007 C 
ENDROOT
BRANCH   2   4
ATOM      4  C   UNL     1      28.499 -11.687  27.527  1.00  0.00     0.159 C 
ATOM      5  O   UNL     1      29.086 -11.486  26.429  1.00  0.00    -0.295 OA
BRANCH   4   6
ATOM      6  C   UNL     1      28.584 -10.613  28.568  1.00  0.00     0.091 CG0
ATOM      7  G   UNL     1      29.233 -11.092  29.886  1.00  0.00     0.000 G0
ENDBRANCH   4   6
ENDBRANCH   2   4
BRANCH   3   8
ATOM      8  C   UNL     1      27.403 -12.821  30.265  1.00  0.00    -0.003 C 
ATOM      9  C   UNL     1      28.192 -11.828  30.693  1.00  0.00    -0.020 C 
BRANCH   9  10
ATOM     10  C   UNL     1      29.217 -11.079  29.875  1.00  0.00    -0.010 CG0
ATOM     11  C   UNL     1      30.371 -12.050  29.537  1.00  0.00     0.016 C 
ATOM     12  C   UNL     1      29.802  -9.912  30.703  1.00  0.00     0.016 C 
ATOM     13  G   UNL     1      28.581 -10.608  28.548  1.00  0.00     0.000 G0
ENDBRANCH   9  10
ENDBRANCH   3   8
TORSDOF 0
ENDMDL
MODEL 8
REMARK VINA RESULT:    -3.860      2.134      3.692
REMARK INTER + INTRA:          -4.004
REMARK INTER:                  -5.042
REMARK INTRA:                   1.038
REMARK UNBOUND:                 0.759
REMARK SMILES CC1=CC=CC(C)(C)CC1=O
REMARK SMILES IDX 1 1 2 2 3 3 10 4 11 5 9 6 4 8 5 9 6 10 7 11 8 12
REMARK H PARENT
REMARK Flexibility Score: 80.00
ROOT
ATOM      1  C   UNL     1      31.602 -13.977  28.366  1.00  0.00     0.048 C 
ATOM      2  C   UNL     1      30.605 -12.901  28.726  1.00  0.00    -0.008 C 
ATOM      3  C   UNL     1      29.766 -12.475  27.757  1.00  0.00     0.007 C 
ENDROOT
BRANCH   2   4
ATOM      4  C   UNL     1      30.678 -12.345  30.101  1.00  0.00     0.159 C 
ATOM      5  O   UNL     1      31.338 -12.969  30.976  1.00  0.00    -0.295 OA
BRANCH   4   6
ATOM      6  C   UNL     1      29.996 -11.078  30.517  1.00  0.00     0.091 CG0
ATOM      7  G   UNL     1      28.465 -11.113  30.307  1.00  0.00     0.000 G0
ENDBRANCH   4   6
ENDBRANCH   2   4
BRANCH   3   8
ATOM      8  C   UNL     1      28.715 -11.431  27.799  1.00  0.00    -0.003 C 
ATOM      9  C   UNL     1      28.164 -10.831  28.863  1.00  0.00    -0.020 C 
BRANCH   9  10
ATOM     10  C   UNL     1      28.478 -11.110  30.314  1.00  0.00    -0.010 CG0
ATOM     11  C   UNL     1      27.963 -12.526  30.657  1.00  0.00     0.016 C 
ATOM     12  C   UNL     1      27.734 -10.100  31.217  1.00  0.00     0.016 C 
ATOM     13  G   UNL     1      30.007 -11.088  30.529  1.00  0.00     0.000 G0
ENDBRANCH   9  10
ENDBRANCH   3   8
TORSDOF 0
ENDMDL
MODEL 9
REMARK VINA RESULT:    -3.525      2.455      3.942
REMARK INTER + INTRA:          -3.591
REMARK INTER:                  -4.347
REMARK INTRA:                   0.756
REMARK UNBOUND:                 0.759
REMARK SMILES CC1=CC=CC(C)(C)CC1=O
REMARK SMILES IDX 1 1 2 2 3 3 10 4 11 5 9 6 4 8 5 9 6 10 7 11 8 12
REMARK H PARENT
REMARK Flexibility Score: 80.00
ROOT
ATOM      1  C   UNL     1      27.497 -12.154  27.185  1.00  0.00     0.048 C 
ATOM      2  C   UNL     1      28.743 -12.299  28.026  1.00  0.00    -0.008 C 
ATOM      3  C   UNL     1      29.579 -13.319  27.736  1.00  0.00     0.007 C 
ENDROOT
BRANCH   2   4
ATOM      4  C   UNL     1      28.910 -11.351  29.156  1.00  0.00     0.159 C 
ATOM      5  O   UNL     1      27.940 -10.613  29.480  1.00  0.00    -0.295 OA
BRANCH   4   6
ATOM      6  C   UNL     1      30.182 -11.209  29.935  1.00  0.00     0.091 CG0
ATOM      7  G   UNL     1      30.624 -12.519  30.624  1.00  0.00     0.000 G0
ENDBRANCH   4   6
ENDBRANCH   2   4
BRANCH   3   8
ATOM      8  C   UNL     1      30.845 -13.729  28.390  1.00  0.00    -0.003 C 
ATOM      9  C   UNL     1      31.304 -13.416  29.608  1.00  0.00    -0.020 C 
BRANCH   9  10
ATOM     10  C   UNL     1      30.629 -12.521  30.620  1.00  0.00    -0.010 CG0
ATOM     11  C   UNL     1      31.662 -12.158  31.711  1.00  0.00     0.016 C 
ATOM     12  C   UNL     1      29.464 -13.278  31.299  1.00  0.00     0.016 C 
ATOM     13  G   UNL     1      30.172 -11.213  29.936  1.00  0.00     0.000 G0
ENDBRANCH   9  10
ENDBRANCH   3   8
TORSDOF 0
ENDMDL
