MODEL 1
REMARK VINA RESULT:    -5.952      0.000      0.000
REMARK INTER + INTRA:          -7.235
REMARK INTER:                  -7.170
REMARK INTRA:                  -0.065
REMARK UNBOUND:                -0.065
REMARK SMILES O=c1c(O)c(-c2ccc(O)c(O)c2)oc2cc(O)cc(O)c12
REMARK SMILES IDX 5 1 3 2 2 3 1 4 22 5 20 6 19 7 17 8 16 9 15 10 14 11 6 12
REMARK SMILES IDX 7 13 8 14 9 15 13 16 11 17 10 18 12 20 4 22 21 24 18 26
REMARK H PARENT 10 19 12 21 4 23 21 25 18 27
REMARK Flexibility Score: inf
ROOT
ATOM      1  C   UNL     1     169.744 185.219  32.245  1.00  0.00     0.180 A 
ATOM      2  C   UNL     1     169.517 185.554  30.899  1.00  0.00     0.208 A 
ATOM      3  C   UNL     1     168.639 186.608  30.598  1.00  0.00     0.238 A 
ATOM      4  O   UNL     1     168.399 186.867  29.390  1.00  0.00    -0.285 OA
ATOM      5  C   UNL     1     168.012 187.324  31.646  1.00  0.00     0.111 A 
ATOM      6  C   UNL     1     167.137 188.434  31.457  1.00  0.00     0.134 A 
ATOM      7  C   UNL     1     166.471 188.985  32.561  1.00  0.00     0.093 A 
ATOM      8  C   UNL     1     166.700 188.504  33.852  1.00  0.00     0.123 A 
ATOM      9  C   UNL     1     167.598 187.460  34.053  1.00  0.00     0.094 A 
ATOM     10  C   UNL     1     168.250 186.867  32.968  1.00  0.00     0.146 A 
ATOM     11  O   UNL     1     169.091 185.866  33.203  1.00  0.00    -0.452 OA
ENDROOT
BRANCH   1  12
ATOM     12  C   UNL     1     170.674 184.137  32.642  1.00  0.00     0.025 A 
ATOM     13  C   UNL     1     170.235 183.037  33.399  1.00  0.00     0.016 A 
ATOM     14  C   UNL     1     171.124 182.015  33.743  1.00  0.00     0.051 A 
ATOM     15  C   UNL     1     172.461 182.073  33.324  1.00  0.00     0.157 A 
ATOM     16  C   UNL     1     172.009 184.179  32.208  1.00  0.00     0.062 A 
ATOM     17  C   UNL     1     172.902 183.154  32.553  1.00  0.00     0.158 A 
BRANCH  15  18
ATOM     18  O   UNL     1     173.351 181.057  33.666  1.00  0.00    -0.504 OA
ATOM     19  H   UNL     1     173.450 180.737  34.623  1.00  0.00     0.293 HD
ENDBRANCH  15  18
BRANCH  17  20
ATOM     20  O   UNL     1     174.230 183.205  32.131  1.00  0.00    -0.504 OA
ATOM     21  H   UNL     1     174.987 183.382  32.781  1.00  0.00     0.293 HD
ENDBRANCH  17  20
ENDBRANCH   1  12
BRANCH   2  22
ATOM     22  O   UNL     1     170.129 184.820  29.879  1.00  0.00    -0.502 OA
ATOM     23  H   UNL     1     169.781 183.920  29.573  1.00  0.00     0.293 HD
ENDBRANCH   2  22
BRANCH   6  24
ATOM     24  O   UNL     1     166.909 189.049  30.222  1.00  0.00    -0.507 OA
ATOM     25  H   UNL     1     166.004 189.150  29.790  1.00  0.00     0.293 HD
ENDBRANCH   6  24
BRANCH   8  26
ATOM     26  O   UNL     1     166.045 189.067  34.946  1.00  0.00    -0.508 OA
ATOM     27  H   UNL     1     166.075 188.636  35.862  1.00  0.00     0.293 HD
ENDBRANCH   8  26
TORSDOF 6
ENDMDL
MODEL 2
REMARK VINA RESULT:    -5.865      1.752      3.168
REMARK INTER + INTRA:          -7.130
REMARK INTER:                  -6.834
REMARK INTRA:                  -0.297
REMARK UNBOUND:                -0.065
REMARK SMILES O=c1c(O)c(-c2ccc(O)c(O)c2)oc2cc(O)cc(O)c12
REMARK SMILES IDX 5 1 3 2 2 3 1 4 22 5 20 6 19 7 17 8 16 9 15 10 14 11 6 12
REMARK SMILES IDX 7 13 8 14 9 15 13 16 11 17 10 18 12 20 4 22 21 24 18 26
REMARK H PARENT 10 19 12 21 4 23 21 25 18 27
REMARK Flexibility Score: inf
ROOT
ATOM      1  C   UNL     1     170.837 184.998  33.275  1.00  0.00     0.180 A 
ATOM      2  C   UNL     1     170.682 186.221  33.949  1.00  0.00     0.208 A 
ATOM      3  C   UNL     1     169.797 187.179  33.427  1.00  0.00     0.238 A 
ATOM      4  O   UNL     1     169.704 188.294  34.005  1.00  0.00    -0.285 OA
ATOM      5  C   UNL     1     169.067 186.895  32.248  1.00  0.00     0.111 A 
ATOM      6  C   UNL     1     168.114 187.775  31.654  1.00  0.00     0.134 A 
ATOM      7  C   UNL     1     167.546 187.445  30.416  1.00  0.00     0.093 A 
ATOM      8  C   UNL     1     167.850 186.237  29.785  1.00  0.00     0.123 A 
ATOM      9  C   UNL     1     168.734 185.345  30.386  1.00  0.00     0.094 A 
ATOM     10  C   UNL     1     169.343 185.662  31.603  1.00  0.00     0.146 A 
ATOM     11  O   UNL     1     170.188 184.787  32.136  1.00  0.00    -0.452 OA
ENDROOT
BRANCH   1  12
ATOM     12  C   UNL     1     171.732 183.930  33.777  1.00  0.00     0.025 A 
ATOM     13  C   UNL     1     171.225 182.818  34.472  1.00  0.00     0.016 A 
ATOM     14  C   UNL     1     172.085 181.809  34.916  1.00  0.00     0.051 A 
ATOM     15  C   UNL     1     173.460 181.891  34.659  1.00  0.00     0.157 A 
ATOM     16  C   UNL     1     173.107 183.995  33.504  1.00  0.00     0.062 A 
ATOM     17  C   UNL     1     173.971 182.984  33.949  1.00  0.00     0.158 A 
BRANCH  15  18
ATOM     18  O   UNL     1     174.321 180.888  35.100  1.00  0.00    -0.504 OA
ATOM     19  H   UNL     1     174.328 179.969  34.674  1.00  0.00     0.293 HD
ENDBRANCH  15  18
BRANCH  17  20
ATOM     20  O   UNL     1     175.338 183.058  33.687  1.00  0.00    -0.504 OA
ATOM     21  H   UNL     1     175.711 183.692  32.990  1.00  0.00     0.293 HD
ENDBRANCH  17  20
ENDBRANCH   1  12
BRANCH   2  22
ATOM     22  O   UNL     1     171.429 186.491  35.099  1.00  0.00    -0.502 OA
ATOM     23  H   UNL     1     172.406 186.757  35.064  1.00  0.00     0.293 HD
ENDBRANCH   2  22
BRANCH   6  24
ATOM     24  O   UNL     1     167.672 188.963  32.246  1.00  0.00    -0.507 OA
ATOM     25  H   UNL     1     167.274 189.741  31.744  1.00  0.00     0.293 HD
ENDBRANCH   6  24
BRANCH   8  26
ATOM     26  O   UNL     1     167.269 185.910  28.561  1.00  0.00    -0.508 OA
ATOM     27  H   UNL     1     166.911 186.623  27.936  1.00  0.00     0.293 HD
ENDBRANCH   8  26
TORSDOF 6
ENDMDL
MODEL 3
REMARK VINA RESULT:    -5.800      5.138      6.522
REMARK INTER + INTRA:          -7.052
REMARK INTER:                  -6.758
REMARK INTRA:                  -0.294
REMARK UNBOUND:                -0.065
REMARK SMILES O=c1c(O)c(-c2ccc(O)c(O)c2)oc2cc(O)cc(O)c12
REMARK SMILES IDX 5 1 3 2 2 3 1 4 22 5 20 6 19 7 17 8 16 9 15 10 14 11 6 12
REMARK SMILES IDX 7 13 8 14 9 15 13 16 11 17 10 18 12 20 4 22 21 24 18 26
REMARK H PARENT 10 19 12 21 4 23 21 25 18 27
REMARK Flexibility Score: inf
ROOT
ATOM      1  C   UNL     1     165.899 184.280  32.402  1.00  0.00     0.180 A 
ATOM      2  C   UNL     1     165.204 184.853  33.480  1.00  0.00     0.208 A 
ATOM      3  C   UNL     1     163.925 184.368  33.801  1.00  0.00     0.238 A 
ATOM      4  O   UNL     1     163.285 184.922  34.733  1.00  0.00    -0.285 OA
ATOM      5  C   UNL     1     163.366 183.307  33.051  1.00  0.00     0.111 A 
ATOM      6  C   UNL     1     162.097 182.710  33.313  1.00  0.00     0.134 A 
ATOM      7  C   UNL     1     161.586 181.753  32.426  1.00  0.00     0.093 A 
ATOM      8  C   UNL     1     162.329 181.326  31.323  1.00  0.00     0.123 A 
ATOM      9  C   UNL     1     163.594 181.859  31.092  1.00  0.00     0.094 A 
ATOM     10  C   UNL     1     164.115 182.841  31.939  1.00  0.00     0.146 A 
ATOM     11  O   UNL     1     165.321 183.331  31.676  1.00  0.00    -0.452 OA
ENDROOT
BRANCH   1  12
ATOM     12  C   UNL     1     167.260 184.721  32.019  1.00  0.00     0.025 A 
ATOM     13  C   UNL     1     168.392 184.318  32.749  1.00  0.00     0.016 A 
ATOM     14  C   UNL     1     169.670 184.726  32.356  1.00  0.00     0.051 A 
ATOM     15  C   UNL     1     169.834 185.530  31.220  1.00  0.00     0.157 A 
ATOM     16  C   UNL     1     167.434 185.509  30.870  1.00  0.00     0.062 A 
ATOM     17  C   UNL     1     168.716 185.919  30.474  1.00  0.00     0.158 A 
BRANCH  15  18
ATOM     18  O   UNL     1     171.107 185.940  30.825  1.00  0.00    -0.504 OA
ATOM     19  H   UNL     1     171.680 186.533  31.413  1.00  0.00     0.293 HD
ENDBRANCH  15  18
BRANCH  17  20
ATOM     20  O   UNL     1     168.884 186.712  29.340  1.00  0.00    -0.504 OA
ATOM     21  H   UNL     1     168.275 186.622  28.535  1.00  0.00     0.293 HD
ENDBRANCH  17  20
ENDBRANCH   1  12
BRANCH   2  22
ATOM     22  O   UNL     1     165.765 185.916  34.194  1.00  0.00    -0.502 OA
ATOM     23  H   UNL     1     165.412 186.863  34.128  1.00  0.00     0.293 HD
ENDBRANCH   2  22
BRANCH   6  24
ATOM     24  O   UNL     1     161.315 182.999  34.436  1.00  0.00    -0.507 OA
ATOM     25  H   UNL     1     161.640 182.949  35.389  1.00  0.00     0.293 HD
ENDBRANCH   6  24
BRANCH   8  26
ATOM     26  O   UNL     1     161.820 180.362  30.454  1.00  0.00    -0.508 OA
ATOM     27  H   UNL     1     161.144 180.599  29.737  1.00  0.00     0.293 HD
ENDBRANCH   8  26
TORSDOF 6
ENDMDL
MODEL 4
REMARK VINA RESULT:    -5.728      4.714      6.562
REMARK INTER + INTRA:          -6.965
REMARK INTER:                  -6.693
REMARK INTRA:                  -0.272
REMARK UNBOUND:                -0.065
REMARK SMILES O=c1c(O)c(-c2ccc(O)c(O)c2)oc2cc(O)cc(O)c12
REMARK SMILES IDX 5 1 3 2 2 3 1 4 22 5 20 6 19 7 17 8 16 9 15 10 14 11 6 12
REMARK SMILES IDX 7 13 8 14 9 15 13 16 11 17 10 18 12 20 4 22 21 24 18 26
REMARK H PARENT 10 19 12 21 4 23 21 25 18 27
REMARK Flexibility Score: inf
ROOT
ATOM      1  C   UNL     1     165.629 184.351  32.002  1.00  0.00     0.180 A 
ATOM      2  C   UNL     1     165.245 185.356  32.906  1.00  0.00     0.208 A 
ATOM      3  C   UNL     1     166.167 186.362  33.239  1.00  0.00     0.238 A 
ATOM      4  O   UNL     1     165.835 187.227  34.091  1.00  0.00    -0.285 OA
ATOM      5  C   UNL     1     167.455 186.358  32.653  1.00  0.00     0.111 A 
ATOM      6  C   UNL     1     168.454 187.350  32.888  1.00  0.00     0.134 A 
ATOM      7  C   UNL     1     169.739 187.176  32.355  1.00  0.00     0.093 A 
ATOM      8  C   UNL     1     170.039 186.079  31.544  1.00  0.00     0.123 A 
ATOM      9  C   UNL     1     169.053 185.137  31.261  1.00  0.00     0.094 A 
ATOM     10  C   UNL     1     167.773 185.265  31.806  1.00  0.00     0.146 A 
ATOM     11  O   UNL     1     166.866 184.338  31.519  1.00  0.00    -0.452 OA
ENDROOT
BRANCH   1  12
ATOM     12  C   UNL     1     164.705 183.273  31.582  1.00  0.00     0.025 A 
ATOM     13  C   UNL     1     164.099 183.281  30.313  1.00  0.00     0.016 A 
ATOM     14  C   UNL     1     163.249 182.240  29.929  1.00  0.00     0.051 A 
ATOM     15  C   UNL     1     163.003 181.171  30.802  1.00  0.00     0.157 A 
ATOM     16  C   UNL     1     164.471 182.189  32.443  1.00  0.00     0.062 A 
ATOM     17  C   UNL     1     163.618 181.144  32.059  1.00  0.00     0.158 A 
BRANCH  15  18
ATOM     18  O   UNL     1     162.155 180.133  30.423  1.00  0.00    -0.504 OA
ATOM     19  H   UNL     1     162.139 179.251  30.921  1.00  0.00     0.293 HD
ENDBRANCH  15  18
BRANCH  17  20
ATOM     20  O   UNL     1     163.377 180.076  32.922  1.00  0.00    -0.504 OA
ATOM     21  H   UNL     1     163.125 179.159  32.573  1.00  0.00     0.293 HD
ENDBRANCH  17  20
ENDBRANCH   1  12
BRANCH   2  22
ATOM     22  O   UNL     1     163.975 185.328  33.491  1.00  0.00    -0.502 OA
ATOM     23  H   UNL     1     163.212 185.906  33.161  1.00  0.00     0.293 HD
ENDBRANCH   2  22
BRANCH   6  24
ATOM     24  O   UNL     1     168.231 188.528  33.607  1.00  0.00    -0.507 OA
ATOM     25  H   UNL     1     167.819 188.570  34.526  1.00  0.00     0.293 HD
ENDBRANCH   6  24
BRANCH   8  26
ATOM     26  O   UNL     1     171.314 185.922  31.006  1.00  0.00    -0.508 OA
ATOM     27  H   UNL     1     171.484 185.316  30.212  1.00  0.00     0.293 HD
ENDBRANCH   8  26
TORSDOF 6
ENDMDL
MODEL 5
REMARK VINA RESULT:    -5.636      3.923      6.340
REMARK INTER + INTRA:          -6.855
REMARK INTER:                  -6.555
REMARK INTRA:                  -0.300
REMARK UNBOUND:                -0.065
REMARK SMILES O=c1c(O)c(-c2ccc(O)c(O)c2)oc2cc(O)cc(O)c12
REMARK SMILES IDX 5 1 3 2 2 3 1 4 22 5 20 6 19 7 17 8 16 9 15 10 14 11 6 12
REMARK SMILES IDX 7 13 8 14 9 15 13 16 11 17 10 18 12 20 4 22 21 24 18 26
REMARK H PARENT 10 19 12 21 4 23 21 25 18 27
REMARK Flexibility Score: inf
ROOT
ATOM      1  C   UNL     1     166.812 184.472  32.847  1.00  0.00     0.180 A 
ATOM      2  C   UNL     1     166.493 185.668  33.513  1.00  0.00     0.208 A 
ATOM      3  C   UNL     1     167.531 186.438  34.064  1.00  0.00     0.238 A 
ATOM      4  O   UNL     1     167.235 187.479  34.706  1.00  0.00    -0.285 OA
ATOM      5  C   UNL     1     168.873 186.011  33.929  1.00  0.00     0.111 A 
ATOM      6  C   UNL     1     170.005 186.732  34.412  1.00  0.00     0.134 A 
ATOM      7  C   UNL     1     171.279 186.151  34.337  1.00  0.00     0.093 A 
ATOM      8  C   UNL     1     171.466 184.904  33.737  1.00  0.00     0.123 A 
ATOM      9  C   UNL     1     170.375 184.219  33.209  1.00  0.00     0.094 A 
ATOM     10  C   UNL     1     169.089 184.757  33.301  1.00  0.00     0.146 A 
ATOM     11  O   UNL     1     168.075 184.065  32.794  1.00  0.00    -0.452 OA
ENDROOT
BRANCH   1  12
ATOM     12  C   UNL     1     165.776 183.620  32.219  1.00  0.00     0.025 A 
ATOM     13  C   UNL     1     165.247 182.501  32.886  1.00  0.00     0.016 A 
ATOM     14  C   UNL     1     164.253 181.724  32.284  1.00  0.00     0.051 A 
ATOM     15  C   UNL     1     163.766 182.062  31.014  1.00  0.00     0.157 A 
ATOM     16  C   UNL     1     165.269 183.965  30.956  1.00  0.00     0.062 A 
ATOM     17  C   UNL     1     164.272 183.186  30.351  1.00  0.00     0.158 A 
BRANCH  15  18
ATOM     18  O   UNL     1     162.776 181.289  30.411  1.00  0.00    -0.504 OA
ATOM     19  H   UNL     1     162.463 180.415  30.817  1.00  0.00     0.293 HD
ENDBRANCH  15  18
BRANCH  17  20
ATOM     20  O   UNL     1     163.780 183.524  29.092  1.00  0.00    -0.504 OA
ATOM     21  H   UNL     1     164.315 184.097  28.449  1.00  0.00     0.293 HD
ENDBRANCH  17  20
ENDBRANCH   1  12
BRANCH   2  22
ATOM     22  O   UNL     1     165.160 186.060  33.655  1.00  0.00    -0.502 OA
ATOM     23  H   UNL     1     164.392 185.400  33.625  1.00  0.00     0.293 HD
ENDBRANCH   2  22
BRANCH   6  24
ATOM     24  O   UNL     1     169.939 188.023  34.945  1.00  0.00    -0.507 OA
ATOM     25  H   UNL     1     170.221 188.860  34.459  1.00  0.00     0.293 HD
ENDBRANCH   6  24
BRANCH   8  26
ATOM     26  O   UNL     1     172.738 184.341  33.652  1.00  0.00    -0.508 OA
ATOM     27  H   UNL     1     173.539 184.770  34.100  1.00  0.00     0.293 HD
ENDBRANCH   8  26
TORSDOF 6
ENDMDL
MODEL 6
REMARK VINA RESULT:    -5.513      3.874      6.317
REMARK INTER + INTRA:          -6.706
REMARK INTER:                  -6.376
REMARK INTRA:                  -0.330
REMARK UNBOUND:                -0.065
REMARK SMILES O=c1c(O)c(-c2ccc(O)c(O)c2)oc2cc(O)cc(O)c12
REMARK SMILES IDX 5 1 3 2 2 3 1 4 22 5 20 6 19 7 17 8 16 9 15 10 14 11 6 12
REMARK SMILES IDX 7 13 8 14 9 15 13 16 11 17 10 18 12 20 4 22 21 24 18 26
REMARK H PARENT 10 19 12 21 4 23 21 25 18 27
REMARK Flexibility Score: inf
ROOT
ATOM      1  C   UNL     1     167.032 184.239  32.202  1.00  0.00     0.180 A 
ATOM      2  C   UNL     1     167.367 184.981  31.057  1.00  0.00     0.208 A 
ATOM      3  C   UNL     1     168.686 185.439  30.902  1.00  0.00     0.238 A 
ATOM      4  O   UNL     1     168.965 186.148  29.901  1.00  0.00    -0.285 OA
ATOM      5  C   UNL     1     169.656 185.136  31.887  1.00  0.00     0.111 A 
ATOM      6  C   UNL     1     171.030 185.515  31.814  1.00  0.00     0.134 A 
ATOM      7  C   UNL     1     171.872 185.274  32.907  1.00  0.00     0.093 A 
ATOM      8  C   UNL     1     171.404 184.611  34.044  1.00  0.00     0.123 A 
ATOM      9  C   UNL     1     170.080 184.185  34.101  1.00  0.00     0.094 A 
ATOM     10  C   UNL     1     169.207 184.442  33.040  1.00  0.00     0.146 A 
ATOM     11  O   UNL     1     167.949 184.028  33.140  1.00  0.00    -0.452 OA
ENDROOT
BRANCH   1  12
ATOM     12  C   UNL     1     165.670 183.702  32.424  1.00  0.00     0.025 A 
ATOM     13  C   UNL     1     165.312 182.415  31.985  1.00  0.00     0.016 A 
ATOM     14  C   UNL     1     164.028 181.918  32.226  1.00  0.00     0.051 A 
ATOM     15  C   UNL     1     163.090 182.694  32.919  1.00  0.00     0.157 A 
ATOM     16  C   UNL     1     164.732 184.466  33.136  1.00  0.00     0.062 A 
ATOM     17  C   UNL     1     163.444 183.968  33.378  1.00  0.00     0.158 A 
BRANCH  15  18
ATOM     18  O   UNL     1     161.808 182.203  33.160  1.00  0.00    -0.504 OA
ATOM     19  H   UNL     1     161.475 182.025  34.100  1.00  0.00     0.293 HD
ENDBRANCH  15  18
BRANCH  17  20
ATOM     20  O   UNL     1     162.511 184.735  34.075  1.00  0.00    -0.504 OA
ATOM     21  H   UNL     1     161.527 184.723  33.832  1.00  0.00     0.293 HD
ENDBRANCH  17  20
ENDBRANCH   1  12
BRANCH   2  22
ATOM     22  O   UNL     1     166.388 185.288  30.107  1.00  0.00    -0.502 OA
ATOM     23  H   UNL     1     166.223 186.233  29.782  1.00  0.00     0.293 HD
ENDBRANCH   2  22
BRANCH   6  24
ATOM     24  O   UNL     1     171.620 186.100  30.689  1.00  0.00    -0.507 OA
ATOM     25  H   UNL     1     171.564 187.079  30.456  1.00  0.00     0.293 HD
ENDBRANCH   6  24
BRANCH   8  26
ATOM     26  O   UNL     1     172.253 184.362  35.121  1.00  0.00    -0.508 OA
ATOM     27  H   UNL     1     172.774 183.496  35.197  1.00  0.00     0.293 HD
ENDBRANCH   8  26
TORSDOF 6
ENDMDL
MODEL 7
REMARK VINA RESULT:    -5.508      4.760      5.892
REMARK INTER + INTRA:          -6.700
REMARK INTER:                  -6.597
REMARK INTRA:                  -0.104
REMARK UNBOUND:                -0.065
REMARK SMILES O=c1c(O)c(-c2ccc(O)c(O)c2)oc2cc(O)cc(O)c12
REMARK SMILES IDX 5 1 3 2 2 3 1 4 22 5 20 6 19 7 17 8 16 9 15 10 14 11 6 12
REMARK SMILES IDX 7 13 8 14 9 15 13 16 11 17 10 18 12 20 4 22 21 24 18 26
REMARK H PARENT 10 19 12 21 4 23 21 25 18 27
REMARK Flexibility Score: inf
ROOT
ATOM      1  C   UNL     1     166.533 184.387  31.932  1.00  0.00     0.180 A 
ATOM      2  C   UNL     1     165.909 184.243  30.681  1.00  0.00     0.208 A 
ATOM      3  C   UNL     1     164.835 183.347  30.555  1.00  0.00     0.238 A 
ATOM      4  O   UNL     1     164.315 183.183  29.421  1.00  0.00    -0.285 OA
ATOM      5  C   UNL     1     164.390 182.618  31.684  1.00  0.00     0.111 A 
ATOM      6  C   UNL     1     163.286 181.713  31.680  1.00  0.00     0.134 A 
ATOM      7  C   UNL     1     163.016 180.948  32.823  1.00  0.00     0.093 A 
ATOM      8  C   UNL     1     163.770 181.104  33.988  1.00  0.00     0.123 A 
ATOM      9  C   UNL     1     164.812 182.028  34.020  1.00  0.00     0.094 A 
ATOM     10  C   UNL     1     165.128 182.779  32.885  1.00  0.00     0.146 A 
ATOM     11  O   UNL     1     166.136 183.641  32.956  1.00  0.00    -0.452 OA
ENDROOT
BRANCH   1  12
ATOM     12  C   UNL     1     167.655 185.330  32.149  1.00  0.00     0.025 A 
ATOM     13  C   UNL     1     167.565 186.367  33.094  1.00  0.00     0.016 A 
ATOM     14  C   UNL     1     168.644 187.231  33.300  1.00  0.00     0.051 A 
ATOM     15  C   UNL     1     169.831 187.062  32.575  1.00  0.00     0.157 A 
ATOM     16  C   UNL     1     168.854 185.153  31.441  1.00  0.00     0.062 A 
ATOM     17  C   UNL     1     169.937 186.020  31.646  1.00  0.00     0.158 A 
BRANCH  15  18
ATOM     18  O   UNL     1     170.909 187.922  32.776  1.00  0.00    -0.504 OA
ATOM     19  H   UNL     1     171.741 187.876  32.200  1.00  0.00     0.293 HD
ENDBRANCH  15  18
BRANCH  17  20
ATOM     20  O   UNL     1     171.122 185.849  30.932  1.00  0.00    -0.504 OA
ATOM     21  H   UNL     1     171.383 184.950  30.544  1.00  0.00     0.293 HD
ENDBRANCH  17  20
ENDBRANCH   1  12
BRANCH   2  22
ATOM     22  O   UNL     1     166.378 184.956  29.574  1.00  0.00    -0.502 OA
ATOM     23  H   UNL     1     166.521 185.958  29.593  1.00  0.00     0.293 HD
ENDBRANCH   2  22
BRANCH   6  24
ATOM     24  O   UNL     1     162.414 181.550  30.599  1.00  0.00    -0.507 OA
ATOM     25  H   UNL     1     161.796 180.763  30.475  1.00  0.00     0.293 HD
ENDBRANCH   6  24
BRANCH   8  26
ATOM     26  O   UNL     1     163.485 180.351  35.125  1.00  0.00    -0.508 OA
ATOM     27  H   UNL     1     163.997 179.504  35.343  1.00  0.00     0.293 HD
ENDBRANCH   8  26
TORSDOF 6
ENDMDL
MODEL 8
REMARK VINA RESULT:    -5.376      3.960      6.204
REMARK INTER + INTRA:          -6.542
REMARK INTER:                  -6.237
REMARK INTRA:                  -0.305
REMARK UNBOUND:                -0.065
REMARK SMILES O=c1c(O)c(-c2ccc(O)c(O)c2)oc2cc(O)cc(O)c12
REMARK SMILES IDX 5 1 3 2 2 3 1 4 22 5 20 6 19 7 17 8 16 9 15 10 14 11 6 12
REMARK SMILES IDX 7 13 8 14 9 15 13 16 11 17 10 18 12 20 4 22 21 24 18 26
REMARK H PARENT 10 19 12 21 4 23 21 25 18 27
REMARK Flexibility Score: inf
ROOT
ATOM      1  C   UNL     1     167.107 184.303  32.411  1.00  0.00     0.180 A 
ATOM      2  C   UNL     1     167.404 184.998  31.225  1.00  0.00     0.208 A 
ATOM      3  C   UNL     1     168.720 185.436  31.005  1.00  0.00     0.238 A 
ATOM      4  O   UNL     1     168.968 186.105  29.967  1.00  0.00    -0.285 OA
ATOM      5  C   UNL     1     169.725 185.162  31.963  1.00  0.00     0.111 A 
ATOM      6  C   UNL     1     171.098 185.523  31.824  1.00  0.00     0.134 A 
ATOM      7  C   UNL     1     171.979 185.316  32.894  1.00  0.00     0.093 A 
ATOM      8  C   UNL     1     171.548 184.701  34.072  1.00  0.00     0.123 A 
ATOM      9  C   UNL     1     170.224 184.291  34.194  1.00  0.00     0.094 A 
ATOM     10  C   UNL     1     169.313 184.516  33.158  1.00  0.00     0.146 A 
ATOM     11  O   UNL     1     168.056 184.119  33.321  1.00  0.00    -0.452 OA
ENDROOT
BRANCH   1  12
ATOM     12  C   UNL     1     165.750 183.788  32.703  1.00  0.00     0.025 A 
ATOM     13  C   UNL     1     164.847 184.516  33.498  1.00  0.00     0.016 A 
ATOM     14  C   UNL     1     163.563 184.022  33.742  1.00  0.00     0.051 A 
ATOM     15  C   UNL     1     163.159 182.801  33.184  1.00  0.00     0.157 A 
ATOM     16  C   UNL     1     165.332 182.576  32.131  1.00  0.00     0.062 A 
ATOM     17  C   UNL     1     164.044 182.079  32.376  1.00  0.00     0.158 A 
BRANCH  15  18
ATOM     18  O   UNL     1     161.879 182.304  33.427  1.00  0.00    -0.504 OA
ATOM     19  H   UNL     1     161.084 182.589  32.867  1.00  0.00     0.293 HD
ENDBRANCH  15  18
BRANCH  17  20
ATOM     20  O   UNL     1     163.637 180.869  31.816  1.00  0.00    -0.504 OA
ATOM     21  H   UNL     1     164.128 180.003  32.008  1.00  0.00     0.293 HD
ENDBRANCH  17  20
ENDBRANCH   1  12
BRANCH   2  22
ATOM     22  O   UNL     1     166.393 185.278  30.302  1.00  0.00    -0.502 OA
ATOM     23  H   UNL     1     166.589 185.580  29.355  1.00  0.00     0.293 HD
ENDBRANCH   2  22
BRANCH   6  24
ATOM     24  O   UNL     1     171.649 186.059  30.656  1.00  0.00    -0.507 OA
ATOM     25  H   UNL     1     172.039 185.514  29.903  1.00  0.00     0.293 HD
ENDBRANCH   6  24
BRANCH   8  26
ATOM     26  O   UNL     1     172.435 184.485  35.125  1.00  0.00    -0.508 OA
ATOM     27  H   UNL     1     173.089 185.199  35.423  1.00  0.00     0.293 HD
ENDBRANCH   8  26
TORSDOF 6
ENDMDL
MODEL 9
REMARK VINA RESULT:    -5.183      2.431      3.135
REMARK INTER + INTRA:          -6.309
REMARK INTER:                  -5.982
REMARK INTRA:                  -0.327
REMARK UNBOUND:                -0.065
REMARK SMILES O=c1c(O)c(-c2ccc(O)c(O)c2)oc2cc(O)cc(O)c12
REMARK SMILES IDX 5 1 3 2 2 3 1 4 22 5 20 6 19 7 17 8 16 9 15 10 14 11 6 12
REMARK SMILES IDX 7 13 8 14 9 15 13 16 11 17 10 18 12 20 4 22 21 24 18 26
REMARK H PARENT 10 19 12 21 4 23 21 25 18 27
REMARK Flexibility Score: inf
ROOT
ATOM      1  C   UNL     1     169.994 184.950  33.560  1.00  0.00     0.180 A 
ATOM      2  C   UNL     1     169.784 186.339  33.518  1.00  0.00     0.208 A 
ATOM      3  C   UNL     1     168.474 186.826  33.386  1.00  0.00     0.238 A 
ATOM      4  O   UNL     1     168.299 188.069  33.294  1.00  0.00    -0.285 OA
ATOM      5  C   UNL     1     167.389 185.920  33.313  1.00  0.00     0.111 A 
ATOM      6  C   UNL     1     166.018 186.304  33.218  1.00  0.00     0.134 A 
ATOM      7  C   UNL     1     165.038 185.322  33.021  1.00  0.00     0.093 A 
ATOM      8  C   UNL     1     165.374 183.967  32.980  1.00  0.00     0.123 A 
ATOM      9  C   UNL     1     166.703 183.579  33.131  1.00  0.00     0.094 A 
ATOM     10  C   UNL     1     167.707 184.537  33.293  1.00  0.00     0.146 A 
ATOM     11  O   UNL     1     168.963 184.124  33.423  1.00  0.00    -0.452 OA
ENDROOT
BRANCH   1  12
ATOM     12  C   UNL     1     171.343 184.360  33.723  1.00  0.00     0.025 A 
ATOM     13  C   UNL     1     171.849 184.032  34.993  1.00  0.00     0.016 A 
ATOM     14  C   UNL     1     173.115 183.454  35.122  1.00  0.00     0.051 A 
ATOM     15  C   UNL     1     173.886 183.185  33.983  1.00  0.00     0.157 A 
ATOM     16  C   UNL     1     172.112 184.068  32.585  1.00  0.00     0.062 A 
ATOM     17  C   UNL     1     173.383 183.489  32.713  1.00  0.00     0.158 A 
BRANCH  15  18
ATOM     18  O   UNL     1     175.150 182.610  34.107  1.00  0.00    -0.504 OA
ATOM     19  H   UNL     1     175.496 181.937  33.434  1.00  0.00     0.293 HD
ENDBRANCH  15  18
BRANCH  17  20
ATOM     20  O   UNL     1     174.149 183.212  31.582  1.00  0.00    -0.504 OA
ATOM     21  H   UNL     1     174.210 182.276  31.198  1.00  0.00     0.293 HD
ENDBRANCH  17  20
ENDBRANCH   1  12
BRANCH   2  22
ATOM     22  O   UNL     1     170.871 187.216  33.569  1.00  0.00    -0.502 OA
ATOM     23  H   UNL     1     171.826 186.894  33.675  1.00  0.00     0.293 HD
ENDBRANCH   2  22
BRANCH   6  24
ATOM     24  O   UNL     1     165.566 187.622  33.339  1.00  0.00    -0.507 OA
ATOM     25  H   UNL     1     164.821 188.025  32.792  1.00  0.00     0.293 HD
ENDBRANCH   6  24
BRANCH   8  26
ATOM     26  O   UNL     1     164.391 182.997  32.799  1.00  0.00    -0.508 OA
ATOM     27  H   UNL     1     163.822 182.668  33.570  1.00  0.00     0.293 HD
ENDBRANCH   8  26
TORSDOF 6
ENDMDL
