MODEL 1
REMARK VINA RESULT:    -4.704      0.000      0.000
REMARK INTER + INTRA:          -9.489
REMARK INTER:                  -7.179
REMARK INTRA:                  -2.309
REMARK UNBOUND:                -2.309
REMARK SMILES CC(=O)CCC=C(C)CCC=C(C)CCC=C(C)C
REMARK SMILES IDX 10 1 11 2 12 3 13 4 14 5 15 6 16 7 18 8 17 9 19 10 9 11 7 12
REMARK SMILES IDX 6 13 8 14 5 15 4 16 2 17 3 18 1 19
REMARK H PARENT
REMARK Flexibility Score: inf
ROOT
ATOM      1  C   UNL     1       6.208 -21.257 -36.961  1.00  0.00     0.032 C 
ENDROOT
BRANCH   1   2
ATOM      2  C   UNL     1       7.136 -22.441 -36.856  1.00  0.00    -0.028 C 
ATOM      3  C   UNL     1       8.132 -22.565 -35.949  1.00  0.00    -0.077 C 
ATOM      4  C   UNL     1       8.931 -23.842 -35.937  1.00  0.00     0.039 C 
BRANCH   3   5
ATOM      5  C   UNL     1       8.498 -21.462 -34.970  1.00  0.00     0.034 C 
BRANCH   5   6
ATOM      6  C   UNL     1       9.924 -20.939 -35.205  1.00  0.00     0.032 C 
BRANCH   6   7
ATOM      7  C   UNL     1      10.030 -20.156 -36.491  1.00  0.00    -0.028 C 
ATOM      8  C   UNL     1      10.717 -19.678 -38.801  1.00  0.00     0.039 C 
ATOM      9  C   UNL     1      10.751 -20.543 -37.567  1.00  0.00    -0.080 C 
ATOM     10  C   UNL     1      11.595 -21.795 -37.558  1.00  0.00     0.039 C 
ENDBRANCH   6   7
ENDBRANCH   5   6
ENDBRANCH   3   5
ENDBRANCH   1   2
BRANCH   1  11
ATOM     11  C   UNL     1       6.711 -20.266 -38.018  1.00  0.00     0.034 C 
BRANCH  11  12
ATOM     12  C   UNL     1       6.777 -18.865 -37.451  1.00  0.00    -0.077 C 
ATOM     13  C   UNL     1       6.175 -18.608 -36.267  1.00  0.00    -0.028 C 
ATOM     14  C   UNL     1       7.522 -17.797 -38.217  1.00  0.00     0.039 C 
BRANCH  13  15
ATOM     15  C   UNL     1       6.120 -17.247 -35.618  1.00  0.00     0.035 C 
BRANCH  15  16
ATOM     16  C   UNL     1       4.768 -17.031 -34.931  1.00  0.00     0.079 C 
BRANCH  16  17
ATOM     17  C   UNL     1       4.960 -16.675 -33.480  1.00  0.00     0.130 C 
ATOM     18  O   UNL     1       5.032 -17.566 -32.647  1.00  0.00    -0.300 OA
ATOM     19  C   UNL     1       5.057 -15.246 -33.032  1.00  0.00     0.087 C 
ENDBRANCH  16  17
ENDBRANCH  15  16
ENDBRANCH  13  15
ENDBRANCH  11  12
ENDBRANCH   1  11
TORSDOF 9
ENDMDL
MODEL 2
REMARK VINA RESULT:    -4.590     11.065     12.897
REMARK INTER + INTRA:          -9.315
REMARK INTER:                  -7.083
REMARK INTRA:                  -2.232
REMARK UNBOUND:                -2.309
REMARK SMILES CC(=O)CCC=C(C)CCC=C(C)CCC=C(C)C
REMARK SMILES IDX 10 1 11 2 12 3 13 4 14 5 15 6 16 7 18 8 17 9 19 10 9 11 7 12
REMARK SMILES IDX 6 13 8 14 5 15 4 16 2 17 3 18 1 19
REMARK H PARENT
REMARK Flexibility Score: inf
ROOT
ATOM      1  C   UNL     1      13.665 -14.979 -43.999  1.00  0.00     0.032 C 
ENDROOT
BRANCH   1   2
ATOM      2  C   UNL     1      14.541 -13.751 -44.039  1.00  0.00    -0.028 C 
ATOM      3  C   UNL     1      14.157 -12.516 -43.645  1.00  0.00    -0.077 C 
ATOM      4  C   UNL     1      15.174 -11.404 -43.690  1.00  0.00     0.039 C 
BRANCH   3   5
ATOM      5  C   UNL     1      12.743 -12.195 -43.193  1.00  0.00     0.034 C 
BRANCH   5   6
ATOM      6  C   UNL     1      12.073 -11.155 -44.105  1.00  0.00     0.032 C 
BRANCH   6   7
ATOM      7  C   UNL     1      11.261 -10.156 -43.316  1.00  0.00    -0.028 C 
ATOM      8  C   UNL     1      10.182  -8.007 -42.814  1.00  0.00     0.039 C 
ATOM      9  C   UNL     1      11.062  -8.870 -43.682  1.00  0.00    -0.080 C 
ATOM     10  C   UNL     1      11.705  -8.279 -44.914  1.00  0.00     0.039 C 
ENDBRANCH   6   7
ENDBRANCH   5   6
ENDBRANCH   3   5
ENDBRANCH   1   2
BRANCH   1  11
ATOM     11  C   UNL     1      13.324 -15.448 -45.419  1.00  0.00     0.034 C 
BRANCH  11  12
ATOM     12  C   UNL     1      12.081 -14.752 -45.928  1.00  0.00    -0.077 C 
ATOM     13  C   UNL     1      10.887 -15.047 -45.367  1.00  0.00    -0.028 C 
ATOM     14  C   UNL     1      12.212 -13.739 -47.042  1.00  0.00     0.039 C 
BRANCH  13  15
ATOM     15  C   UNL     1       9.569 -14.466 -45.814  1.00  0.00     0.035 C 
BRANCH  15  16
ATOM     16  C   UNL     1       9.129 -13.339 -44.875  1.00  0.00     0.079 C 
BRANCH  16  17
ATOM     17  C   UNL     1       8.417 -12.254 -45.642  1.00  0.00     0.130 C 
ATOM     18  O   UNL     1       7.198 -12.270 -45.713  1.00  0.00    -0.300 OA
ATOM     19  C   UNL     1       9.176 -11.157 -46.328  1.00  0.00     0.087 C 
ENDBRANCH  16  17
ENDBRANCH  15  16
ENDBRANCH  13  15
ENDBRANCH  11  12
ENDBRANCH   1  11
TORSDOF 9
ENDMDL
MODEL 3
REMARK VINA RESULT:    -4.540     11.023     13.651
REMARK INTER + INTRA:          -9.238
REMARK INTER:                  -7.137
REMARK INTRA:                  -2.102
REMARK UNBOUND:                -2.309
REMARK SMILES CC(=O)CCC=C(C)CCC=C(C)CCC=C(C)C
REMARK SMILES IDX 10 1 11 2 12 3 13 4 14 5 15 6 16 7 18 8 17 9 19 10 9 11 7 12
REMARK SMILES IDX 6 13 8 14 5 15 4 16 2 17 3 18 1 19
REMARK H PARENT
REMARK Flexibility Score: inf
ROOT
ATOM      1  C   UNL     1       9.122 -10.597 -45.671  1.00  0.00     0.032 C 
ENDROOT
BRANCH   1   2
ATOM      2  C   UNL     1       9.095  -9.459 -44.681  1.00  0.00    -0.028 C 
ATOM      3  C   UNL     1      10.191  -8.886 -44.133  1.00  0.00    -0.077 C 
ATOM      4  C   UNL     1       9.995  -7.715 -43.205  1.00  0.00     0.039 C 
BRANCH   3   5
ATOM      5  C   UNL     1      11.601  -9.391 -44.386  1.00  0.00     0.034 C 
BRANCH   5   6
ATOM      6  C   UNL     1      11.946 -10.595 -43.496  1.00  0.00     0.032 C 
BRANCH   6   7
ATOM      7  C   UNL     1      12.316 -11.809 -44.312  1.00  0.00    -0.028 C 
ATOM      8  C   UNL     1      12.089 -14.078 -45.228  1.00  0.00     0.039 C 
ATOM      9  C   UNL     1      11.623 -12.970 -44.319  1.00  0.00    -0.080 C 
ATOM     10  C   UNL     1      10.418 -13.188 -43.435  1.00  0.00     0.039 C 
ENDBRANCH   6   7
ENDBRANCH   5   6
ENDBRANCH   3   5
ENDBRANCH   1   2
BRANCH   1  11
ATOM     11  C   UNL     1       7.715 -11.171 -45.876  1.00  0.00     0.034 C 
BRANCH  11  12
ATOM     12  C   UNL     1       7.780 -12.651 -46.180  1.00  0.00    -0.077 C 
ATOM     13  C   UNL     1       8.835 -13.133 -46.875  1.00  0.00    -0.028 C 
ATOM     14  C   UNL     1       6.669 -13.551 -45.689  1.00  0.00     0.039 C 
BRANCH  13  15
ATOM     15  C   UNL     1       8.996 -14.575 -47.289  1.00  0.00     0.035 C 
BRANCH  15  16
ATOM     16  C   UNL     1       8.947 -14.707 -48.815  1.00  0.00     0.079 C 
BRANCH  16  17
ATOM     17  C   UNL     1       7.521 -14.786 -49.296  1.00  0.00     0.130 C 
ATOM     18  O   UNL     1       6.725 -15.496 -48.700  1.00  0.00    -0.300 OA
ATOM     19  C   UNL     1       7.059 -14.017 -50.497  1.00  0.00     0.087 C 
ENDBRANCH  16  17
ENDBRANCH  15  16
ENDBRANCH  13  15
ENDBRANCH  11  12
ENDBRANCH   1  11
TORSDOF 9
ENDMDL
MODEL 4
REMARK VINA RESULT:    -4.445      1.431      2.498
REMARK INTER + INTRA:          -9.092
REMARK INTER:                  -6.478
REMARK INTRA:                  -2.614
REMARK UNBOUND:                -2.309
REMARK SMILES CC(=O)CCC=C(C)CCC=C(C)CCC=C(C)C
REMARK SMILES IDX 10 1 11 2 12 3 13 4 14 5 15 6 16 7 18 8 17 9 19 10 9 11 7 12
REMARK SMILES IDX 6 13 8 14 5 15 4 16 2 17 3 18 1 19
REMARK H PARENT
REMARK Flexibility Score: inf
ROOT
ATOM      1  C   UNL     1       7.887 -21.516 -35.777  1.00  0.00     0.032 C 
ENDROOT
BRANCH   1   2
ATOM      2  C   UNL     1       9.093 -22.143 -36.431  1.00  0.00    -0.028 C 
ATOM      3  C   UNL     1      10.262 -21.505 -36.668  1.00  0.00    -0.077 C 
ATOM      4  C   UNL     1      11.394 -22.293 -37.275  1.00  0.00     0.039 C 
BRANCH   3   5
ATOM      5  C   UNL     1      10.469 -20.027 -36.382  1.00  0.00     0.034 C 
BRANCH   5   6
ATOM      6  C   UNL     1      10.883 -19.253 -37.643  1.00  0.00     0.032 C 
BRANCH   6   7
ATOM      7  C   UNL     1       9.830 -18.256 -38.061  1.00  0.00    -0.028 C 
ATOM      8  C   UNL     1       7.814 -17.434 -39.201  1.00  0.00     0.039 C 
ATOM      9  C   UNL     1       8.822 -18.520 -38.922  1.00  0.00    -0.080 C 
ATOM     10  C   UNL     1       8.691 -19.855 -39.616  1.00  0.00     0.039 C 
ENDBRANCH   6   7
ENDBRANCH   5   6
ENDBRANCH   3   5
ENDBRANCH   1   2
BRANCH   1  11
ATOM     11  C   UNL     1       6.717 -21.432 -36.765  1.00  0.00     0.034 C 
BRANCH  11  12
ATOM     12  C   UNL     1       6.168 -20.023 -36.824  1.00  0.00    -0.077 C 
ATOM     13  C   UNL     1       6.663 -19.090 -35.980  1.00  0.00    -0.028 C 
ATOM     14  C   UNL     1       5.091 -19.698 -37.832  1.00  0.00     0.039 C 
BRANCH  13  15
ATOM     15  C   UNL     1       6.168 -17.667 -35.900  1.00  0.00     0.035 C 
BRANCH  15  16
ATOM     16  C   UNL     1       5.453 -17.418 -34.568  1.00  0.00     0.079 C 
BRANCH  16  17
ATOM     17  C   UNL     1       5.336 -15.941 -34.295  1.00  0.00     0.130 C 
ATOM     18  O   UNL     1       5.573 -15.144 -35.190  1.00  0.00    -0.300 OA
ATOM     19  C   UNL     1       4.940 -15.425 -32.943  1.00  0.00     0.087 C 
ENDBRANCH  16  17
ENDBRANCH  15  16
ENDBRANCH  13  15
ENDBRANCH  11  12
ENDBRANCH   1  11
TORSDOF 9
ENDMDL
MODEL 5
REMARK VINA RESULT:    -4.404      4.297      7.067
REMARK INTER + INTRA:          -9.031
REMARK INTER:                  -6.324
REMARK INTRA:                  -2.706
REMARK UNBOUND:                -2.309
REMARK SMILES CC(=O)CCC=C(C)CCC=C(C)CCC=C(C)C
REMARK SMILES IDX 10 1 11 2 12 3 13 4 14 5 15 6 16 7 18 8 17 9 19 10 9 11 7 12
REMARK SMILES IDX 6 13 8 14 5 15 4 16 2 17 3 18 1 19
REMARK H PARENT
REMARK Flexibility Score: inf
ROOT
ATOM      1  C   UNL     1       8.742 -23.855 -38.358  1.00  0.00     0.032 C 
ENDROOT
BRANCH   1   2
ATOM      2  C   UNL     1       7.490 -23.032 -38.184  1.00  0.00    -0.028 C 
ATOM      3  C   UNL     1       7.133 -22.400 -37.043  1.00  0.00    -0.077 C 
ATOM      4  C   UNL     1       5.878 -21.566 -37.052  1.00  0.00     0.039 C 
BRANCH   3   5
ATOM      5  C   UNL     1       7.921 -22.522 -35.750  1.00  0.00     0.034 C 
BRANCH   5   6
ATOM      6  C   UNL     1       8.377 -21.151 -35.227  1.00  0.00     0.032 C 
BRANCH   6   7
ATOM      7  C   UNL     1       9.804 -20.848 -35.615  1.00  0.00    -0.028 C 
ATOM      8  C   UNL     1      11.635 -19.831 -36.901  1.00  0.00     0.039 C 
ATOM      9  C   UNL     1      10.167 -20.087 -36.672  1.00  0.00    -0.080 C 
ATOM     10  C   UNL     1       9.151 -19.507 -37.627  1.00  0.00     0.039 C 
ENDBRANCH   6   7
ENDBRANCH   5   6
ENDBRANCH   3   5
ENDBRANCH   1   2
BRANCH   1  11
ATOM     11  C   UNL     1       9.880 -22.997 -38.925  1.00  0.00     0.034 C 
BRANCH  11  12
ATOM     12  C   UNL     1      11.192 -23.337 -38.254  1.00  0.00    -0.077 C 
ATOM     13  C   UNL     1      12.348 -22.945 -38.836  1.00  0.00    -0.028 C 
ATOM     14  C   UNL     1      11.173 -24.094 -36.946  1.00  0.00     0.039 C 
BRANCH  13  15
ATOM     15  C   UNL     1      13.722 -23.264 -38.301  1.00  0.00     0.035 C 
BRANCH  15  16
ATOM     16  C   UNL     1      14.412 -21.993 -37.794  1.00  0.00     0.079 C 
BRANCH  16  17
ATOM     17  C   UNL     1      15.022 -21.227 -38.940  1.00  0.00     0.130 C 
ATOM     18  O   UNL     1      16.099 -21.580 -39.393  1.00  0.00    -0.300 OA
ATOM     19  C   UNL     1      14.336 -20.031 -39.532  1.00  0.00     0.087 C 
ENDBRANCH  16  17
ENDBRANCH  15  16
ENDBRANCH  13  15
ENDBRANCH  11  12
ENDBRANCH   1  11
TORSDOF 9
ENDMDL
MODEL 6
REMARK VINA RESULT:    -4.394      3.090      7.156
REMARK INTER + INTRA:          -9.016
REMARK INTER:                  -7.638
REMARK INTRA:                  -1.377
REMARK UNBOUND:                -2.309
REMARK SMILES CC(=O)CCC=C(C)CCC=C(C)CCC=C(C)C
REMARK SMILES IDX 10 1 11 2 12 3 13 4 14 5 15 6 16 7 18 8 17 9 19 10 9 11 7 12
REMARK SMILES IDX 6 13 8 14 5 15 4 16 2 17 3 18 1 19
REMARK H PARENT
REMARK Flexibility Score: inf
ROOT
ATOM      1  C   UNL     1       8.661 -22.005 -34.832  1.00  0.00     0.032 C 
ENDROOT
BRANCH   1   2
ATOM      2  C   UNL     1       7.431 -22.155 -35.692  1.00  0.00    -0.028 C 
ATOM      3  C   UNL     1       6.963 -21.213 -36.542  1.00  0.00    -0.077 C 
ATOM      4  C   UNL     1       5.752 -21.544 -37.377  1.00  0.00     0.039 C 
BRANCH   3   5
ATOM      5  C   UNL     1       7.582 -19.831 -36.666  1.00  0.00     0.034 C 
BRANCH   5   6
ATOM      6  C   UNL     1       6.514 -18.738 -36.820  1.00  0.00     0.032 C 
BRANCH   6   7
ATOM      7  C   UNL     1       5.972 -18.290 -35.484  1.00  0.00    -0.028 C 
ATOM      8  C   UNL     1       5.140 -16.717 -33.790  1.00  0.00     0.039 C 
ATOM      9  C   UNL     1       5.732 -17.003 -35.146  1.00  0.00    -0.080 C 
ATOM     10  C   UNL     1       6.055 -15.857 -36.075  1.00  0.00     0.039 C 
ENDBRANCH   6   7
ENDBRANCH   5   6
ENDBRANCH   3   5
ENDBRANCH   1   2
BRANCH   1  11
ATOM     11  C   UNL     1       9.623 -23.178 -35.053  1.00  0.00     0.034 C 
BRANCH  11  12
ATOM     12  C   UNL     1      10.396 -23.001 -36.342  1.00  0.00    -0.077 C 
ATOM     13  C   UNL     1      10.791 -21.760 -36.705  1.00  0.00    -0.028 C 
ATOM     14  C   UNL     1      10.714 -24.218 -37.180  1.00  0.00     0.039 C 
BRANCH  13  15
ATOM     15  C   UNL     1      11.520 -21.439 -37.986  1.00  0.00     0.035 C 
BRANCH  15  16
ATOM     16  C   UNL     1      12.920 -20.892 -37.689  1.00  0.00     0.079 C 
BRANCH  16  17
ATOM     17  C   UNL     1      13.960 -21.967 -37.867  1.00  0.00     0.130 C 
ATOM     18  O   UNL     1      13.728 -22.909 -38.610  1.00  0.00    -0.300 OA
ATOM     19  C   UNL     1      15.274 -21.911 -37.146  1.00  0.00     0.087 C 
ENDBRANCH  16  17
ENDBRANCH  15  16
ENDBRANCH  13  15
ENDBRANCH  11  12
ENDBRANCH   1  11
TORSDOF 9
ENDMDL
MODEL 7
REMARK VINA RESULT:    -4.339      1.037      2.902
REMARK INTER + INTRA:          -8.932
REMARK INTER:                  -6.355
REMARK INTRA:                  -2.577
REMARK UNBOUND:                -2.309
REMARK SMILES CC(=O)CCC=C(C)CCC=C(C)CCC=C(C)C
REMARK SMILES IDX 10 1 11 2 12 3 13 4 14 5 15 6 16 7 18 8 17 9 19 10 9 11 7 12
REMARK SMILES IDX 6 13 8 14 5 15 4 16 2 17 3 18 1 19
REMARK H PARENT
REMARK Flexibility Score: inf
ROOT
ATOM      1  C   UNL     1       9.719 -18.592 -37.917  1.00  0.00     0.032 C 
ENDROOT
BRANCH   1   2
ATOM      2  C   UNL     1      10.531 -19.862 -37.945  1.00  0.00    -0.028 C 
ATOM      3  C   UNL     1      10.571 -20.775 -36.947  1.00  0.00    -0.077 C 
ATOM      4  C   UNL     1      11.386 -22.025 -37.157  1.00  0.00     0.039 C 
BRANCH   3   5
ATOM      5  C   UNL     1       9.861 -20.579 -35.618  1.00  0.00     0.034 C 
BRANCH   5   6
ATOM      6  C   UNL     1       8.897 -21.734 -35.309  1.00  0.00     0.032 C 
BRANCH   6   7
ATOM      7  C   UNL     1       7.497 -21.441 -35.790  1.00  0.00    -0.028 C 
ATOM      8  C   UNL     1       5.508 -21.628 -37.221  1.00  0.00     0.039 C 
ATOM      9  C   UNL     1       6.938 -21.978 -36.898  1.00  0.00    -0.080 C 
ATOM     10  C   UNL     1       7.707 -22.896 -37.818  1.00  0.00     0.039 C 
ENDBRANCH   6   7
ENDBRANCH   5   6
ENDBRANCH   3   5
ENDBRANCH   1   2
BRANCH   1  11
ATOM     11  C   UNL     1       8.597 -18.642 -38.962  1.00  0.00     0.034 C 
BRANCH  11  12
ATOM     12  C   UNL     1       7.250 -18.410 -38.312  1.00  0.00    -0.077 C 
ATOM     13  C   UNL     1       7.200 -18.101 -36.997  1.00  0.00    -0.028 C 
ATOM     14  C   UNL     1       6.001 -18.518 -39.156  1.00  0.00     0.039 C 
BRANCH  13  15
ATOM     15  C   UNL     1       5.925 -17.898 -36.218  1.00  0.00     0.035 C 
BRANCH  15  16
ATOM     16  C   UNL     1       5.865 -16.479 -35.641  1.00  0.00     0.079 C 
BRANCH  16  17
ATOM     17  C   UNL     1       5.223 -16.486 -34.278  1.00  0.00     0.130 C 
ATOM     18  O   UNL     1       5.254 -17.505 -33.605  1.00  0.00    -0.300 OA
ATOM     19  C   UNL     1       4.539 -15.269 -33.731  1.00  0.00     0.087 C 
ENDBRANCH  16  17
ENDBRANCH  15  16
ENDBRANCH  13  15
ENDBRANCH  11  12
ENDBRANCH   1  11
TORSDOF 9
ENDMDL
MODEL 8
REMARK VINA RESULT:    -4.337      2.777      7.467
REMARK INTER + INTRA:          -8.928
REMARK INTER:                  -6.417
REMARK INTRA:                  -2.511
REMARK UNBOUND:                -2.309
REMARK SMILES CC(=O)CCC=C(C)CCC=C(C)CCC=C(C)C
REMARK SMILES IDX 10 1 11 2 12 3 13 4 14 5 15 6 16 7 18 8 17 9 19 10 9 11 7 12
REMARK SMILES IDX 6 13 8 14 5 15 4 16 2 17 3 18 1 19
REMARK H PARENT
REMARK Flexibility Score: inf
ROOT
ATOM      1  C   UNL     1       5.250 -15.398 -34.126  1.00  0.00     0.032 C 
ENDROOT
BRANCH   1   2
ATOM      2  C   UNL     1       3.868 -14.825 -33.933  1.00  0.00    -0.028 C 
ATOM      3  C   UNL     1       3.177 -14.141 -34.874  1.00  0.00    -0.077 C 
ATOM      4  C   UNL     1       1.779 -13.687 -34.543  1.00  0.00     0.039 C 
BRANCH   3   5
ATOM      5  C   UNL     1       3.760 -13.785 -36.231  1.00  0.00     0.034 C 
BRANCH   5   6
ATOM      6  C   UNL     1       2.873 -14.284 -37.383  1.00  0.00     0.032 C 
BRANCH   6   7
ATOM      7  C   UNL     1       3.513 -15.430 -38.128  1.00  0.00    -0.028 C 
ATOM      8  C   UNL     1       3.946 -17.768 -38.746  1.00  0.00     0.039 C 
ATOM      9  C   UNL     1       3.269 -16.737 -37.881  1.00  0.00    -0.080 C 
ATOM     10  C   UNL     1       2.359 -17.184 -36.762  1.00  0.00     0.039 C 
ENDBRANCH   6   7
ENDBRANCH   5   6
ENDBRANCH   3   5
ENDBRANCH   1   2
BRANCH   1  11
ATOM     11  C   UNL     1       5.183 -16.915 -34.338  1.00  0.00     0.034 C 
BRANCH  11  12
ATOM     12  C   UNL     1       5.998 -17.323 -35.546  1.00  0.00    -0.077 C 
ATOM     13  C   UNL     1       6.183 -18.639 -35.798  1.00  0.00    -0.028 C 
ATOM     14  C   UNL     1       6.572 -16.249 -36.440  1.00  0.00     0.039 C 
BRANCH  13  15
ATOM     15  C   UNL     1       7.016 -19.178 -36.935  1.00  0.00     0.035 C 
BRANCH  15  16
ATOM     16  C   UNL     1       7.111 -20.705 -36.857  1.00  0.00     0.079 C 
BRANCH  16  17
ATOM     17  C   UNL     1       8.276 -21.123 -35.998  1.00  0.00     0.130 C 
ATOM     18  O   UNL     1       9.284 -20.432 -35.975  1.00  0.00    -0.300 OA
ATOM     19  C   UNL     1       8.230 -22.375 -35.174  1.00  0.00     0.087 C 
ENDBRANCH  16  17
ENDBRANCH  15  16
ENDBRANCH  13  15
ENDBRANCH  11  12
ENDBRANCH   1  11
TORSDOF 9
ENDMDL
MODEL 9
REMARK VINA RESULT:    -4.334     10.934     12.669
REMARK INTER + INTRA:          -8.923
REMARK INTER:                  -6.548
REMARK INTRA:                  -2.375
REMARK UNBOUND:                -2.309
REMARK SMILES CC(=O)CCC=C(C)CCC=C(C)CCC=C(C)C
REMARK SMILES IDX 10 1 11 2 12 3 13 4 14 5 15 6 16 7 18 8 17 9 19 10 9 11 7 12
REMARK SMILES IDX 6 13 8 14 5 15 4 16 2 17 3 18 1 19
REMARK H PARENT
REMARK Flexibility Score: inf
ROOT
ATOM      1  C   UNL     1       8.835 -11.597 -46.314  1.00  0.00     0.032 C 
ENDROOT
BRANCH   1   2
ATOM      2  C   UNL     1       7.537 -12.360 -46.233  1.00  0.00    -0.028 C 
ATOM      3  C   UNL     1       7.332 -13.457 -45.468  1.00  0.00    -0.077 C 
ATOM      4  C   UNL     1       5.954 -14.067 -45.451  1.00  0.00     0.039 C 
BRANCH   3   5
ATOM      5  C   UNL     1       8.433 -14.115 -44.655  1.00  0.00     0.034 C 
BRANCH   5   6
ATOM      6  C   UNL     1       9.180 -15.186 -45.464  1.00  0.00     0.032 C 
BRANCH   6   7
ATOM      7  C   UNL     1      10.628 -14.819 -45.680  1.00  0.00    -0.028 C 
ATOM      8  C   UNL     1      12.611 -14.050 -46.911  1.00  0.00     0.039 C 
ATOM      9  C   UNL     1      11.155 -14.437 -46.865  1.00  0.00    -0.080 C 
ATOM     10  C   UNL     1      10.334 -14.404 -48.133  1.00  0.00     0.039 C 
ENDBRANCH   6   7
ENDBRANCH   5   6
ENDBRANCH   3   5
ENDBRANCH   1   2
BRANCH   1  11
ATOM     11  C   UNL     1       8.800 -10.367 -45.400  1.00  0.00     0.034 C 
BRANCH  11  12
ATOM     12  C   UNL     1      10.103 -10.223 -44.645  1.00  0.00    -0.077 C 
ATOM     13  C   UNL     1      10.742 -11.337 -44.220  1.00  0.00    -0.028 C 
ATOM     14  C   UNL     1      10.659  -8.840 -44.398  1.00  0.00     0.039 C 
BRANCH  13  15
ATOM     15  C   UNL     1      12.018 -11.331 -43.415  1.00  0.00     0.035 C 
BRANCH  15  16
ATOM     16  C   UNL     1      12.606 -12.743 -43.326  1.00  0.00     0.079 C 
BRANCH  16  17
ATOM     17  C   UNL     1      14.033 -12.756 -43.807  1.00  0.00     0.130 C 
ATOM     18  O   UNL     1      14.659 -13.805 -43.805  1.00  0.00    -0.300 OA
ATOM     19  C   UNL     1      14.708 -11.504 -44.283  1.00  0.00     0.087 C 
ENDBRANCH  16  17
ENDBRANCH  15  16
ENDBRANCH  13  15
ENDBRANCH  11  12
ENDBRANCH   1  11
TORSDOF 9
ENDMDL
