MODEL 1
REMARK VINA RESULT:    -4.851      0.000      0.000
REMARK INTER + INTRA:          -5.452
REMARK INTER:                  -5.276
REMARK INTRA:                  -0.175
REMARK UNBOUND:                -0.175
REMARK SMILES O=C([O-])c1ccccc1O
REMARK SMILES IDX 4 1 9 2 5 3 8 4 6 5 7 6 2 7 1 8 3 9 10 10
REMARK H PARENT 10 11
REMARK Flexibility Score: inf
ROOT
ATOM      1  C   UNL     1      16.067  22.462  25.902  1.00  0.00     0.039 A 
ATOM      2  C   UNL     1      16.186  23.856  26.140  1.00  0.00     0.124 A 
ATOM      3  C   UNL     1      16.515  21.563  26.887  1.00  0.00     0.014 A 
ATOM      4  C   UNL     1      16.685  24.308  27.368  1.00  0.00     0.047 A 
ATOM      5  C   UNL     1      17.031  22.031  28.098  1.00  0.00     0.001 A 
ATOM      6  C   UNL     1      17.106  23.402  28.342  1.00  0.00     0.004 A 
ENDROOT
BRANCH   1   7
ATOM      7  C   UNL     1      15.460  21.906  24.672  1.00  0.00     0.075 C 
ATOM      8  O   UNL     1      16.039  22.017  23.559  1.00  0.00    -0.545 OA
ATOM      9  O   UNL     1      14.205  21.313  24.722  1.00  0.00    -0.545 OA
ENDBRANCH   1   7
BRANCH   2  10
ATOM     10  O   UNL     1      15.856  24.816  25.182  1.00  0.00    -0.507 OA
ATOM     11  H   UNL     1      15.798  25.806  25.378  1.00  0.00     0.293 HD
ENDBRANCH   2  10
TORSDOF 2
ENDMDL
MODEL 2
REMARK VINA RESULT:    -4.681      1.303      2.546
REMARK INTER + INTRA:          -5.267
REMARK INTER:                  -5.031
REMARK INTRA:                  -0.235
REMARK UNBOUND:                -0.175
REMARK SMILES O=C([O-])c1ccccc1O
REMARK SMILES IDX 4 1 9 2 5 3 8 4 6 5 7 6 2 7 1 8 3 9 10 10
REMARK H PARENT 10 11
REMARK Flexibility Score: inf
ROOT
ATOM      1  C   UNL     1      16.017  23.107  26.876  1.00  0.00     0.039 A 
ATOM      2  C   UNL     1      15.037  22.161  27.277  1.00  0.00     0.124 A 
ATOM      3  C   UNL     1      16.982  23.524  27.811  1.00  0.00     0.014 A 
ATOM      4  C   UNL     1      15.087  21.618  28.566  1.00  0.00     0.047 A 
ATOM      5  C   UNL     1      17.004  22.988  29.101  1.00  0.00     0.001 A 
ATOM      6  C   UNL     1      16.064  22.028  29.474  1.00  0.00     0.004 A 
ENDROOT
BRANCH   1   7
ATOM      7  C   UNL     1      16.090  23.654  25.502  1.00  0.00     0.075 C 
ATOM      8  O   UNL     1      16.107  24.896  25.301  1.00  0.00    -0.545 OA
ATOM      9  O   UNL     1      16.073  22.795  24.410  1.00  0.00    -0.545 OA
ENDBRANCH   1   7
BRANCH   2  10
ATOM     10  O   UNL     1      13.988  21.764  26.445  1.00  0.00    -0.507 OA
ATOM     11  H   UNL     1      13.497  22.393  25.825  1.00  0.00     0.293 HD
ENDBRANCH   2  10
TORSDOF 2
ENDMDL
MODEL 3
REMARK VINA RESULT:    -4.650      3.371      4.331
REMARK INTER + INTRA:          -5.233
REMARK INTER:                  -4.982
REMARK INTRA:                  -0.251
REMARK UNBOUND:                -0.175
REMARK SMILES O=C([O-])c1ccccc1O
REMARK SMILES IDX 4 1 9 2 5 3 8 4 6 5 7 6 2 7 1 8 3 9 10 10
REMARK H PARENT 10 11
REMARK Flexibility Score: inf
ROOT
ATOM      1  C   UNL     1      15.338  21.199  28.241  1.00  0.00     0.039 A 
ATOM      2  C   UNL     1      16.698  21.423  27.905  1.00  0.00     0.124 A 
ATOM      3  C   UNL     1      14.351  21.414  27.261  1.00  0.00     0.014 A 
ATOM      4  C   UNL     1      17.037  21.790  26.597  1.00  0.00     0.047 A 
ATOM      5  C   UNL     1      14.704  21.801  25.966  1.00  0.00     0.001 A 
ATOM      6  C   UNL     1      16.046  21.979  25.632  1.00  0.00     0.004 A 
ENDROOT
BRANCH   1   7
ATOM      7  C   UNL     1      14.908  20.716  29.572  1.00  0.00     0.075 C 
ATOM      8  O   UNL     1      13.931  21.242  30.166  1.00  0.00    -0.545 OA
ATOM      9  O   UNL     1      15.628  19.716  30.215  1.00  0.00    -0.545 OA
ENDBRANCH   1   7
BRANCH   2  10
ATOM     10  O   UNL     1      17.731  21.327  28.839  1.00  0.00    -0.507 OA
ATOM     11  H   UNL     1      18.554  20.754  28.707  1.00  0.00     0.293 HD
ENDBRANCH   2  10
TORSDOF 2
ENDMDL
MODEL 4
REMARK VINA RESULT:    -4.630     21.585     22.650
REMARK INTER + INTRA:          -5.212
REMARK INTER:                  -4.981
REMARK INTRA:                  -0.230
REMARK UNBOUND:                -0.175
REMARK SMILES O=C([O-])c1ccccc1O
REMARK SMILES IDX 4 1 9 2 5 3 8 4 6 5 7 6 2 7 1 8 3 9 10 10
REMARK H PARENT 10 11
REMARK Flexibility Score: inf
ROOT
ATOM      1  C   UNL     1       0.670  35.152  15.589  1.00  0.00     0.039 A 
ATOM      2  C   UNL     1       0.271  34.524  16.798  1.00  0.00     0.124 A 
ATOM      3  C   UNL     1      -0.321  35.601  14.696  1.00  0.00     0.014 A 
ATOM      4  C   UNL     1      -1.091  34.420  17.106  1.00  0.00     0.047 A 
ATOM      5  C   UNL     1      -1.676  35.470  15.010  1.00  0.00     0.001 A 
ATOM      6  C   UNL     1      -2.060  34.890  16.218  1.00  0.00     0.004 A 
ENDROOT
BRANCH   1   7
ATOM      7  C   UNL     1       2.088  35.387  15.237  1.00  0.00     0.075 C 
ATOM      8  O   UNL     1       2.988  35.350  16.117  1.00  0.00    -0.545 OA
ATOM      9  O   UNL     1       2.435  35.719  13.933  1.00  0.00    -0.545 OA
ENDBRANCH   1   7
BRANCH   2  10
ATOM     10  O   UNL     1       1.183  33.965  17.694  1.00  0.00    -0.507 OA
ATOM     11  H   UNL     1       1.014  33.109  18.205  1.00  0.00     0.293 HD
ENDBRANCH   2  10
TORSDOF 2
ENDMDL
MODEL 5
REMARK VINA RESULT:    -4.590      3.123      4.324
REMARK INTER + INTRA:          -5.168
REMARK INTER:                  -4.919
REMARK INTRA:                  -0.249
REMARK UNBOUND:                -0.175
REMARK SMILES O=C([O-])c1ccccc1O
REMARK SMILES IDX 4 1 9 2 5 3 8 4 6 5 7 6 2 7 1 8 3 9 10 10
REMARK H PARENT 10 11
REMARK Flexibility Score: inf
ROOT
ATOM      1  C   UNL     1      15.480  21.538  28.364  1.00  0.00     0.039 A 
ATOM      2  C   UNL     1      14.389  21.626  27.461  1.00  0.00     0.124 A 
ATOM      3  C   UNL     1      16.790  21.569  27.853  1.00  0.00     0.014 A 
ATOM      4  C   UNL     1      14.635  21.804  26.094  1.00  0.00     0.047 A 
ATOM      5  C   UNL     1      17.018  21.725  26.484  1.00  0.00     0.001 A 
ATOM      6  C   UNL     1      15.942  21.853  25.607  1.00  0.00     0.004 A 
ENDROOT
BRANCH   1   7
ATOM      7  C   UNL     1      15.302  21.446  29.831  1.00  0.00     0.075 C 
ATOM      8  O   UNL     1      14.455  20.662  30.332  1.00  0.00    -0.545 OA
ATOM      9  O   UNL     1      16.028  22.281  30.673  1.00  0.00    -0.545 OA
ENDBRANCH   1   7
BRANCH   2  10
ATOM     10  O   UNL     1      13.059  21.508  27.870  1.00  0.00    -0.507 OA
ATOM     11  H   UNL     1      12.741  20.831  28.550  1.00  0.00     0.293 HD
ENDBRANCH   2  10
TORSDOF 2
ENDMDL
MODEL 6
REMARK VINA RESULT:    -4.439      2.349      3.239
REMARK INTER + INTRA:          -5.003
REMARK INTER:                  -4.766
REMARK INTRA:                  -0.238
REMARK UNBOUND:                -0.175
REMARK SMILES O=C([O-])c1ccccc1O
REMARK SMILES IDX 4 1 9 2 5 3 8 4 6 5 7 6 2 7 1 8 3 9 10 10
REMARK H PARENT 10 11
REMARK Flexibility Score: inf
ROOT
ATOM      1  C   UNL     1      15.151  21.864  28.086  1.00  0.00     0.039 A 
ATOM      2  C   UNL     1      15.094  22.353  26.755  1.00  0.00     0.124 A 
ATOM      3  C   UNL     1      16.095  22.414  28.973  1.00  0.00     0.014 A 
ATOM      4  C   UNL     1      15.928  23.410  26.371  1.00  0.00     0.047 A 
ATOM      5  C   UNL     1      16.934  23.454  28.567  1.00  0.00     0.001 A 
ATOM      6  C   UNL     1      16.844  23.958  27.270  1.00  0.00     0.004 A 
ENDROOT
BRANCH   1   7
ATOM      7  C   UNL     1      14.238  20.817  28.597  1.00  0.00     0.075 C 
ATOM      8  O   UNL     1      14.687  19.789  29.168  1.00  0.00    -0.545 OA
ATOM      9  O   UNL     1      12.868  20.927  28.389  1.00  0.00    -0.545 OA
ENDBRANCH   1   7
BRANCH   2  10
ATOM     10  O   UNL     1      14.257  21.801  25.784  1.00  0.00    -0.507 OA
ATOM     11  H   UNL     1      14.371  20.869  25.411  1.00  0.00     0.293 HD
ENDBRANCH   2  10
TORSDOF 2
ENDMDL
MODEL 7
REMARK VINA RESULT:    -4.400      3.197      4.337
REMARK INTER + INTRA:          -4.961
REMARK INTER:                  -4.732
REMARK INTRA:                  -0.229
REMARK UNBOUND:                -0.175
REMARK SMILES O=C([O-])c1ccccc1O
REMARK SMILES IDX 4 1 9 2 5 3 8 4 6 5 7 6 2 7 1 8 3 9 10 10
REMARK H PARENT 10 11
REMARK Flexibility Score: inf
ROOT
ATOM      1  C   UNL     1      14.818  23.137  28.674  1.00  0.00     0.039 A 
ATOM      2  C   UNL     1      14.448  22.162  27.712  1.00  0.00     0.124 A 
ATOM      3  C   UNL     1      16.089  23.734  28.583  1.00  0.00     0.014 A 
ATOM      4  C   UNL     1      15.323  21.860  26.661  1.00  0.00     0.047 A 
ATOM      5  C   UNL     1      16.958  23.405  27.540  1.00  0.00     0.001 A 
ATOM      6  C   UNL     1      16.571  22.477  26.575  1.00  0.00     0.004 A 
ENDROOT
BRANCH   1   7
ATOM      7  C   UNL     1      13.912  23.581  29.757  1.00  0.00     0.075 C 
ATOM      8  O   UNL     1      13.662  24.803  29.930  1.00  0.00    -0.545 OA
ATOM      9  O   UNL     1      13.377  22.652  30.641  1.00  0.00    -0.545 OA
ENDBRANCH   1   7
BRANCH   2  10
ATOM     10  O   UNL     1      13.248  21.452  27.781  1.00  0.00    -0.507 OA
ATOM     11  H   UNL     1      13.179  20.501  28.117  1.00  0.00     0.293 HD
ENDBRANCH   2  10
TORSDOF 2
ENDMDL
MODEL 8
REMARK VINA RESULT:    -4.394     22.088     23.303
REMARK INTER + INTRA:          -4.955
REMARK INTER:                  -4.704
REMARK INTRA:                  -0.251
REMARK UNBOUND:                -0.175
REMARK SMILES O=C([O-])c1ccccc1O
REMARK SMILES IDX 4 1 9 2 5 3 8 4 6 5 7 6 2 7 1 8 3 9 10 10
REMARK H PARENT 10 11
REMARK Flexibility Score: inf
ROOT
ATOM      1  C   UNL     1       2.069  36.313  14.048  1.00  0.00     0.039 A 
ATOM      2  C   UNL     1       1.181  35.280  14.446  1.00  0.00     0.124 A 
ATOM      3  C   UNL     1       1.943  36.856  12.755  1.00  0.00     0.014 A 
ATOM      4  C   UNL     1       0.164  34.867  13.577  1.00  0.00     0.047 A 
ATOM      5  C   UNL     1       0.936  36.417  11.892  1.00  0.00     0.001 A 
ATOM      6  C   UNL     1       0.041  35.431  12.307  1.00  0.00     0.004 A 
ENDROOT
BRANCH   1   7
ATOM      7  C   UNL     1       3.106  36.871  14.943  1.00  0.00     0.075 C 
ATOM      8  O   UNL     1       3.398  38.095  14.911  1.00  0.00    -0.545 OA
ATOM      9  O   UNL     1       3.821  36.030  15.788  1.00  0.00    -0.545 OA
ENDBRANCH   1   7
BRANCH   2  10
ATOM     10  O   UNL     1       1.295  34.619  15.671  1.00  0.00    -0.507 OA
ATOM     11  H   UNL     1       0.564  34.607  16.370  1.00  0.00     0.293 HD
ENDBRANCH   2  10
TORSDOF 2
ENDMDL
