MODEL 1
REMARK VINA RESULT:    -3.675      0.000      0.000
REMARK INTER + INTRA:          -4.071
REMARK INTER:                  -3.997
REMARK INTRA:                  -0.073
REMARK UNBOUND:                -0.073
REMARK SMILES CCc1cccc(O)c1
REMARK SMILES IDX 3 1 9 2 7 3 6 4 5 5 4 6 2 7 1 8 8 9
REMARK H PARENT 8 10
REMARK Flexibility Score: inf
ROOT
ATOM      1  C   UNL     1     171.612 180.020 187.119  1.00  0.00    -0.045 A 
ATOM      2  C   UNL     1     172.371 179.886 185.945  1.00  0.00     0.049 A 
ATOM      3  C   UNL     1     173.768 179.820 186.010  1.00  0.00     0.115 A 
ATOM      4  C   UNL     1     174.412 179.896 187.252  1.00  0.00     0.046 A 
ATOM      5  C   UNL     1     173.663 180.041 188.423  1.00  0.00     0.004 A 
ATOM      6  C   UNL     1     172.267 180.109 188.359  1.00  0.00     0.004 A 
ENDROOT
BRANCH   1   7
ATOM      7  C   UNL     1     170.112 180.125 187.046  1.00  0.00     0.032 C 
ATOM      8  C   UNL     1     169.479 179.760 188.384  1.00  0.00     0.009 C 
ENDBRANCH   1   7
BRANCH   3   9
ATOM      9  O   UNL     1     174.505 179.681 184.836  1.00  0.00    -0.508 OA
ATOM     10  H   UNL     1     175.100 180.426 184.494  1.00  0.00     0.293 HD
ENDBRANCH   3   9
TORSDOF 2
ENDMDL
MODEL 2
REMARK VINA RESULT:    -3.614     20.986     21.727
REMARK INTER + INTRA:          -4.005
REMARK INTER:                  -3.957
REMARK INTRA:                  -0.048
REMARK UNBOUND:                -0.073
REMARK SMILES CCc1cccc(O)c1
REMARK SMILES IDX 3 1 9 2 7 3 6 4 5 5 4 6 2 7 1 8 8 9
REMARK H PARENT 8 10
REMARK Flexibility Score: inf
ROOT
ATOM      1  C   UNL     1     162.616 161.271 187.461  1.00  0.00    -0.045 A 
ATOM      2  C   UNL     1     161.919 161.749 188.583  1.00  0.00     0.049 A 
ATOM      3  C   UNL     1     160.551 162.032 188.499  1.00  0.00     0.115 A 
ATOM      4  C   UNL     1     159.875 161.846 187.285  1.00  0.00     0.046 A 
ATOM      5  C   UNL     1     160.565 161.383 186.162  1.00  0.00     0.004 A 
ATOM      6  C   UNL     1     161.932 161.101 186.245  1.00  0.00     0.004 A 
ENDROOT
BRANCH   1   7
ATOM      7  C   UNL     1     164.094 160.999 187.544  1.00  0.00     0.032 C 
ATOM      8  C   UNL     1     164.440 160.291 188.850  1.00  0.00     0.009 C 
ENDBRANCH   1   7
BRANCH   3   9
ATOM      9  O   UNL     1     159.875 162.499 189.624  1.00  0.00    -0.508 OA
ATOM     10  H   UNL     1     159.859 163.484 189.860  1.00  0.00     0.293 HD
ENDBRANCH   3   9
TORSDOF 2
ENDMDL
MODEL 3
REMARK VINA RESULT:    -3.576     11.649     12.748
REMARK INTER + INTRA:          -3.963
REMARK INTER:                  -3.888
REMARK INTRA:                  -0.074
REMARK UNBOUND:                -0.073
REMARK SMILES CCc1cccc(O)c1
REMARK SMILES IDX 3 1 9 2 7 3 6 4 5 5 4 6 2 7 1 8 8 9
REMARK H PARENT 8 10
REMARK Flexibility Score: inf
ROOT
ATOM      1  C   UNL     1     160.369 174.768 187.170  1.00  0.00    -0.045 A 
ATOM      2  C   UNL     1     160.692 175.466 185.995  1.00  0.00     0.049 A 
ATOM      3  C   UNL     1     161.121 176.797 186.058  1.00  0.00     0.115 A 
ATOM      4  C   UNL     1     161.221 177.438 187.301  1.00  0.00     0.046 A 
ATOM      5  C   UNL     1     160.890 176.753 188.472  1.00  0.00     0.004 A 
ATOM      6  C   UNL     1     160.459 175.424 188.409  1.00  0.00     0.004 A 
ENDROOT
BRANCH   1   7
ATOM      7  C   UNL     1     159.875 173.348 187.098  1.00  0.00     0.032 C 
ATOM      8  C   UNL     1     159.878 172.704 188.481  1.00  0.00     0.009 C 
ENDBRANCH   1   7
BRANCH   3   9
ATOM      9  O   UNL     1     161.444 177.472 184.883  1.00  0.00    -0.508 OA
ATOM     10  H   UNL     1     161.950 178.350 184.900  1.00  0.00     0.293 HD
ENDBRANCH   3   9
TORSDOF 2
ENDMDL
MODEL 4
REMARK VINA RESULT:    -3.562     18.641     19.870
REMARK INTER + INTRA:          -3.947
REMARK INTER:                  -3.901
REMARK INTRA:                  -0.046
REMARK UNBOUND:                -0.073
REMARK SMILES CCc1cccc(O)c1
REMARK SMILES IDX 3 1 9 2 7 3 6 4 5 5 4 6 2 7 1 8 8 9
REMARK H PARENT 8 10
REMARK Flexibility Score: inf
ROOT
ATOM      1  C   UNL     1     161.737 162.662 188.737  1.00  0.00    -0.045 A 
ATOM      2  C   UNL     1     162.720 163.656 188.875  1.00  0.00     0.049 A 
ATOM      3  C   UNL     1     164.076 163.332 188.749  1.00  0.00     0.115 A 
ATOM      4  C   UNL     1     164.455 162.008 188.493  1.00  0.00     0.046 A 
ATOM      5  C   UNL     1     163.482 161.012 188.367  1.00  0.00     0.004 A 
ATOM      6  C   UNL     1     162.128 161.335 188.494  1.00  0.00     0.004 A 
ENDROOT
BRANCH   1   7
ATOM      7  C   UNL     1     160.281 163.005 188.905  1.00  0.00     0.032 C 
ATOM      8  C   UNL     1     159.875 164.122 187.949  1.00  0.00     0.009 C 
ENDBRANCH   1   7
BRANCH   3   9
ATOM      9  O   UNL     1     165.036 164.333 188.882  1.00  0.00    -0.508 OA
ATOM     10  H   UNL     1     165.047 165.140 188.270  1.00  0.00     0.293 HD
ENDBRANCH   3   9
TORSDOF 2
ENDMDL
MODEL 5
REMARK VINA RESULT:    -3.545      6.821      8.391
REMARK INTER + INTRA:          -3.929
REMARK INTER:                  -3.876
REMARK INTRA:                  -0.054
REMARK UNBOUND:                -0.073
REMARK SMILES CCc1cccc(O)c1
REMARK SMILES IDX 3 1 9 2 7 3 6 4 5 5 4 6 2 7 1 8 8 9
REMARK H PARENT 8 10
REMARK Flexibility Score: inf
ROOT
ATOM      1  C   UNL     1     178.628 173.995 188.309  1.00  0.00    -0.045 A 
ATOM      2  C   UNL     1     178.225 174.440 187.040  1.00  0.00     0.049 A 
ATOM      3  C   UNL     1     177.155 175.334 186.910  1.00  0.00     0.115 A 
ATOM      4  C   UNL     1     176.479 175.781 188.053  1.00  0.00     0.046 A 
ATOM      5  C   UNL     1     176.867 175.332 189.318  1.00  0.00     0.004 A 
ATOM      6  C   UNL     1     177.934 174.438 189.448  1.00  0.00     0.004 A 
ENDROOT
BRANCH   1   7
ATOM      7  C   UNL     1     179.756 173.008 188.445  1.00  0.00     0.032 C 
ATOM      8  C   UNL     1     179.227 171.577 188.420  1.00  0.00     0.009 C 
ENDBRANCH   1   7
BRANCH   3   9
ATOM      9  O   UNL     1     176.773 175.770 185.643  1.00  0.00    -0.508 OA
ATOM     10  H   UNL     1     176.884 176.737 185.362  1.00  0.00     0.293 HD
ENDBRANCH   3   9
TORSDOF 2
ENDMDL
MODEL 6
REMARK VINA RESULT:    -3.531     18.819     19.787
REMARK INTER + INTRA:          -3.914
REMARK INTER:                  -3.864
REMARK INTRA:                  -0.050
REMARK UNBOUND:                -0.073
REMARK SMILES CCc1cccc(O)c1
REMARK SMILES IDX 3 1 9 2 7 3 6 4 5 5 4 6 2 7 1 8 8 9
REMARK H PARENT 8 10
REMARK Flexibility Score: inf
ROOT
ATOM      1  C   UNL     1     164.366 161.350 188.647  1.00  0.00    -0.045 A 
ATOM      2  C   UNL     1     164.705 162.687 188.909  1.00  0.00     0.049 A 
ATOM      3  C   UNL     1     165.838 162.993 189.673  1.00  0.00     0.115 A 
ATOM      4  C   UNL     1     166.632 161.959 190.186  1.00  0.00     0.046 A 
ATOM      5  C   UNL     1     166.293 160.626 189.939  1.00  0.00     0.004 A 
ATOM      6  C   UNL     1     165.161 160.320 189.178  1.00  0.00     0.004 A 
ENDROOT
BRANCH   1   7
ATOM      7  C   UNL     1     163.130 161.021 187.855  1.00  0.00     0.032 C 
ATOM      8  C   UNL     1     161.899 161.668 188.481  1.00  0.00     0.009 C 
ENDBRANCH   1   7
BRANCH   3   9
ATOM      9  O   UNL     1     166.163 164.326 189.917  1.00  0.00    -0.508 OA
ATOM     10  H   UNL     1     165.465 165.059 189.862  1.00  0.00     0.293 HD
ENDBRANCH   3   9
TORSDOF 2
ENDMDL
MODEL 7
REMARK VINA RESULT:    -3.472     20.848     21.312
REMARK INTER + INTRA:          -3.850
REMARK INTER:                  -3.790
REMARK INTRA:                  -0.061
REMARK UNBOUND:                -0.073
REMARK SMILES CCc1cccc(O)c1
REMARK SMILES IDX 3 1 9 2 7 3 6 4 5 5 4 6 2 7 1 8 8 9
REMARK H PARENT 8 10
REMARK Flexibility Score: inf
ROOT
ATOM      1  C   UNL     1     161.224 161.513 187.759  1.00  0.00    -0.045 A 
ATOM      2  C   UNL     1     161.303 161.218 186.388  1.00  0.00     0.049 A 
ATOM      3  C   UNL     1     162.534 160.904 185.801  1.00  0.00     0.115 A 
ATOM      4  C   UNL     1     163.696 160.891 186.585  1.00  0.00     0.046 A 
ATOM      5  C   UNL     1     163.626 161.196 187.947  1.00  0.00     0.004 A 
ATOM      6  C   UNL     1     162.396 161.511 188.533  1.00  0.00     0.004 A 
ENDROOT
BRANCH   1   7
ATOM      7  C   UNL     1     159.905 161.883 188.381  1.00  0.00     0.032 C 
ATOM      8  C   UNL     1     159.884 163.360 188.765  1.00  0.00     0.009 C 
ENDBRANCH   1   7
BRANCH   3   9
ATOM      9  O   UNL     1     162.592 160.608 184.441  1.00  0.00    -0.508 OA
ATOM     10  H   UNL     1     161.909 160.976 183.790  1.00  0.00     0.293 HD
ENDBRANCH   3   9
TORSDOF 2
ENDMDL
MODEL 8
REMARK VINA RESULT:    -2.895      9.754     11.531
REMARK INTER + INTRA:          -3.223
REMARK INTER:                  -3.149
REMARK INTRA:                  -0.073
REMARK UNBOUND:                -0.073
REMARK SMILES CCc1cccc(O)c1
REMARK SMILES IDX 3 1 9 2 7 3 6 4 5 5 4 6 2 7 1 8 8 9
REMARK H PARENT 8 10
REMARK Flexibility Score: inf
ROOT
ATOM      1  C   UNL     1     161.188 175.654 188.170  1.00  0.00    -0.045 A 
ATOM      2  C   UNL     1     161.269 177.057 188.167  1.00  0.00     0.049 A 
ATOM      3  C   UNL     1     162.441 177.696 187.745  1.00  0.00     0.115 A 
ATOM      4  C   UNL     1     163.541 176.932 187.330  1.00  0.00     0.046 A 
ATOM      5  C   UNL     1     163.470 175.537 187.343  1.00  0.00     0.004 A 
ATOM      6  C   UNL     1     162.300 174.898 187.767  1.00  0.00     0.004 A 
ENDROOT
BRANCH   1   7
ATOM      7  C   UNL     1     159.940 174.968 188.657  1.00  0.00     0.032 C 
ATOM      8  C   UNL     1     159.875 173.534 188.139  1.00  0.00     0.009 C 
ENDBRANCH   1   7
BRANCH   3   9
ATOM      9  O   UNL     1     162.502 179.088 187.742  1.00  0.00    -0.508 OA
ATOM     10  H   UNL     1     163.278 179.582 187.318  1.00  0.00     0.293 HD
ENDBRANCH   3   9
TORSDOF 2
ENDMDL
