MODEL 1
REMARK VINA RESULT:    -3.422      0.000      0.000
REMARK INTER + INTRA:          -4.813
REMARK INTER:                  -4.223
REMARK INTRA:                  -0.590
REMARK UNBOUND:                -0.590
REMARK SMILES CCCCC=CC(C)=O
REMARK SMILES IDX 4 1 3 2 2 3 1 4 5 5 6 6 7 7 9 8 8 9
REMARK H PARENT
REMARK Flexibility Score: inf
ROOT
ATOM      1  C   UNL     1       6.404   4.096  -5.188  1.00  0.00     0.027 C 
ENDROOT
BRANCH   1   2
ATOM      2  C   UNL     1       6.712   5.224  -6.186  1.00  0.00     0.004 C 
BRANCH   2   3
ATOM      3  C   UNL     1       6.974   4.688  -7.601  1.00  0.00    -0.003 C 
ATOM      4  C   UNL     1       5.910   3.673  -8.010  1.00  0.00     0.004 C 
ENDBRANCH   2   3
ENDBRANCH   1   2
BRANCH   1   5
ATOM      5  C   UNL     1       7.635   3.603  -4.471  1.00  0.00    -0.023 C 
ATOM      6  C   UNL     1       8.278   2.450  -4.713  1.00  0.00     0.042 C 
BRANCH   6   7
ATOM      7  C   UNL     1       7.968   1.484  -5.787  1.00  0.00     0.152 C 
ATOM      8  O   UNL     1       7.044   0.650  -5.596  1.00  0.00    -0.295 OA
ATOM      9  C   UNL     1       8.751   1.410  -7.061  1.00  0.00     0.093 C 
ENDBRANCH   6   7
ENDBRANCH   1   5
TORSDOF 4
ENDMDL
MODEL 2
REMARK VINA RESULT:    -3.333     14.788     16.118
REMARK INTER + INTRA:          -4.703
REMARK INTER:                  -4.136
REMARK INTRA:                  -0.567
REMARK UNBOUND:                -0.590
REMARK SMILES CCCCC=CC(C)=O
REMARK SMILES IDX 4 1 3 2 2 3 1 4 5 5 6 6 7 7 9 8 8 9
REMARK H PARENT
REMARK Flexibility Score: inf
ROOT
ATOM      1  C   UNL     1      -6.060  13.963  -3.603  1.00  0.00     0.027 C 
ENDROOT
BRANCH   1   2
ATOM      2  C   UNL     1      -7.296  13.049  -3.607  1.00  0.00     0.004 C 
BRANCH   2   3
ATOM      3  C   UNL     1      -7.396  12.219  -4.895  1.00  0.00    -0.003 C 
ATOM      4  C   UNL     1      -7.219  10.731  -4.605  1.00  0.00     0.004 C 
ENDBRANCH   2   3
ENDBRANCH   1   2
BRANCH   1   5
ATOM      5  C   UNL     1      -4.876  13.337  -2.910  1.00  0.00    -0.023 C 
ATOM      6  C   UNL     1      -3.784  12.839  -3.512  1.00  0.00     0.042 C 
BRANCH   6   7
ATOM      7  C   UNL     1      -3.481  12.891  -4.956  1.00  0.00     0.152 C 
ATOM      8  O   UNL     1      -2.960  13.940  -5.422  1.00  0.00    -0.295 OA
ATOM      9  C   UNL     1      -3.829  11.782  -5.899  1.00  0.00     0.093 C 
ENDBRANCH   6   7
ENDBRANCH   1   5
TORSDOF 4
ENDMDL
MODEL 3
REMARK VINA RESULT:    -3.325      1.205      1.600
REMARK INTER + INTRA:          -4.692
REMARK INTER:                  -4.378
REMARK INTRA:                  -0.314
REMARK UNBOUND:                -0.590
REMARK SMILES CCCCC=CC(C)=O
REMARK SMILES IDX 4 1 3 2 2 3 1 4 5 5 6 6 7 7 9 8 8 9
REMARK H PARENT
REMARK Flexibility Score: inf
ROOT
ATOM      1  C   UNL     1       6.486   3.023  -5.256  1.00  0.00     0.027 C 
ENDROOT
BRANCH   1   2
ATOM      2  C   UNL     1       6.294   4.134  -6.302  1.00  0.00     0.004 C 
BRANCH   2   3
ATOM      3  C   UNL     1       6.620   5.523  -5.736  1.00  0.00    -0.003 C 
ATOM      4  C   UNL     1       6.606   6.582  -6.835  1.00  0.00     0.004 C 
ENDBRANCH   2   3
ENDBRANCH   1   2
BRANCH   1   5
ATOM      5  C   UNL     1       7.773   3.170  -4.485  1.00  0.00    -0.023 C 
ATOM      6  C   UNL     1       8.811   2.319  -4.515  1.00  0.00     0.042 C 
BRANCH   6   7
ATOM      7  C   UNL     1       8.940   1.128  -5.378  1.00  0.00     0.152 C 
ATOM      8  O   UNL     1       8.621   0.005  -4.904  1.00  0.00    -0.295 OA
ATOM      9  C   UNL     1       9.500   1.189  -6.766  1.00  0.00     0.093 C 
ENDBRANCH   6   7
ENDBRANCH   1   5
TORSDOF 4
ENDMDL
MODEL 4
REMARK VINA RESULT:    -3.235     14.822     16.325
REMARK INTER + INTRA:          -4.582
REMARK INTER:                  -3.960
REMARK INTRA:                  -0.622
REMARK UNBOUND:                -0.590
REMARK SMILES CCCCC=CC(C)=O
REMARK SMILES IDX 4 1 3 2 2 3 1 4 5 5 6 6 7 7 9 8 8 9
REMARK H PARENT
REMARK Flexibility Score: inf
ROOT
ATOM      1  C   UNL     1      -3.822  12.807  -3.581  1.00  0.00     0.027 C 
ENDROOT
BRANCH   1   2
ATOM      2  C   UNL     1      -3.073  13.737  -4.550  1.00  0.00     0.004 C 
BRANCH   2   3
ATOM      3  C   UNL     1      -3.150  13.242  -6.001  1.00  0.00    -0.003 C 
ATOM      4  C   UNL     1      -3.770  11.850  -6.076  1.00  0.00     0.004 C 
ENDBRANCH   2   3
ENDBRANCH   1   2
BRANCH   1   5
ATOM      5  C   UNL     1      -4.844  13.539  -2.749  1.00  0.00    -0.023 C 
ATOM      6  C   UNL     1      -6.117  13.782  -3.098  1.00  0.00     0.042 C 
BRANCH   6   7
ATOM      7  C   UNL     1      -6.795  13.301  -4.319  1.00  0.00     0.152 C 
ATOM      8  O   UNL     1      -7.252  12.127  -4.330  1.00  0.00    -0.295 OA
ATOM      9  C   UNL     1      -6.901  14.125  -5.565  1.00  0.00     0.093 C 
ENDBRANCH   6   7
ENDBRANCH   1   5
TORSDOF 4
ENDMDL
MODEL 5
REMARK VINA RESULT:    -3.227      1.244      2.697
REMARK INTER + INTRA:          -4.572
REMARK INTER:                  -4.048
REMARK INTRA:                  -0.525
REMARK UNBOUND:                -0.590
REMARK SMILES CCCCC=CC(C)=O
REMARK SMILES IDX 4 1 3 2 2 3 1 4 5 5 6 6 7 7 9 8 8 9
REMARK H PARENT
REMARK Flexibility Score: inf
ROOT
ATOM      1  C   UNL     1       6.815   1.708  -7.473  1.00  0.00     0.027 C 
ENDROOT
BRANCH   1   2
ATOM      2  C   UNL     1       6.349   3.162  -7.292  1.00  0.00     0.004 C 
BRANCH   2   3
ATOM      3  C   UNL     1       5.995   3.477  -5.832  1.00  0.00    -0.003 C 
ATOM      4  C   UNL     1       6.747   4.710  -5.338  1.00  0.00     0.004 C 
ENDBRANCH   2   3
ENDBRANCH   1   2
BRANCH   1   5
ATOM      5  C   UNL     1       8.297   1.601  -7.726  1.00  0.00    -0.023 C 
ATOM      6  C   UNL     1       9.243   1.405  -6.794  1.00  0.00     0.042 C 
BRANCH   6   7
ATOM      7  C   UNL     1       9.016   1.160  -5.355  1.00  0.00     0.152 C 
ATOM      8  O   UNL     1       8.570   0.036  -5.000  1.00  0.00    -0.295 OA
ATOM      9  C   UNL     1       9.227   2.212  -4.310  1.00  0.00     0.093 C 
ENDBRANCH   6   7
ENDBRANCH   1   5
TORSDOF 4
ENDMDL
MODEL 6
REMARK VINA RESULT:    -3.192      2.123      3.660
REMARK INTER + INTRA:          -4.528
REMARK INTER:                  -3.959
REMARK INTRA:                  -0.569
REMARK UNBOUND:                -0.590
REMARK SMILES CCCCC=CC(C)=O
REMARK SMILES IDX 4 1 3 2 2 3 1 4 5 5 6 6 7 7 9 8 8 9
REMARK H PARENT
REMARK Flexibility Score: inf
ROOT
ATOM      1  C   UNL     1       6.840   4.645  -5.141  1.00  0.00     0.027 C 
ENDROOT
BRANCH   1   2
ATOM      2  C   UNL     1       5.907   3.473  -5.487  1.00  0.00     0.004 C 
BRANCH   2   3
ATOM      3  C   UNL     1       6.685   2.226  -5.929  1.00  0.00    -0.003 C 
ATOM      4  C   UNL     1       8.168   2.353  -5.589  1.00  0.00     0.004 C 
ENDBRANCH   2   3
ENDBRANCH   1   2
BRANCH   1   5
ATOM      5  C   UNL     1       6.539   5.883  -5.946  1.00  0.00    -0.023 C 
ATOM      6  C   UNL     1       6.903   6.103  -7.219  1.00  0.00     0.042 C 
BRANCH   6   7
ATOM      7  C   UNL     1       7.585   5.144  -8.112  1.00  0.00     0.152 C 
ATOM      8  O   UNL     1       8.843   5.085  -8.082  1.00  0.00    -0.295 OA
ATOM      9  C   UNL     1       6.849   4.291  -9.098  1.00  0.00     0.093 C 
ENDBRANCH   6   7
ENDBRANCH   1   5
TORSDOF 4
ENDMDL
MODEL 7
REMARK VINA RESULT:    -3.136      2.091      4.127
REMARK INTER + INTRA:          -4.460
REMARK INTER:                  -3.861
REMARK INTRA:                  -0.599
REMARK UNBOUND:                -0.590
REMARK SMILES CCCCC=CC(C)=O
REMARK SMILES IDX 4 1 3 2 2 3 1 4 5 5 6 6 7 7 9 8 8 9
REMARK H PARENT
REMARK Flexibility Score: inf
ROOT
ATOM      1  C   UNL     1       5.965   3.106  -6.072  1.00  0.00     0.027 C 
ENDROOT
BRANCH   1   2
ATOM      2  C   UNL     1       7.160   2.190  -5.759  1.00  0.00     0.004 C 
BRANCH   2   3
ATOM      3  C   UNL     1       8.163   2.855  -4.807  1.00  0.00    -0.003 C 
ATOM      4  C   UNL     1       7.538   4.054  -4.099  1.00  0.00     0.004 C 
ENDBRANCH   2   3
ENDBRANCH   1   2
BRANCH   1   5
ATOM      5  C   UNL     1       5.822   3.390  -7.546  1.00  0.00    -0.023 C 
ATOM      6  C   UNL     1       6.365   4.426  -8.205  1.00  0.00     0.042 C 
BRANCH   6   7
ATOM      7  C   UNL     1       7.284   5.436  -7.641  1.00  0.00     0.152 C 
ATOM      8  O   UNL     1       8.523   5.215  -7.692  1.00  0.00    -0.295 OA
ATOM      9  C   UNL     1       6.802   6.675  -6.951  1.00  0.00     0.093 C 
ENDBRANCH   6   7
ENDBRANCH   1   5
TORSDOF 4
ENDMDL
MODEL 8
REMARK VINA RESULT:    -3.132      1.491      2.474
REMARK INTER + INTRA:          -4.455
REMARK INTER:                  -4.158
REMARK INTRA:                  -0.297
REMARK UNBOUND:                -0.590
REMARK SMILES CCCCC=CC(C)=O
REMARK SMILES IDX 4 1 3 2 2 3 1 4 5 5 6 6 7 7 9 8 8 9
REMARK H PARENT
REMARK Flexibility Score: inf
ROOT
ATOM      1  C   UNL     1       6.572   3.819  -7.845  1.00  0.00     0.027 C 
ENDROOT
BRANCH   1   2
ATOM      2  C   UNL     1       5.755   3.045  -8.893  1.00  0.00     0.004 C 
BRANCH   2   3
ATOM      3  C   UNL     1       4.744   3.946  -9.618  1.00  0.00    -0.003 C 
ATOM      4  C   UNL     1       3.350   3.326  -9.608  1.00  0.00     0.004 C 
ENDBRANCH   2   3
ENDBRANCH   1   2
BRANCH   1   5
ATOM      5  C   UNL     1       5.945   3.778  -6.474  1.00  0.00    -0.023 C 
ATOM      6  C   UNL     1       6.210   2.879  -5.513  1.00  0.00     0.042 C 
BRANCH   6   7
ATOM      7  C   UNL     1       7.234   1.815  -5.569  1.00  0.00     0.152 C 
ATOM      8  O   UNL     1       6.854   0.626  -5.737  1.00  0.00    -0.295 OA
ATOM      9  C   UNL     1       8.693   2.082  -5.365  1.00  0.00     0.093 C 
ENDBRANCH   6   7
ENDBRANCH   1   5
TORSDOF 4
ENDMDL
MODEL 9
REMARK VINA RESULT:    -3.054     15.326     16.748
REMARK INTER + INTRA:          -4.359
REMARK INTER:                  -3.775
REMARK INTRA:                  -0.584
REMARK UNBOUND:                -0.590
REMARK SMILES CCCCC=CC(C)=O
REMARK SMILES IDX 4 1 3 2 2 3 1 4 5 5 6 6 7 7 9 8 8 9
REMARK H PARENT
REMARK Flexibility Score: inf
ROOT
ATOM      1  C   UNL     1      -5.970  13.928  -3.808  1.00  0.00     0.027 C 
ENDROOT
BRANCH   1   2
ATOM      2  C   UNL     1      -4.869  13.368  -2.892  1.00  0.00     0.004 C 
BRANCH   2   3
ATOM      3  C   UNL     1      -3.792  12.610  -3.680  1.00  0.00    -0.003 C 
ATOM      4  C   UNL     1      -4.025  12.726  -5.183  1.00  0.00     0.004 C 
ENDBRANCH   2   3
ENDBRANCH   1   2
BRANCH   1   5
ATOM      5  C   UNL     1      -7.349  13.477  -3.400  1.00  0.00    -0.023 C 
ATOM      6  C   UNL     1      -7.990  12.388  -3.855  1.00  0.00     0.042 C 
BRANCH   6   7
ATOM      7  C   UNL     1      -7.438  11.368  -4.769  1.00  0.00     0.152 C 
ATOM      8  O   UNL     1      -6.881  10.354  -4.270  1.00  0.00    -0.295 OA
ATOM      9  C   UNL     1      -7.452  11.521  -6.258  1.00  0.00     0.093 C 
ENDBRANCH   6   7
ENDBRANCH   1   5
TORSDOF 4
ENDMDL
