MODEL 1
REMARK VINA RESULT:    -0.972      0.000      0.000
REMARK INTER + INTRA:          -2.457
REMARK INTER:                  -1.711
REMARK INTRA:                  -0.746
REMARK UNBOUND:                -0.746
REMARK SMILES CCCCCCC=CCCCCCCCC(=O)[O-]
REMARK SMILES IDX 10 1 11 2 12 3 13 4 14 5 15 6 16 7 17 8 18 9 9 10 8 11 7 12
REMARK SMILES IDX 6 13 5 14 4 15 3 16 2 17 1 18
REMARK H PARENT
REMARK Flexibility Score: inf
ROOT
ATOM      1  C   UNL     1      -8.180  49.702  -3.721  1.00  0.00     0.004 C 
ENDROOT
BRANCH   1   2
ATOM      2  C   UNL     1      -8.149  51.130  -4.292  1.00  0.00     0.000 C 
BRANCH   2   3
ATOM      3  C   UNL     1      -8.570  51.190  -5.771  1.00  0.00     0.000 C 
BRANCH   3   4
ATOM      4  C   UNL     1      -7.721  52.125  -6.656  1.00  0.00     0.000 C 
BRANCH   4   5
ATOM      5  C   UNL     1      -6.246  51.709  -6.822  1.00  0.00     0.006 C 
BRANCH   5   6
ATOM      6  C   UNL     1      -5.648  52.028  -8.201  1.00  0.00     0.053 C 
BRANCH   6   7
ATOM      7  C   UNL     1      -4.196  51.672  -8.277  1.00  0.00     0.041 C 
ATOM      8  O   UNL     1      -3.500  52.045  -9.258  1.00  0.00    -0.550 OA
ATOM      9  O   UNL     1      -3.602  50.953  -7.246  1.00  0.00    -0.550 OA
ENDBRANCH   6   7
ENDBRANCH   5   6
ENDBRANCH   4   5
ENDBRANCH   3   4
ENDBRANCH   2   3
ENDBRANCH   1   2
BRANCH   1  10
ATOM     10  C   UNL     1      -8.500  49.689  -2.219  1.00  0.00     0.027 C 
BRANCH  10  11
ATOM     11  C   UNL     1      -7.986  50.914  -1.511  1.00  0.00    -0.031 C 
ATOM     12  C   UNL     1      -7.281  50.824  -0.373  1.00  0.00    -0.031 C 
BRANCH  12  13
ATOM     13  C   UNL     1      -6.809  52.049   0.363  1.00  0.00     0.027 C 
BRANCH  13  14
ATOM     14  C   UNL     1      -5.277  52.125   0.405  1.00  0.00     0.004 C 
BRANCH  14  15
ATOM     15  C   UNL     1      -4.642  50.788   0.820  1.00  0.00     0.000 C 
BRANCH  15  16
ATOM     16  C   UNL     1      -3.237  50.584   0.227  1.00  0.00    -0.000 C 
BRANCH  16  17
ATOM     17  C   UNL     1      -2.551  51.899  -0.199  1.00  0.00    -0.003 C 
ATOM     18  C   UNL     1      -1.038  51.739  -0.357  1.00  0.00     0.004 C 
ENDBRANCH  16  17
ENDBRANCH  15  16
ENDBRANCH  14  15
ENDBRANCH  13  14
ENDBRANCH  12  13
ENDBRANCH  10  11
ENDBRANCH   1  10
TORSDOF 13
ENDMDL
MODEL 2
REMARK VINA RESULT:    -0.667      1.200      2.230
REMARK INTER + INTRA:          -1.920
REMARK INTER:                  -1.387
REMARK INTRA:                  -0.533
REMARK UNBOUND:                -0.746
REMARK SMILES CCCCCCC=CCCCCCCCC(=O)[O-]
REMARK SMILES IDX 10 1 11 2 12 3 13 4 14 5 15 6 16 7 17 8 18 9 9 10 8 11 7 12
REMARK SMILES IDX 6 13 5 14 4 15 3 16 2 17 1 18
REMARK H PARENT
REMARK Flexibility Score: inf
ROOT
ATOM      1  C   UNL     1      -7.398  50.940  -5.198  1.00  0.00     0.004 C 
ENDROOT
BRANCH   1   2
ATOM      2  C   UNL     1      -6.970  51.753  -6.431  1.00  0.00     0.000 C 
BRANCH   2   3
ATOM      3  C   UNL     1      -6.959  50.917  -7.723  1.00  0.00     0.000 C 
BRANCH   3   4
ATOM      4  C   UNL     1      -6.199  51.549  -8.906  1.00  0.00     0.000 C 
BRANCH   4   5
ATOM      5  C   UNL     1      -4.810  52.124  -8.561  1.00  0.00     0.006 C 
BRANCH   5   6
ATOM      6  C   UNL     1      -3.912  51.171  -7.757  1.00  0.00     0.053 C 
BRANCH   6   7
ATOM      7  C   UNL     1      -2.461  51.507  -7.912  1.00  0.00     0.041 C 
ATOM      8  O   UNL     1      -1.985  51.755  -9.050  1.00  0.00    -0.550 OA
ATOM      9  O   UNL     1      -1.641  51.579  -6.792  1.00  0.00    -0.550 OA
ENDBRANCH   6   7
ENDBRANCH   5   6
ENDBRANCH   4   5
ENDBRANCH   3   4
ENDBRANCH   2   3
ENDBRANCH   1   2
BRANCH   1  10
ATOM     10  C   UNL     1      -8.850  51.230  -4.791  1.00  0.00     0.027 C 
BRANCH  10  11
ATOM     11  C   UNL     1      -9.024  51.313  -3.298  1.00  0.00    -0.031 C 
ATOM     12  C   UNL     1      -8.221  52.073  -2.539  1.00  0.00    -0.031 C 
BRANCH  12  13
ATOM     13  C   UNL     1      -8.361  52.118  -1.041  1.00  0.00     0.027 C 
BRANCH  13  14
ATOM     14  C   UNL     1      -7.379  51.157  -0.355  1.00  0.00     0.004 C 
BRANCH  14  15
ATOM     15  C   UNL     1      -6.353  51.901   0.514  1.00  0.00     0.000 C 
BRANCH  15  16
ATOM     16  C   UNL     1      -5.001  52.096  -0.192  1.00  0.00    -0.000 C 
BRANCH  16  17
ATOM     17  C   UNL     1      -3.835  51.349   0.489  1.00  0.00    -0.003 C 
ATOM     18  C   UNL     1      -2.473  51.775  -0.059  1.00  0.00     0.004 C 
ENDBRANCH  16  17
ENDBRANCH  15  16
ENDBRANCH  14  15
ENDBRANCH  13  14
ENDBRANCH  12  13
ENDBRANCH  10  11
ENDBRANCH   1  10
TORSDOF 13
ENDMDL
MODEL 3
REMARK VINA RESULT:    -0.615      3.084      7.141
REMARK INTER + INTRA:          -1.828
REMARK INTER:                  -1.029
REMARK INTRA:                  -0.799
REMARK UNBOUND:                -0.746
REMARK SMILES CCCCCCC=CCCCCCCCC(=O)[O-]
REMARK SMILES IDX 10 1 11 2 12 3 13 4 14 5 15 6 16 7 17 8 18 9 9 10 8 11 7 12
REMARK SMILES IDX 6 13 5 14 4 15 3 16 2 17 1 18
REMARK H PARENT
REMARK Flexibility Score: inf
ROOT
ATOM      1  C   UNL     1      -7.884  50.259  -2.848  1.00  0.00     0.004 C 
ENDROOT
BRANCH   1   2
ATOM      2  C   UNL     1      -8.342  50.016  -1.400  1.00  0.00     0.000 C 
BRANCH   2   3
ATOM      3  C   UNL     1      -8.113  51.235  -0.489  1.00  0.00     0.000 C 
BRANCH   3   4
ATOM      4  C   UNL     1      -6.808  52.013  -0.752  1.00  0.00     0.000 C 
BRANCH   4   5
ATOM      5  C   UNL     1      -5.626  51.637   0.164  1.00  0.00     0.006 C 
BRANCH   5   6
ATOM      6  C   UNL     1      -4.251  52.074  -0.365  1.00  0.00     0.053 C 
BRANCH   6   7
ATOM      7  C   UNL     1      -3.137  51.294   0.263  1.00  0.00     0.041 C 
ATOM      8  O   UNL     1      -3.367  50.178   0.797  1.00  0.00    -0.550 OA
ATOM      9  O   UNL     1      -1.839  51.788   0.231  1.00  0.00    -0.550 OA
ENDBRANCH   6   7
ENDBRANCH   5   6
ENDBRANCH   4   5
ENDBRANCH   3   4
ENDBRANCH   2   3
ENDBRANCH   1   2
BRANCH   1  10
ATOM     10  C   UNL     1      -9.062  50.584  -3.778  1.00  0.00     0.027 C 
BRANCH  10  11
ATOM     11  C   UNL     1      -8.660  51.474  -4.925  1.00  0.00    -0.031 C 
ATOM     12  C   UNL     1      -7.649  51.150  -5.744  1.00  0.00    -0.031 C 
BRANCH  12  13
ATOM     13  C   UNL     1      -7.213  52.061  -6.859  1.00  0.00     0.027 C 
BRANCH  13  14
ATOM     14  C   UNL     1      -7.657  51.527  -8.228  1.00  0.00     0.004 C 
BRANCH  14  15
ATOM     15  C   UNL     1      -6.541  51.628  -9.280  1.00  0.00     0.000 C 
BRANCH  15  16
ATOM     16  C   UNL     1      -5.205  51.043  -8.792  1.00  0.00    -0.000 C 
BRANCH  16  17
ATOM     17  C   UNL     1      -4.142  52.114  -8.471  1.00  0.00    -0.003 C 
ATOM     18  C   UNL     1      -3.545  51.940  -7.075  1.00  0.00     0.004 C 
ENDBRANCH  16  17
ENDBRANCH  15  16
ENDBRANCH  14  15
ENDBRANCH  13  14
ENDBRANCH  12  13
ENDBRANCH  10  11
ENDBRANCH   1  10
TORSDOF 13
ENDMDL
MODEL 4
REMARK VINA RESULT:     0.078      2.905      6.807
REMARK INTER + INTRA:          -0.609
REMARK INTER:                   0.067
REMARK INTRA:                  -0.677
REMARK UNBOUND:                -0.746
REMARK SMILES CCCCCCC=CCCCCCCCC(=O)[O-]
REMARK SMILES IDX 10 1 11 2 12 3 13 4 14 5 15 6 16 7 17 8 18 9 9 10 8 11 7 12
REMARK SMILES IDX 6 13 5 14 4 15 3 16 2 17 1 18
REMARK H PARENT
REMARK Flexibility Score: inf
ROOT
ATOM      1  C   UNL     1      -8.175  51.945  -3.104  1.00  0.00     0.004 C 
ENDROOT
BRANCH   1   2
ATOM      2  C   UNL     1      -8.858  51.702  -1.747  1.00  0.00     0.000 C 
BRANCH   2   3
ATOM      3  C   UNL     1      -7.980  52.119  -0.554  1.00  0.00     0.000 C 
BRANCH   3   4
ATOM      4  C   UNL     1      -7.047  51.018  -0.011  1.00  0.00     0.000 C 
BRANCH   4   5
ATOM      5  C   UNL     1      -5.741  51.525   0.634  1.00  0.00     0.006 C 
BRANCH   5   6
ATOM      6  C   UNL     1      -4.654  51.935  -0.372  1.00  0.00     0.053 C 
BRANCH   6   7
ATOM      7  C   UNL     1      -3.294  51.479   0.059  1.00  0.00     0.041 C 
ATOM      8  O   UNL     1      -2.263  52.015  -0.423  1.00  0.00    -0.550 OA
ATOM      9  O   UNL     1      -3.167  50.480   1.017  1.00  0.00    -0.550 OA
ENDBRANCH   6   7
ENDBRANCH   5   6
ENDBRANCH   4   5
ENDBRANCH   3   4
ENDBRANCH   2   3
ENDBRANCH   1   2
BRANCH   1  10
ATOM     10  C   UNL     1      -8.659  50.959  -4.177  1.00  0.00     0.027 C 
BRANCH  10  11
ATOM     11  C   UNL     1      -8.560  51.528  -5.567  1.00  0.00    -0.031 C 
ATOM     12  C   UNL     1      -7.413  51.492  -6.261  1.00  0.00    -0.031 C 
BRANCH  12  13
ATOM     13  C   UNL     1      -7.298  52.106  -7.631  1.00  0.00     0.027 C 
BRANCH  13  14
ATOM     14  C   UNL     1      -5.868  51.999  -8.177  1.00  0.00     0.004 C 
BRANCH  14  15
ATOM     15  C   UNL     1      -4.819  51.969  -7.055  1.00  0.00     0.000 C 
BRANCH  15  16
ATOM     16  C   UNL     1      -3.506  51.290  -7.482  1.00  0.00    -0.000 C 
BRANCH  16  17
ATOM     17  C   UNL     1      -2.245  52.092  -7.101  1.00  0.00    -0.003 C 
ATOM     18  C   UNL     1      -1.025  51.194  -6.896  1.00  0.00     0.004 C 
ENDBRANCH  16  17
ENDBRANCH  15  16
ENDBRANCH  14  15
ENDBRANCH  13  14
ENDBRANCH  12  13
ENDBRANCH  10  11
ENDBRANCH   1  10
TORSDOF 13
ENDMDL
MODEL 5
REMARK VINA RESULT:     0.238      2.973      4.069
REMARK INTER + INTRA:          -0.328
REMARK INTER:                   0.147
REMARK INTRA:                  -0.475
REMARK UNBOUND:                -0.746
REMARK SMILES CCCCCCC=CCCCCCCCC(=O)[O-]
REMARK SMILES IDX 10 1 11 2 12 3 13 4 14 5 15 6 16 7 17 8 18 9 9 10 8 11 7 12
REMARK SMILES IDX 6 13 5 14 4 15 3 16 2 17 1 18
REMARK H PARENT
REMARK Flexibility Score: inf
ROOT
ATOM      1  C   UNL     1      -7.527  51.537  -6.214  1.00  0.00     0.004 C 
ENDROOT
BRANCH   1   2
ATOM      2  C   UNL     1      -7.229  52.125  -7.605  1.00  0.00     0.000 C 
BRANCH   2   3
ATOM      3  C   UNL     1      -7.695  51.210  -8.751  1.00  0.00     0.000 C 
BRANCH   3   4
ATOM      4  C   UNL     1      -6.690  51.050  -9.910  1.00  0.00     0.000 C 
BRANCH   4   5
ATOM      5  C   UNL     1      -5.251  50.695  -9.485  1.00  0.00     0.006 C 
BRANCH   5   6
ATOM      6  C   UNL     1      -4.414  51.896  -9.017  1.00  0.00     0.053 C 
BRANCH   6   7
ATOM      7  C   UNL     1      -3.443  51.516  -7.943  1.00  0.00     0.041 C 
ATOM      8  O   UNL     1      -3.858  51.117  -6.823  1.00  0.00    -0.550 OA
ATOM      9  O   UNL     1      -2.076  51.571  -8.190  1.00  0.00    -0.550 OA
ENDBRANCH   6   7
ENDBRANCH   5   6
ENDBRANCH   4   5
ENDBRANCH   3   4
ENDBRANCH   2   3
ENDBRANCH   1   2
BRANCH   1  10
ATOM     10  C   UNL     1      -8.814  52.116  -5.608  1.00  0.00     0.027 C 
BRANCH  10  11
ATOM     11  C   UNL     1      -8.967  51.774  -4.150  1.00  0.00    -0.031 C 
ATOM     12  C   UNL     1      -7.970  51.971  -3.274  1.00  0.00    -0.031 C 
BRANCH  12  13
ATOM     13  C   UNL     1      -8.103  51.583  -1.826  1.00  0.00     0.027 C 
BRANCH  13  14
ATOM     14  C   UNL     1      -8.609  50.141  -1.674  1.00  0.00     0.004 C 
BRANCH  14  15
ATOM     15  C   UNL     1      -7.487  49.173  -1.268  1.00  0.00     0.000 C 
BRANCH  15  16
ATOM     16  C   UNL     1      -7.743  47.731  -1.738  1.00  0.00    -0.000 C 
BRANCH  16  17
ATOM     17  C   UNL     1      -6.628  46.743  -1.336  1.00  0.00    -0.003 C 
ATOM     18  C   UNL     1      -6.766  45.393  -2.040  1.00  0.00     0.004 C 
ENDBRANCH  16  17
ENDBRANCH  15  16
ENDBRANCH  14  15
ENDBRANCH  13  14
ENDBRANCH  12  13
ENDBRANCH  10  11
ENDBRANCH   1  10
TORSDOF 13
ENDMDL
MODEL 6
REMARK VINA RESULT:     0.482      4.529      7.780
REMARK INTER + INTRA:           0.102
REMARK INTER:                   0.681
REMARK INTRA:                  -0.579
REMARK UNBOUND:                -0.746
REMARK SMILES CCCCCCC=CCCCCCCCC(=O)[O-]
REMARK SMILES IDX 10 1 11 2 12 3 13 4 14 5 15 6 16 7 17 8 18 9 9 10 8 11 7 12
REMARK SMILES IDX 6 13 5 14 4 15 3 16 2 17 1 18
REMARK H PARENT
REMARK Flexibility Score: inf
ROOT
ATOM      1  C   UNL     1      -8.204  50.468  -3.489  1.00  0.00     0.004 C 
ENDROOT
BRANCH   1   2
ATOM      2  C   UNL     1      -8.289  50.467  -1.953  1.00  0.00     0.000 C 
BRANCH   2   3
ATOM      3  C   UNL     1      -8.471  49.056  -1.367  1.00  0.00     0.000 C 
BRANCH   3   4
ATOM      4  C   UNL     1      -7.166  48.266  -1.143  1.00  0.00     0.000 C 
BRANCH   4   5
ATOM      5  C   UNL     1      -7.326  46.732  -1.114  1.00  0.00     0.006 C 
BRANCH   5   6
ATOM      6  C   UNL     1      -6.634  46.001  -2.275  1.00  0.00     0.053 C 
BRANCH   6   7
ATOM      7  C   UNL     1      -6.709  44.514  -2.122  1.00  0.00     0.041 C 
ATOM      8  O   UNL     1      -7.819  43.950  -1.935  1.00  0.00    -0.550 OA
ATOM      9  O   UNL     1      -5.555  43.745  -2.218  1.00  0.00    -0.550 OA
ENDBRANCH   6   7
ENDBRANCH   5   6
ENDBRANCH   4   5
ENDBRANCH   3   4
ENDBRANCH   2   3
ENDBRANCH   1   2
BRANCH   1  10
ATOM     10  C   UNL     1      -9.100  51.547  -4.115  1.00  0.00     0.027 C 
BRANCH  10  11
ATOM     11  C   UNL     1      -8.510  52.125  -5.374  1.00  0.00    -0.031 C 
ATOM     12  C   UNL     1      -7.620  51.443  -6.110  1.00  0.00    -0.031 C 
BRANCH  12  13
ATOM     13  C   UNL     1      -6.991  52.038  -7.341  1.00  0.00     0.027 C 
BRANCH  13  14
ATOM     14  C   UNL     1      -7.513  51.368  -8.620  1.00  0.00     0.004 C 
BRANCH  14  15
ATOM     15  C   UNL     1      -6.457  51.344  -9.735  1.00  0.00     0.000 C 
BRANCH  15  16
ATOM     16  C   UNL     1      -5.056  50.966  -9.224  1.00  0.00    -0.000 C 
BRANCH  16  17
ATOM     17  C   UNL     1      -4.024  52.105  -9.352  1.00  0.00    -0.003 C 
ATOM     18  C   UNL     1      -2.739  51.815  -8.576  1.00  0.00     0.004 C 
ENDBRANCH  16  17
ENDBRANCH  15  16
ENDBRANCH  14  15
ENDBRANCH  13  14
ENDBRANCH  12  13
ENDBRANCH  10  11
ENDBRANCH   1  10
TORSDOF 13
ENDMDL
MODEL 7
REMARK VINA RESULT:     0.865      5.004      8.156
REMARK INTER + INTRA:           0.776
REMARK INTER:                   1.224
REMARK INTRA:                  -0.449
REMARK UNBOUND:                -0.746
REMARK SMILES CCCCCCC=CCCCCCCCC(=O)[O-]
REMARK SMILES IDX 10 1 11 2 12 3 13 4 14 5 15 6 16 7 17 8 18 9 9 10 8 11 7 12
REMARK SMILES IDX 6 13 5 14 4 15 3 16 2 17 1 18
REMARK H PARENT
REMARK Flexibility Score: inf
ROOT
ATOM      1  C   UNL     1      -7.191  48.877  -1.110  1.00  0.00     0.004 C 
ENDROOT
BRANCH   1   2
ATOM      2  C   UNL     1      -7.338  47.386  -0.762  1.00  0.00     0.000 C 
BRANCH   2   3
ATOM      3  C   UNL     1      -6.839  46.459  -1.885  1.00  0.00     0.000 C 
BRANCH   3   4
ATOM      4  C   UNL     1      -6.743  44.967  -1.509  1.00  0.00     0.000 C 
BRANCH   4   5
ATOM      5  C   UNL     1      -5.623  44.183  -2.221  1.00  0.00     0.006 C 
BRANCH   5   6
ATOM      6  C   UNL     1      -5.327  42.804  -1.610  1.00  0.00     0.053 C 
BRANCH   6   7
ATOM      7  C   UNL     1      -4.006  42.777  -0.905  1.00  0.00     0.041 C 
ATOM      8  O   UNL     1      -2.958  43.133  -1.506  1.00  0.00    -0.550 OA
ATOM      9  O   UNL     1      -3.937  42.389   0.427  1.00  0.00    -0.550 OA
ENDBRANCH   6   7
ENDBRANCH   5   6
ENDBRANCH   4   5
ENDBRANCH   3   4
ENDBRANCH   2   3
ENDBRANCH   1   2
BRANCH   1  10
ATOM     10  C   UNL     1      -8.524  49.500  -1.551  1.00  0.00     0.027 C 
BRANCH  10  11
ATOM     11  C   UNL     1      -8.400  50.273  -2.837  1.00  0.00    -0.031 C 
ATOM     12  C   UNL     1      -9.125  51.378  -3.064  1.00  0.00    -0.031 C 
BRANCH  12  13
ATOM     13  C   UNL     1      -9.040  52.124  -4.369  1.00  0.00     0.027 C 
BRANCH  13  14
ATOM     14  C   UNL     1      -7.848  51.649  -5.211  1.00  0.00     0.004 C 
BRANCH  14  15
ATOM     15  C   UNL     1      -7.976  52.066  -6.685  1.00  0.00     0.000 C 
BRANCH  15  16
ATOM     16  C   UNL     1      -6.634  52.030  -7.435  1.00  0.00    -0.000 C 
BRANCH  16  17
ATOM     17  C   UNL     1      -6.623  51.056  -8.633  1.00  0.00    -0.003 C 
ATOM     18  C   UNL     1      -6.386  51.773  -9.962  1.00  0.00     0.004 C 
ENDBRANCH  16  17
ENDBRANCH  15  16
ENDBRANCH  14  15
ENDBRANCH  13  14
ENDBRANCH  12  13
ENDBRANCH  10  11
ENDBRANCH   1  10
TORSDOF 13
ENDMDL
MODEL 8
REMARK VINA RESULT:     1.146      3.508      4.762
REMARK INTER + INTRA:           1.270
REMARK INTER:                   1.793
REMARK INTRA:                  -0.522
REMARK UNBOUND:                -0.746
REMARK SMILES CCCCCCC=CCCCCCCCC(=O)[O-]
REMARK SMILES IDX 10 1 11 2 12 3 13 4 14 5 15 6 16 7 17 8 18 9 9 10 8 11 7 12
REMARK SMILES IDX 6 13 5 14 4 15 3 16 2 17 1 18
REMARK H PARENT
REMARK Flexibility Score: inf
ROOT
ATOM      1  C   UNL     1      -8.019  51.674  -3.177  1.00  0.00     0.004 C 
ENDROOT
BRANCH   1   2
ATOM      2  C   UNL     1      -8.437  51.206  -4.581  1.00  0.00     0.000 C 
BRANCH   2   3
ATOM      3  C   UNL     1      -7.909  52.124  -5.698  1.00  0.00     0.000 C 
BRANCH   3   4
ATOM      4  C   UNL     1      -6.404  51.986  -6.002  1.00  0.00     0.000 C 
BRANCH   4   5
ATOM      5  C   UNL     1      -6.031  52.034  -7.498  1.00  0.00     0.006 C 
BRANCH   5   6
ATOM      6  C   UNL     1      -7.235  52.006  -8.453  1.00  0.00     0.053 C 
BRANCH   6   7
ATOM      7  C   UNL     1      -7.226  50.791  -9.327  1.00  0.00     0.041 C 
ATOM      8  O   UNL     1      -8.283  50.131  -9.507  1.00  0.00    -0.550 OA
ATOM      9  O   UNL     1      -6.056  50.406  -9.970  1.00  0.00    -0.550 OA
ENDBRANCH   6   7
ENDBRANCH   5   6
ENDBRANCH   4   5
ENDBRANCH   3   4
ENDBRANCH   2   3
ENDBRANCH   1   2
BRANCH   1  10
ATOM     10  C   UNL     1      -9.107  51.395  -2.129  1.00  0.00     0.027 C 
BRANCH  10  11
ATOM     11  C   UNL     1      -8.875  50.104  -1.390  1.00  0.00    -0.031 C 
ATOM     12  C   UNL     1      -7.840  49.303  -1.682  1.00  0.00    -0.031 C 
BRANCH  12  13
ATOM     13  C   UNL     1      -7.635  47.988  -0.979  1.00  0.00     0.027 C 
BRANCH  13  14
ATOM     14  C   UNL     1      -6.810  47.016  -1.834  1.00  0.00     0.004 C 
BRANCH  14  15
ATOM     15  C   UNL     1      -7.172  45.549  -1.557  1.00  0.00     0.000 C 
BRANCH  15  16
ATOM     16  C   UNL     1      -6.640  44.588  -2.633  1.00  0.00    -0.000 C 
BRANCH  16  17
ATOM     17  C   UNL     1      -5.402  43.783  -2.184  1.00  0.00    -0.003 C 
ATOM     18  C   UNL     1      -5.774  42.413  -1.617  1.00  0.00     0.004 C 
ENDBRANCH  16  17
ENDBRANCH  15  16
ENDBRANCH  14  15
ENDBRANCH  13  14
ENDBRANCH  12  13
ENDBRANCH  10  11
ENDBRANCH   1  10
TORSDOF 13
ENDMDL
