MODEL 1
REMARK VINA RESULT:    -3.281      0.000      0.000
REMARK INTER + INTRA:         -11.130
REMARK INTER:                  -7.116
REMARK INTRA:                  -4.014
REMARK UNBOUND:                -4.014
REMARK SMILES CCCCCCCCCCCCCCCCCCCCCC(=O)[O-]
REMARK SMILES IDX 12 1 11 2 10 3 9 4 8 5 7 6 6 7 5 8 4 9 3 10 2 11 1 12 13 13
REMARK SMILES IDX 14 14 15 15 16 16 17 17 18 18 19 19 20 20 21 21 22 22 23 23
REMARK SMILES IDX 24 24
REMARK H PARENT
REMARK Flexibility Score: inf
ROOT
ATOM      1  C   UNL     1      42.765  28.782  91.105  1.00  0.00     0.000 C 
ENDROOT
BRANCH   1   2
ATOM      2  C   UNL     1      41.789  27.784  90.454  1.00  0.00     0.000 C 
BRANCH   2   3
ATOM      3  C   UNL     1      40.664  28.445  89.636  1.00  0.00     0.000 C 
BRANCH   3   4
ATOM      4  C   UNL     1      40.739  29.981  89.654  1.00  0.00    -0.000 C 
BRANCH   4   5
ATOM      5  C   UNL     1      40.398  30.595  88.280  1.00  0.00    -0.000 C 
BRANCH   5   6
ATOM      6  C   UNL     1      41.629  31.038  87.470  1.00  0.00    -0.000 C 
BRANCH   6   7
ATOM      7  C   UNL     1      42.868  31.277  88.350  1.00  0.00    -0.000 C 
BRANCH   7   8
ATOM      8  C   UNL     1      44.077  30.421  87.927  1.00  0.00    -0.000 C 
BRANCH   8   9
ATOM      9  C   UNL     1      43.719  29.087  87.242  1.00  0.00    -0.000 C 
BRANCH   9  10
ATOM     10  C   UNL     1      44.459  27.884  87.852  1.00  0.00    -0.000 C 
BRANCH  10  11
ATOM     11  C   UNL     1      45.929  28.197  88.173  1.00  0.00    -0.003 C 
ATOM     12  C   UNL     1      46.815  28.202  86.927  1.00  0.00     0.004 C 
ENDBRANCH  10  11
ENDBRANCH   9  10
ENDBRANCH   8   9
ENDBRANCH   7   8
ENDBRANCH   6   7
ENDBRANCH   5   6
ENDBRANCH   4   5
ENDBRANCH   3   4
ENDBRANCH   2   3
ENDBRANCH   1   2
BRANCH   1  13
ATOM     13  C   UNL     1      44.100  28.130  91.499  1.00  0.00     0.000 C 
BRANCH  13  14
ATOM     14  C   UNL     1      45.206  29.183  91.649  1.00  0.00     0.000 C 
BRANCH  14  15
ATOM     15  C   UNL     1      44.625  30.604  91.570  1.00  0.00     0.000 C 
BRANCH  15  16
ATOM     16  C   UNL     1      45.623  31.626  91.000  1.00  0.00     0.000 C 
BRANCH  16  17
ATOM     17  C   UNL     1      46.917  30.966  90.492  1.00  0.00     0.000 C 
BRANCH  17  18
ATOM     18  C   UNL     1      47.379  31.530  89.139  1.00  0.00     0.000 C 
BRANCH  18  19
ATOM     19  C   UNL     1      48.736  30.966  88.688  1.00  0.00     0.000 C 
BRANCH  19  20
ATOM     20  C   UNL     1      49.067  31.418  87.259  1.00  0.00     0.006 C 
BRANCH  20  21
ATOM     21  C   UNL     1      48.393  32.748  86.899  1.00  0.00     0.053 C 
BRANCH  21  22
ATOM     22  C   UNL     1      49.338  33.901  87.041  1.00  0.00     0.041 C 
ATOM     23  O   UNL     1      48.903  35.082  87.042  1.00  0.00    -0.550 OA
ATOM     24  O   UNL     1      50.706  33.673  87.129  1.00  0.00    -0.550 OA
ENDBRANCH  21  22
ENDBRANCH  20  21
ENDBRANCH  19  20
ENDBRANCH  18  19
ENDBRANCH  17  18
ENDBRANCH  16  17
ENDBRANCH  15  16
ENDBRANCH  14  15
ENDBRANCH  13  14
ENDBRANCH   1  13
TORSDOF 20
ENDMDL
MODEL 2
REMARK VINA RESULT:    -3.233      1.850      4.527
REMARK INTER + INTRA:         -11.028
REMARK INTER:                  -8.557
REMARK INTRA:                  -2.471
REMARK UNBOUND:                -4.014
REMARK SMILES CCCCCCCCCCCCCCCCCCCCCC(=O)[O-]
REMARK SMILES IDX 12 1 11 2 10 3 9 4 8 5 7 6 6 7 5 8 4 9 3 10 2 11 1 12 13 13
REMARK SMILES IDX 14 14 15 15 16 16 17 17 18 18 19 19 20 20 21 21 22 22 23 23
REMARK SMILES IDX 24 24
REMARK H PARENT
REMARK Flexibility Score: inf
ROOT
ATOM      1  C   UNL     1      47.780  29.731  90.221  1.00  0.00     0.000 C 
ENDROOT
BRANCH   1   2
ATOM      2  C   UNL     1      47.459  31.236  90.161  1.00  0.00     0.000 C 
BRANCH   2   3
ATOM      3  C   UNL     1      46.256  31.589  89.267  1.00  0.00     0.000 C 
BRANCH   3   4
ATOM      4  C   UNL     1      44.908  31.400  89.984  1.00  0.00    -0.000 C 
BRANCH   4   5
ATOM      5  C   UNL     1      43.718  31.438  89.003  1.00  0.00    -0.000 C 
BRANCH   5   6
ATOM      6  C   UNL     1      43.718  30.292  87.976  1.00  0.00    -0.000 C 
BRANCH   6   7
ATOM      7  C   UNL     1      42.469  30.294  87.078  1.00  0.00    -0.000 C 
BRANCH   7   8
ATOM      8  C   UNL     1      41.394  31.292  87.550  1.00  0.00    -0.000 C 
BRANCH   8   9
ATOM      9  C   UNL     1      40.148  30.649  88.189  1.00  0.00    -0.000 C 
BRANCH   9  10
ATOM     10  C   UNL     1      40.440  30.005  89.555  1.00  0.00    -0.000 C 
BRANCH  10  11
ATOM     11  C   UNL     1      40.180  28.490  89.561  1.00  0.00    -0.003 C 
ATOM     12  C   UNL     1      41.461  27.673  89.405  1.00  0.00     0.004 C 
ENDBRANCH  10  11
ENDBRANCH   9  10
ENDBRANCH   8   9
ENDBRANCH   7   8
ENDBRANCH   6   7
ENDBRANCH   5   6
ENDBRANCH   4   5
ENDBRANCH   3   4
ENDBRANCH   2   3
ENDBRANCH   1   2
BRANCH   1  13
ATOM     13  C   UNL     1      49.283  29.453  90.386  1.00  0.00     0.000 C 
BRANCH  13  14
ATOM     14  C   UNL     1      50.085  30.761  90.425  1.00  0.00     0.000 C 
BRANCH  14  15
ATOM     15  C   UNL     1      51.002  30.879  89.197  1.00  0.00     0.000 C 
BRANCH  15  16
ATOM     16  C   UNL     1      50.496  31.906  88.170  1.00  0.00     0.000 C 
BRANCH  16  17
ATOM     17  C   UNL     1      49.594  31.270  87.098  1.00  0.00     0.000 C 
BRANCH  17  18
ATOM     18  C   UNL     1      48.671  32.294  86.417  1.00  0.00     0.000 C 
BRANCH  18  19
ATOM     19  C   UNL     1      48.608  33.634  87.166  1.00  0.00     0.000 C 
BRANCH  19  20
ATOM     20  C   UNL     1      49.018  34.793  86.246  1.00  0.00     0.006 C 
BRANCH  20  21
ATOM     21  C   UNL     1      50.280  34.473  85.435  1.00  0.00     0.053 C 
BRANCH  21  22
ATOM     22  C   UNL     1      51.514  34.989  86.108  1.00  0.00     0.041 C 
ATOM     23  O   UNL     1      52.638  34.869  85.552  1.00  0.00    -0.550 OA
ATOM     24  O   UNL     1      51.430  35.565  87.369  1.00  0.00    -0.550 OA
ENDBRANCH  21  22
ENDBRANCH  20  21
ENDBRANCH  19  20
ENDBRANCH  18  19
ENDBRANCH  17  18
ENDBRANCH  16  17
ENDBRANCH  15  16
ENDBRANCH  14  15
ENDBRANCH  13  14
ENDBRANCH   1  13
TORSDOF 20
ENDMDL
MODEL 3
REMARK VINA RESULT:    -3.164      2.414      4.802
REMARK INTER + INTRA:         -10.877
REMARK INTER:                  -7.482
REMARK INTRA:                  -3.395
REMARK UNBOUND:                -4.014
REMARK SMILES CCCCCCCCCCCCCCCCCCCCCC(=O)[O-]
REMARK SMILES IDX 12 1 11 2 10 3 9 4 8 5 7 6 6 7 5 8 4 9 3 10 2 11 1 12 13 13
REMARK SMILES IDX 14 14 15 15 16 16 17 17 18 18 19 19 20 20 21 21 22 22 23 23
REMARK SMILES IDX 24 24
REMARK H PARENT
REMARK Flexibility Score: inf
ROOT
ATOM      1  C   UNL     1      43.221  27.542  87.590  1.00  0.00     0.000 C 
ENDROOT
BRANCH   1   2
ATOM      2  C   UNL     1      43.230  28.916  86.894  1.00  0.00     0.000 C 
BRANCH   2   3
ATOM      3  C   UNL     1      43.838  30.049  87.740  1.00  0.00     0.000 C 
BRANCH   3   4
ATOM      4  C   UNL     1      42.821  31.156  88.071  1.00  0.00    -0.000 C 
BRANCH   4   5
ATOM      5  C   UNL     1      41.439  30.881  87.442  1.00  0.00    -0.000 C 
BRANCH   5   6
ATOM      6  C   UNL     1      40.297  30.768  88.467  1.00  0.00    -0.000 C 
BRANCH   6   7
ATOM      7  C   UNL     1      39.655  29.371  88.495  1.00  0.00    -0.000 C 
BRANCH   7   8
ATOM      8  C   UNL     1      39.600  28.709  87.104  1.00  0.00    -0.000 C 
BRANCH   8   9
ATOM      9  C   UNL     1      38.472  27.675  86.923  1.00  0.00    -0.000 C 
BRANCH   9  10
ATOM     10  C   UNL     1      37.149  28.111  87.576  1.00  0.00    -0.000 C 
BRANCH  10  11
ATOM     11  C   UNL     1      36.434  29.214  86.779  1.00  0.00    -0.003 C 
ATOM     12  C   UNL     1      36.223  28.837  85.313  1.00  0.00     0.004 C 
ENDBRANCH  10  11
ENDBRANCH   9  10
ENDBRANCH   8   9
ENDBRANCH   7   8
ENDBRANCH   6   7
ENDBRANCH   5   6
ENDBRANCH   4   5
ENDBRANCH   3   4
ENDBRANCH   2   3
ENDBRANCH   1   2
BRANCH   1  13
ATOM     13  C   UNL     1      43.572  27.635  89.084  1.00  0.00     0.000 C 
BRANCH  13  14
ATOM     14  C   UNL     1      42.321  27.468  89.956  1.00  0.00     0.000 C 
BRANCH  14  15
ATOM     15  C   UNL     1      42.515  28.136  91.327  1.00  0.00     0.000 C 
BRANCH  15  16
ATOM     16  C   UNL     1      42.596  29.669  91.238  1.00  0.00     0.000 C 
BRANCH  16  17
ATOM     17  C   UNL     1      43.681  30.256  92.158  1.00  0.00     0.000 C 
BRANCH  17  18
ATOM     18  C   UNL     1      45.099  30.087  91.587  1.00  0.00     0.000 C 
BRANCH  18  19
ATOM     19  C   UNL     1      45.526  31.259  90.690  1.00  0.00     0.000 C 
BRANCH  19  20
ATOM     20  C   UNL     1      46.957  31.056  90.172  1.00  0.00     0.006 C 
BRANCH  20  21
ATOM     21  C   UNL     1      47.222  31.832  88.877  1.00  0.00     0.053 C 
BRANCH  21  22
ATOM     22  C   UNL     1      47.450  30.912  87.718  1.00  0.00     0.041 C 
ATOM     23  O   UNL     1      47.599  29.676  87.909  1.00  0.00    -0.550 OA
ATOM     24  O   UNL     1      47.540  31.423  86.430  1.00  0.00    -0.550 OA
ENDBRANCH  21  22
ENDBRANCH  20  21
ENDBRANCH  19  20
ENDBRANCH  18  19
ENDBRANCH  17  18
ENDBRANCH  16  17
ENDBRANCH  15  16
ENDBRANCH  14  15
ENDBRANCH  13  14
ENDBRANCH   1  13
TORSDOF 20
ENDMDL
MODEL 4
REMARK VINA RESULT:    -3.121      3.271      7.962
REMARK INTER + INTRA:         -10.784
REMARK INTER:                  -8.100
REMARK INTRA:                  -2.684
REMARK UNBOUND:                -4.014
REMARK SMILES CCCCCCCCCCCCCCCCCCCCCC(=O)[O-]
REMARK SMILES IDX 12 1 11 2 10 3 9 4 8 5 7 6 6 7 5 8 4 9 3 10 2 11 1 12 13 13
REMARK SMILES IDX 14 14 15 15 16 16 17 17 18 18 19 19 20 20 21 21 22 22 23 23
REMARK SMILES IDX 24 24
REMARK H PARENT
REMARK Flexibility Score: inf
ROOT
ATOM      1  C   UNL     1      48.341  32.026  86.596  1.00  0.00     0.000 C 
ENDROOT
BRANCH   1   2
ATOM      2  C   UNL     1      49.174  33.149  85.951  1.00  0.00     0.000 C 
BRANCH   2   3
ATOM      3  C   UNL     1      48.974  34.533  86.594  1.00  0.00     0.000 C 
BRANCH   3   4
ATOM      4  C   UNL     1      50.262  35.374  86.607  1.00  0.00    -0.000 C 
BRANCH   4   5
ATOM      5  C   UNL     1      51.353  34.752  87.504  1.00  0.00    -0.000 C 
BRANCH   5   6
ATOM      6  C   UNL     1      52.564  34.207  86.727  1.00  0.00    -0.000 C 
BRANCH   6   7
ATOM      7  C   UNL     1      52.798  32.705  86.962  1.00  0.00    -0.000 C 
BRANCH   7   8
ATOM      8  C   UNL     1      52.571  32.285  88.427  1.00  0.00    -0.000 C 
BRANCH   8   9
ATOM      9  C   UNL     1      51.453  31.247  88.639  1.00  0.00    -0.000 C 
BRANCH   9  10
ATOM     10  C   UNL     1      50.692  31.446  89.961  1.00  0.00    -0.000 C 
BRANCH  10  11
ATOM     11  C   UNL     1      51.611  31.350  91.189  1.00  0.00    -0.003 C 
ATOM     12  C   UNL     1      51.083  32.146  92.382  1.00  0.00     0.004 C 
ENDBRANCH  10  11
ENDBRANCH   9  10
ENDBRANCH   8   9
ENDBRANCH   7   8
ENDBRANCH   6   7
ENDBRANCH   5   6
ENDBRANCH   4   5
ENDBRANCH   3   4
ENDBRANCH   2   3
ENDBRANCH   1   2
BRANCH   1  13
ATOM     13  C   UNL     1      47.818  32.405  87.991  1.00  0.00     0.000 C 
BRANCH  13  14
ATOM     14  C   UNL     1      46.839  31.348  88.519  1.00  0.00     0.000 C 
BRANCH  14  15
ATOM     15  C   UNL     1      46.857  31.303  90.055  1.00  0.00     0.000 C 
BRANCH  15  16
ATOM     16  C   UNL     1      47.052  29.881  90.608  1.00  0.00     0.000 C 
BRANCH  16  17
ATOM     17  C   UNL     1      45.720  29.200  90.965  1.00  0.00     0.000 C 
BRANCH  17  18
ATOM     18  C   UNL     1      44.697  30.178  91.567  1.00  0.00     0.000 C 
BRANCH  18  19
ATOM     19  C   UNL     1      43.324  30.104  90.880  1.00  0.00     0.000 C 
BRANCH  19  20
ATOM     20  C   UNL     1      43.481  29.879  89.370  1.00  0.00     0.006 C 
BRANCH  20  21
ATOM     21  C   UNL     1      43.130  31.131  88.556  1.00  0.00     0.053 C 
BRANCH  21  22
ATOM     22  C   UNL     1      42.019  30.865  87.587  1.00  0.00     0.041 C 
ATOM     23  O   UNL     1      40.835  31.179  87.877  1.00  0.00    -0.550 OA
ATOM     24  O   UNL     1      42.285  30.230  86.381  1.00  0.00    -0.550 OA
ENDBRANCH  21  22
ENDBRANCH  20  21
ENDBRANCH  19  20
ENDBRANCH  18  19
ENDBRANCH  17  18
ENDBRANCH  16  17
ENDBRANCH  15  16
ENDBRANCH  14  15
ENDBRANCH  13  14
ENDBRANCH   1  13
TORSDOF 20
ENDMDL
MODEL 5
REMARK VINA RESULT:    -3.087      1.649      3.656
REMARK INTER + INTRA:         -10.710
REMARK INTER:                  -6.806
REMARK INTRA:                  -3.904
REMARK UNBOUND:                -4.014
REMARK SMILES CCCCCCCCCCCCCCCCCCCCCC(=O)[O-]
REMARK SMILES IDX 12 1 11 2 10 3 9 4 8 5 7 6 6 7 5 8 4 9 3 10 2 11 1 12 13 13
REMARK SMILES IDX 14 14 15 15 16 16 17 17 18 18 19 19 20 20 21 21 22 22 23 23
REMARK SMILES IDX 24 24
REMARK H PARENT
REMARK Flexibility Score: inf
ROOT
ATOM      1  C   UNL     1      43.959  28.643  88.394  1.00  0.00     0.000 C 
ENDROOT
BRANCH   1   2
ATOM      2  C   UNL     1      43.796  29.953  87.600  1.00  0.00     0.000 C 
BRANCH   2   3
ATOM      3  C   UNL     1      42.846  30.973  88.253  1.00  0.00     0.000 C 
BRANCH   3   4
ATOM      4  C   UNL     1      41.512  31.111  87.499  1.00  0.00    -0.000 C 
BRANCH   4   5
ATOM      5  C   UNL     1      40.315  30.624  88.344  1.00  0.00    -0.000 C 
BRANCH   5   6
ATOM      6  C   UNL     1      40.719  29.862  89.618  1.00  0.00    -0.000 C 
BRANCH   6   7
ATOM      7  C   UNL     1      40.019  28.498  89.744  1.00  0.00    -0.000 C 
BRANCH   7   8
ATOM      8  C   UNL     1      40.905  27.325  89.279  1.00  0.00    -0.000 C 
BRANCH   8   9
ATOM      9  C   UNL     1      40.485  26.686  87.941  1.00  0.00    -0.000 C 
BRANCH   9  10
ATOM     10  C   UNL     1      41.243  27.267  86.735  1.00  0.00    -0.000 C 
BRANCH  10  11
ATOM     11  C   UNL     1      40.317  28.008  85.758  1.00  0.00    -0.003 C 
ATOM     12  C   UNL     1      38.854  27.981  86.199  1.00  0.00     0.004 C 
ENDBRANCH  10  11
ENDBRANCH   9  10
ENDBRANCH   8   9
ENDBRANCH   7   8
ENDBRANCH   6   7
ENDBRANCH   5   6
ENDBRANCH   4   5
ENDBRANCH   3   4
ENDBRANCH   2   3
ENDBRANCH   1   2
BRANCH   1  13
ATOM     13  C   UNL     1      45.312  27.961  88.138  1.00  0.00     0.000 C 
BRANCH  13  14
ATOM     14  C   UNL     1      46.176  27.955  89.406  1.00  0.00     0.000 C 
BRANCH  14  15
ATOM     15  C   UNL     1      45.298  27.910  90.667  1.00  0.00     0.000 C 
BRANCH  15  16
ATOM     16  C   UNL     1      45.613  29.047  91.654  1.00  0.00     0.000 C 
BRANCH  16  17
ATOM     17  C   UNL     1      44.621  30.218  91.540  1.00  0.00     0.000 C 
BRANCH  17  18
ATOM     18  C   UNL     1      45.320  31.568  91.310  1.00  0.00     0.000 C 
BRANCH  18  19
ATOM     19  C   UNL     1      46.606  31.441  90.477  1.00  0.00     0.000 C 
BRANCH  19  20
ATOM     20  C   UNL     1      46.348  31.828  89.014  1.00  0.00     0.006 C 
BRANCH  20  21
ATOM     21  C   UNL     1      47.370  31.200  88.059  1.00  0.00     0.053 C 
BRANCH  21  22
ATOM     22  C   UNL     1      48.620  32.020  87.973  1.00  0.00     0.041 C 
ATOM     23  O   UNL     1      49.673  31.634  88.547  1.00  0.00    -0.550 OA
ATOM     24  O   UNL     1      48.613  33.231  87.294  1.00  0.00    -0.550 OA
ENDBRANCH  21  22
ENDBRANCH  20  21
ENDBRANCH  19  20
ENDBRANCH  18  19
ENDBRANCH  17  18
ENDBRANCH  16  17
ENDBRANCH  15  16
ENDBRANCH  14  15
ENDBRANCH  13  14
ENDBRANCH   1  13
TORSDOF 20
ENDMDL
MODEL 6
REMARK VINA RESULT:    -3.080      4.342      7.448
REMARK INTER + INTRA:         -10.694
REMARK INTER:                  -6.191
REMARK INTRA:                  -4.504
REMARK UNBOUND:                -4.014
REMARK SMILES CCCCCCCCCCCCCCCCCCCCCC(=O)[O-]
REMARK SMILES IDX 12 1 11 2 10 3 9 4 8 5 7 6 6 7 5 8 4 9 3 10 2 11 1 12 13 13
REMARK SMILES IDX 14 14 15 15 16 16 17 17 18 18 19 19 20 20 21 21 22 22 23 23
REMARK SMILES IDX 24 24
REMARK H PARENT
REMARK Flexibility Score: inf
ROOT
ATOM      1  C   UNL     1      42.667  30.990  88.385  1.00  0.00     0.000 C 
ENDROOT
BRANCH   1   2
ATOM      2  C   UNL     1      43.727  30.107  87.701  1.00  0.00     0.000 C 
BRANCH   2   3
ATOM      3  C   UNL     1      45.176  30.425  88.114  1.00  0.00     0.000 C 
BRANCH   3   4
ATOM      4  C   UNL     1      45.257  31.251  89.410  1.00  0.00    -0.000 C 
BRANCH   4   5
ATOM      5  C   UNL     1      46.175  30.593  90.461  1.00  0.00    -0.000 C 
BRANCH   5   6
ATOM      6  C   UNL     1      45.421  29.980  91.653  1.00  0.00    -0.000 C 
BRANCH   6   7
ATOM      7  C   UNL     1      43.955  30.439  91.732  1.00  0.00    -0.000 C 
BRANCH   7   8
ATOM      8  C   UNL     1      42.956  29.267  91.673  1.00  0.00    -0.000 C 
BRANCH   8   9
ATOM      9  C   UNL     1      43.583  27.897  91.349  1.00  0.00    -0.000 C 
BRANCH   9  10
ATOM     10  C   UNL     1      42.973  27.240  90.098  1.00  0.00    -0.000 C 
BRANCH  10  11
ATOM     11  C   UNL     1      44.037  26.853  89.059  1.00  0.00    -0.003 C 
ATOM     12  C   UNL     1      45.458  26.936  89.613  1.00  0.00     0.004 C 
ENDBRANCH  10  11
ENDBRANCH   9  10
ENDBRANCH   8   9
ENDBRANCH   7   8
ENDBRANCH   6   7
ENDBRANCH   5   6
ENDBRANCH   4   5
ENDBRANCH   3   4
ENDBRANCH   2   3
ENDBRANCH   1   2
BRANCH   1  13
ATOM     13  C   UNL     1      41.469  31.290  87.470  1.00  0.00     0.000 C 
BRANCH  13  14
ATOM     14  C   UNL     1      40.142  31.040  88.199  1.00  0.00     0.000 C 
BRANCH  14  15
ATOM     15  C   UNL     1      40.328  30.039  89.350  1.00  0.00     0.000 C 
BRANCH  15  16
ATOM     16  C   UNL     1      39.866  28.618  88.985  1.00  0.00     0.000 C 
BRANCH  16  17
ATOM     17  C   UNL     1      38.980  28.591  87.728  1.00  0.00     0.000 C 
BRANCH  17  18
ATOM     18  C   UNL     1      39.665  27.906  86.533  1.00  0.00     0.000 C 
BRANCH  18  19
ATOM     19  C   UNL     1      41.123  27.519  86.823  1.00  0.00     0.000 C 
BRANCH  19  20
ATOM     20  C   UNL     1      41.372  26.041  86.490  1.00  0.00     0.006 C 
BRANCH  20  21
ATOM     21  C   UNL     1      40.292  25.124  87.076  1.00  0.00     0.053 C 
BRANCH  21  22
ATOM     22  C   UNL     1      40.565  24.797  88.512  1.00  0.00     0.041 C 
ATOM     23  O   UNL     1      39.748  25.138  89.408  1.00  0.00    -0.550 OA
ATOM     24  O   UNL     1      41.743  24.152  88.867  1.00  0.00    -0.550 OA
ENDBRANCH  21  22
ENDBRANCH  20  21
ENDBRANCH  19  20
ENDBRANCH  18  19
ENDBRANCH  17  18
ENDBRANCH  16  17
ENDBRANCH  15  16
ENDBRANCH  14  15
ENDBRANCH  13  14
ENDBRANCH   1  13
TORSDOF 20
ENDMDL
MODEL 7
REMARK VINA RESULT:    -3.055      1.434      4.073
REMARK INTER + INTRA:         -10.640
REMARK INTER:                  -7.742
REMARK INTRA:                  -2.899
REMARK UNBOUND:                -4.014
REMARK SMILES CCCCCCCCCCCCCCCCCCCCCC(=O)[O-]
REMARK SMILES IDX 12 1 11 2 10 3 9 4 8 5 7 6 6 7 5 8 4 9 3 10 2 11 1 12 13 13
REMARK SMILES IDX 14 14 15 15 16 16 17 17 18 18 19 19 20 20 21 21 22 22 23 23
REMARK SMILES IDX 24 24
REMARK H PARENT
REMARK Flexibility Score: inf
ROOT
ATOM      1  C   UNL     1      46.874  29.150  88.387  1.00  0.00     0.000 C 
ENDROOT
BRANCH   1   2
ATOM      2  C   UNL     1      45.472  29.785  88.339  1.00  0.00     0.000 C 
BRANCH   2   3
ATOM      3  C   UNL     1      45.430  31.257  88.788  1.00  0.00     0.000 C 
BRANCH   3   4
ATOM      4  C   UNL     1      44.481  31.490  89.977  1.00  0.00    -0.000 C 
BRANCH   4   5
ATOM      5  C   UNL     1      45.091  31.005  91.309  1.00  0.00    -0.000 C 
BRANCH   5   6
ATOM      6  C   UNL     1      44.508  29.674  91.815  1.00  0.00    -0.000 C 
BRANCH   6   7
ATOM      7  C   UNL     1      42.996  29.550  91.564  1.00  0.00    -0.000 C 
BRANCH   7   8
ATOM      8  C   UNL     1      42.660  28.642  90.366  1.00  0.00    -0.000 C 
BRANCH   8   9
ATOM      9  C   UNL     1      41.193  28.703  89.897  1.00  0.00    -0.000 C 
BRANCH   9  10
ATOM     10  C   UNL     1      40.725  30.133  89.578  1.00  0.00    -0.000 C 
BRANCH  10  11
ATOM     11  C   UNL     1      40.610  30.392  88.068  1.00  0.00    -0.003 C 
ATOM     12  C   UNL     1      41.840  31.096  87.497  1.00  0.00     0.004 C 
ENDBRANCH  10  11
ENDBRANCH   9  10
ENDBRANCH   8   9
ENDBRANCH   7   8
ENDBRANCH   6   7
ENDBRANCH   5   6
ENDBRANCH   4   5
ENDBRANCH   3   4
ENDBRANCH   2   3
ENDBRANCH   1   2
BRANCH   1  13
ATOM     13  C   UNL     1      47.055  28.209  89.589  1.00  0.00     0.000 C 
BRANCH  13  14
ATOM     14  C   UNL     1      48.226  28.661  90.473  1.00  0.00     0.000 C 
BRANCH  14  15
ATOM     15  C   UNL     1      48.575  30.134  90.208  1.00  0.00     0.000 C 
BRANCH  15  16
ATOM     16  C   UNL     1      50.024  30.327  89.730  1.00  0.00     0.000 C 
BRANCH  16  17
ATOM     17  C   UNL     1      50.211  31.626  88.926  1.00  0.00     0.000 C 
BRANCH  17  18
ATOM     18  C   UNL     1      49.554  31.564  87.538  1.00  0.00     0.000 C 
BRANCH  18  19
ATOM     19  C   UNL     1      48.496  32.658  87.328  1.00  0.00     0.000 C 
BRANCH  19  20
ATOM     20  C   UNL     1      48.968  33.680  86.283  1.00  0.00     0.006 C 
BRANCH  20  21
ATOM     21  C   UNL     1      49.374  35.015  86.918  1.00  0.00     0.053 C 
BRANCH  21  22
ATOM     22  C   UNL     1      50.840  35.278  86.762  1.00  0.00     0.041 C 
ATOM     23  O   UNL     1      51.426  36.085  87.531  1.00  0.00    -0.550 OA
ATOM     24  O   UNL     1      51.552  34.663  85.740  1.00  0.00    -0.550 OA
ENDBRANCH  21  22
ENDBRANCH  20  21
ENDBRANCH  19  20
ENDBRANCH  18  19
ENDBRANCH  17  18
ENDBRANCH  16  17
ENDBRANCH  15  16
ENDBRANCH  14  15
ENDBRANCH  13  14
ENDBRANCH   1  13
TORSDOF 20
ENDMDL
MODEL 8
REMARK VINA RESULT:    -3.044      1.615      3.708
REMARK INTER + INTRA:         -10.617
REMARK INTER:                  -7.832
REMARK INTRA:                  -2.785
REMARK UNBOUND:                -4.014
REMARK SMILES CCCCCCCCCCCCCCCCCCCCCC(=O)[O-]
REMARK SMILES IDX 12 1 11 2 10 3 9 4 8 5 7 6 6 7 5 8 4 9 3 10 2 11 1 12 13 13
REMARK SMILES IDX 14 14 15 15 16 16 17 17 18 18 19 19 20 20 21 21 22 22 23 23
REMARK SMILES IDX 24 24
REMARK H PARENT
REMARK Flexibility Score: inf
ROOT
ATOM      1  C   UNL     1      45.374  27.653  90.500  1.00  0.00     0.000 C 
ENDROOT
BRANCH   1   2
ATOM      2  C   UNL     1      45.493  28.368  91.859  1.00  0.00     0.000 C 
BRANCH   2   3
ATOM      3  C   UNL     1      44.144  28.774  92.479  1.00  0.00     0.000 C 
BRANCH   3   4
ATOM      4  C   UNL     1      43.545  30.033  91.828  1.00  0.00    -0.000 C 
BRANCH   4   5
ATOM      5  C   UNL     1      44.548  31.205  91.801  1.00  0.00    -0.000 C 
BRANCH   5   6
ATOM      6  C   UNL     1      45.101  31.522  90.400  1.00  0.00    -0.000 C 
BRANCH   6   7
ATOM      7  C   UNL     1      44.007  31.555  89.320  1.00  0.00    -0.000 C 
BRANCH   7   8
ATOM      8  C   UNL     1      44.161  30.433  88.276  1.00  0.00    -0.000 C 
BRANCH   8   9
ATOM      9  C   UNL     1      42.836  29.894  87.702  1.00  0.00    -0.000 C 
BRANCH   9  10
ATOM     10  C   UNL     1      41.796  31.000  87.456  1.00  0.00    -0.000 C 
BRANCH  10  11
ATOM     11  C   UNL     1      40.494  30.769  88.240  1.00  0.00    -0.003 C 
ATOM     12  C   UNL     1      40.665  29.769  89.382  1.00  0.00     0.004 C 
ENDBRANCH  10  11
ENDBRANCH   9  10
ENDBRANCH   8   9
ENDBRANCH   7   8
ENDBRANCH   6   7
ENDBRANCH   5   6
ENDBRANCH   4   5
ENDBRANCH   3   4
ENDBRANCH   2   3
ENDBRANCH   1   2
BRANCH   1  13
ATOM     13  C   UNL     1      46.555  27.961  89.566  1.00  0.00     0.000 C 
BRANCH  13  14
ATOM     14  C   UNL     1      47.501  28.994  90.193  1.00  0.00     0.000 C 
BRANCH  14  15
ATOM     15  C   UNL     1      48.451  29.581  89.137  1.00  0.00     0.000 C 
BRANCH  15  16
ATOM     16  C   UNL     1      48.476  31.119  89.146  1.00  0.00     0.000 C 
BRANCH  16  17
ATOM     17  C   UNL     1      47.744  31.726  87.936  1.00  0.00     0.000 C 
BRANCH  17  18
ATOM     18  C   UNL     1      48.491  32.929  87.334  1.00  0.00     0.000 C 
BRANCH  18  19
ATOM     19  C   UNL     1      49.936  32.596  86.934  1.00  0.00     0.000 C 
BRANCH  19  20
ATOM     20  C   UNL     1      50.907  33.665  87.454  1.00  0.00     0.006 C 
BRANCH  20  21
ATOM     21  C   UNL     1      50.942  34.906  86.553  1.00  0.00     0.053 C 
BRANCH  21  22
ATOM     22  C   UNL     1      51.223  34.545  85.128  1.00  0.00     0.041 C 
ATOM     23  O   UNL     1      50.317  34.640  84.258  1.00  0.00    -0.550 OA
ATOM     24  O   UNL     1      52.474  34.061  84.766  1.00  0.00    -0.550 OA
ENDBRANCH  21  22
ENDBRANCH  20  21
ENDBRANCH  19  20
ENDBRANCH  18  19
ENDBRANCH  17  18
ENDBRANCH  16  17
ENDBRANCH  15  16
ENDBRANCH  14  15
ENDBRANCH  13  14
ENDBRANCH   1  13
TORSDOF 20
ENDMDL
MODEL 9
REMARK VINA RESULT:    -3.034      2.981      4.461
REMARK INTER + INTRA:         -10.595
REMARK INTER:                  -6.367
REMARK INTRA:                  -4.228
REMARK UNBOUND:                -4.014
REMARK SMILES CCCCCCCCCCCCCCCCCCCCCC(=O)[O-]
REMARK SMILES IDX 12 1 11 2 10 3 9 4 8 5 7 6 6 7 5 8 4 9 3 10 2 11 1 12 13 13
REMARK SMILES IDX 14 14 15 15 16 16 17 17 18 18 19 19 20 20 21 21 22 22 23 23
REMARK SMILES IDX 24 24
REMARK H PARENT
REMARK Flexibility Score: inf
ROOT
ATOM      1  C   UNL     1      43.479  27.719  90.027  1.00  0.00     0.000 C 
ENDROOT
BRANCH   1   2
ATOM      2  C   UNL     1      42.931  26.779  88.937  1.00  0.00     0.000 C 
BRANCH   2   3
ATOM      3  C   UNL     1      42.963  27.374  87.517  1.00  0.00     0.000 C 
BRANCH   3   4
ATOM      4  C   UNL     1      43.984  28.515  87.373  1.00  0.00    -0.000 C 
BRANCH   4   5
ATOM      5  C   UNL     1      43.426  29.693  86.546  1.00  0.00    -0.000 C 
BRANCH   5   6
ATOM      6  C   UNL     1      41.904  29.880  86.673  1.00  0.00    -0.000 C 
BRANCH   6   7
ATOM      7  C   UNL     1      41.518  30.954  87.704  1.00  0.00    -0.000 C 
BRANCH   7   8
ATOM      8  C   UNL     1      40.331  30.533  88.592  1.00  0.00    -0.000 C 
BRANCH   8   9
ATOM      9  C   UNL     1      39.390  29.487  87.962  1.00  0.00    -0.000 C 
BRANCH   9  10
ATOM     10  C   UNL     1      39.438  28.128  88.681  1.00  0.00    -0.000 C 
BRANCH  10  11
ATOM     11  C   UNL     1      38.849  26.991  87.830  1.00  0.00    -0.003 C 
ATOM     12  C   UNL     1      39.497  26.892  86.450  1.00  0.00     0.004 C 
ENDBRANCH  10  11
ENDBRANCH   9  10
ENDBRANCH   8   9
ENDBRANCH   7   8
ENDBRANCH   6   7
ENDBRANCH   5   6
ENDBRANCH   4   5
ENDBRANCH   3   4
ENDBRANCH   2   3
ENDBRANCH   1   2
BRANCH   1  13
ATOM     13  C   UNL     1      42.374  28.271  90.941  1.00  0.00     0.000 C 
BRANCH  13  14
ATOM     14  C   UNL     1      42.600  29.758  91.244  1.00  0.00     0.000 C 
BRANCH  14  15
ATOM     15  C   UNL     1      43.920  29.969  92.002  1.00  0.00     0.000 C 
BRANCH  15  16
ATOM     16  C   UNL     1      44.752  31.133  91.438  1.00  0.00     0.000 C 
BRANCH  16  17
ATOM     17  C   UNL     1      44.500  31.365  89.938  1.00  0.00     0.000 C 
BRANCH  17  18
ATOM     18  C   UNL     1      45.773  31.205  89.091  1.00  0.00     0.000 C 
BRANCH  18  19
ATOM     19  C   UNL     1      47.061  31.440  89.896  1.00  0.00     0.000 C 
BRANCH  19  20
ATOM     20  C   UNL     1      47.930  30.175  89.917  1.00  0.00     0.006 C 
BRANCH  20  21
ATOM     21  C   UNL     1      47.233  28.980  89.256  1.00  0.00     0.053 C 
BRANCH  21  22
ATOM     22  C   UNL     1      47.071  27.838  90.210  1.00  0.00     0.041 C 
ATOM     23  O   UNL     1      47.078  26.652  89.789  1.00  0.00    -0.550 OA
ATOM     24  O   UNL     1      46.868  28.085  91.562  1.00  0.00    -0.550 OA
ENDBRANCH  21  22
ENDBRANCH  20  21
ENDBRANCH  19  20
ENDBRANCH  18  19
ENDBRANCH  17  18
ENDBRANCH  16  17
ENDBRANCH  15  16
ENDBRANCH  14  15
ENDBRANCH  13  14
ENDBRANCH   1  13
TORSDOF 20
ENDMDL
