MODEL 1
REMARK VINA RESULT:    -3.159      0.000      0.000
REMARK INTER + INTRA:          -7.569
REMARK INTER:                  -5.560
REMARK INTRA:                  -2.009
REMARK UNBOUND:                -2.009
REMARK SMILES CCCCCCC=CCCCCCCCC(=O)[O-]
REMARK SMILES IDX 10 1 11 2 12 3 13 4 14 5 15 6 16 7 17 8 18 9 9 10 8 11 7 12
REMARK SMILES IDX 6 13 5 14 4 15 3 16 2 17 1 18
REMARK H PARENT
REMARK Flexibility Score: inf
ROOT
ATOM      1  C   UNL     1      -7.839  23.377   9.560  1.00  0.00     0.004 C 
ENDROOT
BRANCH   1   2
ATOM      2  C   UNL     1      -6.890  22.323   8.962  1.00  0.00     0.000 C 
BRANCH   2   3
ATOM      3  C   UNL     1      -5.721  22.966   8.187  1.00  0.00     0.000 C 
BRANCH   3   4
ATOM      4  C   UNL     1      -5.022  24.100   8.954  1.00  0.00     0.000 C 
BRANCH   4   5
ATOM      5  C   UNL     1      -3.690  23.667   9.578  1.00  0.00     0.006 C 
BRANCH   5   6
ATOM      6  C   UNL     1      -3.657  23.984  11.076  1.00  0.00     0.053 C 
BRANCH   6   7
ATOM      7  C   UNL     1      -2.519  24.902  11.393  1.00  0.00     0.041 C 
ATOM      8  O   UNL     1      -1.824  25.395  10.466  1.00  0.00    -0.550 OA
ATOM      9  O   UNL     1      -2.255  25.251  12.712  1.00  0.00    -0.550 OA
ENDBRANCH   6   7
ENDBRANCH   5   6
ENDBRANCH   4   5
ENDBRANCH   3   4
ENDBRANCH   2   3
ENDBRANCH   1   2
BRANCH   1  10
ATOM     10  C   UNL     1      -8.148  23.106  11.037  1.00  0.00     0.027 C 
BRANCH  10  11
ATOM     11  C   UNL     1      -6.976  22.457  11.735  1.00  0.00    -0.031 C 
ATOM     12  C   UNL     1      -7.052  21.379  12.538  1.00  0.00    -0.031 C 
BRANCH  12  13
ATOM     13  C   UNL     1      -8.330  20.673  12.913  1.00  0.00     0.027 C 
BRANCH  13  14
ATOM     14  C   UNL     1      -8.801  21.096  14.313  1.00  0.00     0.004 C 
BRANCH  14  15
ATOM     15  C   UNL     1     -10.049  21.990  14.268  1.00  0.00     0.000 C 
BRANCH  15  16
ATOM     16  C   UNL     1      -9.707  23.487  14.379  1.00  0.00    -0.000 C 
BRANCH  16  17
ATOM     17  C   UNL     1      -8.379  23.734  15.112  1.00  0.00    -0.003 C 
ATOM     18  C   UNL     1      -7.675  25.006  14.643  1.00  0.00     0.004 C 
ENDBRANCH  16  17
ENDBRANCH  15  16
ENDBRANCH  14  15
ENDBRANCH  13  14
ENDBRANCH  12  13
ENDBRANCH  10  11
ENDBRANCH   1  10
TORSDOF 13
ENDMDL
MODEL 2
REMARK VINA RESULT:    -3.143      1.541      2.183
REMARK INTER + INTRA:          -7.541
REMARK INTER:                  -5.423
REMARK INTRA:                  -2.118
REMARK UNBOUND:                -2.009
REMARK SMILES CCCCCCC=CCCCCCCCC(=O)[O-]
REMARK SMILES IDX 10 1 11 2 12 3 13 4 14 5 15 6 16 7 17 8 18 9 9 10 8 11 7 12
REMARK SMILES IDX 6 13 5 14 4 15 3 16 2 17 1 18
REMARK H PARENT
REMARK Flexibility Score: inf
ROOT
ATOM      1  C   UNL     1      -8.750  23.332   9.489  1.00  0.00     0.004 C 
ENDROOT
BRANCH   1   2
ATOM      2  C   UNL     1      -7.627  22.289   9.359  1.00  0.00     0.000 C 
BRANCH   2   3
ATOM      3  C   UNL     1      -6.276  22.820   9.880  1.00  0.00     0.000 C 
BRANCH   3   4
ATOM      4  C   UNL     1      -6.355  24.242  10.462  1.00  0.00     0.000 C 
BRANCH   4   5
ATOM      5  C   UNL     1      -5.100  24.635  11.251  1.00  0.00     0.006 C 
BRANCH   5   6
ATOM      6  C   UNL     1      -3.956  23.652  10.991  1.00  0.00     0.053 C 
BRANCH   6   7
ATOM      7  C   UNL     1      -2.881  24.300  10.178  1.00  0.00     0.041 C 
ATOM      8  O   UNL     1      -1.909  24.865  10.746  1.00  0.00    -0.550 OA
ATOM      9  O   UNL     1      -2.929  24.243   8.790  1.00  0.00    -0.550 OA
ENDBRANCH   6   7
ENDBRANCH   5   6
ENDBRANCH   4   5
ENDBRANCH   3   4
ENDBRANCH   2   3
ENDBRANCH   1   2
BRANCH   1  10
ATOM     10  C   UNL     1      -9.938  22.806  10.305  1.00  0.00     0.027 C 
BRANCH  10  11
ATOM     11  C   UNL     1     -10.063  21.305  10.189  1.00  0.00    -0.031 C 
ATOM     12  C   UNL     1     -10.093  20.448  11.227  1.00  0.00    -0.031 C 
BRANCH  12  13
ATOM     13  C   UNL     1      -9.956  20.844  12.674  1.00  0.00     0.027 C 
BRANCH  13  14
ATOM     14  C   UNL     1      -8.555  20.505  13.207  1.00  0.00     0.004 C 
BRANCH  14  15
ATOM     15  C   UNL     1      -7.574  21.678  13.067  1.00  0.00     0.000 C 
BRANCH  15  16
ATOM     16  C   UNL     1      -8.199  23.024  13.475  1.00  0.00    -0.000 C 
BRANCH  16  17
ATOM     17  C   UNL     1      -7.926  23.376  14.947  1.00  0.00    -0.003 C 
ATOM     18  C   UNL     1      -9.125  23.095  15.851  1.00  0.00     0.004 C 
ENDBRANCH  16  17
ENDBRANCH  15  16
ENDBRANCH  14  15
ENDBRANCH  13  14
ENDBRANCH  12  13
ENDBRANCH  10  11
ENDBRANCH   1  10
TORSDOF 13
ENDMDL
MODEL 3
REMARK VINA RESULT:    -3.140      1.402      2.556
REMARK INTER + INTRA:          -7.536
REMARK INTER:                  -5.239
REMARK INTRA:                  -2.297
REMARK UNBOUND:                -2.009
REMARK SMILES CCCCCCC=CCCCCCCCC(=O)[O-]
REMARK SMILES IDX 10 1 11 2 12 3 13 4 14 5 15 6 16 7 17 8 18 9 9 10 8 11 7 12
REMARK SMILES IDX 6 13 5 14 4 15 3 16 2 17 1 18
REMARK H PARENT
REMARK Flexibility Score: inf
ROOT
ATOM      1  C   UNL     1      -8.579  23.908  10.160  1.00  0.00     0.004 C 
ENDROOT
BRANCH   1   2
ATOM      2  C   UNL     1      -8.270  22.414   9.964  1.00  0.00     0.000 C 
BRANCH   2   3
ATOM      3  C   UNL     1      -6.794  22.080  10.265  1.00  0.00     0.000 C 
BRANCH   3   4
ATOM      4  C   UNL     1      -5.810  23.169   9.806  1.00  0.00     0.000 C 
BRANCH   4   5
ATOM      5  C   UNL     1      -4.808  23.567  10.897  1.00  0.00     0.006 C 
BRANCH   5   6
ATOM      6  C   UNL     1      -3.485  24.032  10.284  1.00  0.00     0.053 C 
BRANCH   6   7
ATOM      7  C   UNL     1      -2.642  24.719  11.311  1.00  0.00     0.041 C 
ATOM      8  O   UNL     1      -1.387  24.634  11.263  1.00  0.00    -0.550 OA
ATOM      9  O   UNL     1      -3.243  25.492  12.298  1.00  0.00    -0.550 OA
ENDBRANCH   6   7
ENDBRANCH   5   6
ENDBRANCH   4   5
ENDBRANCH   3   4
ENDBRANCH   2   3
ENDBRANCH   1   2
BRANCH   1  10
ATOM     10  C   UNL     1      -9.310  24.180  11.480  1.00  0.00     0.027 C 
BRANCH  10  11
ATOM     11  C   UNL     1      -8.445  24.969  12.434  1.00  0.00    -0.031 C 
ATOM     12  C   UNL     1      -7.658  24.436  13.388  1.00  0.00    -0.031 C 
BRANCH  12  13
ATOM     13  C   UNL     1      -7.550  22.964  13.691  1.00  0.00     0.027 C 
BRANCH  13  14
ATOM     14  C   UNL     1      -8.480  22.571  14.850  1.00  0.00     0.004 C 
BRANCH  14  15
ATOM     15  C   UNL     1      -9.162  21.214  14.622  1.00  0.00     0.000 C 
BRANCH  15  16
ATOM     16  C   UNL     1      -8.662  20.507  13.350  1.00  0.00    -0.000 C 
BRANCH  16  17
ATOM     17  C   UNL     1      -9.813  19.980  12.478  1.00  0.00    -0.003 C 
ATOM     18  C   UNL     1     -10.876  21.042  12.202  1.00  0.00     0.004 C 
ENDBRANCH  16  17
ENDBRANCH  15  16
ENDBRANCH  14  15
ENDBRANCH  13  14
ENDBRANCH  12  13
ENDBRANCH  10  11
ENDBRANCH   1  10
TORSDOF 13
ENDMDL
MODEL 4
REMARK VINA RESULT:    -3.127      1.227      2.384
REMARK INTER + INTRA:          -7.512
REMARK INTER:                  -5.241
REMARK INTRA:                  -2.271
REMARK UNBOUND:                -2.009
REMARK SMILES CCCCCCC=CCCCCCCCC(=O)[O-]
REMARK SMILES IDX 10 1 11 2 12 3 13 4 14 5 15 6 16 7 17 8 18 9 9 10 8 11 7 12
REMARK SMILES IDX 6 13 5 14 4 15 3 16 2 17 1 18
REMARK H PARENT
REMARK Flexibility Score: inf
ROOT
ATOM      1  C   UNL     1      -8.111  21.971  11.091  1.00  0.00     0.004 C 
ENDROOT
BRANCH   1   2
ATOM      2  C   UNL     1      -6.799  21.689  11.844  1.00  0.00     0.000 C 
BRANCH   2   3
ATOM      3  C   UNL     1      -5.767  22.821  11.658  1.00  0.00     0.000 C 
BRANCH   3   4
ATOM      4  C   UNL     1      -5.880  23.543  10.306  1.00  0.00     0.000 C 
BRANCH   4   5
ATOM      5  C   UNL     1      -4.515  23.890   9.698  1.00  0.00     0.006 C 
BRANCH   5   6
ATOM      6  C   UNL     1      -3.393  23.701  10.723  1.00  0.00     0.053 C 
BRANCH   6   7
ATOM      7  C   UNL     1      -2.827  25.024  11.132  1.00  0.00     0.041 C 
ATOM      8  O   UNL     1      -3.180  25.557  12.217  1.00  0.00    -0.550 OA
ATOM      9  O   UNL     1      -1.875  25.648  10.336  1.00  0.00    -0.550 OA
ENDBRANCH   6   7
ENDBRANCH   5   6
ENDBRANCH   4   5
ENDBRANCH   3   4
ENDBRANCH   2   3
ENDBRANCH   1   2
BRANCH   1  10
ATOM     10  C   UNL     1      -9.333  21.404  11.824  1.00  0.00     0.027 C 
BRANCH  10  11
ATOM     11  C   UNL     1      -8.922  20.455  12.925  1.00  0.00    -0.031 C 
ATOM     12  C   UNL     1      -9.138  20.653  14.239  1.00  0.00    -0.031 C 
BRANCH  12  13
ATOM     13  C   UNL     1      -9.781  21.881  14.830  1.00  0.00     0.027 C 
BRANCH  13  14
ATOM     14  C   UNL     1      -8.764  22.698  15.641  1.00  0.00     0.004 C 
BRANCH  14  15
ATOM     15  C   UNL     1      -7.979  23.690  14.770  1.00  0.00     0.000 C 
BRANCH  15  16
ATOM     16  C   UNL     1      -8.886  24.483  13.813  1.00  0.00    -0.000 C 
BRANCH  16  17
ATOM     17  C   UNL     1      -8.087  25.372  12.846  1.00  0.00    -0.003 C 
ATOM     18  C   UNL     1      -8.829  25.634  11.537  1.00  0.00     0.004 C 
ENDBRANCH  16  17
ENDBRANCH  15  16
ENDBRANCH  14  15
ENDBRANCH  13  14
ENDBRANCH  12  13
ENDBRANCH  10  11
ENDBRANCH   1  10
TORSDOF 13
ENDMDL
MODEL 5
REMARK VINA RESULT:    -3.066      1.705      2.811
REMARK INTER + INTRA:          -7.405
REMARK INTER:                  -6.211
REMARK INTRA:                  -1.193
REMARK UNBOUND:                -2.009
REMARK SMILES CCCCCCC=CCCCCCCCC(=O)[O-]
REMARK SMILES IDX 10 1 11 2 12 3 13 4 14 5 15 6 16 7 17 8 18 9 9 10 8 11 7 12
REMARK SMILES IDX 6 13 5 14 4 15 3 16 2 17 1 18
REMARK H PARENT
REMARK Flexibility Score: inf
ROOT
ATOM      1  C   UNL     1      -8.264  21.816  11.459  1.00  0.00     0.004 C 
ENDROOT
BRANCH   1   2
ATOM      2  C   UNL     1      -6.842  21.700  12.037  1.00  0.00     0.000 C 
BRANCH   2   3
ATOM      3  C   UNL     1      -5.945  22.882  11.614  1.00  0.00     0.000 C 
BRANCH   3   4
ATOM      4  C   UNL     1      -5.730  22.981  10.095  1.00  0.00     0.000 C 
BRANCH   4   5
ATOM      5  C   UNL     1      -5.396  24.405   9.631  1.00  0.00     0.006 C 
BRANCH   5   6
ATOM      6  C   UNL     1      -4.308  25.028  10.509  1.00  0.00     0.053 C 
BRANCH   6   7
ATOM      7  C   UNL     1      -2.952  24.749   9.942  1.00  0.00     0.041 C 
ATOM      8  O   UNL     1      -2.801  24.606   8.700  1.00  0.00    -0.550 OA
ATOM      9  O   UNL     1      -1.847  24.691  10.782  1.00  0.00    -0.550 OA
ENDBRANCH   6   7
ENDBRANCH   5   6
ENDBRANCH   4   5
ENDBRANCH   3   4
ENDBRANCH   2   3
ENDBRANCH   1   2
BRANCH   1  10
ATOM     10  C   UNL     1      -9.269  20.937  12.213  1.00  0.00     0.027 C 
BRANCH  10  11
ATOM     11  C   UNL     1      -8.753  20.562  13.582  1.00  0.00    -0.031 C 
ATOM     12  C   UNL     1      -9.113  21.155  14.736  1.00  0.00    -0.031 C 
BRANCH  12  13
ATOM     13  C   UNL     1     -10.053  22.328  14.843  1.00  0.00     0.027 C 
BRANCH  13  14
ATOM     14  C   UNL     1      -9.280  23.655  14.837  1.00  0.00     0.004 C 
BRANCH  14  15
ATOM     15  C   UNL     1      -7.917  23.545  15.537  1.00  0.00     0.000 C 
BRANCH  15  16
ATOM     16  C   UNL     1      -8.027  23.676  17.067  1.00  0.00    -0.000 C 
BRANCH  16  17
ATOM     17  C   UNL     1      -6.689  24.052  17.723  1.00  0.00    -0.003 C 
ATOM     18  C   UNL     1      -6.297  23.101  18.852  1.00  0.00     0.004 C 
ENDBRANCH  16  17
ENDBRANCH  15  16
ENDBRANCH  14  15
ENDBRANCH  13  14
ENDBRANCH  12  13
ENDBRANCH  10  11
ENDBRANCH   1  10
TORSDOF 13
ENDMDL
MODEL 6
REMARK VINA RESULT:    -3.059      1.561      2.474
REMARK INTER + INTRA:          -7.392
REMARK INTER:                  -5.584
REMARK INTRA:                  -1.808
REMARK UNBOUND:                -2.009
REMARK SMILES CCCCCCC=CCCCCCCCC(=O)[O-]
REMARK SMILES IDX 10 1 11 2 12 3 13 4 14 5 15 6 16 7 17 8 18 9 9 10 8 11 7 12
REMARK SMILES IDX 6 13 5 14 4 15 3 16 2 17 1 18
REMARK H PARENT
REMARK Flexibility Score: inf
ROOT
ATOM      1  C   UNL     1      -6.616  22.661  11.318  1.00  0.00     0.004 C 
ENDROOT
BRANCH   1   2
ATOM      2  C   UNL     1      -6.808  22.141   9.883  1.00  0.00     0.000 C 
BRANCH   2   3
ATOM      3  C   UNL     1      -6.030  22.983   8.850  1.00  0.00     0.000 C 
BRANCH   3   4
ATOM      4  C   UNL     1      -5.202  24.117   9.476  1.00  0.00     0.000 C 
BRANCH   4   5
ATOM      5  C   UNL     1      -3.693  23.842   9.447  1.00  0.00     0.006 C 
BRANCH   5   6
ATOM      6  C   UNL     1      -3.119  23.776  10.864  1.00  0.00     0.053 C 
BRANCH   6   7
ATOM      7  C   UNL     1      -2.479  25.077  11.233  1.00  0.00     0.041 C 
ATOM      8  O   UNL     1      -1.865  25.750  10.364  1.00  0.00    -0.550 OA
ATOM      9  O   UNL     1      -2.598  25.567  12.527  1.00  0.00    -0.550 OA
ENDBRANCH   6   7
ENDBRANCH   5   6
ENDBRANCH   4   5
ENDBRANCH   3   4
ENDBRANCH   2   3
ENDBRANCH   1   2
BRANCH   1  10
ATOM     10  C   UNL     1      -6.760  21.547  12.362  1.00  0.00     0.027 C 
BRANCH  10  11
ATOM     11  C   UNL     1      -7.702  21.952  13.471  1.00  0.00    -0.031 C 
ATOM     12  C   UNL     1      -8.785  21.254  13.862  1.00  0.00    -0.031 C 
BRANCH  12  13
ATOM     13  C   UNL     1      -9.263  19.977  13.221  1.00  0.00     0.027 C 
BRANCH  13  14
ATOM     14  C   UNL     1     -10.492  20.233  12.335  1.00  0.00     0.004 C 
BRANCH  14  15
ATOM     15  C   UNL     1     -10.111  20.595  10.892  1.00  0.00     0.000 C 
BRANCH  15  16
ATOM     16  C   UNL     1     -10.814  21.873  10.398  1.00  0.00    -0.000 C 
BRANCH  16  17
ATOM     17  C   UNL     1     -10.269  23.142  11.073  1.00  0.00    -0.003 C 
ATOM     18  C   UNL     1     -11.338  24.219  11.253  1.00  0.00     0.004 C 
ENDBRANCH  16  17
ENDBRANCH  15  16
ENDBRANCH  14  15
ENDBRANCH  13  14
ENDBRANCH  12  13
ENDBRANCH  10  11
ENDBRANCH   1  10
TORSDOF 13
ENDMDL
MODEL 7
REMARK VINA RESULT:    -3.035      1.634      2.313
REMARK INTER + INTRA:          -7.350
REMARK INTER:                  -5.509
REMARK INTRA:                  -1.841
REMARK UNBOUND:                -2.009
REMARK SMILES CCCCCCC=CCCCCCCCC(=O)[O-]
REMARK SMILES IDX 10 1 11 2 12 3 13 4 14 5 15 6 16 7 17 8 18 9 9 10 8 11 7 12
REMARK SMILES IDX 6 13 5 14 4 15 3 16 2 17 1 18
REMARK H PARENT
REMARK Flexibility Score: inf
ROOT
ATOM      1  C   UNL     1      -9.328  22.198   9.319  1.00  0.00     0.004 C 
ENDROOT
BRANCH   1   2
ATOM      2  C   UNL     1      -8.249  22.732  10.276  1.00  0.00     0.000 C 
BRANCH   2   3
ATOM      3  C   UNL     1      -6.863  22.117   9.992  1.00  0.00     0.000 C 
BRANCH   3   4
ATOM      4  C   UNL     1      -6.069  22.860   8.905  1.00  0.00     0.000 C 
BRANCH   4   5
ATOM      5  C   UNL     1      -5.326  24.090   9.443  1.00  0.00     0.006 C 
BRANCH   5   6
ATOM      6  C   UNL     1      -3.826  23.995   9.151  1.00  0.00     0.053 C 
BRANCH   6   7
ATOM      7  C   UNL     1      -3.041  24.010  10.424  1.00  0.00     0.041 C 
ATOM      8  O   UNL     1      -3.385  23.279  11.390  1.00  0.00    -0.550 OA
ATOM      9  O   UNL     1      -1.902  24.798  10.529  1.00  0.00    -0.550 OA
ENDBRANCH   6   7
ENDBRANCH   5   6
ENDBRANCH   4   5
ENDBRANCH   3   4
ENDBRANCH   2   3
ENDBRANCH   1   2
BRANCH   1  10
ATOM     10  C   UNL     1     -10.084  21.001   9.908  1.00  0.00     0.027 C 
BRANCH  10  11
ATOM     11  C   UNL     1     -10.940  21.414  11.081  1.00  0.00    -0.031 C 
ATOM     12  C   UNL     1     -10.819  20.938  12.335  1.00  0.00    -0.031 C 
BRANCH  12  13
ATOM     13  C   UNL     1      -9.839  19.875  12.761  1.00  0.00     0.027 C 
BRANCH  13  14
ATOM     14  C   UNL     1      -8.516  20.501  13.226  1.00  0.00     0.004 C 
BRANCH  14  15
ATOM     15  C   UNL     1      -8.685  21.365  14.485  1.00  0.00     0.000 C 
BRANCH  15  16
ATOM     16  C   UNL     1      -8.263  22.828  14.259  1.00  0.00    -0.000 C 
BRANCH  16  17
ATOM     17  C   UNL     1      -9.441  23.806  14.392  1.00  0.00    -0.003 C 
ATOM     18  C   UNL     1      -9.814  24.463  13.065  1.00  0.00     0.004 C 
ENDBRANCH  16  17
ENDBRANCH  15  16
ENDBRANCH  14  15
ENDBRANCH  13  14
ENDBRANCH  12  13
ENDBRANCH  10  11
ENDBRANCH   1  10
TORSDOF 13
ENDMDL
MODEL 8
REMARK VINA RESULT:    -3.032      3.006      6.339
REMARK INTER + INTRA:          -7.346
REMARK INTER:                  -5.168
REMARK INTRA:                  -2.178
REMARK UNBOUND:                -2.009
REMARK SMILES CCCCCCC=CCCCCCCCC(=O)[O-]
REMARK SMILES IDX 10 1 11 2 12 3 13 4 14 5 15 6 16 7 17 8 18 9 9 10 8 11 7 12
REMARK SMILES IDX 6 13 5 14 4 15 3 16 2 17 1 18
REMARK H PARENT
REMARK Flexibility Score: inf
ROOT
ATOM      1  C   UNL     1     -10.056  22.485  10.895  1.00  0.00     0.004 C 
ENDROOT
BRANCH   1   2
ATOM      2  C   UNL     1      -9.889  20.957  10.956  1.00  0.00     0.000 C 
BRANCH   2   3
ATOM      3  C   UNL     1      -9.992  20.417  12.398  1.00  0.00     0.000 C 
BRANCH   3   4
ATOM      4  C   UNL     1      -8.666  20.476  13.175  1.00  0.00     0.000 C 
BRANCH   4   5
ATOM      5  C   UNL     1      -8.776  21.265  14.486  1.00  0.00     0.006 C 
BRANCH   5   6
ATOM      6  C   UNL     1      -8.433  22.741  14.268  1.00  0.00     0.053 C 
BRANCH   6   7
ATOM      7  C   UNL     1      -9.597  23.610  14.628  1.00  0.00     0.041 C 
ATOM      8  O   UNL     1     -10.774  23.189  14.475  1.00  0.00    -0.550 OA
ATOM      9  O   UNL     1      -9.381  24.868  15.175  1.00  0.00    -0.550 OA
ENDBRANCH   6   7
ENDBRANCH   5   6
ENDBRANCH   4   5
ENDBRANCH   3   4
ENDBRANCH   2   3
ENDBRANCH   1   2
BRANCH   1  10
ATOM     10  C   UNL     1      -8.740  23.199  10.561  1.00  0.00     0.027 C 
BRANCH  10  11
ATOM     11  C   UNL     1      -7.707  22.230  10.036  1.00  0.00    -0.031 C 
ATOM     12  C   UNL     1      -6.460  22.088  10.522  1.00  0.00    -0.031 C 
BRANCH  12  13
ATOM     13  C   UNL     1      -5.873  22.910  11.640  1.00  0.00     0.027 C 
BRANCH  13  14
ATOM     14  C   UNL     1      -5.052  24.085  11.087  1.00  0.00     0.004 C 
BRANCH  14  15
ATOM     15  C   UNL     1      -3.661  23.653  10.598  1.00  0.00     0.000 C 
BRANCH  15  16
ATOM     16  C   UNL     1      -3.378  24.099   9.153  1.00  0.00    -0.000 C 
BRANCH  16  17
ATOM     17  C   UNL     1      -4.665  24.373   8.359  1.00  0.00    -0.003 C 
ATOM     18  C   UNL     1      -4.953  23.297   7.313  1.00  0.00     0.004 C 
ENDBRANCH  16  17
ENDBRANCH  15  16
ENDBRANCH  14  15
ENDBRANCH  13  14
ENDBRANCH  12  13
ENDBRANCH  10  11
ENDBRANCH   1  10
TORSDOF 13
ENDMDL
MODEL 9
REMARK VINA RESULT:    -3.028      2.776      6.250
REMARK INTER + INTRA:          -7.339
REMARK INTER:                  -5.530
REMARK INTRA:                  -1.809
REMARK UNBOUND:                -2.009
REMARK SMILES CCCCCCC=CCCCCCCCC(=O)[O-]
REMARK SMILES IDX 10 1 11 2 12 3 13 4 14 5 15 6 16 7 17 8 18 9 9 10 8 11 7 12
REMARK SMILES IDX 6 13 5 14 4 15 3 16 2 17 1 18
REMARK H PARENT
REMARK Flexibility Score: inf
ROOT
ATOM      1  C   UNL     1     -11.400  20.529  13.640  1.00  0.00     0.004 C 
ENDROOT
BRANCH   1   2
ATOM      2  C   UNL     1     -10.683  20.247  14.972  1.00  0.00     0.000 C 
BRANCH   2   3
ATOM      3  C   UNL     1     -10.065  21.522  15.582  1.00  0.00     0.000 C 
BRANCH   3   4
ATOM      4  C   UNL     1     -10.421  22.807  14.816  1.00  0.00     0.000 C 
BRANCH   4   5
ATOM      5  C   UNL     1      -9.296  23.850  14.844  1.00  0.00     0.006 C 
BRANCH   5   6
ATOM      6  C   UNL     1      -8.056  23.301  15.553  1.00  0.00     0.053 C 
BRANCH   6   7
ATOM      7  C   UNL     1      -7.706  24.151  16.733  1.00  0.00     0.041 C 
ATOM      8  O   UNL     1      -6.879  25.094  16.614  1.00  0.00    -0.550 OA
ATOM      9  O   UNL     1      -8.327  23.931  17.956  1.00  0.00    -0.550 OA
ENDBRANCH   6   7
ENDBRANCH   5   6
ENDBRANCH   4   5
ENDBRANCH   3   4
ENDBRANCH   2   3
ENDBRANCH   1   2
BRANCH   1  10
ATOM     10  C   UNL     1     -10.666  19.910  12.445  1.00  0.00     0.027 C 
BRANCH  10  11
ATOM     11  C   UNL     1     -10.082  20.975  11.547  1.00  0.00    -0.031 C 
ATOM     12  C   UNL     1      -8.834  21.472  11.645  1.00  0.00    -0.031 C 
BRANCH  12  13
ATOM     13  C   UNL     1      -7.833  21.081  12.702  1.00  0.00     0.027 C 
BRANCH  13  14
ATOM     14  C   UNL     1      -6.432  21.607  12.353  1.00  0.00     0.004 C 
BRANCH  14  15
ATOM     15  C   UNL     1      -6.368  22.223  10.947  1.00  0.00     0.000 C 
BRANCH  15  16
ATOM     16  C   UNL     1      -5.559  23.532  10.912  1.00  0.00    -0.000 C 
BRANCH  16  17
ATOM     17  C   UNL     1      -4.848  23.747   9.566  1.00  0.00    -0.003 C 
ATOM     18  C   UNL     1      -3.350  24.001   9.725  1.00  0.00     0.004 C 
ENDBRANCH  16  17
ENDBRANCH  15  16
ENDBRANCH  14  15
ENDBRANCH  13  14
ENDBRANCH  12  13
ENDBRANCH  10  11
ENDBRANCH   1  10
TORSDOF 13
ENDMDL
