MODEL 1
REMARK VINA RESULT:    -5.553      0.000      0.000
REMARK INTER + INTRA:          -9.976
REMARK INTER:                  -8.475
REMARK INTRA:                  -1.501
REMARK UNBOUND:                -1.501
REMARK SMILES CC(=O)CCC=C(C)CCC=C(C)CCC=C(C)C
REMARK SMILES IDX 10 1 11 2 12 3 13 4 14 5 15 6 16 7 18 8 17 9 19 10 9 11 7 12
REMARK SMILES IDX 6 13 8 14 5 15 4 16 2 17 3 18 1 19
REMARK H PARENT
REMARK Flexibility Score: inf
ROOT
ATOM      1  C   UNL     1     -13.314 -14.686  30.006  1.00  0.00     0.032 C 
ENDROOT
BRANCH   1   2
ATOM      2  C   UNL     1     -13.173 -15.338  28.653  1.00  0.00    -0.028 C 
ATOM      3  C   UNL     1     -12.095 -16.050  28.250  1.00  0.00    -0.077 C 
ATOM      4  C   UNL     1     -12.109 -16.646  26.866  1.00  0.00     0.039 C 
BRANCH   3   5
ATOM      5  C   UNL     1     -10.849 -16.214  29.098  1.00  0.00     0.034 C 
BRANCH   5   6
ATOM      6  C   UNL     1     -10.480 -17.694  29.234  1.00  0.00     0.032 C 
BRANCH   6   7
ATOM      7  C   UNL     1     -11.155 -18.305  30.437  1.00  0.00    -0.028 C 
ATOM      8  C   UNL     1     -12.846 -19.591  31.672  1.00  0.00     0.039 C 
ATOM      9  C   UNL     1     -12.256 -19.086  30.380  1.00  0.00    -0.080 C 
ATOM     10  C   UNL     1     -12.894 -19.477  29.067  1.00  0.00     0.039 C 
ENDBRANCH   6   7
ENDBRANCH   5   6
ENDBRANCH   3   5
ENDBRANCH   1   2
BRANCH   1  11
ATOM     11  C   UNL     1     -13.670 -15.723  31.077  1.00  0.00     0.034 C 
BRANCH  11  12
ATOM     12  C   UNL     1     -14.156 -15.044  32.339  1.00  0.00    -0.077 C 
ATOM     13  C   UNL     1     -13.265 -14.759  33.316  1.00  0.00    -0.028 C 
ATOM     14  C   UNL     1     -15.627 -14.732  32.484  1.00  0.00     0.039 C 
BRANCH  13  15
ATOM     15  C   UNL     1     -13.608 -14.058  34.607  1.00  0.00     0.035 C 
BRANCH  15  16
ATOM     16  C   UNL     1     -12.432 -14.115  35.587  1.00  0.00     0.079 C 
BRANCH  16  17
ATOM     17  C   UNL     1     -12.368 -12.860  36.416  1.00  0.00     0.130 C 
ATOM     18  O   UNL     1     -13.349 -12.508  37.052  1.00  0.00    -0.300 OA
ATOM     19  C   UNL     1     -11.125 -12.022  36.470  1.00  0.00     0.087 C 
ENDBRANCH  16  17
ENDBRANCH  15  16
ENDBRANCH  13  15
ENDBRANCH  11  12
ENDBRANCH   1  11
TORSDOF 9
ENDMDL
MODEL 2
REMARK VINA RESULT:    -5.489      2.153      4.494
REMARK INTER + INTRA:          -9.878
REMARK INTER:                  -8.418
REMARK INTRA:                  -1.460
REMARK UNBOUND:                -1.501
REMARK SMILES CC(=O)CCC=C(C)CCC=C(C)CCC=C(C)C
REMARK SMILES IDX 10 1 11 2 12 3 13 4 14 5 15 6 16 7 18 8 17 9 19 10 9 11 7 12
REMARK SMILES IDX 6 13 8 14 5 15 4 16 2 17 3 18 1 19
REMARK H PARENT
REMARK Flexibility Score: inf
ROOT
ATOM      1  C   UNL     1     -10.311 -17.695  30.269  1.00  0.00     0.032 C 
ENDROOT
BRANCH   1   2
ATOM      2  C   UNL     1     -10.841 -18.912  30.984  1.00  0.00    -0.028 C 
ATOM      3  C   UNL     1     -12.122 -19.343  30.927  1.00  0.00    -0.077 C 
ATOM      4  C   UNL     1     -12.495 -20.584  31.695  1.00  0.00     0.039 C 
BRANCH   3   5
ATOM      5  C   UNL     1     -13.212 -18.596  30.183  1.00  0.00     0.034 C 
BRANCH   5   6
ATOM      6  C   UNL     1     -12.997 -18.694  28.670  1.00  0.00     0.032 C 
BRANCH   6   7
ATOM      7  C   UNL     1     -13.717 -17.578  27.954  1.00  0.00    -0.028 C 
ATOM      8  C   UNL     1     -13.993 -15.691  26.405  1.00  0.00     0.039 C 
ATOM      9  C   UNL     1     -13.161 -16.797  27.002  1.00  0.00    -0.080 C 
ATOM     10  C   UNL     1     -11.748 -17.013  26.513  1.00  0.00     0.039 C 
ENDBRANCH   6   7
ENDBRANCH   5   6
ENDBRANCH   3   5
ENDBRANCH   1   2
BRANCH   1  11
ATOM     11  C   UNL     1     -10.582 -16.423  31.080  1.00  0.00     0.034 C 
BRANCH  11  12
ATOM     12  C   UNL     1     -11.618 -15.561  30.394  1.00  0.00    -0.077 C 
ATOM     13  C   UNL     1     -12.873 -15.515  30.897  1.00  0.00    -0.028 C 
ATOM     14  C   UNL     1     -11.229 -14.801  29.147  1.00  0.00     0.039 C 
BRANCH  13  15
ATOM     15  C   UNL     1     -13.990 -14.675  30.330  1.00  0.00     0.035 C 
BRANCH  15  16
ATOM     16  C   UNL     1     -14.797 -14.012  31.451  1.00  0.00     0.079 C 
BRANCH  16  17
ATOM     17  C   UNL     1     -14.726 -14.830  32.713  1.00  0.00     0.130 C 
ATOM     18  O   UNL     1     -15.308 -15.903  32.767  1.00  0.00    -0.300 OA
ATOM     19  C   UNL     1     -13.964 -14.353  33.913  1.00  0.00     0.087 C 
ENDBRANCH  16  17
ENDBRANCH  15  16
ENDBRANCH  13  15
ENDBRANCH  11  12
ENDBRANCH   1  11
TORSDOF 9
ENDMDL
MODEL 3
REMARK VINA RESULT:    -5.359      2.969      5.099
REMARK INTER + INTRA:          -9.679
REMARK INTER:                  -8.114
REMARK INTRA:                  -1.565
REMARK UNBOUND:                -1.501
REMARK SMILES CC(=O)CCC=C(C)CCC=C(C)CCC=C(C)C
REMARK SMILES IDX 10 1 11 2 12 3 13 4 14 5 15 6 16 7 18 8 17 9 19 10 9 11 7 12
REMARK SMILES IDX 6 13 8 14 5 15 4 16 2 17 3 18 1 19
REMARK H PARENT
REMARK Flexibility Score: inf
ROOT
ATOM      1  C   UNL     1     -14.261 -13.452  28.802  1.00  0.00     0.032 C 
ENDROOT
BRANCH   1   2
ATOM      2  C   UNL     1     -15.025 -13.622  30.091  1.00  0.00    -0.028 C 
ATOM      3  C   UNL     1     -14.609 -14.369  31.140  1.00  0.00    -0.077 C 
ATOM      4  C   UNL     1     -15.485 -14.434  32.363  1.00  0.00     0.039 C 
BRANCH   3   5
ATOM      5  C   UNL     1     -13.339 -15.197  31.112  1.00  0.00     0.034 C 
BRANCH   5   6
ATOM      6  C   UNL     1     -13.624 -16.636  31.551  1.00  0.00     0.032 C 
BRANCH   6   7
ATOM      7  C   UNL     1     -13.605 -17.570  30.367  1.00  0.00    -0.028 C 
ATOM      8  C   UNL     1     -13.236 -19.672  29.149  1.00  0.00     0.039 C 
ATOM      9  C   UNL     1     -13.247 -18.871  30.426  1.00  0.00    -0.080 C 
ATOM     10  C   UNL     1     -12.880 -19.543  31.728  1.00  0.00     0.039 C 
ENDBRANCH   6   7
ENDBRANCH   5   6
ENDBRANCH   3   5
ENDBRANCH   1   2
BRANCH   1  11
ATOM     11  C   UNL     1     -14.482 -14.651  27.874  1.00  0.00     0.034 C 
BRANCH  11  12
ATOM     12  C   UNL     1     -13.224 -15.486  27.769  1.00  0.00    -0.077 C 
ATOM     13  C   UNL     1     -12.133 -15.122  28.481  1.00  0.00    -0.028 C 
ATOM     14  C   UNL     1     -13.214 -16.683  26.848  1.00  0.00     0.039 C 
BRANCH  13  15
ATOM     15  C   UNL     1     -10.829 -15.880  28.492  1.00  0.00     0.035 C 
BRANCH  15  16
ATOM     16  C   UNL     1      -9.965 -15.461  29.686  1.00  0.00     0.079 C 
BRANCH  16  17
ATOM     17  C   UNL     1      -9.951 -16.537  30.738  1.00  0.00     0.130 C 
ATOM     18  O   UNL     1      -9.995 -16.226  31.918  1.00  0.00    -0.300 OA
ATOM     19  C   UNL     1      -9.875 -17.990  30.369  1.00  0.00     0.087 C 
ENDBRANCH  16  17
ENDBRANCH  15  16
ENDBRANCH  13  15
ENDBRANCH  11  12
ENDBRANCH   1  11
TORSDOF 9
ENDMDL
MODEL 4
REMARK VINA RESULT:    -5.256      2.388      6.890
REMARK INTER + INTRA:          -9.523
REMARK INTER:                  -8.486
REMARK INTRA:                  -1.037
REMARK UNBOUND:                -1.501
REMARK SMILES CC(=O)CCC=C(C)CCC=C(C)CCC=C(C)C
REMARK SMILES IDX 10 1 11 2 12 3 13 4 14 5 15 6 16 7 18 8 17 9 19 10 9 11 7 12
REMARK SMILES IDX 6 13 8 14 5 15 4 16 2 17 3 18 1 19
REMARK H PARENT
REMARK Flexibility Score: inf
ROOT
ATOM      1  C   UNL     1     -14.133 -13.948  30.286  1.00  0.00     0.032 C 
ENDROOT
BRANCH   1   2
ATOM      2  C   UNL     1     -14.389 -15.228  31.042  1.00  0.00    -0.028 C 
ATOM      3  C   UNL     1     -14.532 -15.314  32.385  1.00  0.00    -0.077 C 
ATOM      4  C   UNL     1     -14.792 -16.669  32.991  1.00  0.00     0.039 C 
BRANCH   3   5
ATOM      5  C   UNL     1     -14.373 -14.124  33.311  1.00  0.00     0.034 C 
BRANCH   5   6
ATOM      6  C   UNL     1     -13.584 -14.517  34.564  1.00  0.00     0.032 C 
BRANCH   6   7
ATOM      7  C   UNL     1     -13.209 -13.295  35.364  1.00  0.00    -0.028 C 
ATOM      8  C   UNL     1     -11.873 -11.919  36.900  1.00  0.00     0.039 C 
ATOM      9  C   UNL     1     -12.094 -13.189  36.119  1.00  0.00    -0.080 C 
ATOM     10  C   UNL     1     -11.064 -14.293  36.186  1.00  0.00     0.039 C 
ENDBRANCH   6   7
ENDBRANCH   5   6
ENDBRANCH   3   5
ENDBRANCH   1   2
BRANCH   1  11
ATOM     11  C   UNL     1     -13.704 -14.243  28.845  1.00  0.00     0.034 C 
BRANCH  11  12
ATOM     12  C   UNL     1     -12.730 -15.399  28.801  1.00  0.00    -0.077 C 
ATOM     13  C   UNL     1     -13.133 -16.579  28.275  1.00  0.00    -0.028 C 
ATOM     14  C   UNL     1     -11.345 -15.213  29.376  1.00  0.00     0.039 C 
BRANCH  13  15
ATOM     15  C   UNL     1     -12.256 -17.799  28.143  1.00  0.00     0.035 C 
BRANCH  15  16
ATOM     16  C   UNL     1     -12.832 -18.973  28.940  1.00  0.00     0.079 C 
BRANCH  16  17
ATOM     17  C   UNL     1     -12.187 -19.063  30.298  1.00  0.00     0.130 C 
ATOM     18  O   UNL     1     -11.012 -18.755  30.427  1.00  0.00    -0.300 OA
ATOM     19  C   UNL     1     -12.954 -19.534  31.498  1.00  0.00     0.087 C 
ENDBRANCH  16  17
ENDBRANCH  15  16
ENDBRANCH  13  15
ENDBRANCH  11  12
ENDBRANCH   1  11
TORSDOF 9
ENDMDL
MODEL 5
REMARK VINA RESULT:    -5.238      0.714      1.341
REMARK INTER + INTRA:          -9.495
REMARK INTER:                  -8.210
REMARK INTRA:                  -1.284
REMARK UNBOUND:                -1.501
REMARK SMILES CC(=O)CCC=C(C)CCC=C(C)CCC=C(C)C
REMARK SMILES IDX 10 1 11 2 12 3 13 4 14 5 15 6 16 7 18 8 17 9 19 10 9 11 7 12
REMARK SMILES IDX 6 13 8 14 5 15 4 16 2 17 3 18 1 19
REMARK H PARENT
REMARK Flexibility Score: inf
ROOT
ATOM      1  C   UNL     1     -13.640 -14.841  29.839  1.00  0.00     0.032 C 
ENDROOT
BRANCH   1   2
ATOM      2  C   UNL     1     -12.622 -15.237  28.799  1.00  0.00    -0.028 C 
ATOM      3  C   UNL     1     -12.665 -16.377  28.073  1.00  0.00    -0.077 C 
ATOM      4  C   UNL     1     -11.573 -16.625  27.065  1.00  0.00     0.039 C 
BRANCH   3   5
ATOM      5  C   UNL     1     -13.720 -17.446  28.276  1.00  0.00     0.034 C 
BRANCH   5   6
ATOM      6  C   UNL     1     -13.077 -18.836  28.330  1.00  0.00     0.032 C 
BRANCH   6   7
ATOM      7  C   UNL     1     -13.200 -19.428  29.712  1.00  0.00    -0.028 C 
ATOM      8  C   UNL     1     -12.505 -20.001  31.998  1.00  0.00     0.039 C 
ATOM      9  C   UNL     1     -12.261 -19.317  30.676  1.00  0.00    -0.080 C 
ATOM     10  C   UNL     1     -10.994 -18.519  30.474  1.00  0.00     0.039 C 
ENDBRANCH   6   7
ENDBRANCH   5   6
ENDBRANCH   3   5
ENDBRANCH   1   2
BRANCH   1  11
ATOM     11  C   UNL     1     -13.483 -15.689  31.106  1.00  0.00     0.034 C 
BRANCH  11  12
ATOM     12  C   UNL     1     -14.023 -14.953  32.313  1.00  0.00    -0.077 C 
ATOM     13  C   UNL     1     -13.211 -14.750  33.376  1.00  0.00    -0.028 C 
ATOM     14  C   UNL     1     -15.462 -14.494  32.308  1.00  0.00     0.039 C 
BRANCH  13  15
ATOM     15  C   UNL     1     -13.611 -14.006  34.626  1.00  0.00     0.035 C 
BRANCH  15  16
ATOM     16  C   UNL     1     -12.596 -14.242  35.749  1.00  0.00     0.079 C 
BRANCH  16  17
ATOM     17  C   UNL     1     -12.239 -12.946  36.425  1.00  0.00     0.130 C 
ATOM     18  O   UNL     1     -13.029 -12.437  37.205  1.00  0.00    -0.300 OA
ATOM     19  C   UNL     1     -10.934 -12.257  36.155  1.00  0.00     0.087 C 
ENDBRANCH  16  17
ENDBRANCH  15  16
ENDBRANCH  13  15
ENDBRANCH  11  12
ENDBRANCH   1  11
TORSDOF 9
ENDMDL
MODEL 6
REMARK VINA RESULT:    -5.166      2.820      5.780
REMARK INTER + INTRA:          -9.385
REMARK INTER:                  -7.848
REMARK INTRA:                  -1.537
REMARK UNBOUND:                -1.501
REMARK SMILES CC(=O)CCC=C(C)CCC=C(C)CCC=C(C)C
REMARK SMILES IDX 10 1 11 2 12 3 13 4 14 5 15 6 16 7 18 8 17 9 19 10 9 11 7 12
REMARK SMILES IDX 6 13 8 14 5 15 4 16 2 17 3 18 1 19
REMARK H PARENT
REMARK Flexibility Score: inf
ROOT
ATOM      1  C   UNL     1     -10.838 -17.360  27.220  1.00  0.00     0.032 C 
ENDROOT
BRANCH   1   2
ATOM      2  C   UNL     1     -11.966 -16.717  26.454  1.00  0.00    -0.028 C 
ATOM      3  C   UNL     1     -13.106 -16.245  27.010  1.00  0.00    -0.077 C 
ATOM      4  C   UNL     1     -14.138 -15.622  26.107  1.00  0.00     0.039 C 
BRANCH   3   5
ATOM      5  C   UNL     1     -13.421 -16.379  28.487  1.00  0.00     0.034 C 
BRANCH   5   6
ATOM      6  C   UNL     1     -13.247 -15.035  29.200  1.00  0.00     0.032 C 
BRANCH   6   7
ATOM      7  C   UNL     1     -13.590 -15.157  30.663  1.00  0.00    -0.028 C 
ATOM      8  C   UNL     1     -14.698 -14.591  32.782  1.00  0.00     0.039 C 
ATOM      9  C   UNL     1     -14.490 -14.380  31.304  1.00  0.00    -0.080 C 
ATOM     10  C   UNL     1     -15.298 -13.327  30.582  1.00  0.00     0.039 C 
ENDBRANCH   6   7
ENDBRANCH   5   6
ENDBRANCH   3   5
ENDBRANCH   1   2
BRANCH   1  11
ATOM     11  C   UNL     1     -10.148 -16.340  28.133  1.00  0.00     0.034 C 
BRANCH  11  12
ATOM     12  C   UNL     1     -10.233 -16.774  29.581  1.00  0.00    -0.077 C 
ATOM     13  C   UNL     1     -10.604 -18.043  29.866  1.00  0.00    -0.028 C 
ATOM     14  C   UNL     1      -9.932 -15.767  30.666  1.00  0.00     0.039 C 
BRANCH  13  15
ATOM     15  C   UNL     1     -10.698 -18.612  31.259  1.00  0.00     0.035 C 
BRANCH  15  16
ATOM     16  C   UNL     1     -11.745 -19.729  31.321  1.00  0.00     0.079 C 
BRANCH  16  17
ATOM     17  C   UNL     1     -13.083 -19.233  30.842  1.00  0.00     0.130 C 
ATOM     18  O   UNL     1     -13.715 -18.447  31.530  1.00  0.00    -0.300 OA
ATOM     19  C   UNL     1     -13.665 -19.691  29.537  1.00  0.00     0.087 C 
ENDBRANCH  16  17
ENDBRANCH  15  16
ENDBRANCH  13  15
ENDBRANCH  11  12
ENDBRANCH   1  11
TORSDOF 9
ENDMDL
MODEL 7
REMARK VINA RESULT:    -5.121      3.453      6.219
REMARK INTER + INTRA:          -9.317
REMARK INTER:                  -7.471
REMARK INTRA:                  -1.846
REMARK UNBOUND:                -1.501
REMARK SMILES CC(=O)CCC=C(C)CCC=C(C)CCC=C(C)C
REMARK SMILES IDX 10 1 11 2 12 3 13 4 14 5 15 6 16 7 18 8 17 9 19 10 9 11 7 12
REMARK SMILES IDX 6 13 8 14 5 15 4 16 2 17 3 18 1 19
REMARK H PARENT
REMARK Flexibility Score: inf
ROOT
ATOM      1  C   UNL     1     -10.367 -16.250  27.612  1.00  0.00     0.032 C 
ENDROOT
BRANCH   1   2
ATOM      2  C   UNL     1     -10.010 -17.138  28.777  1.00  0.00    -0.028 C 
ATOM      3  C   UNL     1     -10.300 -16.866  30.071  1.00  0.00    -0.077 C 
ATOM      4  C   UNL     1      -9.881 -17.860  31.122  1.00  0.00     0.039 C 
BRANCH   3   5
ATOM      5  C   UNL     1     -10.961 -15.576  30.515  1.00  0.00     0.034 C 
BRANCH   5   6
ATOM      6  C   UNL     1     -12.467 -15.780  30.707  1.00  0.00     0.032 C 
BRANCH   6   7
ATOM      7  C   UNL     1     -13.251 -14.774  29.901  1.00  0.00    -0.028 C 
ATOM      8  C   UNL     1     -15.057 -13.183  29.410  1.00  0.00     0.039 C 
ATOM      9  C   UNL     1     -14.352 -14.131  30.346  1.00  0.00    -0.080 C 
ATOM     10  C   UNL     1     -14.881 -14.322  31.748  1.00  0.00     0.039 C 
ENDBRANCH   6   7
ENDBRANCH   5   6
ENDBRANCH   3   5
ENDBRANCH   1   2
BRANCH   1  11
ATOM     11  C   UNL     1     -11.241 -17.001  26.601  1.00  0.00     0.034 C 
BRANCH  11  12
ATOM     12  C   UNL     1     -12.616 -17.265  27.174  1.00  0.00    -0.077 C 
ATOM     13  C   UNL     1     -12.793 -18.328  27.991  1.00  0.00    -0.028 C 
ATOM     14  C   UNL     1     -13.757 -16.353  26.791  1.00  0.00     0.039 C 
BRANCH  13  15
ATOM     15  C   UNL     1     -14.100 -18.688  28.653  1.00  0.00     0.035 C 
BRANCH  15  16
ATOM     16  C   UNL     1     -13.966 -19.986  29.455  1.00  0.00     0.079 C 
BRANCH  16  17
ATOM     17  C   UNL     1     -13.249 -19.738  30.755  1.00  0.00     0.130 C 
ATOM     18  O   UNL     1     -12.352 -20.491  31.101  1.00  0.00    -0.300 OA
ATOM     19  C   UNL     1     -13.618 -18.587  31.644  1.00  0.00     0.087 C 
ENDBRANCH  16  17
ENDBRANCH  15  16
ENDBRANCH  13  15
ENDBRANCH  11  12
ENDBRANCH   1  11
TORSDOF 9
ENDMDL
MODEL 8
REMARK VINA RESULT:    -5.008      3.285      5.006
REMARK INTER + INTRA:          -9.144
REMARK INTER:                  -6.825
REMARK INTRA:                  -2.319
REMARK UNBOUND:                -1.501
REMARK SMILES CC(=O)CCC=C(C)CCC=C(C)CCC=C(C)C
REMARK SMILES IDX 10 1 11 2 12 3 13 4 14 5 15 6 16 7 18 8 17 9 19 10 9 11 7 12
REMARK SMILES IDX 6 13 8 14 5 15 4 16 2 17 3 18 1 19
REMARK H PARENT
REMARK Flexibility Score: inf
ROOT
ATOM      1  C   UNL     1     -10.703 -16.273  27.919  1.00  0.00     0.032 C 
ENDROOT
BRANCH   1   2
ATOM      2  C   UNL     1     -10.113 -17.094  29.038  1.00  0.00    -0.028 C 
ATOM      3  C   UNL     1     -10.595 -17.132  30.303  1.00  0.00    -0.077 C 
ATOM      4  C   UNL     1      -9.896 -18.010  31.308  1.00  0.00     0.039 C 
BRANCH   3   5
ATOM      5  C   UNL     1     -11.758 -16.280  30.769  1.00  0.00     0.034 C 
BRANCH   5   6
ATOM      6  C   UNL     1     -12.926 -17.161  31.221  1.00  0.00     0.032 C 
BRANCH   6   7
ATOM      7  C   UNL     1     -13.462 -17.973  30.068  1.00  0.00    -0.028 C 
ATOM      8  C   UNL     1     -13.920 -19.990  28.742  1.00  0.00     0.039 C 
ATOM      9  C   UNL     1     -13.376 -19.318  29.977  1.00  0.00    -0.080 C 
ATOM     10  C   UNL     1     -12.773 -20.160  31.077  1.00  0.00     0.039 C 
ENDBRANCH   6   7
ENDBRANCH   5   6
ENDBRANCH   3   5
ENDBRANCH   1   2
BRANCH   1  11
ATOM     11  C   UNL     1     -11.775 -17.068  27.165  1.00  0.00     0.034 C 
BRANCH  11  12
ATOM     12  C   UNL     1     -13.053 -16.267  27.051  1.00  0.00    -0.077 C 
ATOM     13  C   UNL     1     -13.247 -15.216  27.880  1.00  0.00    -0.028 C 
ATOM     14  C   UNL     1     -14.091 -16.684  26.036  1.00  0.00     0.039 C 
BRANCH  13  15
ATOM     15  C   UNL     1     -14.458 -14.317  27.852  1.00  0.00     0.035 C 
BRANCH  15  16
ATOM     16  C   UNL     1     -14.342 -13.213  28.907  1.00  0.00     0.079 C 
BRANCH  16  17
ATOM     17  C   UNL     1     -15.316 -13.444  30.031  1.00  0.00     0.130 C 
ATOM     18  O   UNL     1     -16.486 -13.126  29.888  1.00  0.00    -0.300 OA
ATOM     19  C   UNL     1     -14.878 -14.051  31.332  1.00  0.00     0.087 C 
ENDBRANCH  16  17
ENDBRANCH  15  16
ENDBRANCH  13  15
ENDBRANCH  11  12
ENDBRANCH   1  11
TORSDOF 9
ENDMDL
MODEL 9
REMARK VINA RESULT:    -4.945      3.173      5.416
REMARK INTER + INTRA:          -9.047
REMARK INTER:                  -8.423
REMARK INTRA:                  -0.624
REMARK UNBOUND:                -1.501
REMARK SMILES CC(=O)CCC=C(C)CCC=C(C)CCC=C(C)C
REMARK SMILES IDX 10 1 11 2 12 3 13 4 14 5 15 6 16 7 18 8 17 9 19 10 9 11 7 12
REMARK SMILES IDX 6 13 8 14 5 15 4 16 2 17 3 18 1 19
REMARK H PARENT
REMARK Flexibility Score: inf
ROOT
ATOM      1  C   UNL     1     -13.651 -17.996  28.830  1.00  0.00     0.032 C 
ENDROOT
BRANCH   1   2
ATOM      2  C   UNL     1     -12.650 -17.656  27.755  1.00  0.00    -0.028 C 
ATOM      3  C   UNL     1     -12.807 -16.672  26.840  1.00  0.00    -0.077 C 
ATOM      4  C   UNL     1     -11.710 -16.451  25.831  1.00  0.00     0.039 C 
BRANCH   3   5
ATOM      5  C   UNL     1     -14.064 -15.831  26.739  1.00  0.00     0.034 C 
BRANCH   5   6
ATOM      6  C   UNL     1     -13.857 -14.468  27.408  1.00  0.00     0.032 C 
BRANCH   6   7
ATOM      7  C   UNL     1     -13.969 -14.586  28.907  1.00  0.00    -0.028 C 
ATOM      8  C   UNL     1     -14.686 -13.976  31.177  1.00  0.00     0.039 C 
ATOM      9  C   UNL     1     -14.704 -13.762  29.685  1.00  0.00    -0.080 C 
ATOM     10  C   UNL     1     -15.550 -12.653  29.103  1.00  0.00     0.039 C 
ENDBRANCH   6   7
ENDBRANCH   5   6
ENDBRANCH   3   5
ENDBRANCH   1   2
BRANCH   1  11
ATOM     11  C   UNL     1     -13.360 -19.377  29.429  1.00  0.00     0.034 C 
BRANCH  11  12
ATOM     12  C   UNL     1     -12.259 -19.291  30.463  1.00  0.00    -0.077 C 
ATOM     13  C   UNL     1     -11.095 -18.686  30.135  1.00  0.00    -0.028 C 
ATOM     14  C   UNL     1     -12.481 -19.911  31.823  1.00  0.00     0.039 C 
BRANCH  13  15
ATOM     15  C   UNL     1      -9.931 -18.504  31.077  1.00  0.00     0.035 C 
BRANCH  15  16
ATOM     16  C   UNL     1      -9.875 -17.067  31.604  1.00  0.00     0.079 C 
BRANCH  16  17
ATOM     17  C   UNL     1     -10.669 -16.144  30.719  1.00  0.00     0.130 C 
ATOM     18  O   UNL     1     -11.731 -15.692  31.120  1.00  0.00    -0.300 OA
ATOM     19  C   UNL     1     -10.190 -15.772  29.347  1.00  0.00     0.087 C 
ENDBRANCH  16  17
ENDBRANCH  15  16
ENDBRANCH  13  15
ENDBRANCH  11  12
ENDBRANCH   1  11
TORSDOF 9
ENDMDL
