MODEL 1
REMARK VINA RESULT:    -2.049      0.000      0.000
REMARK INTER + INTRA:          -2.049
REMARK INTER:                  -2.049
REMARK INTRA:                   0.000
REMARK UNBOUND:                 0.000
REMARK SMILES CC(=O)[O-]
REMARK SMILES IDX 1 1 2 2 3 3 4 4
REMARK H PARENT
REMARK Flexibility Score: inf
ROOT
ATOM      1  C   UNL     1      12.931  36.739   0.292  1.00  0.00     0.063 C 
ATOM      2  C   UNL     1      14.227  36.545   1.004  1.00  0.00     0.038 C 
ATOM      3  O   UNL     1      14.523  37.275   1.986  1.00  0.00    -0.550 OA
ATOM      4  O   UNL     1      15.133  35.595   0.551  1.00  0.00    -0.550 OA
ENDROOT
TORSDOF 0
ENDMDL
MODEL 2
REMARK VINA RESULT:    -2.047      2.725      3.390
REMARK INTER + INTRA:          -2.047
REMARK INTER:                  -2.047
REMARK INTRA:                   0.000
REMARK UNBOUND:                 0.000
REMARK SMILES CC(=O)[O-]
REMARK SMILES IDX 1 1 2 2 3 3 4 4
REMARK H PARENT
REMARK Flexibility Score: inf
ROOT
ATOM      1  C   UNL     1      15.669  33.837  -1.311  1.00  0.00     0.063 C 
ATOM      2  C   UNL     1      16.070  34.485  -0.029  1.00  0.00     0.038 C 
ATOM      3  O   UNL     1      17.068  34.057   0.609  1.00  0.00    -0.550 OA
ATOM      4  O   UNL     1      15.313  35.526   0.491  1.00  0.00    -0.550 OA
ENDROOT
TORSDOF 0
ENDMDL
MODEL 3
REMARK VINA RESULT:    -2.028     13.043     13.560
REMARK INTER + INTRA:          -2.028
REMARK INTER:                  -2.028
REMARK INTRA:                   0.000
REMARK UNBOUND:                 0.000
REMARK SMILES CC(=O)[O-]
REMARK SMILES IDX 1 1 2 2 3 3 4 4
REMARK H PARENT
REMARK Flexibility Score: inf
ROOT
ATOM      1  C   UNL     1      13.507  33.482  13.991  1.00  0.00     0.063 C 
ATOM      2  C   UNL     1      14.761  34.268  14.181  1.00  0.00     0.038 C 
ATOM      3  O   UNL     1      15.595  34.361  13.244  1.00  0.00    -0.550 OA
ATOM      4  O   UNL     1      15.035  34.853  15.411  1.00  0.00    -0.550 OA
ENDROOT
TORSDOF 0
ENDMDL
MODEL 4
REMARK VINA RESULT:    -1.976      2.017      2.119
REMARK INTER + INTRA:          -1.976
REMARK INTER:                  -1.976
REMARK INTRA:                   0.000
REMARK UNBOUND:                 0.000
REMARK SMILES CC(=O)[O-]
REMARK SMILES IDX 1 1 2 2 3 3 4 4
REMARK H PARENT
REMARK Flexibility Score: inf
ROOT
ATOM      1  C   UNL     1      13.268  38.524   0.885  1.00  0.00     0.063 C 
ATOM      2  C   UNL     1      13.127  37.091   0.498  1.00  0.00     0.038 C 
ATOM      3  O   UNL     1      12.177  36.728  -0.244  1.00  0.00    -0.550 OA
ATOM      4  O   UNL     1      14.012  36.145   0.998  1.00  0.00    -0.550 OA
ENDROOT
TORSDOF 0
ENDMDL
MODEL 5
REMARK VINA RESULT:    -1.958      2.115      2.282
REMARK INTER + INTRA:          -1.958
REMARK INTER:                  -1.958
REMARK INTRA:                   0.000
REMARK UNBOUND:                 0.000
REMARK SMILES CC(=O)[O-]
REMARK SMILES IDX 1 1 2 2 3 3 4 4
REMARK H PARENT
REMARK Flexibility Score: inf
ROOT
ATOM      1  C   UNL     1      13.305  38.465   0.883  1.00  0.00     0.063 C 
ATOM      2  C   UNL     1      13.049  37.061   0.450  1.00  0.00     0.038 C 
ATOM      3  O   UNL     1      13.833  36.140   0.799  1.00  0.00    -0.550 OA
ATOM      4  O   UNL     1      11.975  36.774  -0.383  1.00  0.00    -0.550 OA
ENDROOT
TORSDOF 0
ENDMDL
MODEL 6
REMARK VINA RESULT:    -1.952      2.540      2.928
REMARK INTER + INTRA:          -1.952
REMARK INTER:                  -1.952
REMARK INTRA:                   0.000
REMARK UNBOUND:                 0.000
REMARK SMILES CC(=O)[O-]
REMARK SMILES IDX 1 1 2 2 3 3 4 4
REMARK H PARENT
REMARK Flexibility Score: inf
ROOT
ATOM      1  C   UNL     1      14.894  35.959   0.498  1.00  0.00     0.063 C 
ATOM      2  C   UNL     1      15.598  34.776  -0.074  1.00  0.00     0.038 C 
ATOM      3  O   UNL     1      15.132  34.194  -1.088  1.00  0.00    -0.550 OA
ATOM      4  O   UNL     1      16.739  34.280   0.544  1.00  0.00    -0.550 OA
ENDROOT
TORSDOF 0
ENDMDL
MODEL 7
REMARK VINA RESULT:    -1.948      1.378      2.020
REMARK INTER + INTRA:          -1.948
REMARK INTER:                  -1.948
REMARK INTRA:                   0.000
REMARK UNBOUND:                 0.000
REMARK SMILES CC(=O)[O-]
REMARK SMILES IDX 1 1 2 2 3 3 4 4
REMARK H PARENT
REMARK Flexibility Score: inf
ROOT
ATOM      1  C   UNL     1      15.180  35.576   0.295  1.00  0.00     0.063 C 
ATOM      2  C   UNL     1      14.212  36.433   1.038  1.00  0.00     0.038 C 
ATOM      3  O   UNL     1      13.006  36.478   0.681  1.00  0.00    -0.550 OA
ATOM      4  O   UNL     1      14.650  37.225   2.091  1.00  0.00    -0.550 OA
ENDROOT
TORSDOF 0
ENDMDL
MODEL 8
REMARK VINA RESULT:    -1.907     13.066     13.567
REMARK INTER + INTRA:          -1.907
REMARK INTER:                  -1.907
REMARK INTRA:                   0.000
REMARK UNBOUND:                 0.000
REMARK SMILES CC(=O)[O-]
REMARK SMILES IDX 1 1 2 2 3 3 4 4
REMARK H PARENT
REMARK Flexibility Score: inf
ROOT
ATOM      1  C   UNL     1      15.946  34.723  13.267  1.00  0.00     0.063 C 
ATOM      2  C   UNL     1      14.898  34.464  14.295  1.00  0.00     0.038 C 
ATOM      3  O   UNL     1      15.050  34.885  15.471  1.00  0.00    -0.550 OA
ATOM      4  O   UNL     1      13.776  33.712  13.970  1.00  0.00    -0.550 OA
ENDROOT
TORSDOF 0
ENDMDL
MODEL 9
REMARK VINA RESULT:    -1.906     13.027     13.542
REMARK INTER + INTRA:          -1.906
REMARK INTER:                  -1.906
REMARK INTRA:                   0.000
REMARK UNBOUND:                 0.000
REMARK SMILES CC(=O)[O-]
REMARK SMILES IDX 1 1 2 2 3 3 4 4
REMARK H PARENT
REMARK Flexibility Score: inf
ROOT
ATOM      1  C   UNL     1      15.311  34.853  15.428  1.00  0.00     0.063 C 
ATOM      2  C   UNL     1      14.923  34.299  14.099  1.00  0.00     0.038 C 
ATOM      3  O   UNL     1      15.697  34.421  13.114  1.00  0.00    -0.550 OA
ATOM      4  O   UNL     1      13.683  33.694  13.933  1.00  0.00    -0.550 OA
ENDROOT
TORSDOF 0
ENDMDL
