MODEL 1
REMARK VINA RESULT:    -5.159      0.000      0.000
REMARK INTER + INTRA:          -8.257
REMARK INTER:                  -7.873
REMARK INTRA:                  -0.383
REMARK UNBOUND:                -0.383
REMARK SMILES O=C([O-])CCCCCCCCC(=O)[O-]
REMARK SMILES IDX 7 1 6 2 5 3 4 4 2 5 1 6 3 7 8 8 9 9 10 10 11 11 12 12 13 13
REMARK SMILES IDX 14 14
REMARK H PARENT
REMARK Flexibility Score: inf
ROOT
ATOM      1  C   UNL     1      89.032 326.439 195.411  1.00  0.00     0.000 C 
ENDROOT
BRANCH   1   2
ATOM      2  C   UNL     1      88.113 326.059 196.583  1.00  0.00     0.000 C 
BRANCH   2   3
ATOM      3  C   UNL     1      88.605 326.620 197.928  1.00  0.00     0.006 C 
BRANCH   3   4
ATOM      4  C   UNL     1      89.013 325.509 198.904  1.00  0.00     0.053 C 
BRANCH   4   5
ATOM      5  C   UNL     1      89.218 326.037 200.291  1.00  0.00     0.041 C 
ATOM      6  O   UNL     1      88.276 326.007 201.127  1.00  0.00    -0.550 OA
ATOM      7  O   UNL     1      90.438 326.595 200.649  1.00  0.00    -0.550 OA
ENDBRANCH   4   5
ENDBRANCH   3   4
ENDBRANCH   2   3
ENDBRANCH   1   2
BRANCH   1   8
ATOM      8  C   UNL     1      88.255 326.707 194.113  1.00  0.00     0.000 C 
BRANCH   8   9
ATOM      9  C   UNL     1      86.819 326.179 194.214  1.00  0.00     0.000 C 
BRANCH   9  10
ATOM     10  C   UNL     1      86.649 324.888 193.398  1.00  0.00     0.006 C 
BRANCH  10  11
ATOM     11  C   UNL     1      87.822 324.649 192.439  1.00  0.00     0.053 C 
BRANCH  11  12
ATOM     12  C   UNL     1      87.445 323.723 191.323  1.00  0.00     0.041 C 
ATOM     13  O   UNL     1      88.320 323.307 190.520  1.00  0.00    -0.550 OA
ATOM     14  O   UNL     1      86.129 323.296 191.189  1.00  0.00    -0.550 OA
ENDBRANCH  11  12
ENDBRANCH  10  11
ENDBRANCH   9  10
ENDBRANCH   8   9
ENDBRANCH   1   8
TORSDOF 9
ENDMDL
MODEL 2
REMARK VINA RESULT:    -5.094     20.005     20.740
REMARK INTER + INTRA:          -8.158
REMARK INTER:                  -7.813
REMARK INTRA:                  -0.344
REMARK UNBOUND:                -0.383
REMARK SMILES O=C([O-])CCCCCCCCC(=O)[O-]
REMARK SMILES IDX 7 1 6 2 5 3 4 4 2 5 1 6 3 7 8 8 9 9 10 10 11 11 12 12 13 13
REMARK SMILES IDX 14 14
REMARK H PARENT
REMARK Flexibility Score: inf
ROOT
ATOM      1  C   UNL     1     103.435 311.868 194.712  1.00  0.00     0.000 C 
ENDROOT
BRANCH   1   2
ATOM      2  C   UNL     1     104.478 311.927 195.840  1.00  0.00     0.000 C 
BRANCH   2   3
ATOM      3  C   UNL     1     103.953 311.344 197.164  1.00  0.00     0.006 C 
BRANCH   3   4
ATOM      4  C   UNL     1     103.650 312.437 198.197  1.00  0.00     0.053 C 
BRANCH   4   5
ATOM      5  C   UNL     1     103.552 311.877 199.583  1.00  0.00     0.041 C 
ATOM      6  O   UNL     1     102.470 311.378 199.991  1.00  0.00    -0.550 OA
ATOM      7  O   UNL     1     104.647 311.938 200.437  1.00  0.00    -0.550 OA
ENDBRANCH   4   5
ENDBRANCH   3   4
ENDBRANCH   2   3
ENDBRANCH   1   2
BRANCH   1   8
ATOM      8  C   UNL     1     104.049 311.485 193.357  1.00  0.00     0.000 C 
BRANCH   8   9
ATOM      9  C   UNL     1     105.482 312.016 193.235  1.00  0.00     0.000 C 
BRANCH   9  10
ATOM     10  C   UNL     1     105.573 313.114 192.164  1.00  0.00     0.006 C 
BRANCH  10  11
ATOM     11  C   UNL     1     104.218 313.394 191.504  1.00  0.00     0.053 C 
BRANCH  11  12
ATOM     12  C   UNL     1     104.325 314.446 190.443  1.00  0.00     0.041 C 
ATOM     13  O   UNL     1     103.480 314.499 189.512  1.00  0.00    -0.550 OA
ATOM     14  O   UNL     1     105.343 315.391 190.502  1.00  0.00    -0.550 OA
ENDBRANCH  11  12
ENDBRANCH  10  11
ENDBRANCH   9  10
ENDBRANCH   8   9
ENDBRANCH   1   8
TORSDOF 9
ENDMDL
MODEL 3
REMARK VINA RESULT:    -5.083      1.699      2.806
REMARK INTER + INTRA:          -8.140
REMARK INTER:                  -7.889
REMARK INTRA:                  -0.251
REMARK UNBOUND:                -0.383
REMARK SMILES O=C([O-])CCCCCCCCC(=O)[O-]
REMARK SMILES IDX 7 1 6 2 5 3 4 4 2 5 1 6 3 7 8 8 9 9 10 10 11 11 12 12 13 13
REMARK SMILES IDX 14 14
REMARK H PARENT
REMARK Flexibility Score: inf
ROOT
ATOM      1  C   UNL     1      88.890 326.743 197.949  1.00  0.00     0.000 C 
ENDROOT
BRANCH   1   2
ATOM      2  C   UNL     1      88.842 325.887 199.225  1.00  0.00     0.000 C 
BRANCH   2   3
ATOM      3  C   UNL     1      89.652 326.499 200.380  1.00  0.00     0.006 C 
BRANCH   3   4
ATOM      4  C   UNL     1      88.928 326.371 201.726  1.00  0.00     0.053 C 
BRANCH   4   5
ATOM      5  C   UNL     1      89.768 326.879 202.858  1.00  0.00     0.041 C 
ATOM      6  O   UNL     1      90.975 327.182 202.666  1.00  0.00    -0.550 OA
ATOM      7  O   UNL     1      89.227 326.983 204.134  1.00  0.00    -0.550 OA
ENDBRANCH   4   5
ENDBRANCH   3   4
ENDBRANCH   2   3
ENDBRANCH   1   2
BRANCH   1   8
ATOM      8  C   UNL     1      88.064 326.143 196.802  1.00  0.00     0.000 C 
BRANCH   8   9
ATOM      9  C   UNL     1      88.878 326.100 195.503  1.00  0.00     0.000 C 
BRANCH   9  10
ATOM     10  C   UNL     1      88.006 326.471 194.294  1.00  0.00     0.006 C 
BRANCH  10  11
ATOM     11  C   UNL     1      87.973 325.358 193.239  1.00  0.00     0.053 C 
BRANCH  11  12
ATOM     12  C   UNL     1      86.660 324.636 193.238  1.00  0.00     0.041 C 
ATOM     13  O   UNL     1      85.877 324.739 194.219  1.00  0.00    -0.550 OA
ATOM     14  O   UNL     1      86.288 323.872 192.138  1.00  0.00    -0.550 OA
ENDBRANCH  11  12
ENDBRANCH  10  11
ENDBRANCH   9  10
ENDBRANCH   8   9
ENDBRANCH   1   8
TORSDOF 9
ENDMDL
MODEL 4
REMARK VINA RESULT:    -5.030     19.617     20.384
REMARK INTER + INTRA:          -8.059
REMARK INTER:                  -7.573
REMARK INTRA:                  -0.486
REMARK UNBOUND:                -0.383
REMARK SMILES O=C([O-])CCCCCCCCC(=O)[O-]
REMARK SMILES IDX 7 1 6 2 5 3 4 4 2 5 1 6 3 7 8 8 9 9 10 10 11 11 12 12 13 13
REMARK SMILES IDX 14 14
REMARK H PARENT
REMARK Flexibility Score: inf
ROOT
ATOM      1  C   UNL     1     104.029 311.480 193.224  1.00  0.00     0.000 C 
ENDROOT
BRANCH   1   2
ATOM      2  C   UNL     1     103.432 311.645 194.631  1.00  0.00     0.000 C 
BRANCH   2   3
ATOM      3  C   UNL     1     104.480 312.075 195.672  1.00  0.00     0.006 C 
BRANCH   3   4
ATOM      4  C   UNL     1     104.082 311.666 197.097  1.00  0.00     0.053 C 
BRANCH   4   5
ATOM      5  C   UNL     1     103.701 312.853 197.928  1.00  0.00     0.041 C 
ATOM      6  O   UNL     1     104.273 313.961 197.752  1.00  0.00    -0.550 OA
ATOM      7  O   UNL     1     102.738 312.726 198.921  1.00  0.00    -0.550 OA
ENDBRANCH   4   5
ENDBRANCH   3   4
ENDBRANCH   2   3
ENDBRANCH   1   2
BRANCH   1   8
ATOM      8  C   UNL     1     105.437 312.081 193.105  1.00  0.00     0.000 C 
BRANCH   8   9
ATOM      9  C   UNL     1     105.453 313.249 192.111  1.00  0.00     0.000 C 
BRANCH   9  10
ATOM     10  C   UNL     1     104.101 313.378 191.391  1.00  0.00     0.006 C 
BRANCH  10  11
ATOM     11  C   UNL     1     103.803 314.822 190.970  1.00  0.00     0.053 C 
BRANCH  11  12
ATOM     12  C   UNL     1     103.923 315.003 189.488  1.00  0.00     0.041 C 
ATOM     13  O   UNL     1     104.981 315.464 188.987  1.00  0.00    -0.550 OA
ATOM     14  O   UNL     1     102.873 314.632 188.656  1.00  0.00    -0.550 OA
ENDBRANCH  11  12
ENDBRANCH  10  11
ENDBRANCH   9  10
ENDBRANCH   8   9
ENDBRANCH   1   8
TORSDOF 9
ENDMDL
MODEL 5
REMARK VINA RESULT:    -5.017     19.873     21.649
REMARK INTER + INTRA:          -8.040
REMARK INTER:                  -7.507
REMARK INTRA:                  -0.533
REMARK UNBOUND:                -0.383
REMARK SMILES O=C([O-])CCCCCCCCC(=O)[O-]
REMARK SMILES IDX 7 1 6 2 5 3 4 4 2 5 1 6 3 7 8 8 9 9 10 10 11 11 12 12 13 13
REMARK SMILES IDX 14 14
REMARK H PARENT
REMARK Flexibility Score: inf
ROOT
ATOM      1  C   UNL     1     103.869 311.510 193.218  1.00  0.00     0.000 C 
ENDROOT
BRANCH   1   2
ATOM      2  C   UNL     1     105.340 311.899 192.999  1.00  0.00     0.000 C 
BRANCH   2   3
ATOM      3  C   UNL     1     105.494 313.238 192.256  1.00  0.00     0.006 C 
BRANCH   3   4
ATOM      4  C   UNL     1     104.259 313.575 191.410  1.00  0.00     0.053 C 
BRANCH   4   5
ATOM      5  C   UNL     1     104.600 314.491 190.274  1.00  0.00     0.041 C 
ATOM      6  O   UNL     1     103.711 314.843 189.455  1.00  0.00    -0.550 OA
ATOM      7  O   UNL     1     105.907 314.927 190.100  1.00  0.00    -0.550 OA
ENDBRANCH   4   5
ENDBRANCH   3   4
ENDBRANCH   2   3
ENDBRANCH   1   2
BRANCH   1   8
ATOM      8  C   UNL     1     103.474 311.504 194.703  1.00  0.00     0.000 C 
BRANCH   8   9
ATOM      9  C   UNL     1     103.393 312.932 195.255  1.00  0.00     0.000 C 
BRANCH   9  10
ATOM     10  C   UNL     1     104.155 313.053 196.583  1.00  0.00     0.006 C 
BRANCH  10  11
ATOM     11  C   UNL     1     103.908 311.853 197.506  1.00  0.00     0.053 C 
BRANCH  11  12
ATOM     12  C   UNL     1     103.827 312.267 198.943  1.00  0.00     0.041 C 
ATOM     13  O   UNL     1     103.491 311.435 199.826  1.00  0.00    -0.550 OA
ATOM     14  O   UNL     1     104.154 313.566 199.312  1.00  0.00    -0.550 OA
ENDBRANCH  11  12
ENDBRANCH  10  11
ENDBRANCH   9  10
ENDBRANCH   8   9
ENDBRANCH   1   8
TORSDOF 9
ENDMDL
MODEL 6
REMARK VINA RESULT:    -5.013      1.983      7.340
REMARK INTER + INTRA:          -8.034
REMARK INTER:                  -7.444
REMARK INTRA:                  -0.590
REMARK UNBOUND:                -0.383
REMARK SMILES O=C([O-])CCCCCCCCC(=O)[O-]
REMARK SMILES IDX 7 1 6 2 5 3 4 4 2 5 1 6 3 7 8 8 9 9 10 10 11 11 12 12 13 13
REMARK SMILES IDX 14 14
REMARK H PARENT
REMARK Flexibility Score: inf
ROOT
ATOM      1  C   UNL     1      88.112 324.966 193.042  1.00  0.00     0.000 C 
ENDROOT
BRANCH   1   2
ATOM      2  C   UNL     1      86.692 324.540 192.637  1.00  0.00     0.000 C 
BRANCH   2   3
ATOM      3  C   UNL     1      86.686 323.510 191.494  1.00  0.00     0.006 C 
BRANCH   3   4
ATOM      4  C   UNL     1      88.104 323.089 191.087  1.00  0.00     0.053 C 
BRANCH   4   5
ATOM      5  C   UNL     1      88.290 323.136 189.601  1.00  0.00     0.041 C 
ATOM      6  O   UNL     1      89.189 323.860 189.097  1.00  0.00    -0.550 OA
ATOM      7  O   UNL     1      87.448 322.407 188.771  1.00  0.00    -0.550 OA
ENDBRANCH   4   5
ENDBRANCH   3   4
ENDBRANCH   2   3
ENDBRANCH   1   2
BRANCH   1   8
ATOM      8  C   UNL     1      88.137 326.305 193.794  1.00  0.00     0.000 C 
BRANCH   8   9
ATOM      9  C   UNL     1      86.760 326.623 194.392  1.00  0.00     0.000 C 
BRANCH   9  10
ATOM     10  C   UNL     1      86.691 326.204 195.868  1.00  0.00     0.006 C 
BRANCH  10  11
ATOM     11  C   UNL     1      88.075 326.173 196.528  1.00  0.00     0.053 C 
BRANCH  11  12
ATOM     12  C   UNL     1      88.364 324.839 197.147  1.00  0.00     0.041 C 
ATOM     13  O   UNL     1      88.129 323.779 196.510  1.00  0.00    -0.550 OA
ATOM     14  O   UNL     1      88.923 324.769 198.417  1.00  0.00    -0.550 OA
ENDBRANCH  11  12
ENDBRANCH  10  11
ENDBRANCH   9  10
ENDBRANCH   8   9
ENDBRANCH   1   8
TORSDOF 9
ENDMDL
MODEL 7
REMARK VINA RESULT:    -4.927      2.080      3.006
REMARK INTER + INTRA:          -7.903
REMARK INTER:                  -7.294
REMARK INTRA:                  -0.610
REMARK UNBOUND:                -0.383
REMARK SMILES O=C([O-])CCCCCCCCC(=O)[O-]
REMARK SMILES IDX 7 1 6 2 5 3 4 4 2 5 1 6 3 7 8 8 9 9 10 10 11 11 12 12 13 13
REMARK SMILES IDX 14 14
REMARK H PARENT
REMARK Flexibility Score: inf
ROOT
ATOM      1  C   UNL     1      88.022 326.258 193.757  1.00  0.00     0.000 C 
ENDROOT
BRANCH   1   2
ATOM      2  C   UNL     1      86.646 326.503 194.396  1.00  0.00     0.000 C 
BRANCH   2   3
ATOM      3  C   UNL     1      86.641 326.239 195.912  1.00  0.00     0.006 C 
BRANCH   3   4
ATOM      4  C   UNL     1      88.061 326.161 196.490  1.00  0.00     0.053 C 
BRANCH   4   5
ATOM      5  C   UNL     1      88.339 324.820 197.097  1.00  0.00     0.041 C 
ATOM      6  O   UNL     1      88.852 324.736 198.244  1.00  0.00    -0.550 OA
ATOM      7  O   UNL     1      88.064 323.662 196.380  1.00  0.00    -0.550 OA
ENDBRANCH   4   5
ENDBRANCH   3   4
ENDBRANCH   2   3
ENDBRANCH   1   2
BRANCH   1   8
ATOM      8  C   UNL     1      88.087 324.933 192.982  1.00  0.00     0.000 C 
BRANCH   8   9
ATOM      9  C   UNL     1      86.681 324.376 192.730  1.00  0.00     0.000 C 
BRANCH   9  10
ATOM     10  C   UNL     1      86.667 323.446 191.508  1.00  0.00     0.006 C 
BRANCH  10  11
ATOM     11  C   UNL     1      87.977 323.513 190.713  1.00  0.00     0.053 C 
BRANCH  11  12
ATOM     12  C   UNL     1      87.980 322.548 189.567  1.00  0.00     0.041 C 
ATOM     13  O   UNL     1      86.924 322.328 188.919  1.00  0.00    -0.550 OA
ATOM     14  O   UNL     1      89.160 321.915 189.195  1.00  0.00    -0.550 OA
ENDBRANCH  11  12
ENDBRANCH  10  11
ENDBRANCH   9  10
ENDBRANCH   8   9
ENDBRANCH   1   8
TORSDOF 9
ENDMDL
MODEL 8
REMARK VINA RESULT:    -4.914     20.162     21.487
REMARK INTER + INTRA:          -7.884
REMARK INTER:                  -7.382
REMARK INTRA:                  -0.501
REMARK UNBOUND:                -0.383
REMARK SMILES O=C([O-])CCCCCCCCC(=O)[O-]
REMARK SMILES IDX 7 1 6 2 5 3 4 4 2 5 1 6 3 7 8 8 9 9 10 10 11 11 12 12 13 13
REMARK SMILES IDX 14 14
REMARK H PARENT
REMARK Flexibility Score: inf
ROOT
ATOM      1  C   UNL     1     105.598 312.988 192.202  1.00  0.00     0.000 C 
ENDROOT
BRANCH   1   2
ATOM      2  C   UNL     1     104.227 313.408 191.647  1.00  0.00     0.000 C 
BRANCH   2   3
ATOM      3  C   UNL     1     104.338 314.450 190.520  1.00  0.00     0.006 C 
BRANCH   3   4
ATOM      4  C   UNL     1     105.781 314.932 190.319  1.00  0.00     0.053 C 
BRANCH   4   5
ATOM      5  C   UNL     1     105.969 316.337 190.803  1.00  0.00     0.041 C 
ATOM      6  O   UNL     1     105.954 316.590 192.037  1.00  0.00    -0.550 OA
ATOM      7  O   UNL     1     106.124 317.373 189.890  1.00  0.00    -0.550 OA
ENDBRANCH   4   5
ENDBRANCH   3   4
ENDBRANCH   2   3
ENDBRANCH   1   2
BRANCH   1   8
ATOM      8  C   UNL     1     105.484 312.110 193.457  1.00  0.00     0.000 C 
BRANCH   8   9
ATOM      9  C   UNL     1     104.071 311.529 193.594  1.00  0.00     0.000 C 
BRANCH   9  10
ATOM     10  C   UNL     1     103.445 311.914 194.943  1.00  0.00     0.006 C 
BRANCH  10  11
ATOM     11  C   UNL     1     104.448 311.811 196.099  1.00  0.00     0.053 C 
BRANCH  11  12
ATOM     12  C   UNL     1     103.865 312.312 197.384  1.00  0.00     0.041 C 
ATOM     13  O   UNL     1     103.520 311.502 198.284  1.00  0.00    -0.550 OA
ATOM     14  O   UNL     1     103.733 313.678 197.602  1.00  0.00    -0.550 OA
ENDBRANCH  11  12
ENDBRANCH  10  11
ENDBRANCH   9  10
ENDBRANCH   8   9
ENDBRANCH   1   8
TORSDOF 9
ENDMDL
