MODEL 1
REMARK VINA RESULT:    -6.907      0.000      0.000
REMARK INTER + INTRA:          -8.381
REMARK INTER:                  -8.118
REMARK INTRA:                  -0.262
REMARK UNBOUND:                -0.262
REMARK SMILES O=c1cc(-c2ccc(O)c(O)c2)oc2cc(O)cc(O)c12
REMARK SMILES IDX 4 1 3 2 2 3 1 4 21 5 19 6 18 7 16 8 15 9 14 10 13 11 5 12
REMARK SMILES IDX 6 13 7 14 8 15 12 16 10 17 9 18 11 20 20 22 17 24
REMARK H PARENT 9 19 11 21 20 23 17 25
REMARK Flexibility Score: inf
ROOT
ATOM      1  C   UNL     1     126.432 132.774 130.692  1.00  0.00     0.138 A 
ATOM      2  C   UNL     1     125.164 132.927 131.271  1.00  0.00     0.100 A 
ATOM      3  C   UNL     1     124.247 133.812 130.702  1.00  0.00     0.197 A 
ATOM      4  O   UNL     1     123.098 133.881 131.208  1.00  0.00    -0.289 OA
ATOM      5  C   UNL     1     124.614 134.569 129.565  1.00  0.00     0.107 A 
ATOM      6  C   UNL     1     123.776 135.529 128.923  1.00  0.00     0.134 A 
ATOM      7  C   UNL     1     124.203 136.134 127.735  1.00  0.00     0.093 A 
ATOM      8  C   UNL     1     125.459 135.858 127.197  1.00  0.00     0.123 A 
ATOM      9  C   UNL     1     126.310 134.960 127.844  1.00  0.00     0.094 A 
ATOM     10  C   UNL     1     125.899 134.315 129.013  1.00  0.00     0.146 A 
ATOM     11  O   UNL     1     126.731 133.456 129.592  1.00  0.00    -0.456 OA
ENDROOT
BRANCH   1  12
ATOM     12  C   UNL     1     127.446 131.848 131.257  1.00  0.00     0.021 A 
ATOM     13  C   UNL     1     128.505 132.313 132.060  1.00  0.00     0.016 A 
ATOM     14  C   UNL     1     129.452 131.420 132.571  1.00  0.00     0.051 A 
ATOM     15  C   UNL     1     129.361 130.052 132.285  1.00  0.00     0.157 A 
ATOM     16  C   UNL     1     127.370 130.475 130.964  1.00  0.00     0.062 A 
ATOM     17  C   UNL     1     128.315 129.578 131.476  1.00  0.00     0.158 A 
BRANCH  15  18
ATOM     18  O   UNL     1     130.306 129.165 132.798  1.00  0.00    -0.504 OA
ATOM     19  H   UNL     1     130.518 129.129 133.788  1.00  0.00     0.293 HD
ENDBRANCH  15  18
BRANCH  17  20
ATOM     20  O   UNL     1     128.200 128.224 131.169  1.00  0.00    -0.504 OA
ATOM     21  H   UNL     1     128.312 127.873 130.225  1.00  0.00     0.293 HD
ENDBRANCH  17  20
ENDBRANCH   1  12
BRANCH   6  22
ATOM     22  O   UNL     1     122.537 135.941 129.422  1.00  0.00    -0.507 OA
ATOM     23  H   UNL     1     122.118 135.607 130.276  1.00  0.00     0.293 HD
ENDBRANCH   6  22
BRANCH   8  24
ATOM     24  O   UNL     1     125.858 136.490 126.020  1.00  0.00    -0.508 OA
ATOM     25  H   UNL     1     125.188 136.757 125.309  1.00  0.00     0.293 HD
ENDBRANCH   8  24
TORSDOF 5
ENDMDL
MODEL 2
REMARK VINA RESULT:    -6.839      1.669      3.077
REMARK INTER + INTRA:          -8.301
REMARK INTER:                  -7.988
REMARK INTRA:                  -0.313
REMARK UNBOUND:                -0.262
REMARK SMILES O=c1cc(-c2ccc(O)c(O)c2)oc2cc(O)cc(O)c12
REMARK SMILES IDX 4 1 3 2 2 3 1 4 21 5 19 6 18 7 16 8 15 9 14 10 13 11 5 12
REMARK SMILES IDX 6 13 7 14 8 15 12 16 10 17 9 18 11 20 20 22 17 24
REMARK H PARENT 9 19 11 21 20 23 17 25
REMARK Flexibility Score: inf
ROOT
ATOM      1  C   UNL     1     127.608 132.567 129.040  1.00  0.00     0.138 A 
ATOM      2  C   UNL     1     128.006 133.462 128.036  1.00  0.00     0.100 A 
ATOM      3  C   UNL     1     127.153 134.501 127.661  1.00  0.00     0.197 A 
ATOM      4  O   UNL     1     127.563 135.323 126.802  1.00  0.00    -0.289 OA
ATOM      5  C   UNL     1     125.884 134.625 128.273  1.00  0.00     0.107 A 
ATOM      6  C   UNL     1     124.916 135.620 127.942  1.00  0.00     0.134 A 
ATOM      7  C   UNL     1     123.740 135.716 128.696  1.00  0.00     0.093 A 
ATOM      8  C   UNL     1     123.469 134.819 129.728  1.00  0.00     0.123 A 
ATOM      9  C   UNL     1     124.384 133.808 130.025  1.00  0.00     0.094 A 
ATOM     10  C   UNL     1     125.582 133.706 129.314  1.00  0.00     0.146 A 
ATOM     11  O   UNL     1     126.433 132.739 129.637  1.00  0.00    -0.456 OA
ENDROOT
BRANCH   1  12
ATOM     12  C   UNL     1     128.475 131.443 129.477  1.00  0.00     0.021 A 
ATOM     13  C   UNL     1     129.856 131.425 129.203  1.00  0.00     0.016 A 
ATOM     14  C   UNL     1     130.646 130.348 129.617  1.00  0.00     0.051 A 
ATOM     15  C   UNL     1     130.071 129.272 130.305  1.00  0.00     0.157 A 
ATOM     16  C   UNL     1     127.904 130.352 130.156  1.00  0.00     0.062 A 
ATOM     17  C   UNL     1     128.692 129.274 130.573  1.00  0.00     0.158 A 
BRANCH  15  18
ATOM     18  O   UNL     1     130.863 128.201 130.718  1.00  0.00    -0.504 OA
ATOM     19  H   UNL     1     131.315 128.195 131.624  1.00  0.00     0.293 HD
ENDBRANCH  15  18
BRANCH  17  20
ATOM     20  O   UNL     1     128.090 128.216 131.252  1.00  0.00    -0.504 OA
ATOM     21  H   UNL     1     127.981 128.214 132.259  1.00  0.00     0.293 HD
ENDBRANCH  17  20
ENDBRANCH   1  12
BRANCH   6  22
ATOM     22  O   UNL     1     125.048 136.514 126.876  1.00  0.00    -0.507 OA
ATOM     23  H   UNL     1     125.812 136.519 126.218  1.00  0.00     0.293 HD
ENDBRANCH   6  22
BRANCH   8  24
ATOM     24  O   UNL     1     122.281 134.935 130.447  1.00  0.00    -0.508 OA
ATOM     25  H   UNL     1     122.134 134.431 131.313  1.00  0.00     0.293 HD
ENDBRANCH   8  24
TORSDOF 5
ENDMDL
MODEL 3
REMARK VINA RESULT:    -6.815      4.820      9.803
REMARK INTER + INTRA:          -8.272
REMARK INTER:                  -8.010
REMARK INTRA:                  -0.263
REMARK UNBOUND:                -0.262
REMARK SMILES O=c1cc(-c2ccc(O)c(O)c2)oc2cc(O)cc(O)c12
REMARK SMILES IDX 4 1 3 2 2 3 1 4 21 5 19 6 18 7 16 8 15 9 14 10 13 11 5 12
REMARK SMILES IDX 6 13 7 14 8 15 12 16 10 17 9 18 11 20 20 22 17 24
REMARK H PARENT 9 19 11 21 20 23 17 25
REMARK Flexibility Score: inf
ROOT
ATOM      1  C   UNL     1     131.541 129.324 131.042  1.00  0.00     0.138 A 
ATOM      2  C   UNL     1     131.037 128.431 130.086  1.00  0.00     0.100 A 
ATOM      3  C   UNL     1     131.738 127.260 129.798  1.00  0.00     0.197 A 
ATOM      4  O   UNL     1     131.229 126.449 128.982  1.00  0.00    -0.289 OA
ATOM      5  C   UNL     1     132.967 126.998 130.449  1.00  0.00     0.107 A 
ATOM      6  C   UNL     1     133.788 125.856 130.206  1.00  0.00     0.134 A 
ATOM      7  C   UNL     1     134.925 125.644 130.995  1.00  0.00     0.093 A 
ATOM      8  C   UNL     1     135.304 126.559 131.975  1.00  0.00     0.123 A 
ATOM      9  C   UNL     1     134.538 127.707 132.185  1.00  0.00     0.094 A 
ATOM     10  C   UNL     1     133.379 127.930 131.438  1.00  0.00     0.146 A 
ATOM     11  O   UNL     1     132.669 129.028 131.678  1.00  0.00    -0.456 OA
ENDROOT
BRANCH   1  12
ATOM     12  C   UNL     1     130.837 130.585 131.385  1.00  0.00     0.021 A 
ATOM     13  C   UNL     1     129.884 130.642 132.420  1.00  0.00     0.016 A 
ATOM     14  C   UNL     1     129.228 131.841 132.715  1.00  0.00     0.051 A 
ATOM     15  C   UNL     1     129.508 133.000 131.979  1.00  0.00     0.157 A 
ATOM     16  C   UNL     1     131.101 131.751 130.643  1.00  0.00     0.062 A 
ATOM     17  C   UNL     1     130.448 132.953 130.937  1.00  0.00     0.158 A 
BRANCH  15  18
ATOM     18  O   UNL     1     128.853 134.194 132.278  1.00  0.00    -0.504 OA
ATOM     19  H   UNL     1     127.919 134.203 132.672  1.00  0.00     0.293 HD
ENDBRANCH  15  18
BRANCH  17  20
ATOM     20  O   UNL     1     130.744 134.087 130.184  1.00  0.00    -0.504 OA
ATOM     21  H   UNL     1     130.095 134.859 130.094  1.00  0.00     0.293 HD
ENDBRANCH  17  20
ENDBRANCH   1  12
BRANCH   6  22
ATOM     22  O   UNL     1     133.547 124.922 129.194  1.00  0.00    -0.507 OA
ATOM     23  H   UNL     1     133.183 123.994 129.341  1.00  0.00     0.293 HD
ENDBRANCH   6  22
BRANCH   8  24
ATOM     24  O   UNL     1     136.451 126.323 132.730  1.00  0.00    -0.508 OA
ATOM     25  H   UNL     1     137.320 126.808 132.540  1.00  0.00     0.293 HD
ENDBRANCH   8  24
TORSDOF 5
ENDMDL
MODEL 4
REMARK VINA RESULT:    -6.710      1.552      1.675
REMARK INTER + INTRA:          -8.148
REMARK INTER:                  -7.876
REMARK INTRA:                  -0.273
REMARK UNBOUND:                -0.262
REMARK SMILES O=c1cc(-c2ccc(O)c(O)c2)oc2cc(O)cc(O)c12
REMARK SMILES IDX 4 1 3 2 2 3 1 4 21 5 19 6 18 7 16 8 15 9 14 10 13 11 5 12
REMARK SMILES IDX 6 13 7 14 8 15 12 16 10 17 9 18 11 20 20 22 17 24
REMARK H PARENT 9 19 11 21 20 23 17 25
REMARK Flexibility Score: inf
ROOT
ATOM      1  C   UNL     1     127.159 132.593 129.455  1.00  0.00     0.138 A 
ATOM      2  C   UNL     1     126.348 133.106 130.478  1.00  0.00     0.100 A 
ATOM      3  C   UNL     1     125.461 134.146 130.199  1.00  0.00     0.197 A 
ATOM      4  O   UNL     1     124.703 134.542 131.122  1.00  0.00    -0.289 OA
ATOM      5  C   UNL     1     125.409 134.696 128.897  1.00  0.00     0.107 A 
ATOM      6  C   UNL     1     124.572 135.784 128.508  1.00  0.00     0.134 A 
ATOM      7  C   UNL     1     124.520 136.168 127.162  1.00  0.00     0.093 A 
ATOM      8  C   UNL     1     125.316 135.544 126.203  1.00  0.00     0.123 A 
ATOM      9  C   UNL     1     126.178 134.513 126.581  1.00  0.00     0.094 A 
ATOM     10  C   UNL     1     126.228 134.085 127.910  1.00  0.00     0.146 A 
ATOM     11  O   UNL     1     127.051 133.091 128.227  1.00  0.00    -0.456 OA
ENDROOT
BRANCH   1  12
ATOM     12  C   UNL     1     128.121 131.489 129.696  1.00  0.00     0.021 A 
ATOM     13  C   UNL     1     129.451 131.553 129.237  1.00  0.00     0.016 A 
ATOM     14  C   UNL     1     130.333 130.494 129.469  1.00  0.00     0.051 A 
ATOM     15  C   UNL     1     129.902 129.352 130.157  1.00  0.00     0.157 A 
ATOM     16  C   UNL     1     127.694 130.333 130.374  1.00  0.00     0.062 A 
ATOM     17  C   UNL     1     128.575 129.272 130.609  1.00  0.00     0.158 A 
BRANCH  15  18
ATOM     18  O   UNL     1     130.785 128.298 130.388  1.00  0.00    -0.504 OA
ATOM     19  H   UNL     1     131.034 127.645 129.655  1.00  0.00     0.293 HD
ENDBRANCH  15  18
BRANCH  17  20
ATOM     20  O   UNL     1     128.115 128.147 131.293  1.00  0.00    -0.504 OA
ATOM     21  H   UNL     1     127.341 128.193 131.945  1.00  0.00     0.293 HD
ENDBRANCH  17  20
ENDBRANCH   1  12
BRANCH   6  22
ATOM     22  O   UNL     1     123.798 136.533 129.400  1.00  0.00    -0.507 OA
ATOM     23  H   UNL     1     122.794 136.611 129.367  1.00  0.00     0.293 HD
ENDBRANCH   6  22
BRANCH   8  24
ATOM     24  O   UNL     1     125.249 135.962 124.875  1.00  0.00    -0.508 OA
ATOM     25  H   UNL     1     124.400 136.351 124.484  1.00  0.00     0.293 HD
ENDBRANCH   8  24
TORSDOF 5
ENDMDL
MODEL 5
REMARK VINA RESULT:    -6.704      4.574      7.376
REMARK INTER + INTRA:          -8.141
REMARK INTER:                  -7.858
REMARK INTRA:                  -0.283
REMARK UNBOUND:                -0.262
REMARK SMILES O=c1cc(-c2ccc(O)c(O)c2)oc2cc(O)cc(O)c12
REMARK SMILES IDX 4 1 3 2 2 3 1 4 21 5 19 6 18 7 16 8 15 9 14 10 13 11 5 12
REMARK SMILES IDX 6 13 7 14 8 15 12 16 10 17 9 18 11 20 20 22 17 24
REMARK H PARENT 9 19 11 21 20 23 17 25
REMARK Flexibility Score: inf
ROOT
ATOM      1  C   UNL     1     132.142 128.406 130.872  1.00  0.00     0.138 A 
ATOM      2  C   UNL     1     130.828 127.915 130.896  1.00  0.00     0.100 A 
ATOM      3  C   UNL     1     129.757 128.804 130.800  1.00  0.00     0.197 A 
ATOM      4  O   UNL     1     128.594 128.328 130.762  1.00  0.00    -0.289 OA
ATOM      5  C   UNL     1     130.003 130.194 130.709  1.00  0.00     0.107 A 
ATOM      6  C   UNL     1     128.989 131.196 130.645  1.00  0.00     0.134 A 
ATOM      7  C   UNL     1     129.351 132.533 130.440  1.00  0.00     0.093 A 
ATOM      8  C   UNL     1     130.690 132.912 130.356  1.00  0.00     0.123 A 
ATOM      9  C   UNL     1     131.693 131.947 130.470  1.00  0.00     0.094 A 
ATOM     10  C   UNL     1     131.362 130.601 130.641  1.00  0.00     0.146 A 
ATOM     11  O   UNL     1     132.345 129.712 130.731  1.00  0.00    -0.456 OA
ENDROOT
BRANCH   1  12
ATOM     12  C   UNL     1     133.318 127.506 130.974  1.00  0.00     0.021 A 
ATOM     13  C   UNL     1     133.482 126.403 130.113  1.00  0.00     0.016 A 
ATOM     14  C   UNL     1     134.594 125.566 130.239  1.00  0.00     0.051 A 
ATOM     15  C   UNL     1     135.557 125.811 131.226  1.00  0.00     0.157 A 
ATOM     16  C   UNL     1     134.283 127.736 131.971  1.00  0.00     0.062 A 
ATOM     17  C   UNL     1     135.398 126.901 132.098  1.00  0.00     0.158 A 
BRANCH  15  18
ATOM     18  O   UNL     1     136.666 124.974 131.347  1.00  0.00    -0.504 OA
ATOM     19  H   UNL     1     136.762 124.331 132.123  1.00  0.00     0.293 HD
ENDBRANCH  15  18
BRANCH  17  20
ATOM     20  O   UNL     1     136.336 127.169 133.093  1.00  0.00    -0.504 OA
ATOM     21  H   UNL     1     136.280 127.994 133.678  1.00  0.00     0.293 HD
ENDBRANCH  17  20
ENDBRANCH   1  12
BRANCH   6  22
ATOM     22  O   UNL     1     127.624 130.937 130.803  1.00  0.00    -0.507 OA
ATOM     23  H   UNL     1     127.195 130.594 131.649  1.00  0.00     0.293 HD
ENDBRANCH   6  22
BRANCH   8  24
ATOM     24  O   UNL     1     131.014 134.254 130.167  1.00  0.00    -0.508 OA
ATOM     25  H   UNL     1     131.488 134.572 129.330  1.00  0.00     0.293 HD
ENDBRANCH   8  24
TORSDOF 5
ENDMDL
MODEL 6
REMARK VINA RESULT:    -6.696      9.131     13.606
REMARK INTER + INTRA:          -8.132
REMARK INTER:                  -7.842
REMARK INTRA:                  -0.290
REMARK UNBOUND:                -0.262
REMARK SMILES O=c1cc(-c2ccc(O)c(O)c2)oc2cc(O)cc(O)c12
REMARK SMILES IDX 4 1 3 2 2 3 1 4 21 5 19 6 18 7 16 8 15 9 14 10 13 11 5 12
REMARK SMILES IDX 6 13 7 14 8 15 12 16 10 17 9 18 11 20 20 22 17 24
REMARK H PARENT 9 19 11 21 20 23 17 25
REMARK Flexibility Score: inf
ROOT
ATOM      1  C   UNL     1     125.657 138.099 118.175  1.00  0.00     0.138 A 
ATOM      2  C   UNL     1     124.421 138.761 118.163  1.00  0.00     0.100 A 
ATOM      3  C   UNL     1     123.471 138.465 119.142  1.00  0.00     0.197 A 
ATOM      4  O   UNL     1     122.397 139.119 119.143  1.00  0.00    -0.289 OA
ATOM      5  C   UNL     1     123.751 137.481 120.119  1.00  0.00     0.107 A 
ATOM      6  C   UNL     1     122.844 137.069 121.141  1.00  0.00     0.134 A 
ATOM      7  C   UNL     1     123.274 136.169 122.124  1.00  0.00     0.093 A 
ATOM      8  C   UNL     1     124.555 135.620 122.088  1.00  0.00     0.123 A 
ATOM      9  C   UNL     1     125.433 135.975 121.062  1.00  0.00     0.094 A 
ATOM     10  C   UNL     1     125.046 136.896 120.087  1.00  0.00     0.146 A 
ATOM     11  O   UNL     1     125.915 137.218 119.135  1.00  0.00    -0.456 OA
ENDROOT
BRANCH   1  12
ATOM     12  C   UNL     1     126.702 138.373 117.156  1.00  0.00     0.021 A 
ATOM     13  C   UNL     1     126.412 138.363 115.778  1.00  0.00     0.016 A 
ATOM     14  C   UNL     1     127.419 138.614 114.841  1.00  0.00     0.051 A 
ATOM     15  C   UNL     1     128.729 138.873 115.261  1.00  0.00     0.157 A 
ATOM     16  C   UNL     1     128.024 138.621 117.569  1.00  0.00     0.062 A 
ATOM     17  C   UNL     1     129.032 138.875 116.633  1.00  0.00     0.158 A 
BRANCH  15  18
ATOM     18  O   UNL     1     129.730 139.125 114.323  1.00  0.00    -0.504 OA
ATOM     19  H   UNL     1     129.539 139.635 113.469  1.00  0.00     0.293 HD
ENDBRANCH  15  18
BRANCH  17  20
ATOM     20  O   UNL     1     130.328 139.125 117.083  1.00  0.00    -0.504 OA
ATOM     21  H   UNL     1     130.911 139.845 116.673  1.00  0.00     0.293 HD
ENDBRANCH  17  20
ENDBRANCH   1  12
BRANCH   6  22
ATOM     22  O   UNL     1     121.514 137.491 121.221  1.00  0.00    -0.507 OA
ATOM     23  H   UNL     1     121.197 138.434 121.055  1.00  0.00     0.293 HD
ENDBRANCH   6  22
BRANCH   8  24
ATOM     24  O   UNL     1     124.943 134.715 123.074  1.00  0.00    -0.508 OA
ATOM     25  H   UNL     1     125.682 134.041 122.913  1.00  0.00     0.293 HD
ENDBRANCH   8  24
TORSDOF 5
ENDMDL
MODEL 7
REMARK VINA RESULT:    -6.659      3.447      7.744
REMARK INTER + INTRA:          -8.088
REMARK INTER:                  -7.776
REMARK INTRA:                  -0.313
REMARK UNBOUND:                -0.262
REMARK SMILES O=c1cc(-c2ccc(O)c(O)c2)oc2cc(O)cc(O)c12
REMARK SMILES IDX 4 1 3 2 2 3 1 4 21 5 19 6 18 7 16 8 15 9 14 10 13 11 5 12
REMARK SMILES IDX 6 13 7 14 8 15 12 16 10 17 9 18 11 20 20 22 17 24
REMARK H PARENT 9 19 11 21 20 23 17 25
REMARK Flexibility Score: inf
ROOT
ATOM      1  C   UNL     1     129.255 131.484 131.868  1.00  0.00     0.138 A 
ATOM      2  C   UNL     1     130.500 131.989 132.267  1.00  0.00     0.100 A 
ATOM      3  C   UNL     1     131.654 131.237 132.045  1.00  0.00     0.197 A 
ATOM      4  O   UNL     1     132.762 131.744 132.358  1.00  0.00    -0.289 OA
ATOM      5  C   UNL     1     131.555 129.958 131.448  1.00  0.00     0.107 A 
ATOM      6  C   UNL     1     132.659 129.086 131.209  1.00  0.00     0.134 A 
ATOM      7  C   UNL     1     132.456 127.892 130.506  1.00  0.00     0.093 A 
ATOM      8  C   UNL     1     131.183 127.511 130.085  1.00  0.00     0.123 A 
ATOM      9  C   UNL     1     130.087 128.331 130.360  1.00  0.00     0.094 A 
ATOM     10  C   UNL     1     130.262 129.544 131.030  1.00  0.00     0.146 A 
ATOM     11  O   UNL     1     129.196 130.303 131.260  1.00  0.00    -0.456 OA
ENDROOT
BRANCH   1  12
ATOM     12  C   UNL     1     127.996 132.241 132.082  1.00  0.00     0.021 A 
ATOM     13  C   UNL     1     128.000 133.624 132.345  1.00  0.00     0.016 A 
ATOM     14  C   UNL     1     126.800 134.310 132.553  1.00  0.00     0.051 A 
ATOM     15  C   UNL     1     125.578 133.627 132.507  1.00  0.00     0.157 A 
ATOM     16  C   UNL     1     126.765 131.561 132.051  1.00  0.00     0.062 A 
ATOM     17  C   UNL     1     125.561 132.245 132.257  1.00  0.00     0.158 A 
BRANCH  15  18
ATOM     18  O   UNL     1     124.382 134.315 132.713  1.00  0.00    -0.504 OA
ATOM     19  H   UNL     1     123.933 134.336 133.621  1.00  0.00     0.293 HD
ENDBRANCH  15  18
BRANCH  17  20
ATOM     20  O   UNL     1     124.362 131.536 132.209  1.00  0.00    -0.504 OA
ATOM     21  H   UNL     1     123.783 131.402 133.029  1.00  0.00     0.293 HD
ENDBRANCH  17  20
ENDBRANCH   1  12
BRANCH   6  22
ATOM     22  O   UNL     1     133.959 129.330 131.661  1.00  0.00    -0.507 OA
ATOM     23  H   UNL     1     134.210 129.531 132.616  1.00  0.00     0.293 HD
ENDBRANCH   6  22
BRANCH   8  24
ATOM     24  O   UNL     1     131.015 126.309 129.401  1.00  0.00    -0.508 OA
ATOM     25  H   UNL     1     130.133 125.812 129.410  1.00  0.00     0.293 HD
ENDBRANCH   8  24
TORSDOF 5
ENDMDL
MODEL 8
REMARK VINA RESULT:    -6.552      4.869     10.051
REMARK INTER + INTRA:          -7.964
REMARK INTER:                  -7.689
REMARK INTRA:                  -0.275
REMARK UNBOUND:                -0.262
REMARK SMILES O=c1cc(-c2ccc(O)c(O)c2)oc2cc(O)cc(O)c12
REMARK SMILES IDX 4 1 3 2 2 3 1 4 21 5 19 6 18 7 16 8 15 9 14 10 13 11 5 12
REMARK SMILES IDX 6 13 7 14 8 15 12 16 10 17 9 18 11 20 20 22 17 24
REMARK H PARENT 9 19 11 21 20 23 17 25
REMARK Flexibility Score: inf
ROOT
ATOM      1  C   UNL     1     132.117 129.473 130.474  1.00  0.00     0.138 A 
ATOM      2  C   UNL     1     132.769 129.479 131.715  1.00  0.00     0.100 A 
ATOM      3  C   UNL     1     133.664 128.456 132.030  1.00  0.00     0.197 A 
ATOM      4  O   UNL     1     134.280 128.523 133.125  1.00  0.00    -0.289 OA
ATOM      5  C   UNL     1     133.882 127.405 131.109  1.00  0.00     0.107 A 
ATOM      6  C   UNL     1     134.742 126.289 131.338  1.00  0.00     0.134 A 
ATOM      7  C   UNL     1     134.969 125.369 130.307  1.00  0.00     0.093 A 
ATOM      8  C   UNL     1     134.325 125.492 129.077  1.00  0.00     0.123 A 
ATOM      9  C   UNL     1     133.441 126.550 128.859  1.00  0.00     0.094 A 
ATOM     10  C   UNL     1     133.219 127.502 129.856  1.00  0.00     0.146 A 
ATOM     11  O   UNL     1     132.382 128.503 129.605  1.00  0.00    -0.456 OA
ENDROOT
BRANCH   1  12
ATOM     12  C   UNL     1     131.154 130.535 130.088  1.00  0.00     0.021 A 
ATOM     13  C   UNL     1     129.928 130.231 129.467  1.00  0.00     0.016 A 
ATOM     14  C   UNL     1     129.045 131.253 129.106  1.00  0.00     0.051 A 
ATOM     15  C   UNL     1     129.373 132.592 129.352  1.00  0.00     0.157 A 
ATOM     16  C   UNL     1     131.481 131.884 130.319  1.00  0.00     0.062 A 
ATOM     17  C   UNL     1     130.598 132.908 129.960  1.00  0.00     0.158 A 
BRANCH  15  18
ATOM     18  O   UNL     1     128.488 133.608 128.991  1.00  0.00    -0.504 OA
ATOM     19  H   UNL     1     128.515 134.518 129.437  1.00  0.00     0.293 HD
ENDBRANCH  15  18
BRANCH  17  20
ATOM     20  O   UNL     1     130.956 134.231 130.214  1.00  0.00    -0.504 OA
ATOM     21  H   UNL     1     131.909 134.560 130.116  1.00  0.00     0.293 HD
ENDBRANCH  17  20
ENDBRANCH   1  12
BRANCH   6  22
ATOM     22  O   UNL     1     135.369 126.025 132.559  1.00  0.00    -0.507 OA
ATOM     23  H   UNL     1     134.894 125.755 133.406  1.00  0.00     0.293 HD
ENDBRANCH   6  22
BRANCH   8  24
ATOM     24  O   UNL     1     134.564 124.549 128.078  1.00  0.00    -0.508 OA
ATOM     25  H   UNL     1     134.702 123.570 128.296  1.00  0.00     0.293 HD
ENDBRANCH   8  24
TORSDOF 5
ENDMDL
MODEL 9
REMARK VINA RESULT:    -6.486     11.132     14.486
REMARK INTER + INTRA:          -7.886
REMARK INTER:                  -7.591
REMARK INTRA:                  -0.295
REMARK UNBOUND:                -0.262
REMARK SMILES O=c1cc(-c2ccc(O)c(O)c2)oc2cc(O)cc(O)c12
REMARK SMILES IDX 4 1 3 2 2 3 1 4 21 5 19 6 18 7 16 8 15 9 14 10 13 11 5 12
REMARK SMILES IDX 6 13 7 14 8 15 12 16 10 17 9 18 11 20 20 22 17 24
REMARK H PARENT 9 19 11 21 20 23 17 25
REMARK Flexibility Score: inf
ROOT
ATOM      1  C   UNL     1     126.404 137.867 117.935  1.00  0.00     0.138 A 
ATOM      2  C   UNL     1     126.336 138.519 116.695  1.00  0.00     0.100 A 
ATOM      3  C   UNL     1     127.471 138.586 115.887  1.00  0.00     0.197 A 
ATOM      4  O   UNL     1     127.362 139.122 114.755  1.00  0.00    -0.289 OA
ATOM      5  C   UNL     1     128.689 138.023 116.337  1.00  0.00     0.107 A 
ATOM      6  C   UNL     1     129.919 138.066 115.615  1.00  0.00     0.134 A 
ATOM      7  C   UNL     1     131.032 137.373 116.108  1.00  0.00     0.093 A 
ATOM      8  C   UNL     1     130.978 136.690 117.321  1.00  0.00     0.123 A 
ATOM      9  C   UNL     1     129.794 136.686 118.062  1.00  0.00     0.094 A 
ATOM     10  C   UNL     1     128.657 137.339 117.582  1.00  0.00     0.146 A 
ATOM     11  O   UNL     1     127.546 137.299 118.309  1.00  0.00    -0.456 OA
ENDROOT
BRANCH   1  12
ATOM     12  C   UNL     1     125.228 137.768 118.835  1.00  0.00     0.021 A 
ATOM     13  C   UNL     1     125.275 137.035 120.036  1.00  0.00     0.016 A 
ATOM     14  C   UNL     1     124.149 136.951 120.860  1.00  0.00     0.051 A 
ATOM     15  C   UNL     1     122.957 137.590 120.496  1.00  0.00     0.157 A 
ATOM     16  C   UNL     1     124.023 138.396 118.471  1.00  0.00     0.062 A 
ATOM     17  C   UNL     1     122.894 138.315 119.295  1.00  0.00     0.158 A 
BRANCH  15  18
ATOM     18  O   UNL     1     121.836 137.505 121.321  1.00  0.00    -0.504 OA
ATOM     19  H   UNL     1     121.217 138.296 121.459  1.00  0.00     0.293 HD
ENDBRANCH  15  18
BRANCH  17  20
ATOM     20  O   UNL     1     121.722 138.959 118.903  1.00  0.00    -0.504 OA
ATOM     21  H   UNL     1     120.846 138.462 118.788  1.00  0.00     0.293 HD
ENDBRANCH  17  20
ENDBRANCH   1  12
BRANCH   6  22
ATOM     22  O   UNL     1     130.107 138.790 114.434  1.00  0.00    -0.507 OA
ATOM     23  H   UNL     1     129.392 139.322 113.964  1.00  0.00     0.293 HD
ENDBRANCH   6  22
BRANCH   8  24
ATOM     24  O   UNL     1     132.110 136.025 117.788  1.00  0.00    -0.508 OA
ATOM     25  H   UNL     1     132.100 135.029 117.974  1.00  0.00     0.293 HD
ENDBRANCH   8  24
TORSDOF 5
ENDMDL
