MODEL 1
REMARK VINA RESULT:    -4.319      0.000      0.000
REMARK INTER + INTRA:          -4.972
REMARK INTER:                  -4.824
REMARK INTRA:                  -0.147
REMARK UNBOUND:                -0.147
REMARK SMILES O=C([O-])C=Cc1ccccc1
REMARK SMILES IDX 4 1 5 2 2 3 1 4 3 5 6 6 7 7 11 8 8 9 10 10 9 11
REMARK H PARENT
REMARK Flexibility Score: inf
ROOT
ATOM      1  C   UNL     1      -3.185   3.376   3.400  1.00  0.00     0.025 C 
ATOM      2  C   UNL     1      -3.709   3.775   2.231  1.00  0.00     0.010 C 
ENDROOT
BRANCH   1   3
ATOM      3  C   UNL     1      -3.225   1.971   3.838  1.00  0.00     0.064 C 
ATOM      4  O   UNL     1      -3.746   1.076   3.119  1.00  0.00    -0.545 OA
ATOM      5  O   UNL     1      -2.677   1.623   5.067  1.00  0.00    -0.545 OA
ENDBRANCH   1   3
BRANCH   2   6
ATOM      6  C   UNL     1      -3.702   5.177   1.731  1.00  0.00    -0.026 A 
ATOM      7  C   UNL     1      -3.252   6.189   2.600  1.00  0.00     0.008 A 
ATOM      8  C   UNL     1      -4.122   5.540   0.432  1.00  0.00     0.008 A 
ATOM      9  C   UNL     1      -3.223   7.523   2.187  1.00  0.00     0.001 A 
ATOM     10  C   UNL     1      -4.090   6.879   0.026  1.00  0.00     0.001 A 
ATOM     11  C   UNL     1      -3.641   7.868   0.902  1.00  0.00     0.000 A 
ENDBRANCH   2   6
TORSDOF 2
ENDMDL
MODEL 2
REMARK VINA RESULT:    -4.050      0.889      1.735
REMARK INTER + INTRA:          -4.670
REMARK INTER:                  -4.543
REMARK INTRA:                  -0.127
REMARK UNBOUND:                -0.147
REMARK SMILES O=C([O-])C=Cc1ccccc1
REMARK SMILES IDX 4 1 5 2 2 3 1 4 3 5 6 6 7 7 11 8 8 9 10 10 9 11
REMARK H PARENT
REMARK Flexibility Score: inf
ROOT
ATOM      1  C   UNL     1      -3.310   3.868   2.795  1.00  0.00     0.025 C 
ATOM      2  C   UNL     1      -4.282   4.573   2.196  1.00  0.00     0.010 C 
ENDROOT
BRANCH   1   3
ATOM      3  C   UNL     1      -3.578   2.602   3.498  1.00  0.00     0.064 C 
ATOM      4  O   UNL     1      -3.396   1.490   2.933  1.00  0.00    -0.545 OA
ATOM      5  O   UNL     1      -4.037   2.633   4.809  1.00  0.00    -0.545 OA
ENDBRANCH   1   3
BRANCH   2   6
ATOM      6  C   UNL     1      -4.079   5.856   1.471  1.00  0.00    -0.026 A 
ATOM      7  C   UNL     1      -4.583   5.965   0.161  1.00  0.00     0.008 A 
ATOM      8  C   UNL     1      -3.408   6.966   2.031  1.00  0.00     0.008 A 
ATOM      9  C   UNL     1      -4.422   7.146  -0.569  1.00  0.00     0.001 A 
ATOM     10  C   UNL     1      -3.251   8.145   1.293  1.00  0.00     0.001 A 
ATOM     11  C   UNL     1      -3.757   8.234  -0.005  1.00  0.00     0.000 A 
ENDBRANCH   2   6
TORSDOF 2
ENDMDL
MODEL 3
REMARK VINA RESULT:    -3.445      6.613      8.205
REMARK INTER + INTRA:          -3.995
REMARK INTER:                  -3.850
REMARK INTRA:                  -0.145
REMARK UNBOUND:                -0.147
REMARK SMILES O=C([O-])C=Cc1ccccc1
REMARK SMILES IDX 4 1 5 2 2 3 1 4 3 5 6 6 7 7 11 8 8 9 10 10 9 11
REMARK H PARENT
REMARK Flexibility Score: inf
ROOT
ATOM      1  C   UNL     1      -2.640   7.636   7.454  1.00  0.00     0.025 C 
ATOM      2  C   UNL     1      -2.718   6.472   8.115  1.00  0.00     0.010 C 
ENDROOT
BRANCH   1   3
ATOM      3  C   UNL     1      -3.810   8.252   6.807  1.00  0.00     0.064 C 
ATOM      4  O   UNL     1      -4.543   7.595   6.020  1.00  0.00    -0.545 OA
ATOM      5  O   UNL     1      -4.114   9.582   7.070  1.00  0.00    -0.545 OA
ENDBRANCH   1   3
BRANCH   2   6
ATOM      6  C   UNL     1      -1.575   5.797   8.788  1.00  0.00    -0.026 A 
ATOM      7  C   UNL     1      -0.389   6.532   8.976  1.00  0.00     0.008 A 
ATOM      8  C   UNL     1      -1.622   4.462   9.248  1.00  0.00     0.008 A 
ATOM      9  C   UNL     1       0.718   5.952   9.601  1.00  0.00     0.001 A 
ATOM     10  C   UNL     1      -0.509   3.889   9.873  1.00  0.00     0.001 A 
ATOM     11  C   UNL     1       0.658   4.632  10.049  1.00  0.00     0.000 A 
ENDBRANCH   2   6
TORSDOF 2
ENDMDL
MODEL 4
REMARK VINA RESULT:    -3.363      6.783      7.931
REMARK INTER + INTRA:          -3.903
REMARK INTER:                  -3.773
REMARK INTRA:                  -0.130
REMARK UNBOUND:                -0.147
REMARK SMILES O=C([O-])C=Cc1ccccc1
REMARK SMILES IDX 4 1 5 2 2 3 1 4 3 5 6 6 7 7 11 8 8 9 10 10 9 11
REMARK H PARENT
REMARK Flexibility Score: inf
ROOT
ATOM      1  C   UNL     1       0.452   3.271   9.993  1.00  0.00     0.025 C 
ATOM      2  C   UNL     1      -0.763   3.832   9.894  1.00  0.00     0.010 C 
ENDROOT
BRANCH   1   3
ATOM      3  C   UNL     1       0.664   1.963  10.634  1.00  0.00     0.064 C 
ATOM      4  O   UNL     1       0.534   1.817  11.879  1.00  0.00    -0.545 OA
ATOM      5  O   UNL     1       1.013   0.868   9.853  1.00  0.00    -0.545 OA
ENDBRANCH   1   3
BRANCH   2   6
ATOM      6  C   UNL     1      -1.044   5.148   9.260  1.00  0.00    -0.026 A 
ATOM      7  C   UNL     1      -2.303   5.341   8.662  1.00  0.00     0.008 A 
ATOM      8  C   UNL     1      -0.112   6.210   9.230  1.00  0.00     0.008 A 
ATOM      9  C   UNL     1      -2.625   6.556   8.050  1.00  0.00     0.001 A 
ATOM     10  C   UNL     1      -0.442   7.423   8.616  1.00  0.00     0.001 A 
ATOM     11  C   UNL     1      -1.695   7.595   8.027  1.00  0.00     0.000 A 
ENDBRANCH   2   6
TORSDOF 2
ENDMDL
MODEL 5
REMARK VINA RESULT:    -3.353      6.792      7.847
REMARK INTER + INTRA:          -3.892
REMARK INTER:                  -3.751
REMARK INTRA:                  -0.141
REMARK UNBOUND:                -0.147
REMARK SMILES O=C([O-])C=Cc1ccccc1
REMARK SMILES IDX 4 1 5 2 2 3 1 4 3 5 6 6 7 7 11 8 8 9 10 10 9 11
REMARK H PARENT
REMARK Flexibility Score: inf
ROOT
ATOM      1  C   UNL     1       0.517   3.274   9.980  1.00  0.00     0.025 C 
ATOM      2  C   UNL     1      -0.730   3.764   9.897  1.00  0.00     0.010 C 
ENDROOT
BRANCH   1   3
ATOM      3  C   UNL     1       0.812   1.987  10.631  1.00  0.00     0.064 C 
ATOM      4  O   UNL     1       0.957   0.931   9.958  1.00  0.00    -0.545 OA
ATOM      5  O   UNL     1       0.936   1.934  12.014  1.00  0.00    -0.545 OA
ENDBRANCH   1   3
BRANCH   2   6
ATOM      6  C   UNL     1      -1.095   5.055   9.253  1.00  0.00    -0.026 A 
ATOM      7  C   UNL     1      -0.139   6.088   9.250  1.00  0.00     0.008 A 
ATOM      8  C   UNL     1      -2.348   5.293   8.647  1.00  0.00     0.008 A 
ATOM      9  C   UNL     1      -0.424   7.322   8.661  1.00  0.00     0.001 A 
ATOM     10  C   UNL     1      -2.627   6.532   8.060  1.00  0.00     0.001 A 
ATOM     11  C   UNL     1      -1.666   7.545   8.067  1.00  0.00     0.000 A 
ENDBRANCH   2   6
TORSDOF 2
ENDMDL
MODEL 6
REMARK VINA RESULT:    -3.108      7.296      8.706
REMARK INTER + INTRA:          -3.618
REMARK INTER:                  -3.474
REMARK INTRA:                  -0.145
REMARK UNBOUND:                -0.147
REMARK SMILES O=C([O-])C=Cc1ccccc1
REMARK SMILES IDX 4 1 5 2 2 3 1 4 3 5 6 6 7 7 11 8 8 9 10 10 9 11
REMARK H PARENT
REMARK Flexibility Score: inf
ROOT
ATOM      1  C   UNL     1      -0.690   9.011   7.639  1.00  0.00     0.025 C 
ATOM      2  C   UNL     1      -1.650   8.083   7.774  1.00  0.00     0.010 C 
ENDROOT
BRANCH   1   3
ATOM      3  C   UNL     1      -0.944  10.318   7.012  1.00  0.00     0.064 C 
ATOM      4  O   UNL     1      -1.056  11.365   7.706  1.00  0.00    -0.545 OA
ATOM      5  O   UNL     1      -1.062  10.402   5.631  1.00  0.00    -0.545 OA
ENDBRANCH   1   3
BRANCH   2   6
ATOM      6  C   UNL     1      -1.458   6.745   8.396  1.00  0.00    -0.026 A 
ATOM      7  C   UNL     1      -0.232   6.481   9.035  1.00  0.00     0.008 A 
ATOM      8  C   UNL     1      -2.443   5.732   8.378  1.00  0.00     0.008 A 
ATOM      9  C   UNL     1       0.006   5.242   9.638  1.00  0.00     0.001 A 
ATOM     10  C   UNL     1      -2.197   4.495   8.984  1.00  0.00     0.001 A 
ATOM     11  C   UNL     1      -0.975   4.250   9.612  1.00  0.00     0.000 A 
ENDBRANCH   2   6
TORSDOF 2
ENDMDL
MODEL 7
REMARK VINA RESULT:    -3.022     10.803     11.187
REMARK INTER + INTRA:          -3.522
REMARK INTER:                  -3.394
REMARK INTRA:                  -0.129
REMARK UNBOUND:                -0.147
REMARK SMILES O=C([O-])C=Cc1ccccc1
REMARK SMILES IDX 4 1 5 2 2 3 1 4 3 5 6 6 7 7 11 8 8 9 10 10 9 11
REMARK H PARENT
REMARK Flexibility Score: inf
ROOT
ATOM      1  C   UNL     1      -4.933  -4.344   7.465  1.00  0.00     0.025 C 
ATOM      2  C   UNL     1      -4.473  -4.341   8.725  1.00  0.00     0.010 C 
ENDROOT
BRANCH   1   3
ATOM      3  C   UNL     1      -4.674  -5.457   6.537  1.00  0.00     0.064 C 
ATOM      4  O   UNL     1      -5.604  -6.214   6.150  1.00  0.00    -0.545 OA
ATOM      5  O   UNL     1      -3.382  -5.678   6.078  1.00  0.00    -0.545 OA
ENDBRANCH   1   3
BRANCH   2   6
ATOM      6  C   UNL     1      -4.698  -3.250   9.711  1.00  0.00    -0.026 A 
ATOM      7  C   UNL     1      -3.638  -2.903  10.570  1.00  0.00     0.008 A 
ATOM      8  C   UNL     1      -5.918  -2.546   9.825  1.00  0.00     0.008 A 
ATOM      9  C   UNL     1      -3.791  -1.885  11.516  1.00  0.00     0.001 A 
ATOM     10  C   UNL     1      -6.062  -1.529  10.775  1.00  0.00     0.001 A 
ATOM     11  C   UNL     1      -5.001  -1.199  11.619  1.00  0.00     0.000 A 
ENDBRANCH   2   6
TORSDOF 2
ENDMDL
MODEL 8
REMARK VINA RESULT:    -3.005      7.602      8.826
REMARK INTER + INTRA:          -3.503
REMARK INTER:                  -3.370
REMARK INTRA:                  -0.133
REMARK UNBOUND:                -0.147
REMARK SMILES O=C([O-])C=Cc1ccccc1
REMARK SMILES IDX 4 1 5 2 2 3 1 4 3 5 6 6 7 7 11 8 8 9 10 10 9 11
REMARK H PARENT
REMARK Flexibility Score: inf
ROOT
ATOM      1  C   UNL     1       2.172   5.150   9.926  1.00  0.00     0.025 C 
ATOM      2  C   UNL     1       0.921   4.679  10.050  1.00  0.00     0.010 C 
ENDROOT
BRANCH   1   3
ATOM      3  C   UNL     1       3.321   4.510  10.588  1.00  0.00     0.064 C 
ATOM      4  O   UNL     1       4.492   4.950  10.434  1.00  0.00    -0.545 OA
ATOM      5  O   UNL     1       3.112   3.401  11.397  1.00  0.00    -0.545 OA
ENDBRANCH   1   3
BRANCH   2   6
ATOM      6  C   UNL     1      -0.280   5.279   9.410  1.00  0.00    -0.026 A 
ATOM      7  C   UNL     1      -1.436   4.483   9.293  1.00  0.00     0.008 A 
ATOM      8  C   UNL     1      -0.318   6.601   8.915  1.00  0.00     0.008 A 
ATOM      9  C   UNL     1      -2.595   4.992   8.701  1.00  0.00     0.001 A 
ATOM     10  C   UNL     1      -1.483   7.103   8.323  1.00  0.00     0.001 A 
ATOM     11  C   UNL     1      -2.619   6.299   8.216  1.00  0.00     0.000 A 
ENDBRANCH   2   6
TORSDOF 2
ENDMDL
