MODEL 1
REMARK VINA RESULT:    -5.091      0.000      0.000
REMARK INTER + INTRA:          -7.962
REMARK INTER:                  -7.770
REMARK INTRA:                  -0.192
REMARK UNBOUND:                -0.192
REMARK SMILES O=C([O-])CCCCCCCCC(=O)[O-]
REMARK SMILES IDX 7 1 6 2 5 3 4 4 2 5 1 6 3 7 8 8 9 9 10 10 11 11 12 12 13 13
REMARK SMILES IDX 14 14
REMARK H PARENT
REMARK Flexibility Score: inf
ROOT
ATOM      1  C   UNL     1      10.829  11.738   3.908  1.00  0.00     0.000 C 
ENDROOT
BRANCH   1   2
ATOM      2  C   UNL     1       9.981  10.845   4.828  1.00  0.00     0.000 C 
BRANCH   2   3
ATOM      3  C   UNL     1       8.741  11.570   5.375  1.00  0.00     0.006 C 
BRANCH   3   4
ATOM      4  C   UNL     1       8.651  11.511   6.906  1.00  0.00     0.053 C 
BRANCH   4   5
ATOM      5  C   UNL     1       7.249  11.779   7.357  1.00  0.00     0.041 C 
ATOM      6  O   UNL     1       6.474  12.466   6.641  1.00  0.00    -0.550 OA
ATOM      7  O   UNL     1       6.814  11.310   8.590  1.00  0.00    -0.550 OA
ENDBRANCH   4   5
ENDBRANCH   3   4
ENDBRANCH   2   3
ENDBRANCH   1   2
BRANCH   1   8
ATOM      8  C   UNL     1      12.321  11.608   4.242  1.00  0.00     0.000 C 
BRANCH   8   9
ATOM      9  C   UNL     1      13.088  12.873   3.829  1.00  0.00     0.000 C 
BRANCH   9  10
ATOM     10  C   UNL     1      14.321  13.131   4.710  1.00  0.00     0.006 C 
BRANCH  10  11
ATOM     11  C   UNL     1      15.282  14.158   4.095  1.00  0.00     0.053 C 
BRANCH  11  12
ATOM     12  C   UNL     1      16.368  13.464   3.335  1.00  0.00     0.041 C 
ATOM     13  O   UNL     1      17.566  13.564   3.710  1.00  0.00    -0.550 OA
ATOM     14  O   UNL     1      16.064  12.748   2.185  1.00  0.00    -0.550 OA
ENDBRANCH  11  12
ENDBRANCH  10  11
ENDBRANCH   9  10
ENDBRANCH   8   9
ENDBRANCH   1   8
TORSDOF 9
ENDMDL
MODEL 2
REMARK VINA RESULT:    -5.042      0.903      7.912
REMARK INTER + INTRA:          -7.887
REMARK INTER:                  -7.550
REMARK INTRA:                  -0.337
REMARK UNBOUND:                -0.192
REMARK SMILES O=C([O-])CCCCCCCCC(=O)[O-]
REMARK SMILES IDX 7 1 6 2 5 3 4 4 2 5 1 6 3 7 8 8 9 9 10 10 11 11 12 12 13 13
REMARK SMILES IDX 14 14
REMARK H PARENT
REMARK Flexibility Score: inf
ROOT
ATOM      1  C   UNL     1      12.651  11.953   3.844  1.00  0.00     0.000 C 
ENDROOT
BRANCH   1   2
ATOM      2  C   UNL     1      13.229  12.696   5.058  1.00  0.00     0.000 C 
BRANCH   2   3
ATOM      3  C   UNL     1      14.758  12.839   4.991  1.00  0.00     0.006 C 
BRANCH   3   4
ATOM      4  C   UNL     1      15.201  14.061   4.176  1.00  0.00     0.053 C 
BRANCH   4   5
ATOM      5  C   UNL     1      16.227  13.668   3.161  1.00  0.00     0.041 C 
ATOM      6  O   UNL     1      15.928  12.868   2.235  1.00  0.00    -0.550 OA
ATOM      7  O   UNL     1      17.527  14.145   3.265  1.00  0.00    -0.550 OA
ENDBRANCH   4   5
ENDBRANCH   3   4
ENDBRANCH   2   3
ENDBRANCH   1   2
BRANCH   1   8
ATOM      8  C   UNL     1      11.539  10.986   4.272  1.00  0.00     0.000 C 
BRANCH   8   9
ATOM      9  C   UNL     1      10.179  11.698   4.320  1.00  0.00     0.000 C 
BRANCH   9  10
ATOM     10  C   UNL     1       9.134  10.923   5.138  1.00  0.00     0.006 C 
BRANCH  10  11
ATOM     11  C   UNL     1       8.764  11.632   6.448  1.00  0.00     0.053 C 
BRANCH  11  12
ATOM     12  C   UNL     1       7.556  12.492   6.251  1.00  0.00     0.041 C 
ATOM     13  O   UNL     1       6.434  12.114   6.677  1.00  0.00    -0.550 OA
ATOM     14  O   UNL     1       7.661  13.689   5.555  1.00  0.00    -0.550 OA
ENDBRANCH  11  12
ENDBRANCH  10  11
ENDBRANCH   9  10
ENDBRANCH   8   9
ENDBRANCH   1   8
TORSDOF 9
ENDMDL
MODEL 3
REMARK VINA RESULT:    -5.038      0.651      7.986
REMARK INTER + INTRA:          -7.880
REMARK INTER:                  -7.488
REMARK INTRA:                  -0.392
REMARK UNBOUND:                -0.192
REMARK SMILES O=C([O-])CCCCCCCCC(=O)[O-]
REMARK SMILES IDX 7 1 6 2 5 3 4 4 2 5 1 6 3 7 8 8 9 9 10 10 11 11 12 12 13 13
REMARK SMILES IDX 14 14
REMARK H PARENT
REMARK Flexibility Score: inf
ROOT
ATOM      1  C   UNL     1      11.240  12.361   4.271  1.00  0.00     0.000 C 
ENDROOT
BRANCH   1   2
ATOM      2  C   UNL     1      12.521  13.077   4.726  1.00  0.00     0.000 C 
BRANCH   2   3
ATOM      3  C   UNL     1      13.783  12.524   4.044  1.00  0.00     0.006 C 
BRANCH   3   4
ATOM      4  C   UNL     1      15.068  13.194   4.548  1.00  0.00     0.053 C 
BRANCH   4   5
ATOM      5  C   UNL     1      16.100  13.224   3.465  1.00  0.00     0.041 C 
ATOM      6  O   UNL     1      15.798  12.879   2.292  1.00  0.00    -0.550 OA
ATOM      7  O   UNL     1      17.408  13.585   3.761  1.00  0.00    -0.550 OA
ENDBRANCH   4   5
ENDBRANCH   3   4
ENDBRANCH   2   3
ENDBRANCH   1   2
BRANCH   1   8
ATOM      8  C   UNL     1      11.387  10.839   4.400  1.00  0.00     0.000 C 
BRANCH   8   9
ATOM      9  C   UNL     1      10.155  10.224   5.081  1.00  0.00     0.000 C 
BRANCH   9  10
ATOM     10  C   UNL     1       9.100  11.277   5.458  1.00  0.00     0.006 C 
BRANCH  10  11
ATOM     11  C   UNL     1       8.841  11.338   6.969  1.00  0.00     0.053 C 
BRANCH  11  12
ATOM     12  C   UNL     1       7.396  11.619   7.239  1.00  0.00     0.041 C 
ATOM     13  O   UNL     1       6.684  12.168   6.359  1.00  0.00    -0.550 OA
ATOM     14  O   UNL     1       6.849  11.318   8.479  1.00  0.00    -0.550 OA
ENDBRANCH  11  12
ENDBRANCH  10  11
ENDBRANCH   9  10
ENDBRANCH   8   9
ENDBRANCH   1   8
TORSDOF 9
ENDMDL
MODEL 4
REMARK VINA RESULT:    -4.920      1.332      2.129
REMARK INTER + INTRA:          -7.700
REMARK INTER:                  -7.020
REMARK INTRA:                  -0.681
REMARK UNBOUND:                -0.192
REMARK SMILES O=C([O-])CCCCCCCCC(=O)[O-]
REMARK SMILES IDX 7 1 6 2 5 3 4 4 2 5 1 6 3 7 8 8 9 9 10 10 11 11 12 12 13 13
REMARK SMILES IDX 14 14
REMARK H PARENT
REMARK Flexibility Score: inf
ROOT
ATOM      1  C   UNL     1      10.239  10.494   4.713  1.00  0.00     0.000 C 
ENDROOT
BRANCH   1   2
ATOM      2  C   UNL     1       9.787  10.593   6.179  1.00  0.00     0.000 C 
BRANCH   2   3
ATOM      3  C   UNL     1       9.486  12.038   6.609  1.00  0.00     0.006 C 
BRANCH   3   4
ATOM      4  C   UNL     1       8.745  12.111   7.951  1.00  0.00     0.053 C 
BRANCH   4   5
ATOM      5  C   UNL     1       7.292  11.810   7.762  1.00  0.00     0.041 C 
ATOM      6  O   UNL     1       6.666  11.142   8.626  1.00  0.00    -0.550 OA
ATOM      7  O   UNL     1       6.640  12.224   6.608  1.00  0.00    -0.550 OA
ENDBRANCH   4   5
ENDBRANCH   3   4
ENDBRANCH   2   3
ENDBRANCH   1   2
BRANCH   1   8
ATOM      8  C   UNL     1      10.302  11.883   4.065  1.00  0.00     0.000 C 
BRANCH   8   9
ATOM      9  C   UNL     1      11.665  12.116   3.397  1.00  0.00     0.000 C 
BRANCH   9  10
ATOM     10  C   UNL     1      12.842  11.683   4.286  1.00  0.00     0.006 C 
BRANCH  10  11
ATOM     11  C   UNL     1      13.291  12.789   5.250  1.00  0.00     0.053 C 
BRANCH  11  12
ATOM     12  C   UNL     1      14.367  13.620   4.625  1.00  0.00     0.041 C 
ATOM     13  O   UNL     1      14.069  14.663   3.986  1.00  0.00    -0.550 OA
ATOM     14  O   UNL     1      15.693  13.217   4.707  1.00  0.00    -0.550 OA
ENDBRANCH  11  12
ENDBRANCH  10  11
ENDBRANCH   9  10
ENDBRANCH   8   9
ENDBRANCH   1   8
TORSDOF 9
ENDMDL
MODEL 5
REMARK VINA RESULT:    -4.874      2.667      6.746
REMARK INTER + INTRA:          -7.630
REMARK INTER:                  -6.854
REMARK INTRA:                  -0.777
REMARK UNBOUND:                -0.192
REMARK SMILES O=C([O-])CCCCCCCCC(=O)[O-]
REMARK SMILES IDX 7 1 6 2 5 3 4 4 2 5 1 6 3 7 8 8 9 9 10 10 11 11 12 12 13 13
REMARK SMILES IDX 14 14
REMARK H PARENT
REMARK Flexibility Score: inf
ROOT
ATOM      1  C   UNL     1      10.894  11.286   3.989  1.00  0.00     0.000 C 
ENDROOT
BRANCH   1   2
ATOM      2  C   UNL     1      12.406  11.534   4.108  1.00  0.00     0.000 C 
BRANCH   2   3
ATOM      3  C   UNL     1      12.747  13.018   4.316  1.00  0.00     0.006 C 
BRANCH   3   4
ATOM      4  C   UNL     1      11.519  13.858   4.693  1.00  0.00     0.053 C 
BRANCH   4   5
ATOM      5  C   UNL     1      11.543  14.193   6.151  1.00  0.00     0.041 C 
ATOM      6  O   UNL     1      10.650  14.929   6.647  1.00  0.00    -0.550 OA
ATOM      7  O   UNL     1      12.578  13.732   6.953  1.00  0.00    -0.550 OA
ENDBRANCH   4   5
ENDBRANCH   3   4
ENDBRANCH   2   3
ENDBRANCH   1   2
BRANCH   1   8
ATOM      8  C   UNL     1      10.498   9.973   4.677  1.00  0.00     0.000 C 
BRANCH   8   9
ATOM      9  C   UNL     1       9.993  10.231   6.104  1.00  0.00     0.000 C 
BRANCH   9  10
ATOM     10  C   UNL     1       9.099  11.478   6.199  1.00  0.00     0.006 C 
BRANCH  10  11
ATOM     11  C   UNL     1       8.681  11.797   7.641  1.00  0.00     0.053 C 
BRANCH  11  12
ATOM     12  C   UNL     1       7.193  11.724   7.780  1.00  0.00     0.041 C 
ATOM     13  O   UNL     1       6.450  12.234   6.902  1.00  0.00    -0.550 OA
ATOM     14  O   UNL     1       6.628  11.134   8.903  1.00  0.00    -0.550 OA
ENDBRANCH  11  12
ENDBRANCH  10  11
ENDBRANCH   9  10
ENDBRANCH   8   9
ENDBRANCH   1   8
TORSDOF 9
ENDMDL
MODEL 6
REMARK VINA RESULT:    -4.796      5.714      7.697
REMARK INTER + INTRA:          -7.512
REMARK INTER:                  -6.831
REMARK INTRA:                  -0.681
REMARK UNBOUND:                -0.192
REMARK SMILES O=C([O-])CCCCCCCCC(=O)[O-]
REMARK SMILES IDX 7 1 6 2 5 3 4 4 2 5 1 6 3 7 8 8 9 9 10 10 11 11 12 12 13 13
REMARK SMILES IDX 14 14
REMARK H PARENT
REMARK Flexibility Score: inf
ROOT
ATOM      1  C   UNL     1      13.157  13.623   1.055  1.00  0.00     0.000 C 
ENDROOT
BRANCH   1   2
ATOM      2  C   UNL     1      12.991  15.030   0.461  1.00  0.00     0.000 C 
BRANCH   2   3
ATOM      3  C   UNL     1      14.280  15.552  -0.193  1.00  0.00     0.006 C 
BRANCH   3   4
ATOM      4  C   UNL     1      14.900  16.724   0.579  1.00  0.00     0.053 C 
BRANCH   4   5
ATOM      5  C   UNL     1      15.515  17.706  -0.368  1.00  0.00     0.041 C 
ATOM      6  O   UNL     1      16.607  18.263  -0.083  1.00  0.00    -0.550 OA
ATOM      7  O   UNL     1      14.857  18.043  -1.544  1.00  0.00    -0.550 OA
ENDBRANCH   4   5
ENDBRANCH   3   4
ENDBRANCH   2   3
ENDBRANCH   1   2
BRANCH   1   8
ATOM      8  C   UNL     1      12.997  13.649   2.580  1.00  0.00     0.000 C 
BRANCH   8   9
ATOM      9  C   UNL     1      14.124  12.861   3.265  1.00  0.00     0.000 C 
BRANCH   9  10
ATOM     10  C   UNL     1      14.924  13.718   4.260  1.00  0.00     0.006 C 
BRANCH  10  11
ATOM     11  C   UNL     1      15.544  14.959   3.605  1.00  0.00     0.053 C 
BRANCH  11  12
ATOM     12  C   UNL     1      17.005  14.745   3.362  1.00  0.00     0.041 C 
ATOM     13  O   UNL     1      17.530  13.628   3.608  1.00  0.00    -0.550 OA
ATOM     14  O   UNL     1      17.796  15.793   2.909  1.00  0.00    -0.550 OA
ENDBRANCH  11  12
ENDBRANCH  10  11
ENDBRANCH   9  10
ENDBRANCH   8   9
ENDBRANCH   1   8
TORSDOF 9
ENDMDL
MODEL 7
REMARK VINA RESULT:    -4.793      1.769      7.935
REMARK INTER + INTRA:          -7.507
REMARK INTER:                  -7.099
REMARK INTRA:                  -0.408
REMARK UNBOUND:                -0.192
REMARK SMILES O=C([O-])CCCCCCCCC(=O)[O-]
REMARK SMILES IDX 7 1 6 2 5 3 4 4 2 5 1 6 3 7 8 8 9 9 10 10 11 11 12 12 13 13
REMARK SMILES IDX 14 14
REMARK H PARENT
REMARK Flexibility Score: inf
ROOT
ATOM      1  C   UNL     1      12.659  12.943   2.353  1.00  0.00     0.000 C 
ENDROOT
BRANCH   1   2
ATOM      2  C   UNL     1      13.802  13.633   1.595  1.00  0.00     0.000 C 
BRANCH   2   3
ATOM      3  C   UNL     1      15.139  13.564   2.351  1.00  0.00     0.006 C 
BRANCH   3   4
ATOM      4  C   UNL     1      15.726  14.952   2.638  1.00  0.00     0.053 C 
BRANCH   4   5
ATOM      5  C   UNL     1      17.138  14.832   3.120  1.00  0.00     0.041 C 
ATOM      6  O   UNL     1      17.900  15.835   3.107  1.00  0.00    -0.550 OA
ATOM      7  O   UNL     1      17.627  13.602   3.539  1.00  0.00    -0.550 OA
ENDBRANCH   4   5
ENDBRANCH   3   4
ENDBRANCH   2   3
ENDBRANCH   1   2
BRANCH   1   8
ATOM      8  C   UNL     1      13.056  12.663   3.808  1.00  0.00     0.000 C 
BRANCH   8   9
ATOM      9  C   UNL     1      11.831  12.263   4.645  1.00  0.00     0.000 C 
BRANCH   9  10
ATOM     10  C   UNL     1      10.886  11.312   3.894  1.00  0.00     0.006 C 
BRANCH  10  11
ATOM     11  C   UNL     1      10.370  10.171   4.780  1.00  0.00     0.053 C 
BRANCH  11  12
ATOM     12  C   UNL     1       9.391  10.693   5.785  1.00  0.00     0.041 C 
ATOM     13  O   UNL     1       9.625  10.576   7.016  1.00  0.00    -0.550 OA
ATOM     14  O   UNL     1       8.199  11.265   5.361  1.00  0.00    -0.550 OA
ENDBRANCH  11  12
ENDBRANCH  10  11
ENDBRANCH   9  10
ENDBRANCH   8   9
ENDBRANCH   1   8
TORSDOF 9
ENDMDL
MODEL 8
REMARK VINA RESULT:    -4.695      2.691      3.219
REMARK INTER + INTRA:          -7.357
REMARK INTER:                  -6.443
REMARK INTRA:                  -0.913
REMARK UNBOUND:                -0.192
REMARK SMILES O=C([O-])CCCCCCCCC(=O)[O-]
REMARK SMILES IDX 7 1 6 2 5 3 4 4 2 5 1 6 3 7 8 8 9 9 10 10 11 11 12 12 13 13
REMARK SMILES IDX 14 14
REMARK H PARENT
REMARK Flexibility Score: inf
ROOT
ATOM      1  C   UNL     1       8.992  11.252   5.198  1.00  0.00     0.000 C 
ENDROOT
BRANCH   1   2
ATOM      2  C   UNL     1       9.782  11.115   6.509  1.00  0.00     0.000 C 
BRANCH   2   3
ATOM      3  C   UNL     1       9.285  12.075   7.602  1.00  0.00     0.006 C 
BRANCH   3   4
ATOM      4  C   UNL     1       8.765  13.401   7.030  1.00  0.00     0.053 C 
BRANCH   4   5
ATOM      5  C   UNL     1       7.314  13.575   7.352  1.00  0.00     0.041 C 
ATOM      6  O   UNL     1       6.937  14.524   8.089  1.00  0.00    -0.550 OA
ATOM      7  O   UNL     1       6.383  12.660   6.878  1.00  0.00    -0.550 OA
ENDBRANCH   4   5
ENDBRANCH   3   4
ENDBRANCH   2   3
ENDBRANCH   1   2
BRANCH   1   8
ATOM      8  C   UNL     1       9.932  11.225   3.986  1.00  0.00     0.000 C 
BRANCH   8   9
ATOM      9  C   UNL     1      11.370  10.895   4.413  1.00  0.00     0.000 C 
BRANCH   9  10
ATOM     10  C   UNL     1      12.391  11.922   3.898  1.00  0.00     0.006 C 
BRANCH  10  11
ATOM     11  C   UNL     1      13.299  12.461   5.010  1.00  0.00     0.053 C 
BRANCH  11  12
ATOM     12  C   UNL     1      12.568  13.473   5.835  1.00  0.00     0.041 C 
ATOM     13  O   UNL     1      12.781  13.554   7.073  1.00  0.00    -0.550 OA
ATOM     14  O   UNL     1      11.616  14.295   5.245  1.00  0.00    -0.550 OA
ENDBRANCH  11  12
ENDBRANCH  10  11
ENDBRANCH   9  10
ENDBRANCH   8   9
ENDBRANCH   1   8
TORSDOF 9
ENDMDL
MODEL 9
REMARK VINA RESULT:    -4.685      1.972      6.956
REMARK INTER + INTRA:          -7.342
REMARK INTER:                  -6.739
REMARK INTRA:                  -0.603
REMARK UNBOUND:                -0.192
REMARK SMILES O=C([O-])CCCCCCCCC(=O)[O-]
REMARK SMILES IDX 7 1 6 2 5 3 4 4 2 5 1 6 3 7 8 8 9 9 10 10 11 11 12 12 13 13
REMARK SMILES IDX 14 14
REMARK H PARENT
REMARK Flexibility Score: inf
ROOT
ATOM      1  C   UNL     1      10.890  11.189   4.084  1.00  0.00     0.000 C 
ENDROOT
BRANCH   1   2
ATOM      2  C   UNL     1      11.799  12.107   3.253  1.00  0.00     0.000 C 
BRANCH   2   3
ATOM      3  C   UNL     1      13.157  12.362   3.927  1.00  0.00     0.006 C 
BRANCH   3   4
ATOM      4  C   UNL     1      14.187  12.971   2.966  1.00  0.00     0.053 C 
BRANCH   4   5
ATOM      5  C   UNL     1      15.498  13.163   3.661  1.00  0.00     0.041 C 
ATOM      6  O   UNL     1      16.553  13.325   2.991  1.00  0.00    -0.550 OA
ATOM      7  O   UNL     1      15.564  13.114   5.047  1.00  0.00    -0.550 OA
ENDBRANCH   4   5
ENDBRANCH   3   4
ENDBRANCH   2   3
ENDBRANCH   1   2
BRANCH   1   8
ATOM      8  C   UNL     1       9.423  11.624   3.973  1.00  0.00     0.000 C 
BRANCH   8   9
ATOM      9  C   UNL     1       8.635  11.229   5.231  1.00  0.00     0.000 C 
BRANCH   9  10
ATOM     10  C   UNL     1       9.549  10.834   6.402  1.00  0.00     0.006 C 
BRANCH  10  11
ATOM     11  C   UNL     1       9.364  11.738   7.627  1.00  0.00     0.053 C 
BRANCH  11  12
ATOM     12  C   UNL     1       9.886  13.112   7.344  1.00  0.00     0.041 C 
ATOM     13  O   UNL     1       9.111  14.102   7.375  1.00  0.00    -0.550 OA
ATOM     14  O   UNL     1      11.220  13.291   6.999  1.00  0.00    -0.550 OA
ENDBRANCH  11  12
ENDBRANCH  10  11
ENDBRANCH   9  10
ENDBRANCH   8   9
ENDBRANCH   1   8
TORSDOF 9
ENDMDL
