MODEL 1
REMARK VINA RESULT:    -7.075      0.000      0.000
REMARK INTER + INTRA:          -8.615
REMARK INTER:                  -8.316
REMARK INTRA:                  -0.300
REMARK UNBOUND:                -0.300
REMARK SMILES O=c1c(O)c(-c2ccc(O)cc2)oc2cc(O)cc(O)c12
REMARK SMILES IDX 5 1 3 2 2 3 1 4 21 5 19 6 18 7 16 8 15 9 14 10 13 11 6 12
REMARK SMILES IDX 7 13 8 14 9 15 12 16 11 17 10 18 4 20 20 22 17 24
REMARK H PARENT 10 19 4 21 20 23 17 25
REMARK Flexibility Score: inf
ROOT
ATOM      1  C   UNL     1       3.836  -0.032 -23.403  1.00  0.00     0.180 A 
ATOM      2  C   UNL     1       4.730  -1.114 -23.334  1.00  0.00     0.208 A 
ATOM      3  C   UNL     1       4.224  -2.422 -23.407  1.00  0.00     0.238 A 
ATOM      4  O   UNL     1       5.024  -3.386 -23.291  1.00  0.00    -0.285 OA
ATOM      5  C   UNL     1       2.833  -2.631 -23.564  1.00  0.00     0.111 A 
ATOM      6  C   UNL     1       2.214  -3.911 -23.688  1.00  0.00     0.134 A 
ATOM      7  C   UNL     1       0.818  -4.005 -23.707  1.00  0.00     0.093 A 
ATOM      8  C   UNL     1       0.019  -2.859 -23.670  1.00  0.00     0.123 A 
ATOM      9  C   UNL     1       0.614  -1.602 -23.609  1.00  0.00     0.094 A 
ATOM     10  C   UNL     1       2.004  -1.479 -23.552  1.00  0.00     0.146 A 
ATOM     11  O   UNL     1       2.530  -0.262 -23.483  1.00  0.00    -0.452 OA
ENDROOT
BRANCH   1  12
ATOM     12  C   UNL     1       4.296   1.374 -23.358  1.00  0.00     0.021 A 
ATOM     13  C   UNL     1       4.672   2.062 -24.528  1.00  0.00     0.016 A 
ATOM     14  C   UNL     1       5.080   3.397 -24.464  1.00  0.00     0.047 A 
ATOM     15  C   UNL     1       5.105   4.067 -23.233  1.00  0.00     0.115 A 
ATOM     16  C   UNL     1       4.305   2.062 -22.133  1.00  0.00     0.016 A 
ATOM     17  C   UNL     1       4.713   3.397 -22.071  1.00  0.00     0.047 A 
BRANCH  15  18
ATOM     18  O   UNL     1       5.510   5.398 -23.157  1.00  0.00    -0.508 OA
ATOM     19  H   UNL     1       6.150   5.796 -23.835  1.00  0.00     0.293 HD
ENDBRANCH  15  18
ENDBRANCH   1  12
BRANCH   2  20
ATOM     20  O   UNL     1       6.098  -0.886 -23.158  1.00  0.00    -0.502 OA
ATOM     21  H   UNL     1       6.755  -1.634 -22.977  1.00  0.00     0.293 HD
ENDBRANCH   2  20
BRANCH   6  22
ATOM     22  O   UNL     1       2.923  -5.109 -23.825  1.00  0.00    -0.507 OA
ATOM     23  H   UNL     1       2.665  -5.861 -24.445  1.00  0.00     0.293 HD
ENDBRANCH   6  22
BRANCH   8  24
ATOM     24  O   UNL     1      -1.370  -2.961 -23.705  1.00  0.00    -0.508 OA
ATOM     25  H   UNL     1      -1.842  -3.547 -24.384  1.00  0.00     0.293 HD
ENDBRANCH   8  24
TORSDOF 5
ENDMDL
MODEL 2
REMARK VINA RESULT:    -6.779      2.015      2.809
REMARK INTER + INTRA:          -8.267
REMARK INTER:                  -8.003
REMARK INTRA:                  -0.264
REMARK UNBOUND:                -0.300
REMARK SMILES O=c1c(O)c(-c2ccc(O)cc2)oc2cc(O)cc(O)c12
REMARK SMILES IDX 5 1 3 2 2 3 1 4 21 5 19 6 18 7 16 8 15 9 14 10 13 11 6 12
REMARK SMILES IDX 7 13 8 14 9 15 12 16 11 17 10 18 4 20 20 22 17 24
REMARK H PARENT 10 19 4 21 20 23 17 25
REMARK Flexibility Score: inf
ROOT
ATOM      1  C   UNL     1       3.979   1.711 -23.568  1.00  0.00     0.180 A 
ATOM      2  C   UNL     1       3.678   1.342 -24.890  1.00  0.00     0.208 A 
ATOM      3  C   UNL     1       3.058   0.105 -25.129  1.00  0.00     0.238 A 
ATOM      4  O   UNL     1       2.841  -0.243 -26.318  1.00  0.00    -0.285 OA
ATOM      5  C   UNL     1       2.733  -0.741 -24.041  1.00  0.00     0.111 A 
ATOM      6  C   UNL     1       2.069  -1.998 -24.161  1.00  0.00     0.134 A 
ATOM      7  C   UNL     1       1.915  -2.810 -23.032  1.00  0.00     0.093 A 
ATOM      8  C   UNL     1       2.344  -2.381 -21.773  1.00  0.00     0.123 A 
ATOM      9  C   UNL     1       2.940  -1.129 -21.634  1.00  0.00     0.094 A 
ATOM     10  C   UNL     1       3.140  -0.313 -22.750  1.00  0.00     0.146 A 
ATOM     11  O   UNL     1       3.722   0.868 -22.575  1.00  0.00    -0.452 OA
ENDROOT
BRANCH   1  12
ATOM     12  C   UNL     1       4.608   3.010 -23.236  1.00  0.00     0.021 A 
ATOM     13  C   UNL     1       5.997   3.205 -23.358  1.00  0.00     0.016 A 
ATOM     14  C   UNL     1       6.565   4.447 -23.063  1.00  0.00     0.047 A 
ATOM     15  C   UNL     1       5.753   5.514 -22.656  1.00  0.00     0.115 A 
ATOM     16  C   UNL     1       3.800   4.092 -22.848  1.00  0.00     0.016 A 
ATOM     17  C   UNL     1       4.371   5.333 -22.553  1.00  0.00     0.047 A 
BRANCH  15  18
ATOM     18  O   UNL     1       6.309   6.756 -22.358  1.00  0.00    -0.508 OA
ATOM     19  H   UNL     1       5.840   7.619 -22.606  1.00  0.00     0.293 HD
ENDBRANCH  15  18
ENDBRANCH   1  12
BRANCH   2  20
ATOM     20  O   UNL     1       4.027   2.183 -25.952  1.00  0.00    -0.502 OA
ATOM     21  H   UNL     1       3.343   2.733 -26.457  1.00  0.00     0.293 HD
ENDBRANCH   2  20
BRANCH   6  22
ATOM     22  O   UNL     1       1.521  -2.479 -25.355  1.00  0.00    -0.507 OA
ATOM     23  H   UNL     1       0.650  -2.166 -25.755  1.00  0.00     0.293 HD
ENDBRANCH   6  22
BRANCH   8  24
ATOM     24  O   UNL     1       2.173  -3.188 -20.651  1.00  0.00    -0.508 OA
ATOM     25  H   UNL     1       2.757  -4.000 -20.488  1.00  0.00     0.293 HD
ENDBRANCH   8  24
TORSDOF 5
ENDMDL
MODEL 3
REMARK VINA RESULT:    -6.687      2.365      3.497
REMARK INTER + INTRA:          -8.159
REMARK INTER:                  -8.081
REMARK INTRA:                  -0.078
REMARK UNBOUND:                -0.300
REMARK SMILES O=c1c(O)c(-c2ccc(O)cc2)oc2cc(O)cc(O)c12
REMARK SMILES IDX 5 1 3 2 2 3 1 4 21 5 19 6 18 7 16 8 15 9 14 10 13 11 6 12
REMARK SMILES IDX 7 13 8 14 9 15 12 16 11 17 10 18 4 20 20 22 17 24
REMARK H PARENT 10 19 4 21 20 23 17 25
REMARK Flexibility Score: inf
ROOT
ATOM      1  C   UNL     1       4.583   1.870 -23.351  1.00  0.00     0.180 A 
ATOM      2  C   UNL     1       4.090   1.022 -22.344  1.00  0.00     0.208 A 
ATOM      3  C   UNL     1       3.883  -0.336 -22.637  1.00  0.00     0.238 A 
ATOM      4  O   UNL     1       3.392  -1.078 -21.748  1.00  0.00    -0.285 OA
ATOM      5  C   UNL     1       4.187  -0.831 -23.928  1.00  0.00     0.111 A 
ATOM      6  C   UNL     1       4.055  -2.196 -24.325  1.00  0.00     0.134 A 
ATOM      7  C   UNL     1       4.258  -2.550 -25.663  1.00  0.00     0.093 A 
ATOM      8  C   UNL     1       4.653  -1.598 -26.607  1.00  0.00     0.123 A 
ATOM      9  C   UNL     1       4.844  -0.275 -26.218  1.00  0.00     0.094 A 
ATOM     10  C   UNL     1       4.612   0.115 -24.897  1.00  0.00     0.146 A 
ATOM     11  O   UNL     1       4.795   1.389 -24.571  1.00  0.00    -0.452 OA
ENDROOT
BRANCH   1  12
ATOM     12  C   UNL     1       4.849   3.306 -23.110  1.00  0.00     0.021 A 
ATOM     13  C   UNL     1       3.826   4.185 -22.707  1.00  0.00     0.016 A 
ATOM     14  C   UNL     1       4.107   5.532 -22.462  1.00  0.00     0.047 A 
ATOM     15  C   UNL     1       5.415   6.016 -22.602  1.00  0.00     0.115 A 
ATOM     16  C   UNL     1       6.161   3.796 -23.228  1.00  0.00     0.016 A 
ATOM     17  C   UNL     1       6.440   5.144 -22.982  1.00  0.00     0.047 A 
BRANCH  15  18
ATOM     18  O   UNL     1       5.707   7.356 -22.361  1.00  0.00    -0.508 OA
ATOM     19  H   UNL     1       5.386   7.825 -21.522  1.00  0.00     0.293 HD
ENDBRANCH  15  18
ENDBRANCH   1  12
BRANCH   2  20
ATOM     20  O   UNL     1       3.777   1.536 -21.083  1.00  0.00    -0.502 OA
ATOM     21  H   UNL     1       3.425   2.476 -20.950  1.00  0.00     0.293 HD
ENDBRANCH   2  20
BRANCH   6  22
ATOM     22  O   UNL     1       3.754  -3.239 -23.442  1.00  0.00    -0.507 OA
ATOM     23  H   UNL     1       3.398  -4.140 -23.718  1.00  0.00     0.293 HD
ENDBRANCH   6  22
BRANCH   8  24
ATOM     24  O   UNL     1       4.870  -1.962 -27.935  1.00  0.00    -0.508 OA
ATOM     25  H   UNL     1       4.319  -1.568 -28.689  1.00  0.00     0.293 HD
ENDBRANCH   8  24
TORSDOF 5
ENDMDL
MODEL 4
REMARK VINA RESULT:    -6.610      1.884      7.018
REMARK INTER + INTRA:          -8.069
REMARK INTER:                  -7.829
REMARK INTRA:                  -0.239
REMARK UNBOUND:                -0.300
REMARK SMILES O=c1c(O)c(-c2ccc(O)cc2)oc2cc(O)cc(O)c12
REMARK SMILES IDX 5 1 3 2 2 3 1 4 21 5 19 6 18 7 16 8 15 9 14 10 13 11 6 12
REMARK SMILES IDX 7 13 8 14 9 15 12 16 11 17 10 18 4 20 20 22 17 24
REMARK H PARENT 10 19 4 21 20 23 17 25
REMARK Flexibility Score: inf
ROOT
ATOM      1  C   UNL     1       4.143   0.890 -23.649  1.00  0.00     0.180 A 
ATOM      2  C   UNL     1       4.250   1.751 -22.542  1.00  0.00     0.208 A 
ATOM      3  C   UNL     1       4.460   3.122 -22.762  1.00  0.00     0.238 A 
ATOM      4  O   UNL     1       4.608   3.877 -21.768  1.00  0.00    -0.285 OA
ATOM      5  C   UNL     1       4.544   3.617 -24.086  1.00  0.00     0.111 A 
ATOM      6  C   UNL     1       4.716   4.992 -24.427  1.00  0.00     0.134 A 
ATOM      7  C   UNL     1       4.918   5.353 -25.764  1.00  0.00     0.093 A 
ATOM      8  C   UNL     1       4.890   4.393 -26.780  1.00  0.00     0.123 A 
ATOM      9  C   UNL     1       4.663   3.056 -26.464  1.00  0.00     0.094 A 
ATOM     10  C   UNL     1       4.495   2.662 -25.135  1.00  0.00     0.146 A 
ATOM     11  O   UNL     1       4.293   1.376 -24.876  1.00  0.00    -0.452 OA
ENDROOT
BRANCH   1  12
ATOM     12  C   UNL     1       3.896  -0.562 -23.497  1.00  0.00     0.021 A 
ATOM     13  C   UNL     1       4.937  -1.501 -23.627  1.00  0.00     0.016 A 
ATOM     14  C   UNL     1       4.684  -2.864 -23.454  1.00  0.00     0.047 A 
ATOM     15  C   UNL     1       3.393  -3.307 -23.136  1.00  0.00     0.115 A 
ATOM     16  C   UNL     1       2.610  -1.013 -23.156  1.00  0.00     0.016 A 
ATOM     17  C   UNL     1       2.360  -2.378 -22.984  1.00  0.00     0.047 A 
BRANCH  15  18
ATOM     18  O   UNL     1       3.130  -4.664 -22.962  1.00  0.00    -0.508 OA
ATOM     19  H   UNL     1       2.530  -4.996 -22.217  1.00  0.00     0.293 HD
ENDBRANCH  15  18
ENDBRANCH   1  12
BRANCH   2  20
ATOM     20  O   UNL     1       4.184   1.237 -21.244  1.00  0.00    -0.502 OA
ATOM     21  H   UNL     1       3.873   0.294 -21.047  1.00  0.00     0.293 HD
ENDBRANCH   2  20
BRANCH   6  22
ATOM     22  O   UNL     1       4.668   6.038 -23.499  1.00  0.00    -0.507 OA
ATOM     23  H   UNL     1       4.158   6.012 -22.630  1.00  0.00     0.293 HD
ENDBRANCH   6  22
BRANCH   8  24
ATOM     24  O   UNL     1       5.076   4.763 -28.111  1.00  0.00    -0.508 OA
ATOM     25  H   UNL     1       4.339   4.657 -28.798  1.00  0.00     0.293 HD
ENDBRANCH   8  24
TORSDOF 5
ENDMDL
MODEL 5
REMARK VINA RESULT:    -6.564      1.918      2.157
REMARK INTER + INTRA:          -8.014
REMARK INTER:                  -7.760
REMARK INTRA:                  -0.254
REMARK UNBOUND:                -0.300
REMARK SMILES O=c1c(O)c(-c2ccc(O)cc2)oc2cc(O)cc(O)c12
REMARK SMILES IDX 5 1 3 2 2 3 1 4 21 5 19 6 18 7 16 8 15 9 14 10 13 11 6 12
REMARK SMILES IDX 7 13 8 14 9 15 12 16 11 17 10 18 4 20 20 22 17 24
REMARK H PARENT 10 19 4 21 20 23 17 25
REMARK Flexibility Score: inf
ROOT
ATOM      1  C   UNL     1       4.241   0.967 -23.886  1.00  0.00     0.180 A 
ATOM      2  C   UNL     1       4.763   0.159 -24.911  1.00  0.00     0.208 A 
ATOM      3  C   UNL     1       4.525  -1.224 -24.877  1.00  0.00     0.238 A 
ATOM      4  O   UNL     1       5.040  -1.948 -25.767  1.00  0.00    -0.285 OA
ATOM      5  C   UNL     1       3.754  -1.780 -23.827  1.00  0.00     0.111 A 
ATOM      6  C   UNL     1       3.416  -3.162 -23.713  1.00  0.00     0.134 A 
ATOM      7  C   UNL     1       2.761  -3.621 -22.565  1.00  0.00     0.093 A 
ATOM      8  C   UNL     1       2.373  -2.736 -21.555  1.00  0.00     0.123 A 
ATOM      9  C   UNL     1       2.645  -1.376 -21.684  1.00  0.00     0.094 A 
ATOM     10  C   UNL     1       3.330  -0.894 -22.802  1.00  0.00     0.146 A 
ATOM     11  O   UNL     1       3.579   0.407 -22.880  1.00  0.00    -0.452 OA
ENDROOT
BRANCH   1  12
ATOM     12  C   UNL     1       4.429   2.436 -23.868  1.00  0.00     0.021 A 
ATOM     13  C   UNL     1       3.686   3.282 -24.712  1.00  0.00     0.016 A 
ATOM     14  C   UNL     1       3.864   4.667 -24.659  1.00  0.00     0.047 A 
ATOM     15  C   UNL     1       4.775   5.226 -23.753  1.00  0.00     0.115 A 
ATOM     16  C   UNL     1       5.325   3.007 -22.948  1.00  0.00     0.016 A 
ATOM     17  C   UNL     1       5.501   4.393 -22.897  1.00  0.00     0.047 A 
BRANCH  15  18
ATOM     18  O   UNL     1       4.961   6.605 -23.692  1.00  0.00    -0.508 OA
ATOM     19  H   UNL     1       4.323   7.204 -23.181  1.00  0.00     0.293 HD
ENDBRANCH  15  18
ENDBRANCH   1  12
BRANCH   2  20
ATOM     20  O   UNL     1       5.539   0.726 -25.927  1.00  0.00    -0.502 OA
ATOM     21  H   UNL     1       5.152   0.985 -26.826  1.00  0.00     0.293 HD
ENDBRANCH   2  20
BRANCH   6  22
ATOM     22  O   UNL     1       3.676  -4.112 -24.706  1.00  0.00    -0.507 OA
ATOM     23  H   UNL     1       4.520  -4.154 -25.255  1.00  0.00     0.293 HD
ENDBRANCH   6  22
BRANCH   8  24
ATOM     24  O   UNL     1       1.707  -3.199 -20.422  1.00  0.00    -0.508 OA
ATOM     25  H   UNL     1       1.758  -2.706 -19.539  1.00  0.00     0.293 HD
ENDBRANCH   8  24
TORSDOF 5
ENDMDL
MODEL 6
REMARK VINA RESULT:    -6.550      2.495      3.806
REMARK INTER + INTRA:          -7.998
REMARK INTER:                  -7.721
REMARK INTRA:                  -0.277
REMARK UNBOUND:                -0.300
REMARK SMILES O=c1c(O)c(-c2ccc(O)cc2)oc2cc(O)cc(O)c12
REMARK SMILES IDX 5 1 3 2 2 3 1 4 21 5 19 6 18 7 16 8 15 9 14 10 13 11 6 12
REMARK SMILES IDX 7 13 8 14 9 15 12 16 11 17 10 18 4 20 20 22 17 24
REMARK H PARENT 10 19 4 21 20 23 17 25
REMARK Flexibility Score: inf
ROOT
ATOM      1  C   UNL     1       4.858   2.121 -24.545  1.00  0.00     0.180 A 
ATOM      2  C   UNL     1       5.065   1.991 -25.930  1.00  0.00     0.208 A 
ATOM      3  C   UNL     1       5.001   0.714 -26.511  1.00  0.00     0.238 A 
ATOM      4  O   UNL     1       5.240   0.598 -27.741  1.00  0.00    -0.285 OA
ATOM      5  C   UNL     1       4.716  -0.413 -25.704  1.00  0.00     0.111 A 
ATOM      6  C   UNL     1       4.588  -1.748 -26.192  1.00  0.00     0.134 A 
ATOM      7  C   UNL     1       4.435  -2.804 -25.286  1.00  0.00     0.093 A 
ATOM      8  C   UNL     1       4.340  -2.565 -23.912  1.00  0.00     0.123 A 
ATOM      9  C   UNL     1       4.403  -1.260 -23.430  1.00  0.00     0.094 A 
ATOM     10  C   UNL     1       4.593  -0.190 -24.308  1.00  0.00     0.146 A 
ATOM     11  O   UNL     1       4.659   1.037 -23.805  1.00  0.00    -0.452 OA
ENDROOT
BRANCH   1  12
ATOM     12  C   UNL     1       4.884   3.436 -23.866  1.00  0.00     0.021 A 
ATOM     13  C   UNL     1       6.056   3.925 -23.258  1.00  0.00     0.016 A 
ATOM     14  C   UNL     1       6.064   5.181 -22.644  1.00  0.00     0.047 A 
ATOM     15  C   UNL     1       4.906   5.970 -22.641  1.00  0.00     0.115 A 
ATOM     16  C   UNL     1       3.735   4.244 -23.876  1.00  0.00     0.016 A 
ATOM     17  C   UNL     1       3.744   5.500 -23.261  1.00  0.00     0.047 A 
BRANCH  15  18
ATOM     18  O   UNL     1       4.901   7.222 -22.031  1.00  0.00    -0.508 OA
ATOM     19  H   UNL     1       5.700   7.843 -22.089  1.00  0.00     0.293 HD
ENDBRANCH  15  18
ENDBRANCH   1  12
BRANCH   2  20
ATOM     20  O   UNL     1       5.365   3.115 -26.705  1.00  0.00    -0.502 OA
ATOM     21  H   UNL     1       5.226   3.137 -27.708  1.00  0.00     0.293 HD
ENDBRANCH   2  20
BRANCH   6  22
ATOM     22  O   UNL     1       4.577  -2.085 -27.550  1.00  0.00    -0.507 OA
ATOM     23  H   UNL     1       5.401  -2.242 -28.109  1.00  0.00     0.293 HD
ENDBRANCH   6  22
BRANCH   8  24
ATOM     24  O   UNL     1       4.172  -3.621 -23.018  1.00  0.00    -0.508 OA
ATOM     25  H   UNL     1       4.674  -4.494 -23.128  1.00  0.00     0.293 HD
ENDBRANCH   8  24
TORSDOF 5
ENDMDL
MODEL 7
REMARK VINA RESULT:    -6.528      1.933      7.203
REMARK INTER + INTRA:          -7.972
REMARK INTER:                  -7.717
REMARK INTRA:                  -0.255
REMARK UNBOUND:                -0.300
REMARK SMILES O=c1c(O)c(-c2ccc(O)cc2)oc2cc(O)cc(O)c12
REMARK SMILES IDX 5 1 3 2 2 3 1 4 21 5 19 6 18 7 16 8 15 9 14 10 13 11 6 12
REMARK SMILES IDX 7 13 8 14 9 15 12 16 11 17 10 18 4 20 20 22 17 24
REMARK H PARENT 10 19 4 21 20 23 17 25
REMARK Flexibility Score: inf
ROOT
ATOM      1  C   UNL     1       3.750   0.798 -24.292  1.00  0.00     0.180 A 
ATOM      2  C   UNL     1       3.175   1.293 -25.476  1.00  0.00     0.208 A 
ATOM      3  C   UNL     1       3.353   2.647 -25.805  1.00  0.00     0.238 A 
ATOM      4  O   UNL     1       2.792   3.095 -26.838  1.00  0.00    -0.285 OA
ATOM      5  C   UNL     1       4.116   3.484 -24.956  1.00  0.00     0.111 A 
ATOM      6  C   UNL     1       4.395   4.860 -25.212  1.00  0.00     0.134 A 
ATOM      7  C   UNL     1       5.049   5.625 -24.239  1.00  0.00     0.093 A 
ATOM      8  C   UNL     1       5.492   5.047 -23.047  1.00  0.00     0.123 A 
ATOM      9  C   UNL     1       5.278   3.691 -22.814  1.00  0.00     0.094 A 
ATOM     10  C   UNL     1       4.596   2.910 -23.750  1.00  0.00     0.146 A 
ATOM     11  O   UNL     1       4.404   1.624 -23.483  1.00  0.00    -0.452 OA
ENDROOT
BRANCH   1  12
ATOM     12  C   UNL     1       3.627  -0.621 -23.891  1.00  0.00     0.021 A 
ATOM     13  C   UNL     1       2.452  -1.117 -23.297  1.00  0.00     0.016 A 
ATOM     14  C   UNL     1       2.350  -2.467 -22.949  1.00  0.00     0.047 A 
ATOM     15  C   UNL     1       3.415  -3.342 -23.203  1.00  0.00     0.115 A 
ATOM     16  C   UNL     1       4.681  -1.511 -24.160  1.00  0.00     0.016 A 
ATOM     17  C   UNL     1       4.578  -2.861 -23.811  1.00  0.00     0.047 A 
BRANCH  15  18
ATOM     18  O   UNL     1       3.325  -4.689 -22.859  1.00  0.00    -0.508 OA
ATOM     19  H   UNL     1       3.841  -5.072 -22.076  1.00  0.00     0.293 HD
ENDBRANCH  15  18
ENDBRANCH   1  12
BRANCH   2  20
ATOM     20  O   UNL     1       2.408   0.454 -26.289  1.00  0.00    -0.502 OA
ATOM     21  H   UNL     1       2.824  -0.228 -26.911  1.00  0.00     0.293 HD
ENDBRANCH   2  20
BRANCH   6  22
ATOM     22  O   UNL     1       4.077   5.511 -26.408  1.00  0.00    -0.507 OA
ATOM     23  H   UNL     1       3.143   5.761 -26.696  1.00  0.00     0.293 HD
ENDBRANCH   6  22
BRANCH   8  24
ATOM     24  O   UNL     1       6.157   5.812 -22.091  1.00  0.00    -0.508 OA
ATOM     25  H   UNL     1       6.570   5.390 -21.268  1.00  0.00     0.293 HD
ENDBRANCH   8  24
TORSDOF 5
ENDMDL
MODEL 8
REMARK VINA RESULT:    -6.336      2.267      2.793
REMARK INTER + INTRA:          -7.747
REMARK INTER:                  -7.657
REMARK INTRA:                  -0.090
REMARK UNBOUND:                -0.300
REMARK SMILES O=c1c(O)c(-c2ccc(O)cc2)oc2cc(O)cc(O)c12
REMARK SMILES IDX 5 1 3 2 2 3 1 4 21 5 19 6 18 7 16 8 15 9 14 10 13 11 6 12
REMARK SMILES IDX 7 13 8 14 9 15 12 16 11 17 10 18 4 20 20 22 17 24
REMARK H PARENT 10 19 4 21 20 23 17 25
REMARK Flexibility Score: inf
ROOT
ATOM      1  C   UNL     1       4.466   2.021 -23.724  1.00  0.00     0.180 A 
ATOM      2  C   UNL     1       4.975   0.882 -23.075  1.00  0.00     0.208 A 
ATOM      3  C   UNL     1       4.548  -0.388 -23.493  1.00  0.00     0.238 A 
ATOM      4  O   UNL     1       4.965  -1.400 -22.873  1.00  0.00    -0.285 OA
ATOM      5  C   UNL     1       3.630  -0.505 -24.565  1.00  0.00     0.111 A 
ATOM      6  C   UNL     1       3.159  -1.742 -25.098  1.00  0.00     0.134 A 
ATOM      7  C   UNL     1       2.153  -1.738 -26.070  1.00  0.00     0.093 A 
ATOM      8  C   UNL     1       1.646  -0.538 -26.576  1.00  0.00     0.123 A 
ATOM      9  C   UNL     1       2.142   0.676 -26.106  1.00  0.00     0.094 A 
ATOM     10  C   UNL     1       3.120   0.702 -25.109  1.00  0.00     0.146 A 
ATOM     11  O   UNL     1       3.556   1.881 -24.681  1.00  0.00    -0.452 OA
ENDROOT
BRANCH   1  12
ATOM     12  C   UNL     1       4.888   3.392 -23.356  1.00  0.00     0.021 A 
ATOM     13  C   UNL     1       6.239   3.782 -23.407  1.00  0.00     0.016 A 
ATOM     14  C   UNL     1       6.611   5.089 -23.078  1.00  0.00     0.047 A 
ATOM     15  C   UNL     1       5.637   6.026 -22.708  1.00  0.00     0.115 A 
ATOM     16  C   UNL     1       3.917   4.344 -23.004  1.00  0.00     0.016 A 
ATOM     17  C   UNL     1       4.291   5.651 -22.675  1.00  0.00     0.047 A 
BRANCH  15  18
ATOM     18  O   UNL     1       5.995   7.331 -22.378  1.00  0.00    -0.508 OA
ATOM     19  H   UNL     1       6.873   7.732 -22.685  1.00  0.00     0.293 HD
ENDBRANCH  15  18
ENDBRANCH   1  12
BRANCH   2  20
ATOM     20  O   UNL     1       5.864   1.021 -22.005  1.00  0.00    -0.502 OA
ATOM     21  H   UNL     1       6.174   0.233 -21.450  1.00  0.00     0.293 HD
ENDBRANCH   2  20
BRANCH   6  22
ATOM     22  O   UNL     1       3.664  -2.993 -24.728  1.00  0.00    -0.507 OA
ATOM     23  H   UNL     1       3.647  -3.815 -25.311  1.00  0.00     0.293 HD
ENDBRANCH   6  22
BRANCH   8  24
ATOM     24  O   UNL     1       0.656  -0.542 -27.556  1.00  0.00    -0.508 OA
ATOM     25  H   UNL     1       0.540   0.235 -28.197  1.00  0.00     0.293 HD
ENDBRANCH   8  24
TORSDOF 5
ENDMDL
MODEL 9
REMARK VINA RESULT:    -6.242      2.122      2.422
REMARK INTER + INTRA:          -7.636
REMARK INTER:                  -7.596
REMARK INTRA:                  -0.040
REMARK UNBOUND:                -0.300
REMARK SMILES O=c1c(O)c(-c2ccc(O)cc2)oc2cc(O)cc(O)c12
REMARK SMILES IDX 5 1 3 2 2 3 1 4 21 5 19 6 18 7 16 8 15 9 14 10 13 11 6 12
REMARK SMILES IDX 7 13 8 14 9 15 12 16 11 17 10 18 4 20 20 22 17 24
REMARK H PARENT 10 19 4 21 20 23 17 25
REMARK Flexibility Score: inf
ROOT
ATOM      1  C   UNL     1       2.991   0.282 -24.944  1.00  0.00     0.180 A 
ATOM      2  C   UNL     1       4.200  -0.293 -24.517  1.00  0.00     0.208 A 
ATOM      3  C   UNL     1       4.177  -1.564 -23.919  1.00  0.00     0.238 A 
ATOM      4  O   UNL     1       5.255  -2.050 -23.491  1.00  0.00    -0.285 OA
ATOM      5  C   UNL     1       2.947  -2.250 -23.771  1.00  0.00     0.111 A 
ATOM      6  C   UNL     1       2.810  -3.558 -23.217  1.00  0.00     0.134 A 
ATOM      7  C   UNL     1       1.533  -4.086 -22.998  1.00  0.00     0.093 A 
ATOM      8  C   UNL     1       0.387  -3.378 -23.375  1.00  0.00     0.123 A 
ATOM      9  C   UNL     1       0.512  -2.126 -23.972  1.00  0.00     0.094 A 
ATOM     10  C   UNL     1       1.773  -1.558 -24.169  1.00  0.00     0.146 A 
ATOM     11  O   UNL     1       1.847  -0.358 -24.731  1.00  0.00    -0.452 OA
ENDROOT
BRANCH   1  12
ATOM     12  C   UNL     1       2.939   1.606 -25.604  1.00  0.00     0.021 A 
ATOM     13  C   UNL     1       2.364   1.769 -26.879  1.00  0.00     0.016 A 
ATOM     14  C   UNL     1       2.303   3.033 -27.471  1.00  0.00     0.047 A 
ATOM     15  C   UNL     1       2.804   4.153 -26.794  1.00  0.00     0.115 A 
ATOM     16  C   UNL     1       3.419   2.738 -24.925  1.00  0.00     0.016 A 
ATOM     17  C   UNL     1       3.359   4.002 -25.520  1.00  0.00     0.047 A 
BRANCH  15  18
ATOM     18  O   UNL     1       2.751   5.418 -27.375  1.00  0.00    -0.508 OA
ATOM     19  H   UNL     1       2.620   6.252 -26.816  1.00  0.00     0.293 HD
ENDBRANCH  15  18
ENDBRANCH   1  12
BRANCH   2  20
ATOM     20  O   UNL     1       5.400   0.410 -24.653  1.00  0.00    -0.502 OA
ATOM     21  H   UNL     1       5.930   0.741 -23.857  1.00  0.00     0.293 HD
ENDBRANCH   2  20
BRANCH   6  22
ATOM     22  O   UNL     1       3.891  -4.384 -22.892  1.00  0.00    -0.507 OA
ATOM     23  H   UNL     1       4.780  -4.059 -22.548  1.00  0.00     0.293 HD
ENDBRANCH   6  22
BRANCH   8  24
ATOM     24  O   UNL     1      -0.881  -3.918 -23.168  1.00  0.00    -0.508 OA
ATOM     25  H   UNL     1      -1.636  -3.363 -22.783  1.00  0.00     0.293 HD
ENDBRANCH   8  24
TORSDOF 5
ENDMDL
