MODEL 1
REMARK VINA RESULT:    -1.503      0.000      0.000
REMARK INTER + INTRA:          -1.503
REMARK INTER:                  -1.503
REMARK INTRA:                   0.000
REMARK UNBOUND:                 0.000
REMARK SMILES CC(=O)[O-]
REMARK SMILES IDX 1 1 2 2 3 3 4 4
REMARK H PARENT
REMARK Flexibility Score: inf
ROOT
ATOM      1  C   UNL     1      23.764  29.620  14.170  1.00  0.00     0.063 C 
ATOM      2  C   UNL     1      24.598  29.504  12.939  1.00  0.00     0.038 C 
ATOM      3  O   UNL     1      24.261  30.111  11.889  1.00  0.00    -0.550 OA
ATOM      4  O   UNL     1      25.777  28.770  12.963  1.00  0.00    -0.550 OA
ENDROOT
TORSDOF 0
ENDMDL
MODEL 2
REMARK VINA RESULT:    -1.376      1.570      2.022
REMARK INTER + INTRA:          -1.376
REMARK INTER:                  -1.376
REMARK INTRA:                   0.000
REMARK UNBOUND:                 0.000
REMARK SMILES CC(=O)[O-]
REMARK SMILES IDX 1 1 2 2 3 3 4 4
REMARK H PARENT
REMARK Flexibility Score: inf
ROOT
ATOM      1  C   UNL     1      24.188  29.656  12.007  1.00  0.00     0.063 C 
ATOM      2  C   UNL     1      24.941  29.134  13.184  1.00  0.00     0.038 C 
ATOM      3  O   UNL     1      26.070  28.601  13.024  1.00  0.00    -0.550 OA
ATOM      4  O   UNL     1      24.422  29.282  14.464  1.00  0.00    -0.550 OA
ENDROOT
TORSDOF 0
ENDMDL
MODEL 3
REMARK VINA RESULT:    -1.295      1.406      1.429
REMARK INTER + INTRA:          -1.295
REMARK INTER:                  -1.295
REMARK INTRA:                   0.000
REMARK UNBOUND:                 0.000
REMARK SMILES CC(=O)[O-]
REMARK SMILES IDX 1 1 2 2 3 3 4 4
REMARK H PARENT
REMARK Flexibility Score: inf
ROOT
ATOM      1  C   UNL     1      25.033  28.531  14.123  1.00  0.00     0.063 C 
ATOM      2  C   UNL     1      24.562  28.891  12.754  1.00  0.00     0.038 C 
ATOM      3  O   UNL     1      24.589  30.090  12.372  1.00  0.00    -0.550 OA
ATOM      4  O   UNL     1      24.142  27.898  11.879  1.00  0.00    -0.550 OA
ENDROOT
TORSDOF 0
ENDMDL
MODEL 4
REMARK VINA RESULT:    -1.292     29.075     29.331
REMARK INTER + INTRA:          -1.292
REMARK INTER:                  -1.292
REMARK INTRA:                   0.000
REMARK UNBOUND:                 0.000
REMARK SMILES CC(=O)[O-]
REMARK SMILES IDX 1 1 2 2 3 3 4 4
REMARK H PARENT
REMARK Flexibility Score: inf
ROOT
ATOM      1  C   UNL     1       6.299  12.242  27.269  1.00  0.00     0.063 C 
ATOM      2  C   UNL     1       7.077  10.973  27.358  1.00  0.00     0.038 C 
ATOM      3  O   UNL     1       8.034  10.875  28.170  1.00  0.00    -0.550 OA
ATOM      4  O   UNL     1       6.714   9.878  26.584  1.00  0.00    -0.550 OA
ENDROOT
TORSDOF 0
ENDMDL
MODEL 5
REMARK VINA RESULT:    -1.273     29.217     29.331
REMARK INTER + INTRA:          -1.273
REMARK INTER:                  -1.273
REMARK INTRA:                   0.000
REMARK UNBOUND:                 0.000
REMARK SMILES CC(=O)[O-]
REMARK SMILES IDX 1 1 2 2 3 3 4 4
REMARK H PARENT
REMARK Flexibility Score: inf
ROOT
ATOM      1  C   UNL     1       6.794   9.964  26.398  1.00  0.00     0.063 C 
ATOM      2  C   UNL     1       7.195  10.940  27.452  1.00  0.00     0.038 C 
ATOM      3  O   UNL     1       6.531  11.996  27.619  1.00  0.00    -0.550 OA
ATOM      4  O   UNL     1       8.269  10.661  28.287  1.00  0.00    -0.550 OA
ENDROOT
TORSDOF 0
ENDMDL
MODEL 6
REMARK VINA RESULT:    -1.264     29.037     29.273
REMARK INTER + INTRA:          -1.264
REMARK INTER:                  -1.264
REMARK INTRA:                   0.000
REMARK UNBOUND:                 0.000
REMARK SMILES CC(=O)[O-]
REMARK SMILES IDX 1 1 2 2 3 3 4 4
REMARK H PARENT
REMARK Flexibility Score: inf
ROOT
ATOM      1  C   UNL     1       6.335  12.235  27.294  1.00  0.00     0.063 C 
ATOM      2  C   UNL     1       7.099  10.956  27.372  1.00  0.00     0.038 C 
ATOM      3  O   UNL     1       6.771   9.980  26.648  1.00  0.00    -0.550 OA
ATOM      4  O   UNL     1       8.207  10.856  28.203  1.00  0.00    -0.550 OA
ENDROOT
TORSDOF 0
ENDMDL
MODEL 7
REMARK VINA RESULT:    -1.257      1.925      2.164
REMARK INTER + INTRA:          -1.257
REMARK INTER:                  -1.257
REMARK INTRA:                   0.000
REMARK UNBOUND:                 0.000
REMARK SMILES CC(=O)[O-]
REMARK SMILES IDX 1 1 2 2 3 3 4 4
REMARK H PARENT
REMARK Flexibility Score: inf
ROOT
ATOM      1  C   UNL     1      25.107  28.944  12.560  1.00  0.00     0.063 C 
ATOM      2  C   UNL     1      24.907  28.772  14.028  1.00  0.00     0.038 C 
ATOM      3  O   UNL     1      24.076  29.492  14.640  1.00  0.00    -0.550 OA
ATOM      4  O   UNL     1      25.598  27.782  14.714  1.00  0.00    -0.550 OA
ENDROOT
TORSDOF 0
ENDMDL
MODEL 8
REMARK VINA RESULT:    -1.225     28.634     29.012
REMARK INTER + INTRA:          -1.225
REMARK INTER:                  -1.225
REMARK INTRA:                   0.000
REMARK UNBOUND:                 0.000
REMARK SMILES CC(=O)[O-]
REMARK SMILES IDX 1 1 2 2 3 3 4 4
REMARK H PARENT
REMARK Flexibility Score: inf
ROOT
ATOM      1  C   UNL     1       6.978  10.318  26.814  1.00  0.00     0.063 C 
ATOM      2  C   UNL     1       7.007  11.670  27.442  1.00  0.00     0.038 C 
ATOM      3  O   UNL     1       8.068  12.100  27.966  1.00  0.00    -0.550 OA
ATOM      4  O   UNL     1       5.880  12.480  27.403  1.00  0.00    -0.550 OA
ENDROOT
TORSDOF 0
ENDMDL
