MODEL 1
REMARK VINA RESULT:    -4.965      0.000      0.000
REMARK INTER + INTRA:          -5.255
REMARK INTER:                  -5.255
REMARK INTRA:                   0.000
REMARK UNBOUND:                 0.000
REMARK SMILES O=c1ccc2cc(O)c(O)cc2o1
REMARK SMILES IDX 4 1 3 2 2 3 1 4 13 5 12 6 11 7 9 8 7 9 6 10 5 11 8 12 10 14
REMARK H PARENT 8 13 10 15
REMARK Flexibility Score: inf
ROOT
ATOM      1  C   UNL     1      13.332  14.455  20.901  1.00  0.00     0.019 A 
ATOM      2  C   UNL     1      14.071  13.780  21.872  1.00  0.00     0.094 A 
ATOM      3  C   UNL     1      13.638  12.520  22.302  1.00  0.00     0.336 A 
ATOM      4  O   UNL     1      14.291  11.897  23.178  1.00  0.00    -0.246 OA
ATOM      5  O   UNL     1      12.535  11.978  21.790  1.00  0.00    -0.423 OA
ATOM      6  C   UNL     1      11.802  12.587  20.861  1.00  0.00     0.142 A 
ATOM      7  C   UNL     1      10.653  11.966  20.360  1.00  0.00     0.098 A 
ATOM      8  C   UNL     1       9.876  12.604  19.383  1.00  0.00     0.161 A 
ATOM      9  C   UNL     1      10.250  13.869  18.904  1.00  0.00     0.158 A 
ATOM     10  C   UNL     1      11.400  14.496  19.404  1.00  0.00     0.062 A 
ATOM     11  C   UNL     1      12.178  13.859  20.381  1.00  0.00     0.022 A 
ENDROOT
BRANCH   9  12
ATOM     12  O   UNL     1       9.472  14.496  17.932  1.00  0.00    -0.504 OA
ATOM     13  H   UNL     1       9.782  14.568  16.970  1.00  0.00     0.293 HD
ENDBRANCH   9  12
BRANCH   8  14
ATOM     14  O   UNL     1       8.731  11.988  18.881  1.00  0.00    -0.504 OA
ATOM     15  H   UNL     1       8.069  12.490  18.301  1.00  0.00     0.293 HD
ENDBRANCH   8  14
TORSDOF 2
ENDMDL
MODEL 2
REMARK VINA RESULT:    -4.866      1.447      2.386
REMARK INTER + INTRA:          -5.150
REMARK INTER:                  -5.150
REMARK INTRA:                   0.000
REMARK UNBOUND:                 0.000
REMARK SMILES O=c1ccc2cc(O)c(O)cc2o1
REMARK SMILES IDX 4 1 3 2 2 3 1 4 13 5 12 6 11 7 9 8 7 9 6 10 5 11 8 12 10 14
REMARK H PARENT 8 13 10 15
REMARK Flexibility Score: inf
ROOT
ATOM      1  C   UNL     1      12.646  12.601  22.070  1.00  0.00     0.019 A 
ATOM      2  C   UNL     1      13.704  13.401  22.499  1.00  0.00     0.094 A 
ATOM      3  C   UNL     1      13.934  14.624  21.857  1.00  0.00     0.336 A 
ATOM      4  O   UNL     1      14.884  15.359  22.231  1.00  0.00    -0.246 OA
ATOM      5  O   UNL     1      13.154  15.013  20.852  1.00  0.00    -0.423 OA
ATOM      6  C   UNL     1      12.134  14.281  20.411  1.00  0.00     0.142 A 
ATOM      7  C   UNL     1      11.348  14.743  19.351  1.00  0.00     0.098 A 
ATOM      8  C   UNL     1      10.273  13.974  18.882  1.00  0.00     0.161 A 
ATOM      9  C   UNL     1       9.982  12.737  19.478  1.00  0.00     0.158 A 
ATOM     10  C   UNL     1      10.767  12.269  20.542  1.00  0.00     0.062 A 
ATOM     11  C   UNL     1      11.842  13.037  21.011  1.00  0.00     0.022 A 
ENDROOT
BRANCH   9  12
ATOM     12  O   UNL     1       8.911  11.980  19.006  1.00  0.00    -0.504 OA
ATOM     13  H   UNL     1       7.964  12.142  19.328  1.00  0.00     0.293 HD
ENDBRANCH   9  12
BRANCH   8  14
ATOM     14  O   UNL     1       9.488  14.432  17.826  1.00  0.00    -0.504 OA
ATOM     15  H   UNL     1       9.893  14.673  16.929  1.00  0.00     0.293 HD
ENDBRANCH   8  14
TORSDOF 2
ENDMDL
MODEL 3
REMARK VINA RESULT:    -4.708      1.969      2.271
REMARK INTER + INTRA:          -4.983
REMARK INTER:                  -4.983
REMARK INTRA:                   0.000
REMARK UNBOUND:                 0.000
REMARK SMILES O=c1ccc2cc(O)c(O)cc2o1
REMARK SMILES IDX 4 1 3 2 2 3 1 4 13 5 12 6 11 7 9 8 7 9 6 10 5 11 8 12 10 14
REMARK H PARENT 8 13 10 15
REMARK Flexibility Score: inf
ROOT
ATOM      1  C   UNL     1      13.653  15.638  19.673  1.00  0.00     0.019 A 
ATOM      2  C   UNL     1      14.356  16.157  20.760  1.00  0.00     0.094 A 
ATOM      3  C   UNL     1      14.022  15.730  22.050  1.00  0.00     0.336 A 
ATOM      4  O   UNL     1      14.644  16.187  23.043  1.00  0.00    -0.246 OA
ATOM      5  O   UNL     1      13.047  14.843  22.234  1.00  0.00    -0.423 OA
ATOM      6  C   UNL     1      12.352  14.322  21.225  1.00  0.00     0.142 A 
ATOM      7  C   UNL     1      11.339  13.393  21.481  1.00  0.00     0.098 A 
ATOM      8  C   UNL     1      10.603  12.843  20.421  1.00  0.00     0.161 A 
ATOM      9  C   UNL     1      10.883  13.224  19.100  1.00  0.00     0.158 A 
ATOM     10  C   UNL     1      11.898  14.156  18.838  1.00  0.00     0.062 A 
ATOM     11  C   UNL     1      12.634  14.707  19.897  1.00  0.00     0.022 A 
ENDROOT
BRANCH   9  12
ATOM     12  O   UNL     1      10.147  12.672  18.053  1.00  0.00    -0.504 OA
ATOM     13  H   UNL     1      10.575  12.058  17.370  1.00  0.00     0.293 HD
ENDBRANCH   9  12
BRANCH   8  14
ATOM     14  O   UNL     1       9.594  11.916  20.672  1.00  0.00    -0.504 OA
ATOM     15  H   UNL     1       8.888  11.698  19.977  1.00  0.00     0.293 HD
ENDBRANCH   8  14
TORSDOF 2
ENDMDL
MODEL 4
REMARK VINA RESULT:    -4.059      2.753      3.734
REMARK INTER + INTRA:          -4.296
REMARK INTER:                  -4.296
REMARK INTRA:                   0.000
REMARK UNBOUND:                 0.000
REMARK SMILES O=c1ccc2cc(O)c(O)cc2o1
REMARK SMILES IDX 4 1 3 2 2 3 1 4 13 5 12 6 11 7 9 8 7 9 6 10 5 11 8 12 10 14
REMARK H PARENT 8 13 10 15
REMARK Flexibility Score: inf
ROOT
ATOM      1  C   UNL     1      13.626  15.829  22.885  1.00  0.00     0.019 A 
ATOM      2  C   UNL     1      14.403  16.400  21.877  1.00  0.00     0.094 A 
ATOM      3  C   UNL     1      14.196  15.998  20.552  1.00  0.00     0.336 A 
ATOM      4  O   UNL     1      14.887  16.500  19.629  1.00  0.00    -0.246 OA
ATOM      5  O   UNL     1      13.273  15.084  20.263  1.00  0.00    -0.423 OA
ATOM      6  C   UNL     1      12.510  14.516  21.194  1.00  0.00     0.142 A 
ATOM      7  C   UNL     1      11.555  13.562  20.828  1.00  0.00     0.098 A 
ATOM      8  C   UNL     1      10.750  12.959  21.806  1.00  0.00     0.161 A 
ATOM      9  C   UNL     1      10.901  13.313  23.155  1.00  0.00     0.158 A 
ATOM     10  C   UNL     1      11.858  14.269  23.527  1.00  0.00     0.062 A 
ATOM     11  C   UNL     1      12.663  14.872  22.551  1.00  0.00     0.022 A 
ENDROOT
BRANCH   9  12
ATOM     12  O   UNL     1      10.097  12.709  24.120  1.00  0.00    -0.504 OA
ATOM     13  H   UNL     1      10.482  12.082  24.816  1.00  0.00     0.293 HD
ENDBRANCH   9  12
BRANCH   8  14
ATOM     14  O   UNL     1       9.798  12.008  21.445  1.00  0.00    -0.504 OA
ATOM     15  H   UNL     1      10.017  11.252  20.807  1.00  0.00     0.293 HD
ENDBRANCH   8  14
TORSDOF 2
ENDMDL
MODEL 5
REMARK VINA RESULT:    -4.040      2.636      4.439
REMARK INTER + INTRA:          -4.276
REMARK INTER:                  -4.276
REMARK INTRA:                   0.000
REMARK UNBOUND:                 0.000
REMARK SMILES O=c1ccc2cc(O)c(O)cc2o1
REMARK SMILES IDX 4 1 3 2 2 3 1 4 13 5 12 6 11 7 9 8 7 9 6 10 5 11 8 12 10 14
REMARK H PARENT 8 13 10 15
REMARK Flexibility Score: inf
ROOT
ATOM      1  C   UNL     1      11.709  13.512  19.223  1.00  0.00     0.019 A 
ATOM      2  C   UNL     1      10.807  12.655  19.852  1.00  0.00     0.094 A 
ATOM      3  C   UNL     1      10.710  12.679  21.248  1.00  0.00     0.336 A 
ATOM      4  O   UNL     1       9.903  11.912  21.834  1.00  0.00    -0.246 OA
ATOM      5  O   UNL     1      11.468  13.508  21.961  1.00  0.00    -0.423 OA
ATOM      6  C   UNL     1      12.340  14.343  21.401  1.00  0.00     0.142 A 
ATOM      7  C   UNL     1      13.109  15.192  22.203  1.00  0.00     0.098 A 
ATOM      8  C   UNL     1      14.030  16.073  21.617  1.00  0.00     0.161 A 
ATOM      9  C   UNL     1      14.182  16.104  20.222  1.00  0.00     0.158 A 
ATOM     10  C   UNL     1      13.413  15.254  19.413  1.00  0.00     0.062 A 
ATOM     11  C   UNL     1      12.492  14.374  19.998  1.00  0.00     0.022 A 
ENDROOT
BRANCH   9  12
ATOM     12  O   UNL     1      15.098  16.983  19.648  1.00  0.00    -0.504 OA
ATOM     13  H   UNL     1      15.692  17.576  20.216  1.00  0.00     0.293 HD
ENDBRANCH   9  12
BRANCH   8  14
ATOM     14  O   UNL     1      14.797  16.921  22.413  1.00  0.00    -0.504 OA
ATOM     15  H   UNL     1      15.528  17.501  22.018  1.00  0.00     0.293 HD
ENDBRANCH   8  14
TORSDOF 2
ENDMDL
MODEL 6
REMARK VINA RESULT:    -3.909      2.910      3.898
REMARK INTER + INTRA:          -4.137
REMARK INTER:                  -4.137
REMARK INTRA:                   0.000
REMARK UNBOUND:                 0.000
REMARK SMILES O=c1ccc2cc(O)c(O)cc2o1
REMARK SMILES IDX 4 1 3 2 2 3 1 4 13 5 12 6 11 7 9 8 7 9 6 10 5 11 8 12 10 14
REMARK H PARENT 8 13 10 15
REMARK Flexibility Score: inf
ROOT
ATOM      1  C   UNL     1      13.732  14.685  23.563  1.00  0.00     0.019 A 
ATOM      2  C   UNL     1      14.357  15.828  24.063  1.00  0.00     0.094 A 
ATOM      3  C   UNL     1      14.533  16.930  23.218  1.00  0.00     0.336 A 
ATOM      4  O   UNL     1      15.094  17.969  23.651  1.00  0.00    -0.246 OA
ATOM      5  O   UNL     1      14.110  16.884  21.957  1.00  0.00    -0.423 OA
ATOM      6  C   UNL     1      13.509  15.815  21.441  1.00  0.00     0.142 A 
ATOM      7  C   UNL     1      13.085  15.827  20.108  1.00  0.00     0.098 A 
ATOM      8  C   UNL     1      12.453  14.702  19.559  1.00  0.00     0.161 A 
ATOM      9  C   UNL     1      12.242  13.560  20.347  1.00  0.00     0.158 A 
ATOM     10  C   UNL     1      12.665  13.543  21.684  1.00  0.00     0.062 A 
ATOM     11  C   UNL     1      13.298  14.667  22.234  1.00  0.00     0.022 A 
ENDROOT
BRANCH   9  12
ATOM     12  O   UNL     1      11.612  12.448  19.793  1.00  0.00    -0.504 OA
ATOM     13  H   UNL     1      12.130  11.747  19.276  1.00  0.00     0.293 HD
ENDBRANCH   9  12
BRANCH   8  14
ATOM     14  O   UNL     1      12.029  14.711  18.231  1.00  0.00    -0.504 OA
ATOM     15  H   UNL     1      11.890  13.851  17.713  1.00  0.00     0.293 HD
ENDBRANCH   8  14
TORSDOF 2
ENDMDL
MODEL 7
REMARK VINA RESULT:    -3.732     24.693     26.272
REMARK INTER + INTRA:          -3.950
REMARK INTER:                  -3.950
REMARK INTRA:                   0.000
REMARK UNBOUND:                 0.000
REMARK SMILES O=c1ccc2cc(O)c(O)cc2o1
REMARK SMILES IDX 4 1 3 2 2 3 1 4 13 5 12 6 11 7 9 8 7 9 6 10 5 11 8 12 10 14
REMARK H PARENT 8 13 10 15
REMARK Flexibility Score: inf
ROOT
ATOM      1  C   UNL     1      -0.760  31.057   4.598  1.00  0.00     0.019 A 
ATOM      2  C   UNL     1      -1.798  30.471   3.875  1.00  0.00     0.094 A 
ATOM      3  C   UNL     1      -2.849  29.861   4.571  1.00  0.00     0.336 A 
ATOM      4  O   UNL     1      -3.793  29.325   3.936  1.00  0.00    -0.246 OA
ATOM      5  O   UNL     1      -2.854  29.843   5.901  1.00  0.00    -0.423 OA
ATOM      6  C   UNL     1      -1.884  30.392   6.629  1.00  0.00     0.142 A 
ATOM      7  C   UNL     1      -1.945  30.342   8.026  1.00  0.00     0.098 A 
ATOM      8  C   UNL     1      -0.925  30.917   8.797  1.00  0.00     0.161 A 
ATOM      9  C   UNL     1       0.160  31.546   8.169  1.00  0.00     0.158 A 
ATOM     10  C   UNL     1       0.226  31.599   6.769  1.00  0.00     0.062 A 
ATOM     11  C   UNL     1      -0.793  31.024   5.996  1.00  0.00     0.022 A 
ENDROOT
BRANCH   9  12
ATOM     12  O   UNL     1       1.169  32.116   8.943  1.00  0.00    -0.504 OA
ATOM     13  H   UNL     1       1.438  31.723   9.837  1.00  0.00     0.293 HD
ENDBRANCH   9  12
BRANCH   8  14
ATOM     14  O   UNL     1      -0.983  30.870  10.189  1.00  0.00    -0.504 OA
ATOM     15  H   UNL     1      -1.320  31.656  10.733  1.00  0.00     0.293 HD
ENDBRANCH   8  14
TORSDOF 2
ENDMDL
MODEL 8
REMARK VINA RESULT:    -3.601      1.118      4.517
REMARK INTER + INTRA:          -3.811
REMARK INTER:                  -3.811
REMARK INTRA:                   0.000
REMARK UNBOUND:                 0.000
REMARK SMILES O=c1ccc2cc(O)c(O)cc2o1
REMARK SMILES IDX 4 1 3 2 2 3 1 4 13 5 12 6 11 7 9 8 7 9 6 10 5 11 8 12 10 14
REMARK H PARENT 8 13 10 15
REMARK Flexibility Score: inf
ROOT
ATOM      1  C   UNL     1      11.377  14.438  19.278  1.00  0.00     0.019 A 
ATOM      2  C   UNL     1      10.298  13.869  18.603  1.00  0.00     0.094 A 
ATOM      3  C   UNL     1       9.736  12.685  19.098  1.00  0.00     0.336 A 
ATOM      4  O   UNL     1       8.763  12.156  18.502  1.00  0.00    -0.246 OA
ATOM      5  O   UNL     1      10.228  12.115  20.195  1.00  0.00    -0.423 OA
ATOM      6  C   UNL     1      11.256  12.626  20.869  1.00  0.00     0.142 A 
ATOM      7  C   UNL     1      11.728  11.981  22.016  1.00  0.00     0.098 A 
ATOM      8  C   UNL     1      12.812  12.514  22.730  1.00  0.00     0.161 A 
ATOM      9  C   UNL     1      13.425  13.699  22.293  1.00  0.00     0.158 A 
ATOM     10  C   UNL     1      12.955  14.349  21.142  1.00  0.00     0.062 A 
ATOM     11  C   UNL     1      11.872  13.817  20.429  1.00  0.00     0.022 A 
ENDROOT
BRANCH   9  12
ATOM     12  O   UNL     1      14.500  14.223  23.008  1.00  0.00    -0.504 OA
ATOM     13  H   UNL     1      15.456  14.094  22.699  1.00  0.00     0.293 HD
ENDBRANCH   9  12
BRANCH   8  14
ATOM     14  O   UNL     1      13.285  11.875  23.874  1.00  0.00    -0.504 OA
ATOM     15  H   UNL     1      14.270  11.677  24.002  1.00  0.00     0.293 HD
ENDBRANCH   8  14
TORSDOF 2
ENDMDL
MODEL 9
REMARK VINA RESULT:    -3.516      2.219      3.528
REMARK INTER + INTRA:          -3.722
REMARK INTER:                  -3.722
REMARK INTRA:                   0.000
REMARK UNBOUND:                 0.000
REMARK SMILES O=c1ccc2cc(O)c(O)cc2o1
REMARK SMILES IDX 4 1 3 2 2 3 1 4 13 5 12 6 11 7 9 8 7 9 6 10 5 11 8 12 10 14
REMARK H PARENT 8 13 10 15
REMARK Flexibility Score: inf
ROOT
ATOM      1  C   UNL     1      10.243  12.286  20.584  1.00  0.00     0.019 A 
ATOM      2  C   UNL     1      10.007  11.875  21.895  1.00  0.00     0.094 A 
ATOM      3  C   UNL     1      10.753  12.449  22.931  1.00  0.00     0.336 A 
ATOM      4  O   UNL     1      10.555  12.091  24.120  1.00  0.00    -0.246 OA
ATOM      5  O   UNL     1      11.674  13.372  22.665  1.00  0.00    -0.423 OA
ATOM      6  C   UNL     1      11.930  13.794  21.428  1.00  0.00     0.142 A 
ATOM      7  C   UNL     1      12.910  14.768  21.211  1.00  0.00     0.098 A 
ATOM      8  C   UNL     1      13.184  15.214  19.910  1.00  0.00     0.161 A 
ATOM      9  C   UNL     1      12.475  14.683  18.821  1.00  0.00     0.158 A 
ATOM     10  C   UNL     1      11.492  13.705  19.034  1.00  0.00     0.062 A 
ATOM     11  C   UNL     1      11.217  13.259  20.334  1.00  0.00     0.022 A 
ENDROOT
BRANCH   9  12
ATOM     12  O   UNL     1      12.754  15.132  17.532  1.00  0.00    -0.504 OA
ATOM     13  H   UNL     1      12.159  15.807  17.065  1.00  0.00     0.293 HD
ENDBRANCH   9  12
BRANCH   8  14
ATOM     14  O   UNL     1      14.159  16.185  19.690  1.00  0.00    -0.504 OA
ATOM     15  H   UNL     1      13.991  16.977  19.080  1.00  0.00     0.293 HD
ENDBRANCH   8  14
TORSDOF 2
ENDMDL
