MODEL 1
REMARK VINA RESULT:    -0.639      0.000      0.000
REMARK INTER + INTRA:          -1.188
REMARK INTER:                  -0.937
REMARK INTRA:                  -0.251
REMARK UNBOUND:                -0.251
REMARK SMILES O=C([O-])CCCCCCCC(=O)[O-]
REMARK SMILES IDX 7 1 6 2 5 3 4 4 2 5 1 6 3 7 8 8 9 9 10 10 11 11 12 12 13 13
REMARK H PARENT
REMARK Flexibility Score: inf
ROOT
ATOM      1  C   UNL     1      -1.738  26.058 -18.204  1.00  0.00     0.000 C 
ENDROOT
BRANCH   1   2
ATOM      2  C   UNL     1      -1.218  27.255 -19.018  1.00  0.00     0.000 C 
BRANCH   2   3
ATOM      3  C   UNL     1      -0.875  28.465 -18.134  1.00  0.00     0.006 C 
BRANCH   3   4
ATOM      4  C   UNL     1      -1.104  29.804 -18.848  1.00  0.00     0.053 C 
BRANCH   4   5
ATOM      5  C   UNL     1      -1.088  30.930 -17.864  1.00  0.00     0.041 C 
ATOM      6  O   UNL     1      -0.878  30.702 -16.644  1.00  0.00    -0.550 OA
ATOM      7  O   UNL     1      -1.257  32.237 -18.301  1.00  0.00    -0.550 OA
ENDBRANCH   4   5
ENDBRANCH   3   4
ENDBRANCH   2   3
ENDBRANCH   1   2
BRANCH   1   8
ATOM      8  C   UNL     1      -3.268  25.917 -18.272  1.00  0.00     0.000 C 
BRANCH   8   9
ATOM      9  C   UNL     1      -3.812  26.040 -19.704  1.00  0.00     0.006 C 
BRANCH   9  10
ATOM     10  C   UNL     1      -3.269  24.918 -20.593  1.00  0.00     0.053 C 
BRANCH  10  11
ATOM     11  C   UNL     1      -3.636  25.158 -22.024  1.00  0.00     0.041 C 
ATOM     12  O   UNL     1      -4.847  25.215 -22.367  1.00  0.00    -0.550 OA
ATOM     13  O   UNL     1      -2.642  25.270 -22.987  1.00  0.00    -0.550 OA
ENDBRANCH  10  11
ENDBRANCH   9  10
ENDBRANCH   8   9
ENDBRANCH   1   8
TORSDOF 8
ENDMDL
MODEL 2
REMARK VINA RESULT:     0.458     22.379     23.731
REMARK INTER + INTRA:           0.421
REMARK INTER:                  -1.109
REMARK INTRA:                   1.530
REMARK UNBOUND:                -0.251
REMARK SMILES O=C([O-])CCCCCCCC(=O)[O-]
REMARK SMILES IDX 7 1 6 2 5 3 4 4 2 5 1 6 3 7 8 8 9 9 10 10 11 11 12 12 13 13
REMARK H PARENT
REMARK Flexibility Score: inf
ROOT
ATOM      1  C   UNL     1     -18.127  26.822  -3.853  1.00  0.00     0.000 C 
ENDROOT
BRANCH   1   2
ATOM      2  C   UNL     1     -19.376  26.169  -3.236  1.00  0.00     0.000 C 
BRANCH   2   3
ATOM      3  C   UNL     1     -19.880  24.970  -4.054  1.00  0.00     0.006 C 
BRANCH   3   4
ATOM      4  C   UNL     1     -21.122  25.304  -4.891  1.00  0.00     0.053 C 
BRANCH   4   5
ATOM      5  C   UNL     1     -20.726  25.675  -6.285  1.00  0.00     0.041 C 
ATOM      6  O   UNL     1     -21.102  24.973  -7.260  1.00  0.00    -0.550 OA
ATOM      7  O   UNL     1     -19.983  26.827  -6.512  1.00  0.00    -0.550 OA
ENDBRANCH   4   5
ENDBRANCH   3   4
ENDBRANCH   2   3
ENDBRANCH   1   2
BRANCH   1   8
ATOM      8  C   UNL     1     -17.649  28.050  -3.060  1.00  0.00     0.000 C 
BRANCH   8   9
ATOM      9  C   UNL     1     -18.751  29.104  -2.876  1.00  0.00     0.006 C 
BRANCH   9  10
ATOM     10  C   UNL     1     -20.126  28.525  -3.222  1.00  0.00     0.053 C 
BRANCH  10  11
ATOM     11  C   UNL     1     -20.807  29.370  -4.253  1.00  0.00     0.041 C 
ATOM     12  O   UNL     1     -21.051  28.900  -5.395  1.00  0.00    -0.550 OA
ATOM     13  O   UNL     1     -21.125  30.691  -3.969  1.00  0.00    -0.550 OA
ENDBRANCH  10  11
ENDBRANCH   9  10
ENDBRANCH   8   9
ENDBRANCH   1   8
TORSDOF 8
ENDMDL
MODEL 3
REMARK VINA RESULT:     2.241     22.276     23.670
REMARK INTER + INTRA:           3.038
REMARK INTER:                   2.567
REMARK INTRA:                   0.471
REMARK UNBOUND:                -0.251
REMARK SMILES O=C([O-])CCCCCCCC(=O)[O-]
REMARK SMILES IDX 7 1 6 2 5 3 4 4 2 5 1 6 3 7 8 8 9 9 10 10 11 11 12 12 13 13
REMARK H PARENT
REMARK Flexibility Score: inf
ROOT
ATOM      1  C   UNL     1     -18.494  27.610  -2.875  1.00  0.00     0.000 C 
ENDROOT
BRANCH   1   2
ATOM      2  C   UNL     1     -17.638  26.918  -3.949  1.00  0.00     0.000 C 
BRANCH   2   3
ATOM      3  C   UNL     1     -17.627  25.389  -3.800  1.00  0.00     0.006 C 
BRANCH   3   4
ATOM      4  C   UNL     1     -18.740  24.876  -2.877  1.00  0.00     0.053 C 
BRANCH   4   5
ATOM      5  C   UNL     1     -20.067  24.966  -3.561  1.00  0.00     0.041 C 
ATOM      6  O   UNL     1     -21.117  25.138  -2.887  1.00  0.00    -0.550 OA
ATOM      7  O   UNL     1     -20.140  24.909  -4.947  1.00  0.00    -0.550 OA
ENDBRANCH   4   5
ENDBRANCH   3   4
ENDBRANCH   2   3
ENDBRANCH   1   2
BRANCH   1   8
ATOM      8  C   UNL     1     -18.578  29.132  -3.076  1.00  0.00     0.000 C 
BRANCH   8   9
ATOM      9  C   UNL     1     -20.013  29.669  -2.961  1.00  0.00     0.006 C 
BRANCH   9  10
ATOM     10  C   UNL     1     -20.976  28.842  -3.818  1.00  0.00     0.053 C 
BRANCH  10  11
ATOM     11  C   UNL     1     -20.463  28.725  -5.219  1.00  0.00     0.041 C 
ATOM     12  O   UNL     1     -19.719  29.622  -5.698  1.00  0.00    -0.550 OA
ATOM     13  O   UNL     1     -20.847  27.652  -6.013  1.00  0.00    -0.550 OA
ENDBRANCH  10  11
ENDBRANCH   9  10
ENDBRANCH   8   9
ENDBRANCH   1   8
TORSDOF 8
ENDMDL
