MODEL 1
REMARK VINA RESULT:    -4.911      0.000      0.000
REMARK INTER + INTRA:          -5.297
REMARK INTER:                  -5.198
REMARK INTRA:                  -0.098
REMARK UNBOUND:                -0.098
REMARK SMILES C=C(C)[C@@H]1CC=C(C)C(=O)C1
REMARK SMILES IDX 8 1 7 2 6 3 5 4 4 5 11 6 9 7 10 8 2 9 1 10 3 11
REMARK H PARENT
REMARK Flexibility Score: inf
ROOT
ATOM      1  C   UNL     1     -10.213  21.532   6.933  1.00  0.00     0.048 C 
ATOM      2  C   UNL     1     -10.306  20.036   6.817  1.00  0.00    -0.012 C 
ATOM      3  C   UNL     1      -9.722  19.256   7.743  1.00  0.00    -0.019 C 
ATOM      4  C   UNL     1      -9.799  17.753   7.685  1.00  0.00     0.036 C 
ATOM      5  C   UNL     1      -9.842  17.255   6.228  1.00  0.00     0.025 C 
ATOM      6  C   UNL     1     -11.000  17.929   5.468  1.00  0.00     0.089 C 
ATOM      7  C   UNL     1     -10.933  19.423   5.619  1.00  0.00     0.158 C 
ATOM      8  O   UNL     1     -11.451  20.155   4.731  1.00  0.00    -0.295 OA
ENDROOT
BRANCH   5   9
ATOM      9  C   UNL     1      -9.941  15.738   6.159  1.00  0.00    -0.077 C 
ATOM     10  C   UNL     1     -10.144  15.025   7.278  1.00  0.00     0.008 C 
ATOM     11  C   UNL     1      -9.815  15.001   4.849  1.00  0.00     0.039 C 
ENDBRANCH   5   9
TORSDOF 1
ENDMDL
MODEL 2
REMARK VINA RESULT:    -4.900      1.483      3.194
REMARK INTER + INTRA:          -5.285
REMARK INTER:                  -5.187
REMARK INTRA:                  -0.098
REMARK UNBOUND:                -0.098
REMARK SMILES C=C(C)[C@@H]1CC=C(C)C(=O)C1
REMARK SMILES IDX 8 1 7 2 6 3 5 4 4 5 11 6 9 7 10 8 2 9 1 10 3 11
REMARK H PARENT
REMARK Flexibility Score: inf
ROOT
ATOM      1  C   UNL     1     -12.057  19.141   4.283  1.00  0.00     0.048 C 
ATOM      2  C   UNL     1     -11.121  18.815   5.414  1.00  0.00    -0.012 C 
ATOM      3  C   UNL     1     -10.714  17.548   5.601  1.00  0.00    -0.019 C 
ATOM      4  C   UNL     1      -9.764  17.169   6.706  1.00  0.00     0.036 C 
ATOM      5  C   UNL     1      -9.966  18.065   7.943  1.00  0.00     0.025 C 
ATOM      6  C   UNL     1      -9.845  19.549   7.552  1.00  0.00     0.089 C 
ATOM      7  C   UNL     1     -10.748  19.867   6.393  1.00  0.00     0.158 C 
ATOM      8  O   UNL     1     -11.157  21.050   6.238  1.00  0.00    -0.295 OA
ENDROOT
BRANCH   5   9
ATOM      9  C   UNL     1      -8.996  17.703   9.059  1.00  0.00    -0.077 C 
ATOM     10  C   UNL     1      -7.747  17.310   8.765  1.00  0.00     0.008 C 
ATOM     11  C   UNL     1      -9.405  17.775  10.510  1.00  0.00     0.039 C 
ENDBRANCH   5   9
TORSDOF 1
ENDMDL
MODEL 3
REMARK VINA RESULT:    -4.819      2.128      3.863
REMARK INTER + INTRA:          -5.199
REMARK INTER:                  -5.112
REMARK INTRA:                  -0.087
REMARK UNBOUND:                -0.098
REMARK SMILES C=C(C)[C@@H]1CC=C(C)C(=O)C1
REMARK SMILES IDX 8 1 7 2 6 3 5 4 4 5 11 6 9 7 10 8 2 9 1 10 3 11
REMARK H PARENT
REMARK Flexibility Score: inf
ROOT
ATOM      1  C   UNL     1      -9.031  17.075  10.129  1.00  0.00     0.048 C 
ATOM      2  C   UNL     1      -9.587  17.575   8.825  1.00  0.00    -0.012 C 
ATOM      3  C   UNL     1      -9.682  16.742   7.774  1.00  0.00    -0.019 C 
ATOM      4  C   UNL     1     -10.248  17.187   6.452  1.00  0.00     0.036 C 
ATOM      5  C   UNL     1      -9.934  18.670   6.184  1.00  0.00     0.025 C 
ATOM      6  C   UNL     1     -10.431  19.540   7.353  1.00  0.00     0.089 C 
ATOM      7  C   UNL     1      -9.912  19.015   8.662  1.00  0.00     0.158 C 
ATOM      8  O   UNL     1      -9.789  19.806   9.637  1.00  0.00    -0.295 OA
ENDROOT
BRANCH   5   9
ATOM      9  C   UNL     1     -10.518  19.134   4.857  1.00  0.00    -0.077 C 
ATOM     10  C   UNL     1      -9.707  19.559   3.876  1.00  0.00     0.008 C 
ATOM     11  C   UNL     1     -12.006  19.131   4.610  1.00  0.00     0.039 C 
ENDBRANCH   5   9
TORSDOF 1
ENDMDL
MODEL 4
REMARK VINA RESULT:    -4.710      2.240      4.069
REMARK INTER + INTRA:          -5.083
REMARK INTER:                  -4.995
REMARK INTRA:                  -0.088
REMARK UNBOUND:                -0.098
REMARK SMILES C=C(C)[C@@H]1CC=C(C)C(=O)C1
REMARK SMILES IDX 8 1 7 2 6 3 5 4 4 5 11 6 9 7 10 8 2 9 1 10 3 11
REMARK H PARENT
REMARK Flexibility Score: inf
ROOT
ATOM      1  C   UNL     1      -9.576  15.516   9.168  1.00  0.00     0.048 C 
ATOM      2  C   UNL     1      -9.773  16.401   7.968  1.00  0.00    -0.012 C 
ATOM      3  C   UNL     1      -9.575  17.727   8.074  1.00  0.00    -0.019 C 
ATOM      4  C   UNL     1      -9.741  18.655   6.901  1.00  0.00     0.036 C 
ATOM      5  C   UNL     1     -10.839  18.153   5.946  1.00  0.00     0.025 C 
ATOM      6  C   UNL     1     -10.545  16.706   5.508  1.00  0.00     0.089 C 
ATOM      7  C   UNL     1     -10.304  15.829   6.705  1.00  0.00     0.158 C 
ATOM      8  O   UNL     1     -10.525  14.590   6.614  1.00  0.00    -0.295 OA
ENDROOT
BRANCH   5   9
ATOM      9  C   UNL     1     -11.001  19.075   4.746  1.00  0.00    -0.077 C 
ATOM     10  C   UNL     1     -12.223  19.494   4.379  1.00  0.00     0.008 C 
ATOM     11  C   UNL     1      -9.810  19.540   3.946  1.00  0.00     0.039 C 
ENDBRANCH   5   9
TORSDOF 1
ENDMDL
MODEL 5
REMARK VINA RESULT:    -4.650      2.249      3.801
REMARK INTER + INTRA:          -5.020
REMARK INTER:                  -4.933
REMARK INTRA:                  -0.087
REMARK UNBOUND:                -0.098
REMARK SMILES C=C(C)[C@@H]1CC=C(C)C(=O)C1
REMARK SMILES IDX 8 1 7 2 6 3 5 4 4 5 11 6 9 7 10 8 2 9 1 10 3 11
REMARK H PARENT
REMARK Flexibility Score: inf
ROOT
ATOM      1  C   UNL     1      -9.396  17.632  10.246  1.00  0.00     0.048 C 
ATOM      2  C   UNL     1      -9.667  18.066   8.832  1.00  0.00    -0.012 C 
ATOM      3  C   UNL     1     -10.009  19.340   8.576  1.00  0.00    -0.019 C 
ATOM      4  C   UNL     1     -10.274  19.831   7.178  1.00  0.00     0.036 C 
ATOM      5  C   UNL     1     -10.887  18.719   6.307  1.00  0.00     0.025 C 
ATOM      6  C   UNL     1      -9.989  17.469   6.326  1.00  0.00     0.089 C 
ATOM      7  C   UNL     1      -9.680  17.060   7.739  1.00  0.00     0.158 C 
ATOM      8  O   UNL     1      -9.395  15.856   7.983  1.00  0.00    -0.295 OA
ENDROOT
BRANCH   5   9
ATOM      9  C   UNL     1     -11.141  19.200   4.885  1.00  0.00    -0.077 C 
ATOM     10  C   UNL     1     -12.397  19.408   4.459  1.00  0.00     0.008 C 
ATOM     11  C   UNL     1     -10.005  19.453   3.926  1.00  0.00     0.039 C 
ENDBRANCH   5   9
TORSDOF 1
ENDMDL
MODEL 6
REMARK VINA RESULT:    -4.613     15.596     16.823
REMARK INTER + INTRA:          -4.981
REMARK INTER:                  -4.894
REMARK INTRA:                  -0.088
REMARK UNBOUND:                -0.098
REMARK SMILES C=C(C)[C@@H]1CC=C(C)C(=O)C1
REMARK SMILES IDX 8 1 7 2 6 3 5 4 4 5 11 6 9 7 10 8 2 9 1 10 3 11
REMARK H PARENT
REMARK Flexibility Score: inf
ROOT
ATOM      1  C   UNL     1      -8.653  22.588  22.166  1.00  0.00     0.048 C 
ATOM      2  C   UNL     1     -10.113  22.946  22.162  1.00  0.00    -0.012 C 
ATOM      3  C   UNL     1     -10.844  22.787  23.279  1.00  0.00    -0.019 C 
ATOM      4  C   UNL     1     -12.305  23.145  23.335  1.00  0.00     0.036 C 
ATOM      5  C   UNL     1     -12.987  22.912  21.973  1.00  0.00     0.025 C 
ATOM      6  C   UNL     1     -12.240  23.677  20.865  1.00  0.00     0.089 C 
ATOM      7  C   UNL     1     -10.772  23.354  20.896  1.00  0.00     0.158 C 
ATOM      8  O   UNL     1     -10.094  23.470  19.838  1.00  0.00    -0.295 OA
ENDROOT
BRANCH   5   9
ATOM      9  C   UNL     1     -14.460  23.291  22.014  1.00  0.00    -0.077 C 
ATOM     10  C   UNL     1     -15.394  22.405  21.632  1.00  0.00     0.008 C 
ATOM     11  C   UNL     1     -14.910  24.654  22.479  1.00  0.00     0.039 C 
ENDBRANCH   5   9
TORSDOF 1
ENDMDL
MODEL 7
REMARK VINA RESULT:    -4.545      1.606      2.470
REMARK INTER + INTRA:          -4.909
REMARK INTER:                  -4.811
REMARK INTRA:                  -0.098
REMARK UNBOUND:                -0.098
REMARK SMILES C=C(C)[C@@H]1CC=C(C)C(=O)C1
REMARK SMILES IDX 8 1 7 2 6 3 5 4 4 5 11 6 9 7 10 8 2 9 1 10 3 11
REMARK H PARENT
REMARK Flexibility Score: inf
ROOT
ATOM      1  C   UNL     1     -10.746  20.571   6.513  1.00  0.00     0.048 C 
ATOM      2  C   UNL     1     -10.392  19.115   6.394  1.00  0.00    -0.012 C 
ATOM      3  C   UNL     1     -10.686  18.444   5.267  1.00  0.00    -0.019 C 
ATOM      4  C   UNL     1     -10.339  16.990   5.089  1.00  0.00     0.036 C 
ATOM      5  C   UNL     1     -10.406  16.235   6.429  1.00  0.00     0.025 C 
ATOM      6  C   UNL     1      -9.512  16.924   7.476  1.00  0.00     0.089 C 
ATOM      7  C   UNL     1      -9.834  18.390   7.564  1.00  0.00     0.158 C 
ATOM      8  O   UNL     1      -9.590  19.010   8.636  1.00  0.00    -0.295 OA
ENDROOT
BRANCH   5   9
ATOM      9  C   UNL     1     -10.038  14.768   6.263  1.00  0.00    -0.077 C 
ATOM     10  C   UNL     1     -10.017  14.213   5.041  1.00  0.00     0.008 C 
ATOM     11  C   UNL     1      -9.689  13.905   7.451  1.00  0.00     0.039 C 
ENDBRANCH   5   9
TORSDOF 1
ENDMDL
MODEL 8
REMARK VINA RESULT:    -4.512      1.931      2.960
REMARK INTER + INTRA:          -4.874
REMARK INTER:                  -4.776
REMARK INTRA:                  -0.098
REMARK UNBOUND:                -0.098
REMARK SMILES C=C(C)[C@@H]1CC=C(C)C(=O)C1
REMARK SMILES IDX 8 1 7 2 6 3 5 4 4 5 11 6 9 7 10 8 2 9 1 10 3 11
REMARK H PARENT
REMARK Flexibility Score: inf
ROOT
ATOM      1  C   UNL     1     -12.899  19.841   5.397  1.00  0.00     0.048 C 
ATOM      2  C   UNL     1     -11.479  19.355   5.498  1.00  0.00    -0.012 C 
ATOM      3  C   UNL     1     -11.173  18.101   5.125  1.00  0.00    -0.019 C 
ATOM      4  C   UNL     1      -9.766  17.570   5.189  1.00  0.00     0.036 C 
ATOM      5  C   UNL     1      -8.989  18.197   6.361  1.00  0.00     0.025 C 
ATOM      6  C   UNL     1      -9.029  19.733   6.268  1.00  0.00     0.089 C 
ATOM      7  C   UNL     1     -10.445  20.217   6.123  1.00  0.00     0.158 C 
ATOM      8  O   UNL     1     -10.738  21.383   6.505  1.00  0.00    -0.295 OA
ENDROOT
BRANCH   5   9
ATOM      9  C   UNL     1      -7.558  17.681   6.423  1.00  0.00    -0.077 C 
ATOM     10  C   UNL     1      -6.537  18.487   6.093  1.00  0.00     0.008 C 
ATOM     11  C   UNL     1      -7.249  16.267   6.850  1.00  0.00     0.039 C 
ENDBRANCH   5   9
TORSDOF 1
ENDMDL
MODEL 9
REMARK VINA RESULT:    -4.496      2.748      4.037
REMARK INTER + INTRA:          -4.857
REMARK INTER:                  -4.759
REMARK INTRA:                  -0.098
REMARK UNBOUND:                -0.098
REMARK SMILES C=C(C)[C@@H]1CC=C(C)C(=O)C1
REMARK SMILES IDX 8 1 7 2 6 3 5 4 4 5 11 6 9 7 10 8 2 9 1 10 3 11
REMARK H PARENT
REMARK Flexibility Score: inf
ROOT
ATOM      1  C   UNL     1     -12.764  19.799   5.667  1.00  0.00     0.048 C 
ATOM      2  C   UNL     1     -11.262  19.862   5.706  1.00  0.00    -0.012 C 
ATOM      3  C   UNL     1     -10.648  20.690   6.569  1.00  0.00    -0.019 C 
ATOM      4  C   UNL     1      -9.149  20.779   6.662  1.00  0.00     0.036 C 
ATOM      5  C   UNL     1      -8.492  20.532   5.291  1.00  0.00     0.025 C 
ATOM      6  C   UNL     1      -8.962  19.186   4.709  1.00  0.00     0.089 C 
ATOM      7  C   UNL     1     -10.463  19.105   4.710  1.00  0.00     0.158 C 
ATOM      8  O   UNL     1     -11.038  18.354   3.875  1.00  0.00    -0.295 OA
ENDROOT
BRANCH   5   9
ATOM      9  C   UNL     1      -6.974  20.600   5.379  1.00  0.00    -0.077 C 
ATOM     10  C   UNL     1      -6.347  20.229   6.507  1.00  0.00     0.008 C 
ATOM     11  C   UNL     1      -6.140  21.080   4.216  1.00  0.00     0.039 C 
ENDBRANCH   5   9
TORSDOF 1
ENDMDL
