MODEL 1
REMARK VINA RESULT:    -6.116      0.000      0.000
REMARK INTER + INTRA:          -6.856
REMARK INTER:                  -6.473
REMARK INTRA:                  -0.383
REMARK UNBOUND:                -0.383
REMARK SMILES CC1=CC[C@@H]2[C@H]3[C@@H](C(C)C)CC[C@]2(C)[C@@H]13
REMARK SMILES IDX 1 1 2 2 3 3 4 4 5 5 6 6 15 7 13 8 12 9 11 10 7 11 14 12 8 13
REMARK SMILES IDX 9 14 10 15
REMARK H PARENT
REMARK Flexibility Score: inf
ROOT
ATOM      1  C   UNL     1     139.409 146.034 164.500  1.00  0.00     0.039 C 
ATOM      2  C   UNL     1     140.672 145.581 163.831  1.00  0.00    -0.073 C 
ATOM      3  C   UNL     1     140.722 145.369 162.490  1.00  0.00    -0.027 C 
ATOM      4  C   UNL     1     142.049 144.931 161.861  1.00  0.00     0.031 C 
ATOM      5  C   UNL     1     143.148 144.769 162.959  1.00  0.00     0.003 C 
ATOM      6  C   UNL     1     142.521 143.969 164.133  1.00  0.00     0.004 C 
ATOM      7  C   UNL     1     141.956 145.322 164.626  1.00  0.00     0.024 C 
ATOM      8  C   UNL     1     143.168 145.980 163.928  1.00  0.00    -0.022 C 
ATOM      9  C   UNL     1     144.405 145.904 164.874  1.00  0.00     0.008 C 
ATOM     10  C   UNL     1     144.803 144.444 165.220  1.00  0.00     0.005 C 
ATOM     11  C   UNL     1     143.596 143.460 165.143  1.00  0.00    -0.005 C 
ATOM     12  C   UNL     1     143.000 147.406 163.351  1.00  0.00     0.012 C 
ENDROOT
BRANCH  11  13
ATOM     13  C   UNL     1     144.049 141.987 164.897  1.00  0.00    -0.014 C 
ATOM     14  C   UNL     1     145.524 141.853 164.482  1.00  0.00     0.007 C 
ATOM     15  C   UNL     1     143.150 141.291 163.862  1.00  0.00     0.007 C 
ENDBRANCH  11  13
TORSDOF 1
ENDMDL
MODEL 2
REMARK VINA RESULT:    -6.115      2.651      5.019
REMARK INTER + INTRA:          -6.855
REMARK INTER:                  -6.469
REMARK INTRA:                  -0.386
REMARK UNBOUND:                -0.383
REMARK SMILES CC1=CC[C@@H]2[C@H]3[C@@H](C(C)C)CC[C@]2(C)[C@@H]13
REMARK SMILES IDX 1 1 2 2 3 3 4 4 5 5 6 6 15 7 13 8 12 9 11 10 7 11 14 12 8 13
REMARK SMILES IDX 9 14 10 15
REMARK H PARENT
REMARK Flexibility Score: inf
ROOT
ATOM      1  C   UNL     1     144.699 139.458 164.505  1.00  0.00     0.039 C 
ATOM      2  C   UNL     1     145.164 140.718 163.837  1.00  0.00    -0.073 C 
ATOM      3  C   UNL     1     145.368 140.769 162.495  1.00  0.00    -0.027 C 
ATOM      4  C   UNL     1     145.818 142.092 161.866  1.00  0.00     0.031 C 
ATOM      5  C   UNL     1     146.000 143.186 162.967  1.00  0.00     0.003 C 
ATOM      6  C   UNL     1     146.799 142.546 164.134  1.00  0.00     0.004 C 
ATOM      7  C   UNL     1     145.443 141.996 164.634  1.00  0.00     0.024 C 
ATOM      8  C   UNL     1     144.794 143.218 163.943  1.00  0.00    -0.022 C 
ATOM      9  C   UNL     1     144.891 144.452 164.892  1.00  0.00     0.008 C 
ATOM     10  C   UNL     1     146.358 144.830 165.230  1.00  0.00     0.005 C 
ATOM     11  C   UNL     1     147.327 143.612 165.145  1.00  0.00    -0.005 C 
ATOM     12  C   UNL     1     143.364 143.069 163.374  1.00  0.00     0.012 C 
ENDROOT
BRANCH  11  13
ATOM     13  C   UNL     1     148.803 144.048 164.890  1.00  0.00    -0.014 C 
ATOM     14  C   UNL     1     148.951 145.518 164.460  1.00  0.00     0.007 C 
ATOM     15  C   UNL     1     149.489 143.132 163.864  1.00  0.00     0.007 C 
ENDBRANCH  11  13
TORSDOF 1
ENDMDL
MODEL 3
REMARK VINA RESULT:    -6.100      4.164      7.094
REMARK INTER + INTRA:          -6.840
REMARK INTER:                  -6.446
REMARK INTRA:                  -0.394
REMARK UNBOUND:                -0.383
REMARK SMILES CC1=CC[C@@H]2[C@H]3[C@@H](C(C)C)CC[C@]2(C)[C@@H]13
REMARK SMILES IDX 1 1 2 2 3 3 4 4 5 5 6 6 15 7 13 8 12 9 11 10 7 11 14 12 8 13
REMARK SMILES IDX 9 14 10 15
REMARK H PARENT
REMARK Flexibility Score: inf
ROOT
ATOM      1  C   UNL     1     151.325 144.678 164.501  1.00  0.00     0.039 C 
ATOM      2  C   UNL     1     150.056 145.128 163.841  1.00  0.00    -0.073 C 
ATOM      3  C   UNL     1     149.993 145.331 162.499  1.00  0.00    -0.027 C 
ATOM      4  C   UNL     1     148.661 145.767 161.879  1.00  0.00     0.031 C 
ATOM      5  C   UNL     1     147.573 145.937 162.987  1.00  0.00     0.003 C 
ATOM      6  C   UNL     1     148.212 146.744 164.149  1.00  0.00     0.004 C 
ATOM      7  C   UNL     1     148.780 145.394 164.646  1.00  0.00     0.024 C 
ATOM      8  C   UNL     1     147.560 144.732 163.963  1.00  0.00    -0.022 C 
ATOM      9  C   UNL     1     146.332 144.815 164.921  1.00  0.00     0.008 C 
ATOM     10  C   UNL     1     145.940 146.279 165.261  1.00  0.00     0.005 C 
ATOM     11  C   UNL     1     147.147 147.261 165.167  1.00  0.00    -0.005 C 
ATOM     12  C   UNL     1     147.722 143.303 163.395  1.00  0.00     0.012 C 
ENDROOT
BRANCH  11  13
ATOM     13  C   UNL     1     146.693 148.732 164.915  1.00  0.00    -0.014 C 
ATOM     14  C   UNL     1     145.233 148.860 164.448  1.00  0.00     0.007 C 
ATOM     15  C   UNL     1     147.624 149.442 163.918  1.00  0.00     0.007 C 
ENDBRANCH  11  13
TORSDOF 1
ENDMDL
MODEL 4
REMARK VINA RESULT:    -6.097      2.669      5.063
REMARK INTER + INTRA:          -6.836
REMARK INTER:                  -6.458
REMARK INTRA:                  -0.378
REMARK UNBOUND:                -0.383
REMARK SMILES CC1=CC[C@@H]2[C@H]3[C@@H](C(C)C)CC[C@]2(C)[C@@H]13
REMARK SMILES IDX 1 1 2 2 3 3 4 4 5 5 6 6 15 7 13 8 12 9 11 10 7 11 14 12 8 13
REMARK SMILES IDX 9 14 10 15
REMARK H PARENT
REMARK Flexibility Score: inf
ROOT
ATOM      1  C   UNL     1     146.086 151.336 164.501  1.00  0.00     0.039 C 
ATOM      2  C   UNL     1     145.597 150.082 163.839  1.00  0.00    -0.073 C 
ATOM      3  C   UNL     1     145.375 150.033 162.500  1.00  0.00    -0.027 C 
ATOM      4  C   UNL     1     144.900 148.716 161.878  1.00  0.00     0.031 C 
ATOM      5  C   UNL     1     144.718 147.625 162.981  1.00  0.00     0.003 C 
ATOM      6  C   UNL     1     143.942 148.275 164.157  1.00  0.00     0.004 C 
ATOM      7  C   UNL     1     145.311 148.808 164.640  1.00  0.00     0.024 C 
ATOM      8  C   UNL     1     145.935 147.578 163.942  1.00  0.00    -0.022 C 
ATOM      9  C   UNL     1     145.835 146.346 164.893  1.00  0.00     0.008 C 
ATOM     10  C   UNL     1     144.367 145.986 165.249  1.00  0.00     0.005 C 
ATOM     11  C   UNL     1     143.413 147.217 165.175  1.00  0.00    -0.005 C 
ATOM     12  C   UNL     1     147.360 147.708 163.355  1.00  0.00     0.012 C 
ENDROOT
BRANCH  11  13
ATOM     13  C   UNL     1     141.928 146.799 164.939  1.00  0.00    -0.014 C 
ATOM     14  C   UNL     1     141.752 145.321 164.554  1.00  0.00     0.007 C 
ATOM     15  C   UNL     1     141.254 147.697 163.888  1.00  0.00     0.007 C 
ENDBRANCH  11  13
TORSDOF 1
ENDMDL
MODEL 5
REMARK VINA RESULT:    -5.996      1.342      4.740
REMARK INTER + INTRA:          -6.730
REMARK INTER:                  -6.463
REMARK INTRA:                  -0.267
REMARK UNBOUND:                -0.383
REMARK SMILES CC1=CC[C@@H]2[C@H]3[C@@H](C(C)C)CC[C@]2(C)[C@@H]13
REMARK SMILES IDX 1 1 2 2 3 3 4 4 5 5 6 6 15 7 13 8 12 9 11 10 7 11 14 12 8 13
REMARK SMILES IDX 9 14 10 15
REMARK H PARENT
REMARK Flexibility Score: inf
ROOT
ATOM      1  C   UNL     1     144.699 140.468 161.487  1.00  0.00     0.039 C 
ATOM      2  C   UNL     1     144.223 141.168 162.725  1.00  0.00    -0.073 C 
ATOM      3  C   UNL     1     143.811 140.469 163.814  1.00  0.00    -0.027 C 
ATOM      4  C   UNL     1     143.360 141.240 165.059  1.00  0.00     0.031 C 
ATOM      5  C   UNL     1     143.434 142.780 164.804  1.00  0.00     0.003 C 
ATOM      6  C   UNL     1     142.788 143.055 163.420  1.00  0.00     0.004 C 
ATOM      7  C   UNL     1     144.165 142.696 162.814  1.00  0.00     0.024 C 
ATOM      8  C   UNL     1     144.779 143.185 164.147  1.00  0.00    -0.022 C 
ATOM      9  C   UNL     1     144.922 144.737 164.103  1.00  0.00     0.008 C 
ATOM     10  C   UNL     1     143.558 145.457 163.926  1.00  0.00     0.005 C 
ATOM     11  C   UNL     1     142.504 144.573 163.190  1.00  0.00    -0.005 C 
ATOM     12  C   UNL     1     146.086 142.523 164.642  1.00  0.00     0.012 C 
ENDROOT
BRANCH  11  13
ATOM     13  C   UNL     1     141.041 145.000 163.521  1.00  0.00    -0.014 C 
ATOM     14  C   UNL     1     140.348 145.773 162.386  1.00  0.00     0.007 C 
ATOM     15  C   UNL     1     140.976 145.814 164.823  1.00  0.00     0.007 C 
ENDBRANCH  11  13
TORSDOF 1
ENDMDL
MODEL 6
REMARK VINA RESULT:    -5.994      4.153      6.091
REMARK INTER + INTRA:          -6.728
REMARK INTER:                  -6.462
REMARK INTRA:                  -0.266
REMARK UNBOUND:                -0.383
REMARK SMILES CC1=CC[C@@H]2[C@H]3[C@@H](C(C)C)CC[C@]2(C)[C@@H]13
REMARK SMILES IDX 1 1 2 2 3 3 4 4 5 5 6 6 15 7 13 8 12 9 11 10 7 11 14 12 8 13
REMARK SMILES IDX 9 14 10 15
REMARK H PARENT
REMARK Flexibility Score: inf
ROOT
ATOM      1  C   UNL     1     146.050 150.264 161.503  1.00  0.00     0.039 C 
ATOM      2  C   UNL     1     146.527 149.571 162.745  1.00  0.00    -0.073 C 
ATOM      3  C   UNL     1     146.939 150.275 163.831  1.00  0.00    -0.027 C 
ATOM      4  C   UNL     1     147.390 149.511 165.079  1.00  0.00     0.031 C 
ATOM      5  C   UNL     1     147.317 147.970 164.832  1.00  0.00     0.003 C 
ATOM      6  C   UNL     1     147.963 147.687 163.449  1.00  0.00     0.004 C 
ATOM      7  C   UNL     1     146.585 148.043 162.842  1.00  0.00     0.024 C 
ATOM      8  C   UNL     1     145.972 147.561 164.177  1.00  0.00    -0.022 C 
ATOM      9  C   UNL     1     145.830 146.008 164.142  1.00  0.00     0.008 C 
ATOM     10  C   UNL     1     147.194 145.288 163.967  1.00  0.00     0.005 C 
ATOM     11  C   UNL     1     148.247 146.169 163.227  1.00  0.00    -0.005 C 
ATOM     12  C   UNL     1     144.665 148.225 164.669  1.00  0.00     0.012 C 
ENDROOT
BRANCH  11  13
ATOM     13  C   UNL     1     149.710 145.744 163.560  1.00  0.00    -0.014 C 
ATOM     14  C   UNL     1     150.406 144.970 162.427  1.00  0.00     0.007 C 
ATOM     15  C   UNL     1     149.775 144.931 164.863  1.00  0.00     0.007 C 
ENDBRANCH  11  13
TORSDOF 1
ENDMDL
MODEL 7
REMARK VINA RESULT:    -5.975      2.039      4.687
REMARK INTER + INTRA:          -6.708
REMARK INTER:                  -6.438
REMARK INTRA:                  -0.270
REMARK UNBOUND:                -0.383
REMARK SMILES CC1=CC[C@@H]2[C@H]3[C@@H](C(C)C)CC[C@]2(C)[C@@H]13
REMARK SMILES IDX 1 1 2 2 3 3 4 4 5 5 6 6 15 7 13 8 12 9 11 10 7 11 14 12 8 13
REMARK SMILES IDX 9 14 10 15
REMARK H PARENT
REMARK Flexibility Score: inf
ROOT
ATOM      1  C   UNL     1     140.500 145.870 161.559  1.00  0.00     0.039 C 
ATOM      2  C   UNL     1     141.194 146.397 162.780  1.00  0.00    -0.073 C 
ATOM      3  C   UNL     1     140.492 146.831 163.858  1.00  0.00    -0.027 C 
ATOM      4  C   UNL     1     141.258 147.334 165.086  1.00  0.00     0.031 C 
ATOM      5  C   UNL     1     142.798 147.280 164.828  1.00  0.00     0.003 C 
ATOM      6  C   UNL     1     143.058 147.886 163.423  1.00  0.00     0.004 C 
ATOM      7  C   UNL     1     142.722 146.485 162.861  1.00  0.00     0.024 C 
ATOM      8  C   UNL     1     143.225 145.922 164.211  1.00  0.00    -0.022 C 
ATOM      9  C   UNL     1     144.780 145.805 164.167  1.00  0.00     0.008 C 
ATOM     10  C   UNL     1     145.474 147.176 163.944  1.00  0.00     0.005 C 
ATOM     11  C   UNL     1     144.570 148.190 163.179  1.00  0.00    -0.005 C 
ATOM     12  C   UNL     1     142.588 144.619 164.749  1.00  0.00     0.012 C 
ENDROOT
BRANCH  11  13
ATOM     13  C   UNL     1     144.972 149.670 163.463  1.00  0.00    -0.014 C 
ATOM     14  C   UNL     1     145.780 150.322 162.329  1.00  0.00     0.007 C 
ATOM     15  C   UNL     1     145.736 149.798 164.790  1.00  0.00     0.007 C 
ENDBRANCH  11  13
TORSDOF 1
ENDMDL
MODEL 8
REMARK VINA RESULT:    -5.936      3.475      6.035
REMARK INTER + INTRA:          -6.667
REMARK INTER:                  -6.404
REMARK INTRA:                  -0.262
REMARK UNBOUND:                -0.383
REMARK SMILES CC1=CC[C@@H]2[C@H]3[C@@H](C(C)C)CC[C@]2(C)[C@@H]13
REMARK SMILES IDX 1 1 2 2 3 3 4 4 5 5 6 6 15 7 13 8 12 9 11 10 7 11 14 12 8 13
REMARK SMILES IDX 9 14 10 15
REMARK H PARENT
REMARK Flexibility Score: inf
ROOT
ATOM      1  C   UNL     1     150.085 144.997 161.445  1.00  0.00     0.039 C 
ATOM      2  C   UNL     1     149.463 144.439 162.691  1.00  0.00    -0.073 C 
ATOM      3  C   UNL     1     150.227 144.004 163.726  1.00  0.00    -0.027 C 
ATOM      4  C   UNL     1     149.533 143.468 164.983  1.00  0.00     0.031 C 
ATOM      5  C   UNL     1     147.982 143.496 164.803  1.00  0.00     0.003 C 
ATOM      6  C   UNL     1     147.663 142.904 163.404  1.00  0.00     0.004 C 
ATOM      7  C   UNL     1     147.944 144.320 162.848  1.00  0.00     0.024 C 
ATOM      8  C   UNL     1     147.498 144.854 164.230  1.00  0.00    -0.022 C 
ATOM      9  C   UNL     1     145.942 144.940 164.265  1.00  0.00     0.008 C 
ATOM     10  C   UNL     1     145.263 143.559 164.057  1.00  0.00     0.005 C 
ATOM     11  C   UNL     1     146.147 142.575 163.232  1.00  0.00    -0.005 C 
ATOM     12  C   UNL     1     148.137 146.161 164.754  1.00  0.00     0.012 C 
ENDROOT
BRANCH  11  13
ATOM     13  C   UNL     1     145.788 141.083 163.513  1.00  0.00    -0.014 C 
ATOM     14  C   UNL     1     145.048 140.393 162.355  1.00  0.00     0.007 C 
ATOM     15  C   UNL     1     144.978 140.936 164.811  1.00  0.00     0.007 C 
ENDBRANCH  11  13
TORSDOF 1
ENDMDL
MODEL 9
REMARK VINA RESULT:    -5.872      5.304      7.413
REMARK INTER + INTRA:          -6.598
REMARK INTER:                  -6.182
REMARK INTRA:                  -0.416
REMARK UNBOUND:                -0.383
REMARK SMILES CC1=CC[C@@H]2[C@H]3[C@@H](C(C)C)CC[C@]2(C)[C@@H]13
REMARK SMILES IDX 1 1 2 2 3 3 4 4 5 5 6 6 15 7 13 8 12 9 11 10 7 11 14 12 8 13
REMARK SMILES IDX 9 14 10 15
REMARK H PARENT
REMARK Flexibility Score: inf
ROOT
ATOM      1  C   UNL     1     148.640 146.200 160.270  1.00  0.00     0.039 C 
ATOM      2  C   UNL     1     147.994 147.530 160.523  1.00  0.00    -0.073 C 
ATOM      3  C   UNL     1     148.435 148.656 159.906  1.00  0.00    -0.027 C 
ATOM      4  C   UNL     1     147.718 149.981 160.185  1.00  0.00     0.031 C 
ATOM      5  C   UNL     1     146.567 149.772 161.221  1.00  0.00     0.003 C 
ATOM      6  C   UNL     1     147.135 148.913 162.383  1.00  0.00     0.004 C 
ATOM      7  C   UNL     1     146.822 147.683 161.498  1.00  0.00     0.024 C 
ATOM      8  C   UNL     1     145.699 148.537 160.865  1.00  0.00    -0.022 C 
ATOM      9  C   UNL     1     144.435 148.475 161.777  1.00  0.00     0.008 C 
ATOM     10  C   UNL     1     144.699 149.033 163.201  1.00  0.00     0.005 C 
ATOM     11  C   UNL     1     146.194 148.905 163.628  1.00  0.00    -0.005 C 
ATOM     12  C   UNL     1     145.326 148.282 159.385  1.00  0.00     0.012 C 
ENDROOT
BRANCH  11  13
ATOM     13  C   UNL     1     146.586 149.943 164.724  1.00  0.00    -0.014 C 
ATOM     14  C   UNL     1     145.807 151.266 164.633  1.00  0.00     0.007 C 
ATOM     15  C   UNL     1     148.097 150.225 164.713  1.00  0.00     0.007 C 
ENDBRANCH  11  13
TORSDOF 1
ENDMDL
