MODEL 1
REMARK VINA RESULT:    -4.662      0.000      0.000
REMARK INTER + INTRA:          -8.201
REMARK INTER:                  -7.115
REMARK INTRA:                  -1.086
REMARK UNBOUND:                -1.086
REMARK SMILES O=C([O-])CCCCCCCCC(=O)[O-]
REMARK SMILES IDX 7 1 6 2 5 3 4 4 2 5 1 6 3 7 8 8 9 9 10 10 11 11 12 12 13 13
REMARK SMILES IDX 14 14
REMARK H PARENT
REMARK Flexibility Score: inf
ROOT
ATOM      1  C   UNL     1    -105.159 -84.933  39.515  1.00  0.00     0.000 C 
ENDROOT
BRANCH   1   2
ATOM      2  C   UNL     1    -104.774 -83.459  39.291  1.00  0.00     0.000 C 
BRANCH   2   3
ATOM      3  C   UNL     1    -103.450 -83.242  38.533  1.00  0.00     0.006 C 
BRANCH   3   4
ATOM      4  C   UNL     1    -103.584 -83.471  37.022  1.00  0.00     0.053 C 
BRANCH   4   5
ATOM      5  C   UNL     1    -102.442 -84.294  36.517  1.00  0.00     0.041 C 
ATOM      6  O   UNL     1    -102.329 -84.533  35.285  1.00  0.00    -0.550 OA
ATOM      7  O   UNL     1    -101.473 -84.757  37.399  1.00  0.00    -0.550 OA
ENDBRANCH   4   5
ENDBRANCH   3   4
ENDBRANCH   2   3
ENDBRANCH   1   2
BRANCH   1   8
ATOM      8  C   UNL     1    -103.971 -85.902  39.667  1.00  0.00     0.000 C 
BRANCH   8   9
ATOM      9  C   UNL     1    -103.940 -87.018  38.599  1.00  0.00     0.000 C 
BRANCH   9  10
ATOM     10  C   UNL     1    -105.083 -86.886  37.579  1.00  0.00     0.006 C 
BRANCH  10  11
ATOM     11  C   UNL     1    -104.631 -87.233  36.154  1.00  0.00     0.053 C 
BRANCH  11  12
ATOM     12  C   UNL     1    -105.617 -86.759  35.130  1.00  0.00     0.041 C 
ATOM     13  O   UNL     1    -105.622 -85.553  34.766  1.00  0.00    -0.550 OA
ATOM     14  O   UNL     1    -106.551 -87.641  34.601  1.00  0.00    -0.550 OA
ENDBRANCH  11  12
ENDBRANCH  10  11
ENDBRANCH   9  10
ENDBRANCH   8   9
ENDBRANCH   1   8
TORSDOF 9
ENDMDL
MODEL 2
REMARK VINA RESULT:    -4.603      2.019      2.646
REMARK INTER + INTRA:          -8.110
REMARK INTER:                  -7.430
REMARK INTRA:                  -0.680
REMARK UNBOUND:                -1.086
REMARK SMILES O=C([O-])CCCCCCCCC(=O)[O-]
REMARK SMILES IDX 7 1 6 2 5 3 4 4 2 5 1 6 3 7 8 8 9 9 10 10 11 11 12 12 13 13
REMARK SMILES IDX 14 14
REMARK H PARENT
REMARK Flexibility Score: inf
ROOT
ATOM      1  C   UNL     1    -104.742 -85.568  39.913  1.00  0.00     0.000 C 
ENDROOT
BRANCH   1   2
ATOM      2  C   UNL     1    -105.532 -84.296  39.553  1.00  0.00     0.000 C 
BRANCH   2   3
ATOM      3  C   UNL     1    -104.736 -83.239  38.764  1.00  0.00     0.006 C 
BRANCH   3   4
ATOM      4  C   UNL     1    -104.665 -81.887  39.485  1.00  0.00     0.053 C 
BRANCH   4   5
ATOM      5  C   UNL     1    -103.360 -81.747  40.203  1.00  0.00     0.041 C 
ATOM      6  O   UNL     1    -103.160 -80.767  40.968  1.00  0.00    -0.550 OA
ATOM      7  O   UNL     1    -102.382 -82.723  40.065  1.00  0.00    -0.550 OA
ENDBRANCH   4   5
ENDBRANCH   3   4
ENDBRANCH   2   3
ENDBRANCH   1   2
BRANCH   1   8
ATOM      8  C   UNL     1    -103.736 -86.037  38.843  1.00  0.00     0.000 C 
BRANCH   8   9
ATOM      9  C   UNL     1    -103.995 -87.472  38.335  1.00  0.00     0.000 C 
BRANCH   9  10
ATOM     10  C   UNL     1    -105.077 -87.523  37.243  1.00  0.00     0.006 C 
BRANCH  10  11
ATOM     11  C   UNL     1    -105.027 -86.296  36.321  1.00  0.00     0.053 C 
BRANCH  11  12
ATOM     12  C   UNL     1    -105.387 -86.650  34.910  1.00  0.00     0.041 C 
ATOM     13  O   UNL     1    -104.815 -86.072  33.948  1.00  0.00    -0.550 OA
ATOM     14  O   UNL     1    -106.375 -87.593  34.658  1.00  0.00    -0.550 OA
ENDBRANCH  11  12
ENDBRANCH  10  11
ENDBRANCH   9  10
ENDBRANCH   8   9
ENDBRANCH   1   8
TORSDOF 9
ENDMDL
MODEL 3
REMARK VINA RESULT:    -4.475      2.018      3.877
REMARK INTER + INTRA:          -7.916
REMARK INTER:                  -6.943
REMARK INTRA:                  -0.973
REMARK UNBOUND:                -1.086
REMARK SMILES O=C([O-])CCCCCCCCC(=O)[O-]
REMARK SMILES IDX 7 1 6 2 5 3 4 4 2 5 1 6 3 7 8 8 9 9 10 10 11 11 12 12 13 13
REMARK SMILES IDX 14 14
REMARK H PARENT
REMARK Flexibility Score: inf
ROOT
ATOM      1  C   UNL     1    -105.134 -86.849  37.561  1.00  0.00     0.000 C 
ENDROOT
BRANCH   1   2
ATOM      2  C   UNL     1    -103.969 -86.963  38.563  1.00  0.00     0.000 C 
BRANCH   2   3
ATOM      3  C   UNL     1    -103.968 -85.903  39.681  1.00  0.00     0.006 C 
BRANCH   3   4
ATOM      4  C   UNL     1    -105.084 -84.863  39.518  1.00  0.00     0.053 C 
BRANCH   4   5
ATOM      5  C   UNL     1    -104.513 -83.480  39.530  1.00  0.00     0.041 C 
ATOM      6  O   UNL     1    -105.266 -82.483  39.377  1.00  0.00    -0.550 OA
ATOM      7  O   UNL     1    -103.156 -83.289  39.759  1.00  0.00    -0.550 OA
ENDBRANCH   4   5
ENDBRANCH   3   4
ENDBRANCH   2   3
ENDBRANCH   1   2
BRANCH   1   8
ATOM      8  C   UNL     1    -104.887 -87.516  36.194  1.00  0.00     0.000 C 
BRANCH   8   9
ATOM      9  C   UNL     1    -105.380 -86.676  34.996  1.00  0.00     0.000 C 
BRANCH   9  10
ATOM     10  C   UNL     1    -104.988 -85.194  35.117  1.00  0.00     0.006 C 
BRANCH  10  11
ATOM     11  C   UNL     1    -103.474 -84.982  34.980  1.00  0.00     0.053 C 
BRANCH  11  12
ATOM     12  C   UNL     1    -102.930 -84.140  36.093  1.00  0.00     0.041 C 
ATOM     13  O   UNL     1    -102.078 -84.617  36.889  1.00  0.00    -0.550 OA
ATOM     14  O   UNL     1    -103.386 -82.840  36.271  1.00  0.00    -0.550 OA
ENDBRANCH  11  12
ENDBRANCH  10  11
ENDBRANCH   9  10
ENDBRANCH   8   9
ENDBRANCH   1   8
TORSDOF 9
ENDMDL
MODEL 4
REMARK VINA RESULT:    -4.460      1.874      4.442
REMARK INTER + INTRA:          -7.893
REMARK INTER:                  -7.294
REMARK INTRA:                  -0.598
REMARK UNBOUND:                -1.086
REMARK SMILES O=C([O-])CCCCCCCCC(=O)[O-]
REMARK SMILES IDX 7 1 6 2 5 3 4 4 2 5 1 6 3 7 8 8 9 9 10 10 11 11 12 12 13 13
REMARK SMILES IDX 14 14
REMARK H PARENT
REMARK Flexibility Score: inf
ROOT
ATOM      1  C   UNL     1    -105.106 -86.156  37.259  1.00  0.00     0.000 C 
ENDROOT
BRANCH   1   2
ATOM      2  C   UNL     1    -105.308 -87.246  36.191  1.00  0.00     0.000 C 
BRANCH   2   3
ATOM      3  C   UNL     1    -105.548 -86.721  34.763  1.00  0.00     0.006 C 
BRANCH   3   4
ATOM      4  C   UNL     1    -105.246 -85.224  34.620  1.00  0.00     0.053 C 
BRANCH   4   5
ATOM      5  C   UNL     1    -103.925 -85.020  33.949  1.00  0.00     0.041 C 
ATOM      6  O   UNL     1    -102.870 -84.950  34.633  1.00  0.00    -0.550 OA
ATOM      7  O   UNL     1    -103.851 -84.956  32.563  1.00  0.00    -0.550 OA
ENDBRANCH   4   5
ENDBRANCH   3   4
ENDBRANCH   2   3
ENDBRANCH   1   2
BRANCH   1   8
ATOM      8  C   UNL     1    -104.334 -86.607  38.515  1.00  0.00     0.000 C 
BRANCH   8   9
ATOM      9  C   UNL     1    -104.455 -85.627  39.702  1.00  0.00     0.000 C 
BRANCH   9  10
ATOM     10  C   UNL     1    -105.457 -84.493  39.428  1.00  0.00     0.006 C 
BRANCH  10  11
ATOM     11  C   UNL     1    -104.821 -83.106  39.589  1.00  0.00     0.053 C 
BRANCH  11  12
ATOM     12  C   UNL     1    -103.445 -83.055  38.997  1.00  0.00     0.041 C 
ATOM     13  O   UNL     1    -103.293 -83.077  37.747  1.00  0.00    -0.550 OA
ATOM     14  O   UNL     1    -102.331 -83.016  39.825  1.00  0.00    -0.550 OA
ENDBRANCH  11  12
ENDBRANCH  10  11
ENDBRANCH   9  10
ENDBRANCH   8   9
ENDBRANCH   1   8
TORSDOF 9
ENDMDL
MODEL 5
REMARK VINA RESULT:    -4.442      1.873      4.032
REMARK INTER + INTRA:          -7.866
REMARK INTER:                  -7.010
REMARK INTRA:                  -0.856
REMARK UNBOUND:                -1.086
REMARK SMILES O=C([O-])CCCCCCCCC(=O)[O-]
REMARK SMILES IDX 7 1 6 2 5 3 4 4 2 5 1 6 3 7 8 8 9 9 10 10 11 11 12 12 13 13
REMARK SMILES IDX 14 14
REMARK H PARENT
REMARK Flexibility Score: inf
ROOT
ATOM      1  C   UNL     1    -104.902 -87.560  36.328  1.00  0.00     0.000 C 
ENDROOT
BRANCH   1   2
ATOM      2  C   UNL     1    -105.632 -86.946  35.120  1.00  0.00     0.000 C 
BRANCH   2   3
ATOM      3  C   UNL     1    -105.285 -85.473  34.831  1.00  0.00     0.006 C 
BRANCH   3   4
ATOM      4  C   UNL     1    -103.775 -85.227  34.720  1.00  0.00     0.053 C 
BRANCH   4   5
ATOM      5  C   UNL     1    -103.327 -84.256  35.766  1.00  0.00     0.041 C 
ATOM      6  O   UNL     1    -104.007 -83.224  36.007  1.00  0.00    -0.550 OA
ATOM      7  O   UNL     1    -102.184 -84.516  36.512  1.00  0.00    -0.550 OA
ENDBRANCH   4   5
ENDBRANCH   3   4
ENDBRANCH   2   3
ENDBRANCH   1   2
BRANCH   1   8
ATOM      8  C   UNL     1    -105.115 -86.821  37.664  1.00  0.00     0.000 C 
BRANCH   8   9
ATOM      9  C   UNL     1    -103.885 -86.858  38.596  1.00  0.00     0.000 C 
BRANCH   9  10
ATOM     10  C   UNL     1    -104.031 -85.910  39.799  1.00  0.00     0.006 C 
BRANCH  10  11
ATOM     11  C   UNL     1    -105.169 -84.898  39.604  1.00  0.00     0.053 C 
BRANCH  11  12
ATOM     12  C   UNL     1    -104.646 -83.510  39.394  1.00  0.00     0.041 C 
ATOM     13  O   UNL     1    -105.438 -82.572  39.113  1.00  0.00    -0.550 OA
ATOM     14  O   UNL     1    -103.282 -83.259  39.476  1.00  0.00    -0.550 OA
ENDBRANCH  11  12
ENDBRANCH  10  11
ENDBRANCH   9  10
ENDBRANCH   8   9
ENDBRANCH   1   8
TORSDOF 9
ENDMDL
MODEL 6
REMARK VINA RESULT:    -4.416      1.893      2.863
REMARK INTER + INTRA:          -7.826
REMARK INTER:                  -7.044
REMARK INTRA:                  -0.781
REMARK UNBOUND:                -1.086
REMARK SMILES O=C([O-])CCCCCCCCC(=O)[O-]
REMARK SMILES IDX 7 1 6 2 5 3 4 4 2 5 1 6 3 7 8 8 9 9 10 10 11 11 12 12 13 13
REMARK SMILES IDX 14 14
REMARK H PARENT
REMARK Flexibility Score: inf
ROOT
ATOM      1  C   UNL     1    -103.975 -86.046  39.662  1.00  0.00     0.000 C 
ENDROOT
BRANCH   1   2
ATOM      2  C   UNL     1    -105.109 -85.023  39.460  1.00  0.00     0.000 C 
BRANCH   2   3
ATOM      3  C   UNL     1    -104.686 -83.714  38.768  1.00  0.00     0.006 C 
BRANCH   3   4
ATOM      4  C   UNL     1    -104.586 -82.531  39.739  1.00  0.00     0.053 C 
BRANCH   4   5
ATOM      5  C   UNL     1    -103.159 -82.119  39.915  1.00  0.00     0.041 C 
ATOM      6  O   UNL     1    -102.860 -80.900  40.025  1.00  0.00    -0.550 OA
ATOM      7  O   UNL     1    -102.163 -83.083  40.007  1.00  0.00    -0.550 OA
ENDBRANCH   4   5
ENDBRANCH   3   4
ENDBRANCH   2   3
ENDBRANCH   1   2
BRANCH   1   8
ATOM      8  C   UNL     1    -103.701 -86.963  38.453  1.00  0.00     0.000 C 
BRANCH   8   9
ATOM      9  C   UNL     1    -104.981 -87.437  37.730  1.00  0.00     0.000 C 
BRANCH   9  10
ATOM     10  C   UNL     1    -104.882 -87.286  36.203  1.00  0.00     0.006 C 
BRANCH  10  11
ATOM     11  C   UNL     1    -105.087 -85.834  35.749  1.00  0.00     0.053 C 
BRANCH  11  12
ATOM     12  C   UNL     1    -103.920 -85.332  34.954  1.00  0.00     0.041 C 
ATOM     13  O   UNL     1    -102.897 -84.893  35.542  1.00  0.00    -0.550 OA
ATOM     14  O   UNL     1    -103.976 -85.320  33.567  1.00  0.00    -0.550 OA
ENDBRANCH  11  12
ENDBRANCH  10  11
ENDBRANCH   9  10
ENDBRANCH   8   9
ENDBRANCH   1   8
TORSDOF 9
ENDMDL
MODEL 7
REMARK VINA RESULT:    -4.334      2.318      2.944
REMARK INTER + INTRA:          -7.700
REMARK INTER:                  -6.979
REMARK INTRA:                  -0.721
REMARK UNBOUND:                -1.086
REMARK SMILES O=C([O-])CCCCCCCCC(=O)[O-]
REMARK SMILES IDX 7 1 6 2 5 3 4 4 2 5 1 6 3 7 8 8 9 9 10 10 11 11 12 12 13 13
REMARK SMILES IDX 14 14
REMARK H PARENT
REMARK Flexibility Score: inf
ROOT
ATOM      1  C   UNL     1    -102.660 -84.396  39.185  1.00  0.00     0.000 C 
ENDROOT
BRANCH   1   2
ATOM      2  C   UNL     1    -102.273 -83.285  40.179  1.00  0.00     0.000 C 
BRANCH   2   3
ATOM      3  C   UNL     1    -102.880 -81.902  39.875  1.00  0.00     0.006 C 
BRANCH   3   4
ATOM      4  C   UNL     1    -104.412 -81.894  39.945  1.00  0.00     0.053 C 
BRANCH   4   5
ATOM      5  C   UNL     1    -104.993 -81.538  38.613  1.00  0.00     0.041 C 
ATOM      6  O   UNL     1    -106.044 -80.847  38.544  1.00  0.00    -0.550 OA
ATOM      7  O   UNL     1    -104.348 -81.927  37.446  1.00  0.00    -0.550 OA
ENDBRANCH   4   5
ENDBRANCH   3   4
ENDBRANCH   2   3
ENDBRANCH   1   2
BRANCH   1   8
ATOM      8  C   UNL     1    -103.574 -85.496  39.759  1.00  0.00     0.000 C 
BRANCH   8   9
ATOM      9  C   UNL     1    -105.016 -85.455  39.207  1.00  0.00     0.000 C 
BRANCH   9  10
ATOM     10  C   UNL     1    -105.056 -85.441  37.670  1.00  0.00     0.006 C 
BRANCH  10  11
ATOM     11  C   UNL     1    -105.052 -86.857  37.077  1.00  0.00     0.053 C 
BRANCH  11  12
ATOM     12  C   UNL     1    -105.262 -86.837  35.594  1.00  0.00     0.041 C 
ATOM     13  O   UNL     1    -106.183 -87.524  35.076  1.00  0.00    -0.550 OA
ATOM     14  O   UNL     1    -104.423 -86.087  34.781  1.00  0.00    -0.550 OA
ENDBRANCH  11  12
ENDBRANCH  10  11
ENDBRANCH   9  10
ENDBRANCH   8   9
ENDBRANCH   1   8
TORSDOF 9
ENDMDL
MODEL 8
REMARK VINA RESULT:    -4.288      2.377      5.038
REMARK INTER + INTRA:          -7.631
REMARK INTER:                  -7.090
REMARK INTRA:                  -0.540
REMARK UNBOUND:                -1.086
REMARK SMILES O=C([O-])CCCCCCCCC(=O)[O-]
REMARK SMILES IDX 7 1 6 2 5 3 4 4 2 5 1 6 3 7 8 8 9 9 10 10 11 11 12 12 13 13
REMARK SMILES IDX 14 14
REMARK H PARENT
REMARK Flexibility Score: inf
ROOT
ATOM      1  C   UNL     1    -103.702 -86.160  38.874  1.00  0.00     0.000 C 
ENDROOT
BRANCH   1   2
ATOM      2  C   UNL     1    -104.059 -87.495  38.194  1.00  0.00     0.000 C 
BRANCH   2   3
ATOM      3  C   UNL     1    -105.151 -87.401  37.112  1.00  0.00     0.006 C 
BRANCH   3   4
ATOM      4  C   UNL     1    -104.688 -86.642  35.862  1.00  0.00     0.053 C 
BRANCH   4   5
ATOM      5  C   UNL     1    -105.802 -86.547  34.868  1.00  0.00     0.041 C 
ATOM      6  O   UNL     1    -106.089 -85.439  34.342  1.00  0.00    -0.550 OA
ATOM      7  O   UNL     1    -106.491 -87.690  34.484  1.00  0.00    -0.550 OA
ENDBRANCH   4   5
ENDBRANCH   3   4
ENDBRANCH   2   3
ENDBRANCH   1   2
BRANCH   1   8
ATOM      8  C   UNL     1    -104.717 -85.672  39.926  1.00  0.00     0.000 C 
BRANCH   8   9
ATOM      9  C   UNL     1    -105.484 -84.399  39.504  1.00  0.00     0.000 C 
BRANCH   9  10
ATOM     10  C   UNL     1    -104.565 -83.347  38.861  1.00  0.00     0.006 C 
BRANCH  10  11
ATOM     11  C   UNL     1    -104.598 -82.010  39.616  1.00  0.00     0.053 C 
BRANCH  11  12
ATOM     12  C   UNL     1    -104.854 -80.859  38.692  1.00  0.00     0.041 C 
ATOM     13  O   UNL     1    -103.896 -80.152  38.282  1.00  0.00    -0.550 OA
ATOM     14  O   UNL     1    -106.153 -80.547  38.310  1.00  0.00    -0.550 OA
ENDBRANCH  11  12
ENDBRANCH  10  11
ENDBRANCH   9  10
ENDBRANCH   8   9
ENDBRANCH   1   8
TORSDOF 9
ENDMDL
MODEL 9
REMARK VINA RESULT:    -4.202      2.589      5.002
REMARK INTER + INTRA:          -7.499
REMARK INTER:                  -6.602
REMARK INTRA:                  -0.897
REMARK UNBOUND:                -1.086
REMARK SMILES O=C([O-])CCCCCCCCC(=O)[O-]
REMARK SMILES IDX 7 1 6 2 5 3 4 4 2 5 1 6 3 7 8 8 9 9 10 10 11 11 12 12 13 13
REMARK SMILES IDX 14 14
REMARK H PARENT
REMARK Flexibility Score: inf
ROOT
ATOM      1  C   UNL     1    -104.405 -85.610  39.666  1.00  0.00     0.000 C 
ENDROOT
BRANCH   1   2
ATOM      2  C   UNL     1    -104.237 -86.514  38.431  1.00  0.00     0.000 C 
BRANCH   2   3
ATOM      3  C   UNL     1    -105.104 -86.126  37.218  1.00  0.00     0.006 C 
BRANCH   3   4
ATOM      4  C   UNL     1    -104.273 -85.813  35.967  1.00  0.00     0.053 C 
BRANCH   4   5
ATOM      5  C   UNL     1    -103.538 -84.522  36.139  1.00  0.00     0.041 C 
ATOM      6  O   UNL     1    -102.291 -84.521  36.320  1.00  0.00    -0.550 OA
ATOM      7  O   UNL     1    -104.220 -83.315  36.051  1.00  0.00    -0.550 OA
ENDBRANCH   4   5
ENDBRANCH   3   4
ENDBRANCH   2   3
ENDBRANCH   1   2
BRANCH   1   8
ATOM      8  C   UNL     1    -105.498 -84.530  39.539  1.00  0.00     0.000 C 
BRANCH   8   9
ATOM      9  C   UNL     1    -104.945 -83.089  39.501  1.00  0.00     0.000 C 
BRANCH   9  10
ATOM     10  C   UNL     1    -103.412 -83.046  39.606  1.00  0.00     0.006 C 
BRANCH  10  11
ATOM     11  C   UNL     1    -102.913 -81.763  40.285  1.00  0.00     0.053 C 
BRANCH  11  12
ATOM     12  C   UNL     1    -103.466 -80.536  39.626  1.00  0.00     0.041 C 
ATOM     13  O   UNL     1    -103.085 -80.213  38.469  1.00  0.00    -0.550 OA
ATOM     14  O   UNL     1    -104.377 -79.733  40.300  1.00  0.00    -0.550 OA
ENDBRANCH  11  12
ENDBRANCH  10  11
ENDBRANCH   9  10
ENDBRANCH   8   9
ENDBRANCH   1   8
TORSDOF 9
ENDMDL
