MODEL 1
REMARK VINA RESULT:    -6.160      0.000      0.000
REMARK INTER + INTRA:          -7.362
REMARK INTER:                  -7.240
REMARK INTRA:                  -0.122
REMARK UNBOUND:                -0.122
REMARK SMILES O=C([O-])C=Cc1ccc(O)c(O)c1
REMARK SMILES IDX 6 1 13 2 7 3 11 4 8 5 9 6 5 7 4 8 2 9 1 10 3 11 12 12 10 14
REMARK H PARENT 12 13 10 15
REMARK Flexibility Score: inf
ROOT
ATOM      1  C   UNL     1      18.670   9.468 151.680  1.00  0.00    -0.022 A 
ATOM      2  C   UNL     1      18.149   8.172 151.867  1.00  0.00     0.058 A 
ATOM      3  C   UNL     1      18.136  10.528 152.430  1.00  0.00     0.012 A 
ATOM      4  C   UNL     1      17.096   7.950 152.769  1.00  0.00     0.157 A 
ATOM      5  C   UNL     1      17.089  10.308 153.326  1.00  0.00     0.051 A 
ATOM      6  C   UNL     1      16.563   9.026 153.498  1.00  0.00     0.157 A 
ENDROOT
BRANCH   1   7
ATOM      7  C   UNL     1      19.789   9.751 150.747  1.00  0.00     0.010 C 
ATOM      8  C   UNL     1      19.844   9.293 149.489  1.00  0.00     0.025 C 
BRANCH   8   9
ATOM      9  C   UNL     1      20.969   9.608 148.594  1.00  0.00     0.064 C 
ATOM     10  O   UNL     1      20.942   9.214 147.400  1.00  0.00    -0.545 OA
ATOM     11  O   UNL     1      22.064  10.336 149.047  1.00  0.00    -0.545 OA
ENDBRANCH   8   9
ENDBRANCH   1   7
BRANCH   4  12
ATOM     12  O   UNL     1      16.584   6.666 152.945  1.00  0.00    -0.504 OA
ATOM     13  H   UNL     1      16.002   6.430 153.741  1.00  0.00     0.293 HD
ENDBRANCH   4  12
BRANCH   6  14
ATOM     14  O   UNL     1      15.515   8.837 154.399  1.00  0.00    -0.504 OA
ATOM     15  H   UNL     1      15.617   8.272 155.233  1.00  0.00     0.293 HD
ENDBRANCH   6  14
TORSDOF 4
ENDMDL
MODEL 2
REMARK VINA RESULT:    -5.853      0.864      2.092
REMARK INTER + INTRA:          -7.002
REMARK INTER:                  -6.879
REMARK INTRA:                  -0.122
REMARK UNBOUND:                -0.122
REMARK SMILES O=C([O-])C=Cc1ccc(O)c(O)c1
REMARK SMILES IDX 6 1 13 2 7 3 11 4 8 5 9 6 5 7 4 8 2 9 1 10 3 11 12 12 10 14
REMARK H PARENT 12 13 10 15
REMARK Flexibility Score: inf
ROOT
ATOM      1  C   UNL     1      18.695   8.906 151.652  1.00  0.00    -0.022 A 
ATOM      2  C   UNL     1      18.358  10.038 152.421  1.00  0.00     0.058 A 
ATOM      3  C   UNL     1      17.937   7.734 151.804  1.00  0.00     0.012 A 
ATOM      4  C   UNL     1      17.299   9.986 153.342  1.00  0.00     0.157 A 
ATOM      5  C   UNL     1      16.884   7.681 152.720  1.00  0.00     0.051 A 
ATOM      6  C   UNL     1      16.563   8.799 153.492  1.00  0.00     0.157 A 
ENDROOT
BRANCH   1   7
ATOM      7  C   UNL     1      19.798   8.916 150.659  1.00  0.00     0.010 C 
ATOM      8  C   UNL     1      19.755   9.595 149.505  1.00  0.00     0.025 C 
BRANCH   8   9
ATOM      9  C   UNL     1      20.877   9.585 148.554  1.00  0.00     0.064 C 
ATOM     10  O   UNL     1      21.914  10.251 148.809  1.00  0.00    -0.545 OA
ATOM     11  O   UNL     1      20.812   8.852 147.375  1.00  0.00    -0.545 OA
ENDBRANCH   8   9
ENDBRANCH   1   7
BRANCH   4  12
ATOM     12  O   UNL     1      16.975  11.109 154.101  1.00  0.00    -0.504 OA
ATOM     13  H   UNL     1      17.281  11.207 155.063  1.00  0.00     0.293 HD
ENDBRANCH   4  12
BRANCH   6  14
ATOM     14  O   UNL     1      15.508   8.716 154.401  1.00  0.00    -0.504 OA
ATOM     15  H   UNL     1      15.339   9.432 155.096  1.00  0.00     0.293 HD
ENDBRANCH   6  14
TORSDOF 4
ENDMDL
MODEL 3
REMARK VINA RESULT:    -5.712      1.821      6.285
REMARK INTER + INTRA:          -6.836
REMARK INTER:                  -6.713
REMARK INTRA:                  -0.122
REMARK UNBOUND:                -0.122
REMARK SMILES O=C([O-])C=Cc1ccc(O)c(O)c1
REMARK SMILES IDX 6 1 13 2 7 3 11 4 8 5 9 6 5 7 4 8 2 9 1 10 3 11 12 12 10 14
REMARK H PARENT 12 13 10 15
REMARK Flexibility Score: inf
ROOT
ATOM      1  C   UNL     1      20.679   8.789 150.488  1.00  0.00    -0.022 A 
ATOM      2  C   UNL     1      20.593   9.382 149.212  1.00  0.00     0.058 A 
ATOM      3  C   UNL     1      21.767   7.949 150.773  1.00  0.00     0.012 A 
ATOM      4  C   UNL     1      21.566   9.116 148.235  1.00  0.00     0.157 A 
ATOM      5  C   UNL     1      22.734   7.684 149.801  1.00  0.00     0.051 A 
ATOM      6  C   UNL     1      22.638   8.260 148.532  1.00  0.00     0.157 A 
ENDROOT
BRANCH   1   7
ATOM      7  C   UNL     1      19.682   9.048 151.557  1.00  0.00     0.010 C 
ATOM      8  C   UNL     1      18.424   8.590 151.528  1.00  0.00     0.025 C 
BRANCH   8   9
ATOM      9  C   UNL     1      17.472   8.862 152.616  1.00  0.00     0.064 C 
ATOM     10  O   UNL     1      17.212  10.051 152.933  1.00  0.00    -0.545 OA
ATOM     11  O   UNL     1      16.854   7.823 153.304  1.00  0.00    -0.545 OA
ENDBRANCH   8   9
ENDBRANCH   1   7
BRANCH   4  12
ATOM     12  O   UNL     1      21.471   9.704 146.974  1.00  0.00    -0.504 OA
ATOM     13  H   UNL     1      20.614   9.669 146.434  1.00  0.00     0.293 HD
ENDBRANCH   4  12
BRANCH   6  14
ATOM     14  O   UNL     1      23.618   7.974 147.581  1.00  0.00    -0.504 OA
ATOM     15  H   UNL     1      23.421   7.977 146.588  1.00  0.00     0.293 HD
ENDBRANCH   6  14
TORSDOF 4
ENDMDL
MODEL 4
REMARK VINA RESULT:    -5.675      1.714      6.273
REMARK INTER + INTRA:          -6.793
REMARK INTER:                  -6.653
REMARK INTRA:                  -0.140
REMARK UNBOUND:                -0.122
REMARK SMILES O=C([O-])C=Cc1ccc(O)c(O)c1
REMARK SMILES IDX 6 1 13 2 7 3 11 4 8 5 9 6 5 7 4 8 2 9 1 10 3 11 12 12 10 14
REMARK H PARENT 12 13 10 15
REMARK Flexibility Score: inf
ROOT
ATOM      1  C   UNL     1      20.646   8.952 150.027  1.00  0.00    -0.022 A 
ATOM      2  C   UNL     1      21.939   8.392 150.012  1.00  0.00     0.058 A 
ATOM      3  C   UNL     1      20.147   9.536 148.852  1.00  0.00     0.012 A 
ATOM      4  C   UNL     1      22.724   8.442 148.850  1.00  0.00     0.157 A 
ATOM      5  C   UNL     1      20.928   9.586 147.696  1.00  0.00     0.051 A 
ATOM      6  C   UNL     1      22.216   9.046 147.688  1.00  0.00     0.157 A 
ENDROOT
BRANCH   1   7
ATOM      7  C   UNL     1      19.774   8.914 151.228  1.00  0.00     0.010 C 
ATOM      8  C   UNL     1      18.488   8.539 151.203  1.00  0.00     0.025 C 
BRANCH   8   9
ATOM      9  C   UNL     1      17.663   8.505 152.420  1.00  0.00     0.064 C 
ATOM     10  O   UNL     1      16.975   7.483 152.677  1.00  0.00    -0.545 OA
ATOM     11  O   UNL     1      17.629   9.587 153.293  1.00  0.00    -0.545 OA
ENDBRANCH   8   9
ENDBRANCH   1   7
BRANCH   4  12
ATOM     12  O   UNL     1      24.004   7.889 148.845  1.00  0.00    -0.504 OA
ATOM     13  H   UNL     1      24.484   7.651 149.706  1.00  0.00     0.293 HD
ENDBRANCH   4  12
BRANCH   6  14
ATOM     14  O   UNL     1      22.973   9.113 146.519  1.00  0.00    -0.504 OA
ATOM     15  H   UNL     1      23.728   8.465 146.329  1.00  0.00     0.293 HD
ENDBRANCH   6  14
TORSDOF 4
ENDMDL
MODEL 5
REMARK VINA RESULT:    -5.218     10.728     11.545
REMARK INTER + INTRA:          -6.255
REMARK INTER:                  -6.105
REMARK INTRA:                  -0.149
REMARK UNBOUND:                -0.122
REMARK SMILES O=C([O-])C=Cc1ccc(O)c(O)c1
REMARK SMILES IDX 6 1 13 2 7 3 11 4 8 5 9 6 5 7 4 8 2 9 1 10 3 11 12 12 10 14
REMARK H PARENT 12 13 10 15
REMARK Flexibility Score: inf
ROOT
ATOM      1  C   UNL     1      14.567   5.984 141.392  1.00  0.00    -0.022 A 
ATOM      2  C   UNL     1      13.362   6.646 141.703  1.00  0.00     0.058 A 
ATOM      3  C   UNL     1      14.542   4.597 141.174  1.00  0.00     0.012 A 
ATOM      4  C   UNL     1      12.163   5.926 141.819  1.00  0.00     0.157 A 
ATOM      5  C   UNL     1      13.349   3.881 141.290  1.00  0.00     0.051 A 
ATOM      6  C   UNL     1      12.159   4.537 141.615  1.00  0.00     0.157 A 
ENDROOT
BRANCH   1   7
ATOM      7  C   UNL     1      15.858   6.703 141.247  1.00  0.00     0.010 C 
ATOM      8  C   UNL     1      17.053   6.098 141.274  1.00  0.00     0.025 C 
BRANCH   8   9
ATOM      9  C   UNL     1      18.309   6.849 141.115  1.00  0.00     0.064 C 
ATOM     10  O   UNL     1      19.257   6.651 141.917  1.00  0.00    -0.545 OA
ATOM     11  O   UNL     1      18.465   7.776 140.091  1.00  0.00    -0.545 OA
ENDBRANCH   8   9
ENDBRANCH   1   7
BRANCH   4  12
ATOM     12  O   UNL     1      10.976   6.588 142.131  1.00  0.00    -0.504 OA
ATOM     13  H   UNL     1      10.676   7.411 141.620  1.00  0.00     0.293 HD
ENDBRANCH   4  12
BRANCH   6  14
ATOM     14  O   UNL     1      10.984   3.794 141.727  1.00  0.00    -0.504 OA
ATOM     15  H   UNL     1      10.754   3.274 142.565  1.00  0.00     0.293 HD
ENDBRANCH   6  14
TORSDOF 4
ENDMDL
MODEL 6
REMARK VINA RESULT:    -5.214     10.587     10.910
REMARK INTER + INTRA:          -6.251
REMARK INTER:                  -6.105
REMARK INTRA:                  -0.145
REMARK UNBOUND:                -0.122
REMARK SMILES O=C([O-])C=Cc1ccc(O)c(O)c1
REMARK SMILES IDX 6 1 13 2 7 3 11 4 8 5 9 6 5 7 4 8 2 9 1 10 3 11 12 12 10 14
REMARK H PARENT 12 13 10 15
REMARK Flexibility Score: inf
ROOT
ATOM      1  C   UNL     1      15.870   5.474 141.543  1.00  0.00    -0.022 A 
ATOM      2  C   UNL     1      15.037   4.579 142.244  1.00  0.00     0.058 A 
ATOM      3  C   UNL     1      15.334   6.695 141.101  1.00  0.00     0.012 A 
ATOM      4  C   UNL     1      13.688   4.891 142.473  1.00  0.00     0.157 A 
ATOM      5  C   UNL     1      13.991   7.005 141.328  1.00  0.00     0.051 A 
ATOM      6  C   UNL     1      13.164   6.109 142.008  1.00  0.00     0.157 A 
ENDROOT
BRANCH   1   7
ATOM      7  C   UNL     1      17.305   5.195 141.285  1.00  0.00     0.010 C 
ATOM      8  C   UNL     1      18.252   6.141 141.241  1.00  0.00     0.025 C 
BRANCH   8   9
ATOM      9  C   UNL     1      19.666   5.817 140.994  1.00  0.00     0.064 C 
ATOM     10  O   UNL     1      20.544   6.208 141.806  1.00  0.00    -0.545 OA
ATOM     11  O   UNL     1      20.049   5.086 139.876  1.00  0.00    -0.545 OA
ENDBRANCH   8   9
ENDBRANCH   1   7
BRANCH   4  12
ATOM     12  O   UNL     1      12.870   3.998 143.163  1.00  0.00    -0.504 OA
ATOM     13  H   UNL     1      12.133   4.321 143.781  1.00  0.00     0.293 HD
ENDBRANCH   4  12
BRANCH   6  14
ATOM     14  O   UNL     1      11.827   6.445 142.218  1.00  0.00    -0.504 OA
ATOM     15  H   UNL     1      11.550   7.348 142.586  1.00  0.00     0.293 HD
ENDBRANCH   6  14
TORSDOF 4
ENDMDL
MODEL 7
REMARK VINA RESULT:    -5.171      9.634     12.086
REMARK INTER + INTRA:          -6.200
REMARK INTER:                  -6.075
REMARK INTRA:                  -0.125
REMARK UNBOUND:                -0.122
REMARK SMILES O=C([O-])C=Cc1ccc(O)c(O)c1
REMARK SMILES IDX 6 1 13 2 7 3 11 4 8 5 9 6 5 7 4 8 2 9 1 10 3 11 12 12 10 14
REMARK H PARENT 12 13 10 15
REMARK Flexibility Score: inf
ROOT
ATOM      1  C   UNL     1      15.555   6.766 141.191  1.00  0.00    -0.022 A 
ATOM      2  C   UNL     1      16.331   7.030 142.337  1.00  0.00     0.058 A 
ATOM      3  C   UNL     1      16.206   6.559 139.964  1.00  0.00     0.012 A 
ATOM      4  C   UNL     1      17.730   7.111 142.248  1.00  0.00     0.157 A 
ATOM      5  C   UNL     1      17.597   6.639 139.875  1.00  0.00     0.051 A 
ATOM      6  C   UNL     1      18.363   6.918 141.009  1.00  0.00     0.157 A 
ENDROOT
BRANCH   1   7
ATOM      7  C   UNL     1      14.075   6.660 141.236  1.00  0.00     0.010 C 
ATOM      8  C   UNL     1      13.419   5.591 141.708  1.00  0.00     0.025 C 
BRANCH   8   9
ATOM      9  C   UNL     1      11.949   5.534 141.745  1.00  0.00     0.064 C 
ATOM     10  O   UNL     1      11.297   6.544 142.115  1.00  0.00    -0.545 OA
ATOM     11  O   UNL     1      11.267   4.379 141.378  1.00  0.00    -0.545 OA
ENDBRANCH   8   9
ENDBRANCH   1   7
BRANCH   4  12
ATOM     12  O   UNL     1      18.490   7.377 143.386  1.00  0.00    -0.504 OA
ATOM     13  H   UNL     1      19.472   7.131 143.439  1.00  0.00     0.293 HD
ENDBRANCH   4  12
BRANCH   6  14
ATOM     14  O   UNL     1      19.751   6.995 140.889  1.00  0.00    -0.504 OA
ATOM     15  H   UNL     1      20.212   7.006 139.987  1.00  0.00     0.293 HD
ENDBRANCH   6  14
TORSDOF 4
ENDMDL
MODEL 8
REMARK VINA RESULT:    -5.049     10.561     11.164
REMARK INTER + INTRA:          -6.056
REMARK INTER:                  -5.936
REMARK INTRA:                  -0.120
REMARK UNBOUND:                -0.122
REMARK SMILES O=C([O-])C=Cc1ccc(O)c(O)c1
REMARK SMILES IDX 6 1 13 2 7 3 11 4 8 5 9 6 5 7 4 8 2 9 1 10 3 11 12 12 10 14
REMARK H PARENT 12 13 10 15
REMARK Flexibility Score: inf
ROOT
ATOM      1  C   UNL     1      14.821   5.879 141.820  1.00  0.00    -0.022 A 
ATOM      2  C   UNL     1      14.732   4.497 142.081  1.00  0.00     0.058 A 
ATOM      3  C   UNL     1      13.637   6.612 141.640  1.00  0.00     0.012 A 
ATOM      4  C   UNL     1      13.482   3.860 142.133  1.00  0.00     0.157 A 
ATOM      5  C   UNL     1      12.394   5.978 141.692  1.00  0.00     0.051 A 
ATOM      6  C   UNL     1      12.310   4.606 141.934  1.00  0.00     0.157 A 
ENDROOT
BRANCH   1   7
ATOM      7  C   UNL     1      16.118   6.600 141.765  1.00  0.00     0.010 C 
ATOM      8  C   UNL     1      17.165   6.194 141.034  1.00  0.00     0.025 C 
BRANCH   8   9
ATOM      9  C   UNL     1      18.429   6.946 141.001  1.00  0.00     0.064 C 
ATOM     10  O   UNL     1      18.549   7.924 140.218  1.00  0.00    -0.545 OA
ATOM     11  O   UNL     1      19.495   6.594 141.820  1.00  0.00    -0.545 OA
ENDBRANCH   8   9
ENDBRANCH   1   7
BRANCH   4  12
ATOM     12  O   UNL     1      13.404   2.491 142.388  1.00  0.00    -0.504 OA
ATOM     13  H   UNL     1      12.562   2.067 142.762  1.00  0.00     0.293 HD
ENDBRANCH   4  12
BRANCH   6  14
ATOM     14  O   UNL     1      11.054   4.000 141.977  1.00  0.00    -0.504 OA
ATOM     15  H   UNL     1      10.316   4.244 141.327  1.00  0.00     0.293 HD
ENDBRANCH   6  14
TORSDOF 4
ENDMDL
MODEL 9
REMARK VINA RESULT:    -4.897      2.189      3.031
REMARK INTER + INTRA:          -5.878
REMARK INTER:                  -5.754
REMARK INTRA:                  -0.124
REMARK UNBOUND:                -0.122
REMARK SMILES O=C([O-])C=Cc1ccc(O)c(O)c1
REMARK SMILES IDX 6 1 13 2 7 3 11 4 8 5 9 6 5 7 4 8 2 9 1 10 3 11 12 12 10 14
REMARK H PARENT 12 13 10 15
REMARK Flexibility Score: inf
ROOT
ATOM      1  C   UNL     1      21.089   9.460 150.641  1.00  0.00    -0.022 A 
ATOM      2  C   UNL     1      19.838   8.889 150.950  1.00  0.00     0.058 A 
ATOM      3  C   UNL     1      21.529  10.569 151.382  1.00  0.00     0.012 A 
ATOM      4  C   UNL     1      19.034   9.436 151.963  1.00  0.00     0.157 A 
ATOM      5  C   UNL     1      20.729  11.113 152.389  1.00  0.00     0.051 A 
ATOM      6  C   UNL     1      19.483  10.556 152.682  1.00  0.00     0.157 A 
ENDROOT
BRANCH   1   7
ATOM      7  C   UNL     1      21.978   8.912 149.587  1.00  0.00     0.010 C 
ATOM      8  C   UNL     1      21.725   9.006 148.276  1.00  0.00     0.025 C 
BRANCH   8   9
ATOM      9  C   UNL     1      22.641   8.458 147.264  1.00  0.00     0.064 C 
ATOM     10  O   UNL     1      23.499   9.208 146.730  1.00  0.00    -0.545 OA
ATOM     11  O   UNL     1      22.576   7.122 146.886  1.00  0.00    -0.545 OA
ENDBRANCH   8   9
ENDBRANCH   1   7
BRANCH   4  12
ATOM     12  O   UNL     1      17.797   8.867 152.260  1.00  0.00    -0.504 OA
ATOM     13  H   UNL     1      17.478   8.755 153.216  1.00  0.00     0.293 HD
ENDBRANCH   4  12
BRANCH   6  14
ATOM     14  O   UNL     1      18.706  11.123 153.692  1.00  0.00    -0.504 OA
ATOM     15  H   UNL     1      18.580  12.125 153.776  1.00  0.00     0.293 HD
ENDBRANCH   6  14
TORSDOF 4
ENDMDL
