MODEL 1
REMARK VINA RESULT:    -5.049      0.000      0.000
REMARK INTER + INTRA:          -6.127
REMARK INTER:                  -5.787
REMARK INTRA:                  -0.340
REMARK UNBOUND:                -0.340
REMARK SMILES COC(=O)c1ccccc1O
REMARK SMILES IDX 5 1 6 2 7 3 8 4 9 5 10 6 3 7 4 8 2 9 1 10 11 11
REMARK H PARENT 11 12
REMARK Flexibility Score: inf
ROOT
ATOM      1  C   UNL     1       2.653  28.220  56.788  1.00  0.00     0.101 A 
ATOM      2  C   UNL     1       1.670  28.712  57.668  1.00  0.00     0.019 A 
ATOM      3  C   UNL     1       0.485  29.264  57.178  1.00  0.00     0.001 A 
ATOM      4  C   UNL     1       0.261  29.334  55.804  1.00  0.00     0.004 A 
ATOM      5  C   UNL     1       1.223  28.852  54.915  1.00  0.00     0.047 A 
ATOM      6  C   UNL     1       2.418  28.294  55.394  1.00  0.00     0.130 A 
ENDROOT
BRANCH   1   7
ATOM      7  C   UNL     1       3.901  27.640  57.347  1.00  0.00     0.341 C 
ATOM      8  O   UNL     1       3.871  26.941  58.397  1.00  0.00    -0.246 OA
BRANCH   7   9
ATOM      9  O   UNL     1       5.122  27.873  56.704  1.00  0.00    -0.465 OA
ATOM     10  C   UNL     1       5.798  29.124  56.765  1.00  0.00     0.282 C 
ENDBRANCH   7   9
ENDBRANCH   1   7
BRANCH   6  11
ATOM     11  O   UNL     1       3.363  27.819  54.484  1.00  0.00    -0.507 OA
ATOM     12  H   UNL     1       4.094  28.416  54.115  1.00  0.00     0.293 HD
ENDBRANCH   6  11
TORSDOF 3
ENDMDL
MODEL 2
REMARK VINA RESULT:    -4.543      2.132      4.000
REMARK INTER + INTRA:          -5.547
REMARK INTER:                  -5.298
REMARK INTRA:                  -0.249
REMARK UNBOUND:                -0.340
REMARK SMILES COC(=O)c1ccccc1O
REMARK SMILES IDX 5 1 6 2 7 3 8 4 9 5 10 6 3 7 4 8 2 9 1 10 11 11
REMARK H PARENT 11 12
REMARK Flexibility Score: inf
ROOT
ATOM      1  C   UNL     1       2.077  28.621  56.205  1.00  0.00     0.101 A 
ATOM      2  C   UNL     1       2.355  28.197  57.519  1.00  0.00     0.019 A 
ATOM      3  C   UNL     1       3.590  27.631  57.840  1.00  0.00     0.001 A 
ATOM      4  C   UNL     1       4.567  27.478  56.857  1.00  0.00     0.004 A 
ATOM      5  C   UNL     1       4.311  27.892  55.549  1.00  0.00     0.047 A 
ATOM      6  C   UNL     1       3.074  28.463  55.213  1.00  0.00     0.130 A 
ENDROOT
BRANCH   1   7
ATOM      7  C   UNL     1       0.751  29.218  55.902  1.00  0.00     0.341 C 
ATOM      8  O   UNL     1       0.597  29.963  54.894  1.00  0.00    -0.246 OA
BRANCH   7   9
ATOM      9  O   UNL     1      -0.337  28.954  56.741  1.00  0.00    -0.465 OA
ATOM     10  C   UNL     1      -1.035  29.977  57.442  1.00  0.00     0.282 C 
ENDBRANCH   7   9
ENDBRANCH   1   7
BRANCH   6  11
ATOM     11  O   UNL     1       2.844  28.868  53.898  1.00  0.00    -0.507 OA
ATOM     12  H   UNL     1       2.743  28.199  53.144  1.00  0.00     0.293 HD
ENDBRANCH   6  11
TORSDOF 3
ENDMDL
MODEL 3
REMARK VINA RESULT:    -4.457      0.965      2.395
REMARK INTER + INTRA:          -5.449
REMARK INTER:                  -5.157
REMARK INTRA:                  -0.292
REMARK UNBOUND:                -0.340
REMARK SMILES COC(=O)c1ccccc1O
REMARK SMILES IDX 5 1 6 2 7 3 8 4 9 5 10 6 3 7 4 8 2 9 1 10 11 11
REMARK H PARENT 11 12
REMARK Flexibility Score: inf
ROOT
ATOM      1  C   UNL     1       2.346  28.643  55.714  1.00  0.00     0.101 A 
ATOM      2  C   UNL     1       1.443  29.264  54.830  1.00  0.00     0.019 A 
ATOM      3  C   UNL     1       0.166  29.632  55.258  1.00  0.00     0.001 A 
ATOM      4  C   UNL     1      -0.231  29.388  56.571  1.00  0.00     0.004 A 
ATOM      5  C   UNL     1       0.649  28.774  57.463  1.00  0.00     0.047 A 
ATOM      6  C   UNL     1       1.935  28.399  57.047  1.00  0.00     0.130 A 
ENDROOT
BRANCH   1   7
ATOM      7  C   UNL     1       3.696  28.264  55.224  1.00  0.00     0.341 C 
ATOM      8  O   UNL     1       3.901  28.065  53.994  1.00  0.00    -0.246 OA
BRANCH   7   9
ATOM      9  O   UNL     1       4.751  28.125  56.134  1.00  0.00    -0.465 OA
ATOM     10  C   UNL     1       5.711  29.150  56.360  1.00  0.00     0.282 C 
ENDBRANCH   7   9
ENDBRANCH   1   7
BRANCH   6  11
ATOM     11  O   UNL     1       2.796  27.786  57.958  1.00  0.00    -0.507 OA
ATOM     12  H   UNL     1       3.086  26.821  57.851  1.00  0.00     0.293 HD
ENDBRANCH   6  11
TORSDOF 3
ENDMDL
MODEL 4
REMARK VINA RESULT:    -4.228      1.652      2.996
REMARK INTER + INTRA:          -5.186
REMARK INTER:                  -4.893
REMARK INTRA:                  -0.293
REMARK UNBOUND:                -0.340
REMARK SMILES COC(=O)c1ccccc1O
REMARK SMILES IDX 5 1 6 2 7 3 8 4 9 5 10 6 3 7 4 8 2 9 1 10 11 11
REMARK H PARENT 11 12
REMARK Flexibility Score: inf
ROOT
ATOM      1  C   UNL     1       3.034  28.609  55.476  1.00  0.00     0.101 A 
ATOM      2  C   UNL     1       1.759  28.760  54.896  1.00  0.00     0.019 A 
ATOM      3  C   UNL     1       0.606  28.689  55.681  1.00  0.00     0.001 A 
ATOM      4  C   UNL     1       0.705  28.467  57.053  1.00  0.00     0.004 A 
ATOM      5  C   UNL     1       1.959  28.315  57.647  1.00  0.00     0.047 A 
ATOM      6  C   UNL     1       3.126  28.385  56.871  1.00  0.00     0.130 A 
ENDROOT
BRANCH   1   7
ATOM      7  C   UNL     1       4.238  28.691  54.610  1.00  0.00     0.341 C 
ATOM      8  O   UNL     1       5.291  29.250  55.024  1.00  0.00    -0.246 OA
BRANCH   7   9
ATOM      9  O   UNL     1       4.204  28.144  53.322  1.00  0.00    -0.465 OA
ATOM     10  C   UNL     1       4.499  28.903  52.156  1.00  0.00     0.282 C 
ENDBRANCH   7   9
ENDBRANCH   1   7
BRANCH   6  11
ATOM     11  O   UNL     1       4.367  28.230  57.489  1.00  0.00    -0.507 OA
ATOM     12  H   UNL     1       4.547  28.587  58.419  1.00  0.00     0.293 HD
ENDBRANCH   6  11
TORSDOF 3
ENDMDL
MODEL 5
REMARK VINA RESULT:    -4.223      1.649      4.461
REMARK INTER + INTRA:          -5.180
REMARK INTER:                  -4.898
REMARK INTRA:                  -0.283
REMARK UNBOUND:                -0.340
REMARK SMILES COC(=O)c1ccccc1O
REMARK SMILES IDX 5 1 6 2 7 3 8 4 9 5 10 6 3 7 4 8 2 9 1 10 11 11
REMARK H PARENT 11 12
REMARK Flexibility Score: inf
ROOT
ATOM      1  C   UNL     1       3.514  28.115  57.047  1.00  0.00     0.101 A 
ATOM      2  C   UNL     1       4.635  28.581  56.333  1.00  0.00     0.019 A 
ATOM      3  C   UNL     1       5.928  28.230  56.727  1.00  0.00     0.001 A 
ATOM      4  C   UNL     1       6.124  27.411  57.837  1.00  0.00     0.004 A 
ATOM      5  C   UNL     1       5.026  26.939  58.559  1.00  0.00     0.047 A 
ATOM      6  C   UNL     1       3.722  27.283  58.174  1.00  0.00     0.130 A 
ENDROOT
BRANCH   1   7
ATOM      7  C   UNL     1       2.154  28.509  56.599  1.00  0.00     0.341 C 
ATOM      8  O   UNL     1       1.769  28.266  55.422  1.00  0.00    -0.246 OA
BRANCH   7   9
ATOM      9  O   UNL     1       1.291  29.159  57.490  1.00  0.00    -0.465 OA
ATOM     10  C   UNL     1      -0.100  29.316  57.237  1.00  0.00     0.282 C 
ENDBRANCH   7   9
ENDBRANCH   1   7
BRANCH   6  11
ATOM     11  O   UNL     1       2.642  26.798  58.912  1.00  0.00    -0.507 OA
ATOM     12  H   UNL     1       2.774  26.298  59.783  1.00  0.00     0.293 HD
ENDBRANCH   6  11
TORSDOF 3
ENDMDL
MODEL 6
REMARK VINA RESULT:    -4.208      2.239      3.389
REMARK INTER + INTRA:          -5.163
REMARK INTER:                  -4.869
REMARK INTRA:                  -0.294
REMARK UNBOUND:                -0.340
REMARK SMILES COC(=O)c1ccccc1O
REMARK SMILES IDX 5 1 6 2 7 3 8 4 9 5 10 6 3 7 4 8 2 9 1 10 11 11
REMARK H PARENT 11 12
REMARK Flexibility Score: inf
ROOT
ATOM      1  C   UNL     1       2.778  28.933  55.046  1.00  0.00     0.101 A 
ATOM      2  C   UNL     1       3.470  28.290  56.090  1.00  0.00     0.019 A 
ATOM      3  C   UNL     1       2.844  28.042  57.314  1.00  0.00     0.001 A 
ATOM      4  C   UNL     1       1.521  28.430  57.515  1.00  0.00     0.004 A 
ATOM      5  C   UNL     1       0.818  29.068  56.492  1.00  0.00     0.047 A 
ATOM      6  C   UNL     1       1.434  29.323  55.258  1.00  0.00     0.130 A 
ENDROOT
BRANCH   1   7
ATOM      7  C   UNL     1       3.476  29.181  53.758  1.00  0.00     0.341 C 
ATOM      8  O   UNL     1       4.173  28.276  53.221  1.00  0.00    -0.246 OA
BRANCH   7   9
ATOM      9  O   UNL     1       3.362  30.429  53.136  1.00  0.00    -0.465 OA
ATOM     10  C   UNL     1       4.486  31.252  52.849  1.00  0.00     0.282 C 
ENDBRANCH   7   9
ENDBRANCH   1   7
BRANCH   6  11
ATOM     11  O   UNL     1       0.708  29.963  54.252  1.00  0.00    -0.507 OA
ATOM     12  H   UNL     1       1.161  30.544  53.557  1.00  0.00     0.293 HD
ENDBRANCH   6  11
TORSDOF 3
ENDMDL
MODEL 7
REMARK VINA RESULT:    -4.046      1.732      4.075
REMARK INTER + INTRA:          -4.978
REMARK INTER:                  -4.735
REMARK INTRA:                  -0.242
REMARK UNBOUND:                -0.340
REMARK SMILES COC(=O)c1ccccc1O
REMARK SMILES IDX 5 1 6 2 7 3 8 4 9 5 10 6 3 7 4 8 2 9 1 10 11 11
REMARK H PARENT 11 12
REMARK Flexibility Score: inf
ROOT
ATOM      1  C   UNL     1       3.826  27.977  56.579  1.00  0.00     0.101 A 
ATOM      2  C   UNL     1       3.194  27.438  57.716  1.00  0.00     0.019 A 
ATOM      3  C   UNL     1       3.945  26.989  58.804  1.00  0.00     0.001 A 
ATOM      4  C   UNL     1       5.336  27.070  58.776  1.00  0.00     0.004 A 
ATOM      5  C   UNL     1       5.982  27.602  57.658  1.00  0.00     0.047 A 
ATOM      6  C   UNL     1       5.239  28.057  56.558  1.00  0.00     0.130 A 
ENDROOT
BRANCH   1   7
ATOM      7  C   UNL     1       2.994  28.444  55.440  1.00  0.00     0.341 C 
ATOM      8  O   UNL     1       3.455  29.269  54.603  1.00  0.00    -0.246 OA
BRANCH   7   9
ATOM      9  O   UNL     1       1.686  27.967  55.295  1.00  0.00    -0.465 OA
ATOM     10  C   UNL     1       0.547  28.817  55.341  1.00  0.00     0.282 C 
ENDBRANCH   7   9
ENDBRANCH   1   7
BRANCH   6  11
ATOM     11  O   UNL     1       5.909  28.584  55.454  1.00  0.00    -0.507 OA
ATOM     12  H   UNL     1       6.888  28.390  55.282  1.00  0.00     0.293 HD
ENDBRANCH   6  11
TORSDOF 3
ENDMDL
MODEL 8
REMARK VINA RESULT:    -3.965      8.850     10.109
REMARK INTER + INTRA:          -4.884
REMARK INTER:                  -4.603
REMARK INTRA:                  -0.281
REMARK UNBOUND:                -0.340
REMARK SMILES COC(=O)c1ccccc1O
REMARK SMILES IDX 5 1 6 2 7 3 8 4 9 5 10 6 3 7 4 8 2 9 1 10 11 11
REMARK H PARENT 11 12
REMARK Flexibility Score: inf
ROOT
ATOM      1  C   UNL     1      -6.906  29.612  57.583  1.00  0.00     0.101 A 
ATOM      2  C   UNL     1      -7.683  30.784  57.504  1.00  0.00     0.019 A 
ATOM      3  C   UNL     1      -7.340  31.918  58.244  1.00  0.00     0.001 A 
ATOM      4  C   UNL     1      -6.219  31.901  59.072  1.00  0.00     0.004 A 
ATOM      5  C   UNL     1      -5.436  30.749  59.164  1.00  0.00     0.047 A 
ATOM      6  C   UNL     1      -5.769  29.604  58.426  1.00  0.00     0.130 A 
ENDROOT
BRANCH   1   7
ATOM      7  C   UNL     1      -7.302  28.425  56.782  1.00  0.00     0.341 C 
ATOM      8  O   UNL     1      -8.484  27.983  56.829  1.00  0.00    -0.246 OA
BRANCH   7   9
ATOM      9  O   UNL     1      -6.356  27.790  55.969  1.00  0.00    -0.465 OA
ATOM     10  C   UNL     1      -6.713  27.048  54.809  1.00  0.00     0.282 C 
ENDBRANCH   7   9
ENDBRANCH   1   7
BRANCH   6  11
ATOM     11  O   UNL     1      -4.970  28.465  58.536  1.00  0.00    -0.507 OA
ATOM     12  H   UNL     1      -4.202  28.290  57.898  1.00  0.00     0.293 HD
ENDBRANCH   6  11
TORSDOF 3
ENDMDL
