MODEL 1
REMARK VINA RESULT:    -5.793      0.000      0.000
REMARK INTER + INTRA:          -6.525
REMARK INTER:                  -6.301
REMARK INTRA:                  -0.224
REMARK UNBOUND:                -0.224
REMARK SMILES O=C([O-])c1ccccc1O
REMARK SMILES IDX 4 1 9 2 5 3 8 4 6 5 7 6 2 7 1 8 3 9 10 10
REMARK H PARENT 10 11
REMARK Flexibility Score: inf
ROOT
ATOM      1  C   UNL     1      13.590  -4.730 -13.629  1.00  0.00     0.039 A 
ATOM      2  C   UNL     1      12.626  -5.763 -13.518  1.00  0.00     0.124 A 
ATOM      3  C   UNL     1      13.458  -3.585 -12.821  1.00  0.00     0.014 A 
ATOM      4  C   UNL     1      11.532  -5.601 -12.657  1.00  0.00     0.047 A 
ATOM      5  C   UNL     1      12.374  -3.448 -11.951  1.00  0.00     0.001 A 
ATOM      6  C   UNL     1      11.407  -4.450 -11.877  1.00  0.00     0.004 A 
ENDROOT
BRANCH   1   7
ATOM      7  C   UNL     1      14.711  -4.791 -14.593  1.00  0.00     0.075 C 
ATOM      8  O   UNL     1      14.646  -5.559 -15.590  1.00  0.00    -0.545 OA
ATOM      9  O   UNL     1      15.874  -4.061 -14.380  1.00  0.00    -0.545 OA
ENDBRANCH   1   7
BRANCH   2  10
ATOM     10  O   UNL     1      12.734  -6.972 -14.210  1.00  0.00    -0.507 OA
ATOM     11  H   UNL     1      12.019  -7.321 -14.833  1.00  0.00     0.293 HD
ENDBRANCH   2  10
TORSDOF 2
ENDMDL
MODEL 2
REMARK VINA RESULT:    -5.706      3.240      4.585
REMARK INTER + INTRA:          -6.430
REMARK INTER:                  -6.178
REMARK INTRA:                  -0.252
REMARK UNBOUND:                -0.224
REMARK SMILES O=C([O-])c1ccccc1O
REMARK SMILES IDX 4 1 9 2 5 3 8 4 6 5 7 6 2 7 1 8 3 9 10 10
REMARK H PARENT 10 11
REMARK Flexibility Score: inf
ROOT
ATOM      1  C   UNL     1      11.439  -5.445 -11.660  1.00  0.00     0.039 A 
ATOM      2  C   UNL     1      11.653  -4.120 -11.203  1.00  0.00     0.124 A 
ATOM      3  C   UNL     1      12.202  -5.924 -12.742  1.00  0.00     0.014 A 
ATOM      4  C   UNL     1      12.571  -3.296 -11.869  1.00  0.00     0.047 A 
ATOM      5  C   UNL     1      13.128  -5.097 -13.381  1.00  0.00     0.001 A 
ATOM      6  C   UNL     1      13.305  -3.782 -12.953  1.00  0.00     0.004 A 
ENDROOT
BRANCH   1   7
ATOM      7  C   UNL     1      10.413  -6.332 -11.068  1.00  0.00     0.075 C 
ATOM      8  O   UNL     1      10.589  -7.579 -11.054  1.00  0.00    -0.545 OA
ATOM      9  O   UNL     1       9.218  -5.814 -10.586  1.00  0.00    -0.545 OA
ENDBRANCH   1   7
BRANCH   2  10
ATOM     10  O   UNL     1      11.011  -3.599 -10.077  1.00  0.00    -0.507 OA
ATOM     11  H   UNL     1      11.472  -3.462  -9.188  1.00  0.00     0.293 HD
ENDBRANCH   2  10
TORSDOF 2
ENDMDL
MODEL 3
REMARK VINA RESULT:    -5.651      9.532     10.313
REMARK INTER + INTRA:          -6.370
REMARK INTER:                  -6.123
REMARK INTRA:                  -0.247
REMARK UNBOUND:                -0.224
REMARK SMILES O=C([O-])c1ccccc1O
REMARK SMILES IDX 4 1 9 2 5 3 8 4 6 5 7 6 2 7 1 8 3 9 10 10
REMARK H PARENT 10 11
REMARK Flexibility Score: inf
ROOT
ATOM      1  C   UNL     1      13.227   5.021 -12.216  1.00  0.00     0.039 A 
ATOM      2  C   UNL     1      14.358   5.012 -11.360  1.00  0.00     0.124 A 
ATOM      3  C   UNL     1      12.047   4.380 -11.793  1.00  0.00     0.014 A 
ATOM      4  C   UNL     1      14.301   4.318 -10.143  1.00  0.00     0.047 A 
ATOM      5  C   UNL     1      12.000   3.712 -10.568  1.00  0.00     0.001 A 
ATOM      6  C   UNL     1      13.128   3.671  -9.749  1.00  0.00     0.004 A 
ENDROOT
BRANCH   1   7
ATOM      7  C   UNL     1      13.253   5.646 -13.557  1.00  0.00     0.075 C 
ATOM      8  O   UNL     1      13.828   6.754 -13.727  1.00  0.00    -0.545 OA
ATOM      9  O   UNL     1      12.589   5.060 -14.627  1.00  0.00    -0.545 OA
ENDBRANCH   1   7
BRANCH   2  10
ATOM     10  O   UNL     1      15.534   5.704 -11.658  1.00  0.00    -0.507 OA
ATOM     11  H   UNL     1      15.575   6.471 -12.314  1.00  0.00     0.293 HD
ENDBRANCH   2  10
TORSDOF 2
ENDMDL
MODEL 4
REMARK VINA RESULT:    -5.574      1.595      3.354
REMARK INTER + INTRA:          -6.287
REMARK INTER:                  -6.062
REMARK INTRA:                  -0.225
REMARK UNBOUND:                -0.224
REMARK SMILES O=C([O-])c1ccccc1O
REMARK SMILES IDX 4 1 9 2 5 3 8 4 6 5 7 6 2 7 1 8 3 9 10 10
REMARK H PARENT 10 11
REMARK Flexibility Score: inf
ROOT
ATOM      1  C   UNL     1      12.743  -5.486 -13.392  1.00  0.00     0.039 A 
ATOM      2  C   UNL     1      13.647  -5.727 -14.457  1.00  0.00     0.124 A 
ATOM      3  C   UNL     1      12.806  -4.257 -12.709  1.00  0.00     0.014 A 
ATOM      4  C   UNL     1      14.622  -4.769 -14.769  1.00  0.00     0.047 A 
ATOM      5  C   UNL     1      13.769  -3.304 -13.047  1.00  0.00     0.001 A 
ATOM      6  C   UNL     1      14.683  -3.563 -14.068  1.00  0.00     0.004 A 
ENDROOT
BRANCH   1   7
ATOM      7  C   UNL     1      11.759  -6.496 -12.944  1.00  0.00     0.075 C 
ATOM      8  O   UNL     1      10.834  -6.170 -12.153  1.00  0.00    -0.545 OA
ATOM      9  O   UNL     1      11.878  -7.825 -13.330  1.00  0.00    -0.545 OA
ENDBRANCH   1   7
BRANCH   2  10
ATOM     10  O   UNL     1      13.590  -6.876 -15.249  1.00  0.00    -0.507 OA
ATOM     11  H   UNL     1      13.621  -7.813 -14.871  1.00  0.00     0.293 HD
ENDBRANCH   2  10
TORSDOF 2
ENDMDL
MODEL 5
REMARK VINA RESULT:    -5.460      2.027      4.002
REMARK INTER + INTRA:          -6.162
REMARK INTER:                  -5.933
REMARK INTRA:                  -0.229
REMARK UNBOUND:                -0.224
REMARK SMILES O=C([O-])c1ccccc1O
REMARK SMILES IDX 4 1 9 2 5 3 8 4 6 5 7 6 2 7 1 8 3 9 10 10
REMARK H PARENT 10 11
REMARK Flexibility Score: inf
ROOT
ATOM      1  C   UNL     1      11.361  -5.936 -11.899  1.00  0.00     0.039 A 
ATOM      2  C   UNL     1      12.273  -6.007 -12.983  1.00  0.00     0.124 A 
ATOM      3  C   UNL     1      11.256  -4.734 -11.174  1.00  0.00     0.014 A 
ATOM      4  C   UNL     1      13.092  -4.907 -13.272  1.00  0.00     0.047 A 
ATOM      5  C   UNL     1      12.064  -3.640 -11.489  1.00  0.00     0.001 A 
ATOM      6  C   UNL     1      12.988  -3.729 -12.529  1.00  0.00     0.004 A 
ENDROOT
BRANCH   1   7
ATOM      7  C   UNL     1      10.541  -7.093 -11.476  1.00  0.00     0.075 C 
ATOM      8  O   UNL     1       9.558  -6.924 -10.707  1.00  0.00    -0.545 OA
ATOM      9  O   UNL     1      10.882  -8.384 -11.859  1.00  0.00    -0.545 OA
ENDBRANCH   1   7
BRANCH   2  10
ATOM     10  O   UNL     1      12.370  -7.125 -13.813  1.00  0.00    -0.507 OA
ATOM     11  H   UNL     1      11.666  -7.849 -13.855  1.00  0.00     0.293 HD
ENDBRANCH   2  10
TORSDOF 2
ENDMDL
MODEL 6
REMARK VINA RESULT:    -5.416     17.835     18.909
REMARK INTER + INTRA:          -6.115
REMARK INTER:                  -5.866
REMARK INTRA:                  -0.249
REMARK UNBOUND:                -0.224
REMARK SMILES O=C([O-])c1ccccc1O
REMARK SMILES IDX 4 1 9 2 5 3 8 4 6 5 7 6 2 7 1 8 3 9 10 10
REMARK H PARENT 10 11
REMARK Flexibility Score: inf
ROOT
ATOM      1  C   UNL     1      -1.162   6.615 -10.158  1.00  0.00     0.039 A 
ATOM      2  C   UNL     1      -1.826   5.717 -11.032  1.00  0.00     0.124 A 
ATOM      3  C   UNL     1      -0.013   6.175  -9.474  1.00  0.00     0.014 A 
ATOM      4  C   UNL     1      -1.366   4.398 -11.153  1.00  0.00     0.047 A 
ATOM      5  C   UNL     1       0.445   4.864  -9.621  1.00  0.00     0.001 A 
ATOM      6  C   UNL     1      -0.236   3.974 -10.451  1.00  0.00     0.004 A 
ENDROOT
BRANCH   1   7
ATOM      7  C   UNL     1      -1.655   7.987  -9.906  1.00  0.00     0.075 C 
ATOM      8  O   UNL     1      -0.851   8.895  -9.566  1.00  0.00    -0.545 OA
ATOM      9  O   UNL     1      -3.012   8.278  -9.972  1.00  0.00    -0.545 OA
ENDBRANCH   1   7
BRANCH   2  10
ATOM     10  O   UNL     1      -2.912   6.100 -11.822  1.00  0.00    -0.507 OA
ATOM     11  H   UNL     1      -3.239   5.565 -12.614  1.00  0.00     0.293 HD
ENDBRANCH   2  10
TORSDOF 2
ENDMDL
MODEL 7
REMARK VINA RESULT:    -5.400     17.791     18.894
REMARK INTER + INTRA:          -6.097
REMARK INTER:                  -5.861
REMARK INTRA:                  -0.236
REMARK UNBOUND:                -0.224
REMARK SMILES O=C([O-])c1ccccc1O
REMARK SMILES IDX 4 1 9 2 5 3 8 4 6 5 7 6 2 7 1 8 3 9 10 10
REMARK H PARENT 10 11
REMARK Flexibility Score: inf
ROOT
ATOM      1  C   UNL     1      -1.124   6.683  -9.909  1.00  0.00     0.039 A 
ATOM      2  C   UNL     1      -0.444   5.959  -8.897  1.00  0.00     0.124 A 
ATOM      3  C   UNL     1      -1.450   6.030 -11.112  1.00  0.00     0.014 A 
ATOM      4  C   UNL     1      -0.056   4.633  -9.135  1.00  0.00     0.047 A 
ATOM      5  C   UNL     1      -1.075   4.702 -11.325  1.00  0.00     0.001 A 
ATOM      6  C   UNL     1      -0.370   4.008 -10.343  1.00  0.00     0.004 A 
ENDROOT
BRANCH   1   7
ATOM      7  C   UNL     1      -1.471   8.114  -9.763  1.00  0.00     0.075 C 
ATOM      8  O   UNL     1      -0.582   8.951  -9.453  1.00  0.00    -0.545 OA
ATOM      9  O   UNL     1      -2.785   8.545  -9.896  1.00  0.00    -0.545 OA
ENDBRANCH   1   7
BRANCH   2  10
ATOM     10  O   UNL     1      -0.170   6.500  -7.639  1.00  0.00    -0.507 OA
ATOM     11  H   UNL     1      -0.729   7.227  -7.213  1.00  0.00     0.293 HD
ENDBRANCH   2  10
TORSDOF 2
ENDMDL
MODEL 8
REMARK VINA RESULT:    -5.306     18.120     18.969
REMARK INTER + INTRA:          -5.995
REMARK INTER:                  -5.767
REMARK INTRA:                  -0.228
REMARK UNBOUND:                -0.224
REMARK SMILES O=C([O-])c1ccccc1O
REMARK SMILES IDX 4 1 9 2 5 3 8 4 6 5 7 6 2 7 1 8 3 9 10 10
REMARK H PARENT 10 11
REMARK Flexibility Score: inf
ROOT
ATOM      1  C   UNL     1      -1.735   5.619 -10.161  1.00  0.00     0.039 A 
ATOM      2  C   UNL     1      -1.379   6.990 -10.114  1.00  0.00     0.124 A 
ATOM      3  C   UNL     1      -1.577   4.834  -9.004  1.00  0.00     0.014 A 
ATOM      4  C   UNL     1      -0.822   7.522  -8.943  1.00  0.00     0.047 A 
ATOM      5  C   UNL     1      -1.041   5.384  -7.838  1.00  0.00     0.001 A 
ATOM      6  C   UNL     1      -0.655   6.724  -7.810  1.00  0.00     0.004 A 
ENDROOT
BRANCH   1   7
ATOM      7  C   UNL     1      -2.231   4.970 -11.395  1.00  0.00     0.075 C 
ATOM      8  O   UNL     1      -1.587   4.018 -11.911  1.00  0.00    -0.545 OA
ATOM      9  O   UNL     1      -3.368   5.442 -12.039  1.00  0.00    -0.545 OA
ENDBRANCH   1   7
BRANCH   2  10
ATOM     10  O   UNL     1      -1.594   7.861 -11.184  1.00  0.00    -0.507 OA
ATOM     11  H   UNL     1      -2.431   8.418 -11.288  1.00  0.00     0.293 HD
ENDBRANCH   2  10
TORSDOF 2
ENDMDL
