MODEL 1
REMARK VINA RESULT:    -4.102      0.000      0.000
REMARK INTER + INTRA:          -6.673
REMARK INTER:                  -6.020
REMARK INTRA:                  -0.652
REMARK UNBOUND:                -0.652
REMARK SMILES CCCOC(=O)c1ccccc1C(=O)OCCC
REMARK SMILES IDX 7 1 8 2 9 3 10 4 11 5 12 6 5 7 6 8 4 9 3 10 2 11 1 12 13 13
REMARK SMILES IDX 14 14 15 15 16 16 17 17 18 18
REMARK H PARENT
REMARK Flexibility Score: inf
ROOT
ATOM      1  C   UNL     1      26.139  40.223  20.487  1.00  0.00     0.074 A 
ATOM      2  C   UNL     1      25.883  41.348  21.291  1.00  0.00     0.016 A 
ATOM      3  C   UNL     1      26.312  42.617  20.900  1.00  0.00     0.001 A 
ATOM      4  C   UNL     1      27.002  42.782  19.702  1.00  0.00     0.001 A 
ATOM      5  C   UNL     1      27.287  41.677  18.900  1.00  0.00     0.016 A 
ATOM      6  C   UNL     1      26.885  40.386  19.285  1.00  0.00     0.074 A 
ENDROOT
BRANCH   1   7
ATOM      7  C   UNL     1      25.555  38.928  20.905  1.00  0.00     0.339 C 
ATOM      8  O   UNL     1      24.305  38.757  20.892  1.00  0.00    -0.246 OA
BRANCH   7   9
ATOM      9  O   UNL     1      26.396  37.912  21.369  1.00  0.00    -0.462 OA
BRANCH   9  10
ATOM     10  C   UNL     1      25.933  36.593  21.641  1.00  0.00     0.233 C 
BRANCH  10  11
ATOM     11  C   UNL     1      26.867  35.925  22.647  1.00  0.00     0.038 C 
ATOM     12  C   UNL     1      26.150  35.638  23.964  1.00  0.00     0.007 C 
ENDBRANCH  10  11
ENDBRANCH   9  10
ENDBRANCH   7   9
ENDBRANCH   1   7
BRANCH   6  13
ATOM     13  C   UNL     1      27.319  39.247  18.444  1.00  0.00     0.339 C 
ATOM     14  O   UNL     1      26.468  38.555  17.818  1.00  0.00    -0.246 OA
BRANCH  13  15
ATOM     15  O   UNL     1      28.673  38.905  18.396  1.00  0.00    -0.462 OA
BRANCH  15  16
ATOM     16  C   UNL     1      29.125  37.557  18.295  1.00  0.00     0.233 C 
BRANCH  16  17
ATOM     17  C   UNL     1      29.114  36.896  19.672  1.00  0.00     0.038 C 
ATOM     18  C   UNL     1      28.758  35.413  19.587  1.00  0.00     0.007 C 
ENDBRANCH  16  17
ENDBRANCH  15  16
ENDBRANCH  13  15
ENDBRANCH   6  13
TORSDOF 8
ENDMDL
MODEL 2
REMARK VINA RESULT:    -4.005      1.938      4.478
REMARK INTER + INTRA:          -6.531
REMARK INTER:                  -5.750
REMARK INTRA:                  -0.781
REMARK UNBOUND:                -0.652
REMARK SMILES CCCOC(=O)c1ccccc1C(=O)OCCC
REMARK SMILES IDX 7 1 8 2 9 3 10 4 11 5 12 6 5 7 6 8 4 9 3 10 2 11 1 12 13 13
REMARK SMILES IDX 14 14 15 15 16 16 17 17 18 18
REMARK H PARENT
REMARK Flexibility Score: inf
ROOT
ATOM      1  C   UNL     1      26.770  37.908  20.214  1.00  0.00     0.074 A 
ATOM      2  C   UNL     1      25.810  36.962  20.615  1.00  0.00     0.016 A 
ATOM      3  C   UNL     1      24.576  37.368  21.126  1.00  0.00     0.001 A 
ATOM      4  C   UNL     1      24.282  38.724  21.242  1.00  0.00     0.001 A 
ATOM      5  C   UNL     1      25.228  39.680  20.871  1.00  0.00     0.016 A 
ATOM      6  C   UNL     1      26.486  39.293  20.376  1.00  0.00     0.074 A 
ENDROOT
BRANCH   1   7
ATOM      7  C   UNL     1      28.008  37.407  19.575  1.00  0.00     0.339 C 
ATOM      8  O   UNL     1      28.352  37.824  18.435  1.00  0.00    -0.246 OA
BRANCH   7   9
ATOM      9  O   UNL     1      28.766  36.425  20.221  1.00  0.00    -0.462 OA
BRANCH   9  10
ATOM     10  C   UNL     1      29.125  35.196  19.598  1.00  0.00     0.233 C 
BRANCH  10  11
ATOM     11  C   UNL     1      28.531  34.034  20.389  1.00  0.00     0.038 C 
ATOM     12  C   UNL     1      28.421  34.373  21.873  1.00  0.00     0.007 C 
ENDBRANCH  10  11
ENDBRANCH   9  10
ENDBRANCH   7   9
ENDBRANCH   1   7
BRANCH   6  13
ATOM     13  C   UNL     1      27.481  40.357  20.109  1.00  0.00     0.339 C 
ATOM     14  O   UNL     1      28.518  40.455  20.823  1.00  0.00    -0.246 OA
BRANCH  13  15
ATOM     15  O   UNL     1      27.235  41.290  19.097  1.00  0.00    -0.462 OA
BRANCH  15  16
ATOM     16  C   UNL     1      27.368  42.694  19.295  1.00  0.00     0.233 C 
BRANCH  16  17
ATOM     17  C   UNL     1      26.434  43.157  20.413  1.00  0.00     0.038 C 
ATOM     18  C   UNL     1      27.207  43.754  21.587  1.00  0.00     0.007 C 
ENDBRANCH  16  17
ENDBRANCH  15  16
ENDBRANCH  13  15
ENDBRANCH   6  13
TORSDOF 8
ENDMDL
MODEL 3
REMARK VINA RESULT:    -3.960      1.931      4.675
REMARK INTER + INTRA:          -6.464
REMARK INTER:                  -5.611
REMARK INTRA:                  -0.854
REMARK UNBOUND:                -0.652
REMARK SMILES CCCOC(=O)c1ccccc1C(=O)OCCC
REMARK SMILES IDX 7 1 8 2 9 3 10 4 11 5 12 6 5 7 6 8 4 9 3 10 2 11 1 12 13 13
REMARK SMILES IDX 14 14 15 15 16 16 17 17 18 18
REMARK H PARENT
REMARK Flexibility Score: inf
ROOT
ATOM      1  C   UNL     1      27.816  40.030  20.144  1.00  0.00     0.074 A 
ATOM      2  C   UNL     1      28.918  40.286  19.307  1.00  0.00     0.016 A 
ATOM      3  C   UNL     1      29.023  39.673  18.058  1.00  0.00     0.001 A 
ATOM      4  C   UNL     1      28.031  38.798  17.624  1.00  0.00     0.001 A 
ATOM      5  C   UNL     1      26.941  38.512  18.447  1.00  0.00     0.016 A 
ATOM      6  C   UNL     1      26.826  39.100  19.719  1.00  0.00     0.074 A 
ENDROOT
BRANCH   1   7
ATOM      7  C   UNL     1      27.711  40.802  21.403  1.00  0.00     0.339 C 
ATOM      8  O   UNL     1      28.363  40.448  22.424  1.00  0.00    -0.246 OA
BRANCH   7   9
ATOM      9  O   UNL     1      26.841  41.894  21.470  1.00  0.00    -0.462 OA
BRANCH   9  10
ATOM     10  C   UNL     1      27.257  43.228  21.196  1.00  0.00     0.233 C 
BRANCH  10  11
ATOM     11  C   UNL     1      26.368  43.824  20.108  1.00  0.00     0.038 C 
ATOM     12  C   UNL     1      26.881  43.468  18.716  1.00  0.00     0.007 C 
ENDBRANCH  10  11
ENDBRANCH   9  10
ENDBRANCH   7   9
ENDBRANCH   1   7
BRANCH   6  13
ATOM     13  C   UNL     1      25.704  38.666  20.583  1.00  0.00     0.339 C 
ATOM     14  O   UNL     1      24.845  39.500  20.982  1.00  0.00    -0.246 OA
BRANCH  13  15
ATOM     15  O   UNL     1      25.637  37.334  21.004  1.00  0.00    -0.462 OA
BRANCH  15  16
ATOM     16  C   UNL     1      26.668  36.712  21.764  1.00  0.00     0.233 C 
BRANCH  16  17
ATOM     17  C   UNL     1      27.554  35.865  20.851  1.00  0.00     0.038 C 
ATOM     18  C   UNL     1      28.272  34.760  21.623  1.00  0.00     0.007 C 
ENDBRANCH  16  17
ENDBRANCH  15  16
ENDBRANCH  13  15
ENDBRANCH   6  13
TORSDOF 8
ENDMDL
MODEL 4
REMARK VINA RESULT:    -3.903      2.021      4.091
REMARK INTER + INTRA:          -6.381
REMARK INTER:                  -5.560
REMARK INTRA:                  -0.820
REMARK UNBOUND:                -0.652
REMARK SMILES CCCOC(=O)c1ccccc1C(=O)OCCC
REMARK SMILES IDX 7 1 8 2 9 3 10 4 11 5 12 6 5 7 6 8 4 9 3 10 2 11 1 12 13 13
REMARK SMILES IDX 14 14 15 15 16 16 17 17 18 18
REMARK H PARENT
REMARK Flexibility Score: inf
ROOT
ATOM      1  C   UNL     1      26.661  39.075  19.862  1.00  0.00     0.074 A 
ATOM      2  C   UNL     1      26.718  38.482  18.588  1.00  0.00     0.016 A 
ATOM      3  C   UNL     1      27.800  38.717  17.739  1.00  0.00     0.001 A 
ATOM      4  C   UNL     1      28.842  39.545  18.148  1.00  0.00     0.001 A 
ATOM      5  C   UNL     1      28.795  40.161  19.399  1.00  0.00     0.016 A 
ATOM      6  C   UNL     1      27.704  39.958  20.261  1.00  0.00     0.074 A 
ENDROOT
BRANCH   1   7
ATOM      7  C   UNL     1      25.542  38.691  20.753  1.00  0.00     0.339 C 
ATOM      8  O   UNL     1      24.647  39.530  21.050  1.00  0.00    -0.246 OA
BRANCH   7   9
ATOM      9  O   UNL     1      25.515  37.409  21.309  1.00  0.00    -0.462 OA
BRANCH   9  10
ATOM     10  C   UNL     1      26.697  36.702  21.673  1.00  0.00     0.233 C 
BRANCH  10  11
ATOM     11  C   UNL     1      26.441  35.909  22.952  1.00  0.00     0.038 C 
ATOM     12  C   UNL     1      27.514  34.847  23.170  1.00  0.00     0.007 C 
ENDBRANCH  10  11
ENDBRANCH   9  10
ENDBRANCH   7   9
ENDBRANCH   1   7
BRANCH   6  13
ATOM     13  C   UNL     1      27.666  40.731  21.524  1.00  0.00     0.339 C 
ATOM     14  O   UNL     1      28.397  40.399  22.498  1.00  0.00    -0.246 OA
BRANCH  13  15
ATOM     15  O   UNL     1      26.770  41.797  21.651  1.00  0.00    -0.462 OA
BRANCH  15  16
ATOM     16  C   UNL     1      27.082  43.121  21.226  1.00  0.00     0.233 C 
BRANCH  16  17
ATOM     17  C   UNL     1      26.226  43.499  20.018  1.00  0.00     0.038 C 
ATOM     18  C   UNL     1      27.014  43.407  18.713  1.00  0.00     0.007 C 
ENDBRANCH  16  17
ENDBRANCH  15  16
ENDBRANCH  13  15
ENDBRANCH   6  13
TORSDOF 8
ENDMDL
MODEL 5
REMARK VINA RESULT:    -3.877      1.631      5.061
REMARK INTER + INTRA:          -6.343
REMARK INTER:                  -5.515
REMARK INTRA:                  -0.828
REMARK UNBOUND:                -0.652
REMARK SMILES CCCOC(=O)c1ccccc1C(=O)OCCC
REMARK SMILES IDX 7 1 8 2 9 3 10 4 11 5 12 6 5 7 6 8 4 9 3 10 2 11 1 12 13 13
REMARK SMILES IDX 14 14 15 15 16 16 17 17 18 18
REMARK H PARENT
REMARK Flexibility Score: inf
ROOT
ATOM      1  C   UNL     1      26.683  36.396  21.728  1.00  0.00     0.074 A 
ATOM      2  C   UNL     1      26.018  36.241  22.958  1.00  0.00     0.016 A 
ATOM      3  C   UNL     1      26.493  35.346  23.918  1.00  0.00     0.001 A 
ATOM      4  C   UNL     1      27.638  34.594  23.666  1.00  0.00     0.001 A 
ATOM      5  C   UNL     1      28.300  34.716  22.444  1.00  0.00     0.016 A 
ATOM      6  C   UNL     1      27.826  35.594  21.453  1.00  0.00     0.074 A 
ENDROOT
BRANCH   1   7
ATOM      7  C   UNL     1      26.191  37.445  20.806  1.00  0.00     0.339 C 
ATOM      8  O   UNL     1      25.388  37.152  19.877  1.00  0.00    -0.246 OA
BRANCH   7   9
ATOM      9  O   UNL     1      26.667  38.753  20.935  1.00  0.00    -0.462 OA
BRANCH   9  10
ATOM     10  C   UNL     1      25.901  39.892  20.557  1.00  0.00     0.233 C 
BRANCH  10  11
ATOM     11  C   UNL     1      26.504  41.143  21.190  1.00  0.00     0.038 C 
ATOM     12  C   UNL     1      26.910  42.161  20.129  1.00  0.00     0.007 C 
ENDBRANCH  10  11
ENDBRANCH   9  10
ENDBRANCH   7   9
ENDBRANCH   1   7
BRANCH   6  13
ATOM     13  C   UNL     1      28.510  35.589  20.140  1.00  0.00     0.339 C 
ATOM     14  O   UNL     1      28.587  34.526  19.463  1.00  0.00    -0.246 OA
BRANCH  13  15
ATOM     15  O   UNL     1      29.125  36.758  19.681  1.00  0.00    -0.462 OA
BRANCH  15  16
ATOM     16  C   UNL     1      29.105  37.154  18.313  1.00  0.00     0.233 C 
BRANCH  16  17
ATOM     17  C   UNL     1      28.986  38.674  18.208  1.00  0.00     0.038 C 
ATOM     18  C   UNL     1      27.708  39.094  17.485  1.00  0.00     0.007 C 
ENDBRANCH  16  17
ENDBRANCH  15  16
ENDBRANCH  13  15
ENDBRANCH   6  13
TORSDOF 8
ENDMDL
MODEL 6
REMARK VINA RESULT:    -3.787      2.277      4.303
REMARK INTER + INTRA:          -6.211
REMARK INTER:                  -5.407
REMARK INTRA:                  -0.804
REMARK UNBOUND:                -0.652
REMARK SMILES CCCOC(=O)c1ccccc1C(=O)OCCC
REMARK SMILES IDX 7 1 8 2 9 3 10 4 11 5 12 6 5 7 6 8 4 9 3 10 2 11 1 12 13 13
REMARK SMILES IDX 14 14 15 15 16 16 17 17 18 18
REMARK H PARENT
REMARK Flexibility Score: inf
ROOT
ATOM      1  C   UNL     1      26.966  39.218  20.502  1.00  0.00     0.074 A 
ATOM      2  C   UNL     1      25.707  39.722  20.876  1.00  0.00     0.016 A 
ATOM      3  C   UNL     1      24.620  38.865  21.058  1.00  0.00     0.001 A 
ATOM      4  C   UNL     1      24.774  37.493  20.870  1.00  0.00     0.001 A 
ATOM      5  C   UNL     1      26.008  36.975  20.477  1.00  0.00     0.016 A 
ATOM      6  C   UNL     1      27.110  37.821  20.265  1.00  0.00     0.074 A 
ENDROOT
BRANCH   1   7
ATOM      7  C   UNL     1      28.099  40.169  20.439  1.00  0.00     0.339 C 
ATOM      8  O   UNL     1      28.376  40.761  19.360  1.00  0.00    -0.246 OA
BRANCH   7   9
ATOM      9  O   UNL     1      28.896  40.364  21.571  1.00  0.00    -0.462 OA
BRANCH   9  10
ATOM     10  C   UNL     1      29.114  41.648  22.148  1.00  0.00     0.233 C 
BRANCH  10  11
ATOM     11  C   UNL     1      27.801  42.178  22.717  1.00  0.00     0.038 C 
ATOM     12  C   UNL     1      27.781  43.704  22.735  1.00  0.00     0.007 C 
ENDBRANCH  10  11
ENDBRANCH   9  10
ENDBRANCH   7   9
ENDBRANCH   1   7
BRANCH   6  13
ATOM     13  C   UNL     1      28.356  37.217  19.741  1.00  0.00     0.339 C 
ATOM     14  O   UNL     1      28.853  37.622  18.653  1.00  0.00    -0.246 OA
BRANCH  13  15
ATOM     15  O   UNL     1      28.946  36.153  20.428  1.00  0.00    -0.462 OA
BRANCH  15  16
ATOM     16  C   UNL     1      29.125  34.864  19.848  1.00  0.00     0.233 C 
BRANCH  16  17
ATOM     17  C   UNL     1      28.753  33.779  20.857  1.00  0.00     0.038 C 
ATOM     18  C   UNL     1      28.375  34.370  22.214  1.00  0.00     0.007 C 
ENDBRANCH  16  17
ENDBRANCH  15  16
ENDBRANCH  13  15
ENDBRANCH   6  13
TORSDOF 8
ENDMDL
MODEL 7
REMARK VINA RESULT:    -3.507      2.142      5.140
REMARK INTER + INTRA:          -5.800
REMARK INTER:                  -4.795
REMARK INTRA:                  -1.005
REMARK UNBOUND:                -0.652
REMARK SMILES CCCOC(=O)c1ccccc1C(=O)OCCC
REMARK SMILES IDX 7 1 8 2 9 3 10 4 11 5 12 6 5 7 6 8 4 9 3 10 2 11 1 12 13 13
REMARK SMILES IDX 14 14 15 15 16 16 17 17 18 18
REMARK H PARENT
REMARK Flexibility Score: inf
ROOT
ATOM      1  C   UNL     1      27.742  39.655  20.335  1.00  0.00     0.074 A 
ATOM      2  C   UNL     1      28.740  40.054  19.428  1.00  0.00     0.016 A 
ATOM      3  C   UNL     1      29.124  39.220  18.377  1.00  0.00     0.001 A 
ATOM      4  C   UNL     1      28.517  37.977  18.215  1.00  0.00     0.001 A 
ATOM      5  C   UNL     1      27.541  37.552  19.117  1.00  0.00     0.016 A 
ATOM      6  C   UNL     1      27.155  38.365  20.196  1.00  0.00     0.074 A 
ENDROOT
BRANCH   1   7
ATOM      7  C   UNL     1      27.304  40.636  21.355  1.00  0.00     0.339 C 
ATOM      8  O   UNL     1      27.915  40.728  22.455  1.00  0.00    -0.246 OA
BRANCH   7   9
ATOM      9  O   UNL     1      26.172  41.420  21.113  1.00  0.00    -0.462 OA
BRANCH   9  10
ATOM     10  C   UNL     1      26.205  42.844  21.125  1.00  0.00     0.233 C 
BRANCH  10  11
ATOM     11  C   UNL     1      26.445  43.358  19.708  1.00  0.00     0.038 C 
ATOM     12  C   UNL     1      27.903  43.763  19.505  1.00  0.00     0.007 C 
ENDBRANCH  10  11
ENDBRANCH   9  10
ENDBRANCH   7   9
ENDBRANCH   1   7
BRANCH   6  13
ATOM     13  C   UNL     1      26.197  37.806  21.177  1.00  0.00     0.339 C 
ATOM     14  O   UNL     1      26.596  37.026  22.086  1.00  0.00    -0.246 OA
BRANCH  13  15
ATOM     15  O   UNL     1      24.836  38.099  21.052  1.00  0.00    -0.462 OA
BRANCH  15  16
ATOM     16  C   UNL     1      23.849  37.097  20.821  1.00  0.00     0.233 C 
BRANCH  16  17
ATOM     17  C   UNL     1      23.882  36.656  19.358  1.00  0.00     0.038 C 
ATOM     18  C   UNL     1      22.661  35.816  18.991  1.00  0.00     0.007 C 
ENDBRANCH  16  17
ENDBRANCH  15  16
ENDBRANCH  13  15
ENDBRANCH   6  13
TORSDOF 8
ENDMDL
MODEL 8
REMARK VINA RESULT:    -3.364      2.336      3.406
REMARK INTER + INTRA:          -5.590
REMARK INTER:                  -5.160
REMARK INTRA:                  -0.430
REMARK UNBOUND:                -0.652
REMARK SMILES CCCOC(=O)c1ccccc1C(=O)OCCC
REMARK SMILES IDX 7 1 8 2 9 3 10 4 11 5 12 6 5 7 6 8 4 9 3 10 2 11 1 12 13 13
REMARK SMILES IDX 14 14 15 15 16 16 17 17 18 18
REMARK H PARENT
REMARK Flexibility Score: inf
ROOT
ATOM      1  C   UNL     1      26.359  38.474  20.532  1.00  0.00     0.074 A 
ATOM      2  C   UNL     1      25.805  39.749  20.747  1.00  0.00     0.016 A 
ATOM      3  C   UNL     1      26.493  40.901  20.365  1.00  0.00     0.001 A 
ATOM      4  C   UNL     1      27.745  40.798  19.762  1.00  0.00     0.001 A 
ATOM      5  C   UNL     1      28.323  39.545  19.560  1.00  0.00     0.016 A 
ATOM      6  C   UNL     1      27.658  38.372  19.958  1.00  0.00     0.074 A 
ENDROOT
BRANCH   1   7
ATOM      7  C   UNL     1      25.525  37.295  20.856  1.00  0.00     0.339 C 
ATOM      8  O   UNL     1      25.590  36.761  21.998  1.00  0.00    -0.246 OA
BRANCH   7   9
ATOM      9  O   UNL     1      24.704  36.741  19.869  1.00  0.00    -0.462 OA
BRANCH   9  10
ATOM     10  C   UNL     1      23.283  36.819  19.916  1.00  0.00     0.233 C 
BRANCH  10  11
ATOM     11  C   UNL     1      22.685  35.766  18.987  1.00  0.00     0.038 C 
ATOM     12  C   UNL     1      22.821  36.178  17.523  1.00  0.00     0.007 C 
ENDBRANCH  10  11
ENDBRANCH   9  10
ENDBRANCH   7   9
ENDBRANCH   1   7
BRANCH   6  13
ATOM     13  C   UNL     1      28.378  37.086  19.817  1.00  0.00     0.339 C 
ATOM     14  O   UNL     1      28.859  36.743  18.701  1.00  0.00    -0.246 OA
BRANCH  13  15
ATOM     15  O   UNL     1      28.470  36.226  20.915  1.00  0.00    -0.462 OA
BRANCH  15  16
ATOM     16  C   UNL     1      28.343  34.811  20.799  1.00  0.00     0.233 C 
BRANCH  16  17
ATOM     17  C   UNL     1      28.834  34.135  22.078  1.00  0.00     0.038 C 
ATOM     18  C   UNL     1      27.923  34.438  23.267  1.00  0.00     0.007 C 
ENDBRANCH  16  17
ENDBRANCH  15  16
ENDBRANCH  13  15
ENDBRANCH   6  13
TORSDOF 8
ENDMDL
