MODEL 1
REMARK VINA RESULT:    -6.249      0.000      0.000
REMARK INTER + INTRA:          -7.843
REMARK INTER:                  -7.528
REMARK INTRA:                  -0.315
REMARK UNBOUND:                -0.315
REMARK SMILES O=c1c(O)c(-c2ccc(O)c(O)c2)oc2cc(O)cc(O)c12
REMARK SMILES IDX 5 1 3 2 2 3 1 4 22 5 20 6 19 7 17 8 16 9 15 10 14 11 6 12
REMARK SMILES IDX 7 13 8 14 9 15 13 16 11 17 10 18 12 20 4 22 21 24 18 26
REMARK H PARENT 10 19 12 21 4 23 21 25 18 27
REMARK Flexibility Score: inf
ROOT
ATOM      1  C   UNL     1       4.686 -42.189 -32.498  1.00  0.00     0.180 A 
ATOM      2  C   UNL     1       5.378 -41.755 -33.642  1.00  0.00     0.208 A 
ATOM      3  C   UNL     1       6.438 -42.534 -34.132  1.00  0.00     0.238 A 
ATOM      4  O   UNL     1       7.088 -42.112 -35.124  1.00  0.00    -0.285 OA
ATOM      5  C   UNL     1       6.784 -43.743 -33.484  1.00  0.00     0.111 A 
ATOM      6  C   UNL     1       7.814 -44.630 -33.918  1.00  0.00     0.134 A 
ATOM      7  C   UNL     1       8.155 -45.733 -33.126  1.00  0.00     0.093 A 
ATOM      8  C   UNL     1       7.460 -46.016 -31.948  1.00  0.00     0.123 A 
ATOM      9  C   UNL     1       6.413 -45.190 -31.547  1.00  0.00     0.094 A 
ATOM     10  C   UNL     1       6.073 -44.062 -32.297  1.00  0.00     0.146 A 
ATOM     11  O   UNL     1       5.075 -43.295 -31.874  1.00  0.00    -0.452 OA
ENDROOT
BRANCH   1  12
ATOM     12  C   UNL     1       3.541 -41.437 -31.936  1.00  0.00     0.025 A 
ATOM     13  C   UNL     1       2.252 -41.553 -32.480  1.00  0.00     0.016 A 
ATOM     14  C   UNL     1       1.184 -40.852 -31.918  1.00  0.00     0.051 A 
ATOM     15  C   UNL     1       1.375 -40.034 -30.799  1.00  0.00     0.157 A 
ATOM     16  C   UNL     1       3.732 -40.634 -30.801  1.00  0.00     0.062 A 
ATOM     17  C   UNL     1       2.666 -39.926 -30.231  1.00  0.00     0.158 A 
BRANCH  15  18
ATOM     18  O   UNL     1       0.266 -39.356 -30.289  1.00  0.00    -0.504 OA
ATOM     19  H   UNL     1       0.034 -39.311 -29.307  1.00  0.00     0.293 HD
ENDBRANCH  15  18
BRANCH  17  20
ATOM     20  O   UNL     1       2.933 -39.138 -29.110  1.00  0.00    -0.504 OA
ATOM     21  H   UNL     1       3.822 -38.692 -28.931  1.00  0.00     0.293 HD
ENDBRANCH  17  20
ENDBRANCH   1  12
BRANCH   2  22
ATOM     22  O   UNL     1       5.034 -40.547 -34.254  1.00  0.00    -0.502 OA
ATOM     23  H   UNL     1       4.179 -40.051 -34.037  1.00  0.00     0.293 HD
ENDBRANCH   2  22
BRANCH   6  24
ATOM     24  O   UNL     1       8.508 -44.490 -35.124  1.00  0.00    -0.507 OA
ATOM     25  H   UNL     1       8.295 -43.806 -35.833  1.00  0.00     0.293 HD
ENDBRANCH   6  24
BRANCH   8  26
ATOM     26  O   UNL     1       7.796 -47.125 -31.174  1.00  0.00    -0.508 OA
ATOM     27  H   UNL     1       8.643 -47.147 -30.619  1.00  0.00     0.293 HD
ENDBRANCH   8  26
TORSDOF 6
ENDMDL
MODEL 2
REMARK VINA RESULT:    -6.247     10.863     14.807
REMARK INTER + INTRA:          -7.840
REMARK INTER:                  -7.686
REMARK INTRA:                  -0.154
REMARK UNBOUND:                -0.315
REMARK SMILES O=c1c(O)c(-c2ccc(O)c(O)c2)oc2cc(O)cc(O)c12
REMARK SMILES IDX 5 1 3 2 2 3 1 4 22 5 20 6 19 7 17 8 16 9 15 10 14 11 6 12
REMARK SMILES IDX 7 13 8 14 9 15 13 16 11 17 10 18 12 20 4 22 21 24 18 26
REMARK H PARENT 10 19 12 21 4 23 21 25 18 27
REMARK Flexibility Score: inf
ROOT
ATOM      1  C   UNL     1      -3.276 -32.164 -33.124  1.00  0.00     0.180 A 
ATOM      2  C   UNL     1      -4.251 -31.475 -33.865  1.00  0.00     0.208 A 
ATOM      3  C   UNL     1      -4.142 -30.082 -34.003  1.00  0.00     0.238 A 
ATOM      4  O   UNL     1      -5.048 -29.464 -34.621  1.00  0.00    -0.285 OA
ATOM      5  C   UNL     1      -3.053 -29.397 -33.413  1.00  0.00     0.111 A 
ATOM      6  C   UNL     1      -2.822 -27.994 -33.523  1.00  0.00     0.134 A 
ATOM      7  C   UNL     1      -1.784 -27.405 -32.790  1.00  0.00     0.093 A 
ATOM      8  C   UNL     1      -0.929 -28.180 -32.003  1.00  0.00     0.123 A 
ATOM      9  C   UNL     1      -1.109 -29.559 -31.937  1.00  0.00     0.094 A 
ATOM     10  C   UNL     1      -2.158 -30.170 -32.627  1.00  0.00     0.146 A 
ATOM     11  O   UNL     1      -2.301 -31.487 -32.528  1.00  0.00    -0.452 OA
ENDROOT
BRANCH   1  12
ATOM     12  C   UNL     1      -3.308 -33.635 -32.956  1.00  0.00     0.025 A 
ATOM     13  C   UNL     1      -3.512 -34.222 -31.697  1.00  0.00     0.016 A 
ATOM     14  C   UNL     1      -3.562 -35.611 -31.566  1.00  0.00     0.051 A 
ATOM     15  C   UNL     1      -3.423 -36.440 -32.686  1.00  0.00     0.157 A 
ATOM     16  C   UNL     1      -3.190 -34.463 -34.083  1.00  0.00     0.062 A 
ATOM     17  C   UNL     1      -3.239 -35.858 -33.961  1.00  0.00     0.158 A 
BRANCH  15  18
ATOM     18  O   UNL     1      -3.478 -37.820 -32.486  1.00  0.00    -0.504 OA
ATOM     19  H   UNL     1      -2.674 -38.430 -32.528  1.00  0.00     0.293 HD
ENDBRANCH  15  18
BRANCH  17  20
ATOM     20  O   UNL     1      -3.101 -36.618 -35.125  1.00  0.00    -0.504 OA
ATOM     21  H   UNL     1      -3.586 -36.421 -35.989  1.00  0.00     0.293 HD
ENDBRANCH  17  20
ENDBRANCH   1  12
BRANCH   2  22
ATOM     22  O   UNL     1      -5.331 -32.166 -34.421  1.00  0.00    -0.502 OA
ATOM     23  H   UNL     1      -6.100 -31.695 -34.880  1.00  0.00     0.293 HD
ENDBRANCH   2  22
BRANCH   6  24
ATOM     24  O   UNL     1      -3.560 -27.143 -34.353  1.00  0.00    -0.507 OA
ATOM     25  H   UNL     1      -3.159 -26.475 -34.993  1.00  0.00     0.293 HD
ENDBRANCH   6  24
BRANCH   8  26
ATOM     26  O   UNL     1       0.112 -27.588 -31.290  1.00  0.00    -0.508 OA
ATOM     27  H   UNL     1       0.967 -28.091 -31.083  1.00  0.00     0.293 HD
ENDBRANCH   8  26
TORSDOF 6
ENDMDL
MODEL 3
REMARK VINA RESULT:    -6.054      1.683      6.752
REMARK INTER + INTRA:          -7.608
REMARK INTER:                  -7.414
REMARK INTRA:                  -0.194
REMARK UNBOUND:                -0.315
REMARK SMILES O=c1c(O)c(-c2ccc(O)c(O)c2)oc2cc(O)cc(O)c12
REMARK SMILES IDX 5 1 3 2 2 3 1 4 22 5 20 6 19 7 17 8 16 9 15 10 14 11 6 12
REMARK SMILES IDX 7 13 8 14 9 15 13 16 11 17 10 18 12 20 4 22 21 24 18 26
REMARK H PARENT 10 19 12 21 4 23 21 25 18 27
REMARK Flexibility Score: inf
ROOT
ATOM      1  C   UNL     1       5.367 -43.154 -33.007  1.00  0.00     0.180 A 
ATOM      2  C   UNL     1       4.439 -43.010 -34.052  1.00  0.00     0.208 A 
ATOM      3  C   UNL     1       3.487 -41.981 -33.980  1.00  0.00     0.238 A 
ATOM      4  O   UNL     1       2.623 -41.892 -34.892  1.00  0.00    -0.285 OA
ATOM      5  C   UNL     1       3.484 -41.098 -32.873  1.00  0.00     0.111 A 
ATOM      6  C   UNL     1       2.591 -39.997 -32.717  1.00  0.00     0.134 A 
ATOM      7  C   UNL     1       2.595 -39.269 -31.521  1.00  0.00     0.093 A 
ATOM      8  C   UNL     1       3.503 -39.564 -30.501  1.00  0.00     0.123 A 
ATOM      9  C   UNL     1       4.419 -40.599 -30.668  1.00  0.00     0.094 A 
ATOM     10  C   UNL     1       4.416 -41.366 -31.836  1.00  0.00     0.146 A 
ATOM     11  O   UNL     1       5.299 -42.351 -31.951  1.00  0.00    -0.452 OA
ENDROOT
BRANCH   1  12
ATOM     12  C   UNL     1       6.417 -44.198 -33.023  1.00  0.00     0.025 A 
ATOM     13  C   UNL     1       7.435 -44.197 -33.990  1.00  0.00     0.016 A 
ATOM     14  C   UNL     1       8.427 -45.178 -33.971  1.00  0.00     0.051 A 
ATOM     15  C   UNL     1       8.433 -46.169 -32.983  1.00  0.00     0.157 A 
ATOM     16  C   UNL     1       6.433 -45.178 -32.019  1.00  0.00     0.062 A 
ATOM     17  C   UNL     1       7.424 -46.167 -31.992  1.00  0.00     0.158 A 
BRANCH  15  18
ATOM     18  O   UNL     1       9.451 -47.124 -33.024  1.00  0.00    -0.504 OA
ATOM     19  H   UNL     1      10.046 -47.349 -32.239  1.00  0.00     0.293 HD
ENDBRANCH  15  18
BRANCH  17  20
ATOM     20  O   UNL     1       7.369 -47.118 -30.970  1.00  0.00    -0.504 OA
ATOM     21  H   UNL     1       7.785 -48.036 -31.030  1.00  0.00     0.293 HD
ENDBRANCH  17  20
ENDBRANCH   1  12
BRANCH   2  22
ATOM     22  O   UNL     1       4.444 -43.905 -35.125  1.00  0.00    -0.502 OA
ATOM     23  H   UNL     1       3.683 -43.962 -35.790  1.00  0.00     0.293 HD
ENDBRANCH   2  22
BRANCH   6  24
ATOM     24  O   UNL     1       1.707 -39.561 -33.710  1.00  0.00    -0.507 OA
ATOM     25  H   UNL     1       1.278 -40.159 -34.399  1.00  0.00     0.293 HD
ENDBRANCH   6  24
BRANCH   8  26
ATOM     26  O   UNL     1       3.510 -38.824 -29.320  1.00  0.00    -0.508 OA
ATOM     27  H   UNL     1       4.083 -39.094 -28.529  1.00  0.00     0.293 HD
ENDBRANCH   8  26
TORSDOF 6
ENDMDL
MODEL 4
REMARK VINA RESULT:    -5.938      9.740     12.706
REMARK INTER + INTRA:          -7.468
REMARK INTER:                  -7.164
REMARK INTRA:                  -0.304
REMARK UNBOUND:                -0.315
REMARK SMILES O=c1c(O)c(-c2ccc(O)c(O)c2)oc2cc(O)cc(O)c12
REMARK SMILES IDX 5 1 3 2 2 3 1 4 22 5 20 6 19 7 17 8 16 9 15 10 14 11 6 12
REMARK SMILES IDX 7 13 8 14 9 15 13 16 11 17 10 18 12 20 4 22 21 24 18 26
REMARK H PARENT 10 19 12 21 4 23 21 25 18 27
REMARK Flexibility Score: inf
ROOT
ATOM      1  C   UNL     1       0.345 -30.602 -32.966  1.00  0.00     0.180 A 
ATOM      2  C   UNL     1       1.390 -30.768 -33.892  1.00  0.00     0.208 A 
ATOM      3  C   UNL     1       2.431 -31.660 -33.589  1.00  0.00     0.238 A 
ATOM      4  O   UNL     1       3.391 -31.763 -34.397  1.00  0.00    -0.285 OA
ATOM      5  C   UNL     1       2.408 -32.386 -32.374  1.00  0.00     0.111 A 
ATOM      6  C   UNL     1       3.389 -33.345 -31.984  1.00  0.00     0.134 A 
ATOM      7  C   UNL     1       3.335 -33.907 -30.703  1.00  0.00     0.093 A 
ATOM      8  C   UNL     1       2.297 -33.594 -29.822  1.00  0.00     0.123 A 
ATOM      9  C   UNL     1       1.300 -32.704 -30.216  1.00  0.00     0.094 A 
ATOM     10  C   UNL     1       1.348 -32.099 -31.475  1.00  0.00     0.146 A 
ATOM     11  O   UNL     1       0.384 -31.249 -31.806  1.00  0.00    -0.452 OA
ENDROOT
BRANCH   1  12
ATOM     12  C   UNL     1      -0.801 -29.700 -33.225  1.00  0.00     0.025 A 
ATOM     13  C   UNL     1      -0.828 -28.390 -32.721  1.00  0.00     0.016 A 
ATOM     14  C   UNL     1      -1.908 -27.550 -32.998  1.00  0.00     0.051 A 
ATOM     15  C   UNL     1      -2.973 -27.993 -33.790  1.00  0.00     0.157 A 
ATOM     16  C   UNL     1      -1.857 -30.140 -34.037  1.00  0.00     0.062 A 
ATOM     17  C   UNL     1      -2.946 -29.304 -34.319  1.00  0.00     0.158 A 
BRANCH  15  18
ATOM     18  O   UNL     1      -4.024 -27.105 -34.025  1.00  0.00    -0.504 OA
ATOM     19  H   UNL     1      -4.042 -26.439 -34.784  1.00  0.00     0.293 HD
ENDBRANCH  15  18
BRANCH  17  20
ATOM     20  O   UNL     1      -3.967 -29.814 -35.125  1.00  0.00    -0.504 OA
ATOM     21  H   UNL     1      -4.946 -29.606 -34.994  1.00  0.00     0.293 HD
ENDBRANCH  17  20
ENDBRANCH   1  12
BRANCH   2  22
ATOM     22  O   UNL     1       1.405 -30.026 -35.075  1.00  0.00    -0.502 OA
ATOM     23  H   UNL     1       0.725 -30.163 -35.812  1.00  0.00     0.293 HD
ENDBRANCH   2  22
BRANCH   6  24
ATOM     24  O   UNL     1       4.415 -33.798 -32.821  1.00  0.00    -0.507 OA
ATOM     25  H   UNL     1       4.419 -33.706 -33.825  1.00  0.00     0.293 HD
ENDBRANCH   6  24
BRANCH   8  26
ATOM     26  O   UNL     1       2.241 -34.170 -28.555  1.00  0.00    -0.508 OA
ATOM     27  H   UNL     1       2.006 -33.625 -27.734  1.00  0.00     0.293 HD
ENDBRANCH   8  26
TORSDOF 6
ENDMDL
MODEL 5
REMARK VINA RESULT:    -5.918      8.262     11.979
REMARK INTER + INTRA:          -7.444
REMARK INTER:                  -7.122
REMARK INTRA:                  -0.322
REMARK UNBOUND:                -0.315
REMARK SMILES O=c1c(O)c(-c2ccc(O)c(O)c2)oc2cc(O)cc(O)c12
REMARK SMILES IDX 5 1 3 2 2 3 1 4 22 5 20 6 19 7 17 8 16 9 15 10 14 11 6 12
REMARK SMILES IDX 7 13 8 14 9 15 13 16 11 17 10 18 12 20 4 22 21 24 18 26
REMARK H PARENT 10 19 12 21 4 23 21 25 18 27
REMARK Flexibility Score: inf
ROOT
ATOM      1  C   UNL     1       3.041 -32.900 -31.737  1.00  0.00     0.180 A 
ATOM      2  C   UNL     1       2.573 -31.929 -32.639  1.00  0.00     0.208 A 
ATOM      3  C   UNL     1       1.294 -31.382 -32.448  1.00  0.00     0.238 A 
ATOM      4  O   UNL     1       0.860 -30.554 -33.290  1.00  0.00    -0.285 OA
ATOM      5  C   UNL     1       0.506 -31.800 -31.349  1.00  0.00     0.111 A 
ATOM      6  C   UNL     1      -0.787 -31.284 -31.037  1.00  0.00     0.134 A 
ATOM      7  C   UNL     1      -1.530 -31.863 -30.001  1.00  0.00     0.093 A 
ATOM      8  C   UNL     1      -1.001 -32.898 -29.225  1.00  0.00     0.123 A 
ATOM      9  C   UNL     1       0.284 -33.368 -29.484  1.00  0.00     0.094 A 
ATOM     10  C   UNL     1       1.036 -32.834 -30.534  1.00  0.00     0.146 A 
ATOM     11  O   UNL     1       2.252 -33.319 -30.753  1.00  0.00    -0.452 OA
ENDROOT
BRANCH   1  12
ATOM     12  C   UNL     1       4.388 -33.505 -31.857  1.00  0.00     0.025 A 
ATOM     13  C   UNL     1       4.612 -34.635 -32.658  1.00  0.00     0.016 A 
ATOM     14  C   UNL     1       5.895 -35.174 -32.775  1.00  0.00     0.051 A 
ATOM     15  C   UNL     1       6.978 -34.589 -32.109  1.00  0.00     0.157 A 
ATOM     16  C   UNL     1       5.476 -32.903 -31.206  1.00  0.00     0.062 A 
ATOM     17  C   UNL     1       6.766 -33.437 -31.317  1.00  0.00     0.158 A 
BRANCH  15  18
ATOM     18  O   UNL     1       8.234 -35.179 -32.264  1.00  0.00    -0.504 OA
ATOM     19  H   UNL     1       8.955 -35.167 -31.557  1.00  0.00     0.293 HD
ENDBRANCH  15  18
BRANCH  17  20
ATOM     20  O   UNL     1       7.799 -32.793 -30.630  1.00  0.00    -0.504 OA
ATOM     21  H   UNL     1       7.653 -32.066 -29.944  1.00  0.00     0.293 HD
ENDBRANCH  17  20
ENDBRANCH   1  12
BRANCH   2  22
ATOM     22  O   UNL     1       3.359 -31.547 -33.729  1.00  0.00    -0.502 OA
ATOM     23  H   UNL     1       2.962 -31.159 -34.576  1.00  0.00     0.293 HD
ENDBRANCH   2  22
BRANCH   6  24
ATOM     24  O   UNL     1      -1.371 -30.193 -31.689  1.00  0.00    -0.507 OA
ATOM     25  H   UNL     1      -1.357 -29.245 -31.347  1.00  0.00     0.293 HD
ENDBRANCH   6  24
BRANCH   8  26
ATOM     26  O   UNL     1      -1.741 -33.458 -28.187  1.00  0.00    -0.508 OA
ATOM     27  H   UNL     1      -1.321 -33.665 -27.288  1.00  0.00     0.293 HD
ENDBRANCH   8  26
TORSDOF 6
ENDMDL
MODEL 6
REMARK VINA RESULT:    -5.905      8.230     12.438
REMARK INTER + INTRA:          -7.428
REMARK INTER:                  -7.103
REMARK INTRA:                  -0.325
REMARK UNBOUND:                -0.315
REMARK SMILES O=c1c(O)c(-c2ccc(O)c(O)c2)oc2cc(O)cc(O)c12
REMARK SMILES IDX 5 1 3 2 2 3 1 4 22 5 20 6 19 7 17 8 16 9 15 10 14 11 6 12
REMARK SMILES IDX 7 13 8 14 9 15 13 16 11 17 10 18 12 20 4 22 21 24 18 26
REMARK H PARENT 10 19 12 21 4 23 21 25 18 27
REMARK Flexibility Score: inf
ROOT
ATOM      1  C   UNL     1       2.910 -33.037 -31.369  1.00  0.00     0.180 A 
ATOM      2  C   UNL     1       2.124 -33.453 -30.281  1.00  0.00     0.208 A 
ATOM      3  C   UNL     1       0.831 -32.925 -30.134  1.00  0.00     0.238 A 
ATOM      4  O   UNL     1       0.153 -33.260 -29.128  1.00  0.00    -0.285 OA
ATOM      5  C   UNL     1       0.335 -31.999 -31.083  1.00  0.00     0.111 A 
ATOM      6  C   UNL     1      -0.973 -31.431 -31.054  1.00  0.00     0.134 A 
ATOM      7  C   UNL     1      -1.311 -30.428 -31.971  1.00  0.00     0.093 A 
ATOM      8  C   UNL     1      -0.409 -30.019 -32.956  1.00  0.00     0.123 A 
ATOM      9  C   UNL     1       0.850 -30.610 -33.030  1.00  0.00     0.094 A 
ATOM     10  C   UNL     1       1.229 -31.588 -32.107  1.00  0.00     0.146 A 
ATOM     11  O   UNL     1       2.441 -32.119 -32.207  1.00  0.00    -0.452 OA
ENDROOT
BRANCH   1  12
ATOM     12  C   UNL     1       4.272 -33.568 -31.607  1.00  0.00     0.025 A 
ATOM     13  C   UNL     1       4.491 -34.667 -32.452  1.00  0.00     0.016 A 
ATOM     14  C   UNL     1       5.786 -35.135 -32.679  1.00  0.00     0.051 A 
ATOM     15  C   UNL     1       6.887 -34.512 -32.080  1.00  0.00     0.157 A 
ATOM     16  C   UNL     1       5.375 -32.927 -31.022  1.00  0.00     0.062 A 
ATOM     17  C   UNL     1       6.679 -33.391 -31.243  1.00  0.00     0.158 A 
BRANCH  15  18
ATOM     18  O   UNL     1       8.155 -35.032 -32.345  1.00  0.00    -0.504 OA
ATOM     19  H   UNL     1       8.706 -34.793 -33.157  1.00  0.00     0.293 HD
ENDBRANCH  15  18
BRANCH  17  20
ATOM     20  O   UNL     1       7.727 -32.711 -30.618  1.00  0.00    -0.504 OA
ATOM     21  H   UNL     1       8.388 -33.147 -29.991  1.00  0.00     0.293 HD
ENDBRANCH  17  20
ENDBRANCH   1  12
BRANCH   2  22
ATOM     22  O   UNL     1       2.640 -34.351 -29.344  1.00  0.00    -0.502 OA
ATOM     23  H   UNL     1       2.543 -34.211 -28.346  1.00  0.00     0.293 HD
ENDBRANCH   2  22
BRANCH   6  24
ATOM     24  O   UNL     1      -1.980 -31.833 -30.170  1.00  0.00    -0.507 OA
ATOM     25  H   UNL     1      -2.610 -31.206 -29.695  1.00  0.00     0.293 HD
ENDBRANCH   6  24
BRANCH   8  26
ATOM     26  O   UNL     1      -0.759 -29.031 -33.874  1.00  0.00    -0.508 OA
ATOM     27  H   UNL     1      -0.229 -28.172 -33.957  1.00  0.00     0.293 HD
ENDBRANCH   8  26
TORSDOF 6
ENDMDL
MODEL 7
REMARK VINA RESULT:    -5.803      3.836      6.663
REMARK INTER + INTRA:          -7.305
REMARK INTER:                  -7.160
REMARK INTRA:                  -0.145
REMARK UNBOUND:                -0.315
REMARK SMILES O=c1c(O)c(-c2ccc(O)c(O)c2)oc2cc(O)cc(O)c12
REMARK SMILES IDX 5 1 3 2 2 3 1 4 22 5 20 6 19 7 17 8 16 9 15 10 14 11 6 12
REMARK SMILES IDX 7 13 8 14 9 15 13 16 11 17 10 18 12 20 4 22 21 24 18 26
REMARK H PARENT 10 19 12 21 4 23 21 25 18 27
REMARK Flexibility Score: inf
ROOT
ATOM      1  C   UNL     1       6.144 -40.813 -30.072  1.00  0.00     0.180 A 
ATOM      2  C   UNL     1       6.189 -41.719 -31.146  1.00  0.00     0.208 A 
ATOM      3  C   UNL     1       5.028 -41.931 -31.906  1.00  0.00     0.238 A 
ATOM      4  O   UNL     1       5.060 -42.784 -32.831  1.00  0.00    -0.285 OA
ATOM      5  C   UNL     1       3.841 -41.226 -31.594  1.00  0.00     0.111 A 
ATOM      6  C   UNL     1       2.619 -41.334 -32.321  1.00  0.00     0.134 A 
ATOM      7  C   UNL     1       1.472 -40.688 -31.845  1.00  0.00     0.093 A 
ATOM      8  C   UNL     1       1.519 -39.885 -30.702  1.00  0.00     0.123 A 
ATOM      9  C   UNL     1       2.722 -39.725 -30.019  1.00  0.00     0.094 A 
ATOM     10  C   UNL     1       3.875 -40.386 -30.449  1.00  0.00     0.146 A 
ATOM     11  O   UNL     1       4.998 -40.215 -29.763  1.00  0.00    -0.452 OA
ENDROOT
BRANCH   1  12
ATOM     12  C   UNL     1       7.333 -40.516 -29.240  1.00  0.00     0.025 A 
ATOM     13  C   UNL     1       7.884 -39.227 -29.187  1.00  0.00     0.016 A 
ATOM     14  C   UNL     1       8.991 -38.966 -28.378  1.00  0.00     0.051 A 
ATOM     15  C   UNL     1       9.560 -39.978 -27.597  1.00  0.00     0.157 A 
ATOM     16  C   UNL     1       7.887 -41.528 -28.442  1.00  0.00     0.062 A 
ATOM     17  C   UNL     1       8.999 -41.276 -27.627  1.00  0.00     0.158 A 
BRANCH  15  18
ATOM     18  O   UNL     1      10.668 -39.652 -26.813  1.00  0.00    -0.504 OA
ATOM     19  H   UNL     1      11.193 -40.322 -26.270  1.00  0.00     0.293 HD
ENDBRANCH  15  18
BRANCH  17  20
ATOM     20  O   UNL     1       9.505 -42.334 -26.870  1.00  0.00    -0.504 OA
ATOM     21  H   UNL     1      10.484 -42.581 -26.827  1.00  0.00     0.293 HD
ENDBRANCH  17  20
ENDBRANCH   1  12
BRANCH   2  22
ATOM     22  O   UNL     1       7.364 -42.421 -31.423  1.00  0.00    -0.502 OA
ATOM     23  H   UNL     1       7.803 -43.036 -30.749  1.00  0.00     0.293 HD
ENDBRANCH   2  22
BRANCH   6  24
ATOM     24  O   UNL     1       2.485 -42.035 -33.524  1.00  0.00    -0.507 OA
ATOM     25  H   UNL     1       2.167 -41.632 -34.392  1.00  0.00     0.293 HD
ENDBRANCH   6  24
BRANCH   8  26
ATOM     26  O   UNL     1       0.377 -39.233 -30.244  1.00  0.00    -0.508 OA
ATOM     27  H   UNL     1       0.056 -39.333 -29.288  1.00  0.00     0.293 HD
ENDBRANCH   8  26
TORSDOF 6
ENDMDL
MODEL 8
REMARK VINA RESULT:    -5.658      2.262      4.121
REMARK INTER + INTRA:          -7.130
REMARK INTER:                  -6.797
REMARK INTRA:                  -0.333
REMARK UNBOUND:                -0.315
REMARK SMILES O=c1c(O)c(-c2ccc(O)c(O)c2)oc2cc(O)cc(O)c12
REMARK SMILES IDX 5 1 3 2 2 3 1 4 22 5 20 6 19 7 17 8 16 9 15 10 14 11 6 12
REMARK SMILES IDX 7 13 8 14 9 15 13 16 11 17 10 18 12 20 4 22 21 24 18 26
REMARK H PARENT 10 19 12 21 4 23 21 25 18 27
REMARK Flexibility Score: inf
ROOT
ATOM      1  C   UNL     1       6.500 -43.398 -32.951  1.00  0.00     0.180 A 
ATOM      2  C   UNL     1       6.699 -44.687 -32.427  1.00  0.00     0.208 A 
ATOM      3  C   UNL     1       7.979 -45.259 -32.494  1.00  0.00     0.238 A 
ATOM      4  O   UNL     1       8.138 -46.434 -32.072  1.00  0.00    -0.285 OA
ATOM      5  C   UNL     1       9.048 -44.531 -33.069  1.00  0.00     0.111 A 
ATOM      6  C   UNL     1      10.394 -44.997 -33.152  1.00  0.00     0.134 A 
ATOM      7  C   UNL     1      11.342 -44.246 -33.859  1.00  0.00     0.093 A 
ATOM      8  C   UNL     1      11.007 -43.015 -34.428  1.00  0.00     0.123 A 
ATOM      9  C   UNL     1       9.711 -42.523 -34.300  1.00  0.00     0.094 A 
ATOM     10  C   UNL     1       8.734 -43.266 -33.633  1.00  0.00     0.146 A 
ATOM     11  O   UNL     1       7.507 -42.766 -33.543  1.00  0.00    -0.452 OA
ENDROOT
BRANCH   1  12
ATOM     12  C   UNL     1       5.185 -42.718 -32.895  1.00  0.00     0.025 A 
ATOM     13  C   UNL     1       4.802 -41.961 -31.778  1.00  0.00     0.016 A 
ATOM     14  C   UNL     1       3.567 -41.309 -31.757  1.00  0.00     0.051 A 
ATOM     15  C   UNL     1       2.699 -41.389 -32.852  1.00  0.00     0.157 A 
ATOM     16  C   UNL     1       4.327 -42.782 -34.003  1.00  0.00     0.062 A 
ATOM     17  C   UNL     1       3.086 -42.132 -33.992  1.00  0.00     0.158 A 
BRANCH  15  18
ATOM     18  O   UNL     1       1.478 -40.718 -32.766  1.00  0.00    -0.504 OA
ATOM     19  H   UNL     1       1.057 -40.210 -33.531  1.00  0.00     0.293 HD
ENDBRANCH  15  18
BRANCH  17  20
ATOM     20  O   UNL     1       2.278 -42.250 -35.125  1.00  0.00    -0.504 OA
ATOM     21  H   UNL     1       1.276 -42.124 -35.120  1.00  0.00     0.293 HD
ENDBRANCH  17  20
ENDBRANCH   1  12
BRANCH   2  22
ATOM     22  O   UNL     1       5.626 -45.398 -31.883  1.00  0.00    -0.502 OA
ATOM     23  H   UNL     1       4.784 -44.942 -31.552  1.00  0.00     0.293 HD
ENDBRANCH   2  22
BRANCH   6  24
ATOM     24  O   UNL     1      10.855 -46.167 -32.541  1.00  0.00    -0.507 OA
ATOM     25  H   UNL     1      11.307 -46.927 -33.024  1.00  0.00     0.293 HD
ENDBRANCH   6  24
BRANCH   8  26
ATOM     26  O   UNL     1      11.961 -42.267 -35.115  1.00  0.00    -0.508 OA
ATOM     27  H   UNL     1      11.867 -41.265 -35.230  1.00  0.00     0.293 HD
ENDBRANCH   8  26
TORSDOF 6
ENDMDL
