MODEL 1
REMARK VINA RESULT:    -5.646      0.000      0.000
REMARK INTER + INTRA:          -6.437
REMARK INTER:                  -6.306
REMARK INTRA:                  -0.130
REMARK UNBOUND:                -0.130
REMARK SMILES O=C([O-])C=Cc1ccccc1
REMARK SMILES IDX 4 1 5 2 2 3 1 4 3 5 6 6 7 7 11 8 8 9 10 10 9 11
REMARK H PARENT
REMARK Flexibility Score: inf
ROOT
ATOM      1  C   UNL     1     -17.677   2.146  47.384  1.00  0.00     0.025 C 
ATOM      2  C   UNL     1     -18.590   3.052  47.001  1.00  0.00     0.010 C 
ENDROOT
BRANCH   1   3
ATOM      3  C   UNL     1     -17.754   1.456  48.683  1.00  0.00     0.064 C 
ATOM      4  O   UNL     1     -18.819   0.898  49.063  1.00  0.00    -0.545 OA
ATOM      5  O   UNL     1     -16.635   1.420  49.504  1.00  0.00    -0.545 OA
ENDBRANCH   1   3
BRANCH   2   6
ATOM      6  C   UNL     1     -18.571   3.783  45.705  1.00  0.00    -0.026 A 
ATOM      7  C   UNL     1     -19.041   5.109  45.684  1.00  0.00     0.008 A 
ATOM      8  C   UNL     1     -18.105   3.213  44.499  1.00  0.00     0.008 A 
ATOM      9  C   UNL     1     -19.047   5.846  44.496  1.00  0.00     0.001 A 
ATOM     10  C   UNL     1     -18.114   3.957  43.314  1.00  0.00     0.001 A 
ATOM     11  C   UNL     1     -18.585   5.271  43.313  1.00  0.00     0.000 A 
ENDBRANCH   2   6
TORSDOF 2
ENDMDL
MODEL 2
REMARK VINA RESULT:    -5.634      0.187      1.469
REMARK INTER + INTRA:          -6.423
REMARK INTER:                  -6.280
REMARK INTRA:                  -0.143
REMARK UNBOUND:                -0.130
REMARK SMILES O=C([O-])C=Cc1ccccc1
REMARK SMILES IDX 4 1 5 2 2 3 1 4 3 5 6 6 7 7 11 8 8 9 10 10 9 11
REMARK H PARENT
REMARK Flexibility Score: inf
ROOT
ATOM      1  C   UNL     1     -17.815   2.136  47.459  1.00  0.00     0.025 C 
ATOM      2  C   UNL     1     -18.590   3.200  47.199  1.00  0.00     0.010 C 
ENDROOT
BRANCH   1   3
ATOM      3  C   UNL     1     -17.852   1.438  48.755  1.00  0.00     0.064 C 
ATOM      4  O   UNL     1     -18.908   0.892  49.174  1.00  0.00    -0.545 OA
ATOM      5  O   UNL     1     -16.702   1.380  49.532  1.00  0.00    -0.545 OA
ENDBRANCH   1   3
BRANCH   2   6
ATOM      6  C   UNL     1     -18.602   3.949  45.913  1.00  0.00    -0.026 A 
ATOM      7  C   UNL     1     -18.126   3.297  44.760  1.00  0.00     0.008 A 
ATOM      8  C   UNL     1     -19.068   5.278  45.793  1.00  0.00     0.008 A 
ATOM      9  C   UNL     1     -18.114   3.950  43.524  1.00  0.00     0.001 A 
ATOM     10  C   UNL     1     -19.052   5.925  44.553  1.00  0.00     0.001 A 
ATOM     11  C   UNL     1     -18.576   5.262  43.420  1.00  0.00     0.000 A 
ENDBRANCH   2   6
TORSDOF 2
ENDMDL
MODEL 3
REMARK VINA RESULT:    -5.491      4.998      6.480
REMARK INTER + INTRA:          -6.264
REMARK INTER:                  -6.124
REMARK INTRA:                  -0.140
REMARK UNBOUND:                -0.130
REMARK SMILES O=C([O-])C=Cc1ccccc1
REMARK SMILES IDX 4 1 5 2 2 3 1 4 3 5 6 6 7 7 11 8 8 9 10 10 9 11
REMARK H PARENT
REMARK Flexibility Score: inf
ROOT
ATOM      1  C   UNL     1     -18.654   5.444  41.047  1.00  0.00     0.025 C 
ATOM      2  C   UNL     1     -17.939   4.759  41.952  1.00  0.00     0.010 C 
ENDROOT
BRANCH   1   3
ATOM      3  C   UNL     1     -18.260   5.518  39.630  1.00  0.00     0.064 C 
ATOM      4  O   UNL     1     -17.677   4.555  39.063  1.00  0.00    -0.545 OA
ATOM      5  O   UNL     1     -18.533   6.671  38.905  1.00  0.00    -0.545 OA
ENDBRANCH   1   3
BRANCH   2   6
ATOM      6  C   UNL     1     -18.282   4.644  43.396  1.00  0.00    -0.026 A 
ATOM      7  C   UNL     1     -18.793   5.779  44.050  1.00  0.00     0.008 A 
ATOM      8  C   UNL     1     -18.120   3.453  44.139  1.00  0.00     0.008 A 
ATOM      9  C   UNL     1     -19.133   5.731  45.405  1.00  0.00     0.001 A 
ATOM     10  C   UNL     1     -18.463   3.411  45.495  1.00  0.00     0.001 A 
ATOM     11  C   UNL     1     -18.969   4.549  46.127  1.00  0.00     0.000 A 
ENDBRANCH   2   6
TORSDOF 2
ENDMDL
MODEL 4
REMARK VINA RESULT:    -5.473      5.027      6.668
REMARK INTER + INTRA:          -6.244
REMARK INTER:                  -6.113
REMARK INTRA:                  -0.131
REMARK UNBOUND:                -0.130
REMARK SMILES O=C([O-])C=Cc1ccccc1
REMARK SMILES IDX 4 1 5 2 2 3 1 4 3 5 6 6 7 7 11 8 8 9 10 10 9 11
REMARK H PARENT
REMARK Flexibility Score: inf
ROOT
ATOM      1  C   UNL     1     -18.694   5.597  41.033  1.00  0.00     0.025 C 
ATOM      2  C   UNL     1     -17.996   4.889  41.934  1.00  0.00     0.010 C 
ENDROOT
BRANCH   1   3
ATOM      3  C   UNL     1     -18.310   5.652  39.612  1.00  0.00     0.064 C 
ATOM      4  O   UNL     1     -17.728   4.683  39.055  1.00  0.00    -0.545 OA
ATOM      5  O   UNL     1     -18.594   6.793  38.873  1.00  0.00    -0.545 OA
ENDBRANCH   1   3
BRANCH   2   6
ATOM      6  C   UNL     1     -18.329   4.790  43.382  1.00  0.00    -0.026 A 
ATOM      7  C   UNL     1     -18.124   3.558  44.028  1.00  0.00     0.008 A 
ATOM      8  C   UNL     1     -18.840   5.871  44.135  1.00  0.00     0.008 A 
ATOM      9  C   UNL     1     -18.419   3.405  45.386  1.00  0.00     0.001 A 
ATOM     10  C   UNL     1     -19.133   5.711  45.494  1.00  0.00     0.001 A 
ATOM     11  C   UNL     1     -18.922   4.480  46.118  1.00  0.00     0.000 A 
ENDBRANCH   2   6
TORSDOF 2
ENDMDL
MODEL 5
REMARK VINA RESULT:    -5.298      4.540      5.714
REMARK INTER + INTRA:          -6.048
REMARK INTER:                  -5.915
REMARK INTRA:                  -0.132
REMARK UNBOUND:                -0.130
REMARK SMILES O=C([O-])C=Cc1ccccc1
REMARK SMILES IDX 4 1 5 2 2 3 1 4 3 5 6 6 7 7 11 8 8 9 10 10 9 11
REMARK H PARENT
REMARK Flexibility Score: inf
ROOT
ATOM      1  C   UNL     1     -16.301   2.154  41.670  1.00  0.00     0.025 C 
ATOM      2  C   UNL     1     -17.194   3.155  41.663  1.00  0.00     0.010 C 
ENDROOT
BRANCH   1   3
ATOM      3  C   UNL     1     -15.710   1.621  40.431  1.00  0.00     0.064 C 
ATOM      4  O   UNL     1     -14.889   0.665  40.458  1.00  0.00    -0.545 OA
ATOM      5  O   UNL     1     -16.063   2.182  39.211  1.00  0.00    -0.545 OA
ENDBRANCH   1   3
BRANCH   2   6
ATOM      6  C   UNL     1     -17.827   3.740  42.877  1.00  0.00    -0.026 A 
ATOM      7  C   UNL     1     -18.317   5.056  42.802  1.00  0.00     0.008 A 
ATOM      8  C   UNL     1     -17.958   3.039  44.097  1.00  0.00     0.008 A 
ATOM      9  C   UNL     1     -18.921   5.658  43.909  1.00  0.00     0.001 A 
ATOM     10  C   UNL     1     -18.564   3.648  45.202  1.00  0.00     0.001 A 
ATOM     11  C   UNL     1     -19.045   4.956  45.108  1.00  0.00     0.000 A 
ENDBRANCH   2   6
TORSDOF 2
ENDMDL
MODEL 6
REMARK VINA RESULT:    -5.295      3.315      5.710
REMARK INTER + INTRA:          -6.044
REMARK INTER:                  -5.916
REMARK INTRA:                  -0.128
REMARK UNBOUND:                -0.130
REMARK SMILES O=C([O-])C=Cc1ccccc1
REMARK SMILES IDX 4 1 5 2 2 3 1 4 3 5 6 6 7 7 11 8 8 9 10 10 9 11
REMARK H PARENT
REMARK Flexibility Score: inf
ROOT
ATOM      1  C   UNL     1     -18.772   4.649  46.245  1.00  0.00     0.025 C 
ATOM      2  C   UNL     1     -19.683   4.124  47.078  1.00  0.00     0.010 C 
ENDROOT
BRANCH   1   3
ATOM      3  C   UNL     1     -19.149   5.509  45.111  1.00  0.00     0.064 C 
ATOM      4  O   UNL     1     -18.896   6.744  45.116  1.00  0.00    -0.545 OA
ATOM      5  O   UNL     1     -19.796   4.950  44.017  1.00  0.00    -0.545 OA
ENDBRANCH   1   3
BRANCH   2   6
ATOM      6  C   UNL     1     -19.369   3.249  48.242  1.00  0.00    -0.026 A 
ATOM      7  C   UNL     1     -19.121   1.886  47.999  1.00  0.00     0.008 A 
ATOM      8  C   UNL     1     -19.309   3.720  49.572  1.00  0.00     0.008 A 
ATOM      9  C   UNL     1     -18.820   1.016  49.051  1.00  0.00     0.001 A 
ATOM     10  C   UNL     1     -19.007   2.844  50.621  1.00  0.00     0.001 A 
ATOM     11  C   UNL     1     -18.764   1.494  50.360  1.00  0.00     0.000 A 
ENDBRANCH   2   6
TORSDOF 2
ENDMDL
MODEL 7
REMARK VINA RESULT:    -5.273      4.226      5.555
REMARK INTER + INTRA:          -6.019
REMARK INTER:                  -5.880
REMARK INTRA:                  -0.140
REMARK UNBOUND:                -0.130
REMARK SMILES O=C([O-])C=Cc1ccccc1
REMARK SMILES IDX 4 1 5 2 2 3 1 4 3 5 6 6 7 7 11 8 8 9 10 10 9 11
REMARK H PARENT
REMARK Flexibility Score: inf
ROOT
ATOM      1  C   UNL     1     -16.675   2.469  42.011  1.00  0.00     0.025 C 
ATOM      2  C   UNL     1     -17.658   3.380  42.071  1.00  0.00     0.010 C 
ENDROOT
BRANCH   1   3
ATOM      3  C   UNL     1     -16.244   1.861  40.741  1.00  0.00     0.064 C 
ATOM      4  O   UNL     1     -15.033   1.864  40.393  1.00  0.00    -0.545 OA
ATOM      5  O   UNL     1     -17.191   1.276  39.910  1.00  0.00    -0.545 OA
ENDBRANCH   1   3
BRANCH   2   6
ATOM      6  C   UNL     1     -18.139   4.032  43.320  1.00  0.00    -0.026 A 
ATOM      7  C   UNL     1     -18.178   3.264  44.497  1.00  0.00     0.008 A 
ATOM      8  C   UNL     1     -18.557   5.380  43.379  1.00  0.00     0.008 A 
ATOM      9  C   UNL     1     -18.621   3.822  45.700  1.00  0.00     0.001 A 
ATOM     10  C   UNL     1     -18.999   5.933  44.586  1.00  0.00     0.001 A 
ATOM     11  C   UNL     1     -19.030   5.154  45.745  1.00  0.00     0.000 A 
ENDBRANCH   2   6
TORSDOF 2
ENDMDL
MODEL 8
REMARK VINA RESULT:    -5.238      4.705      6.288
REMARK INTER + INTRA:          -5.981
REMARK INTER:                  -5.852
REMARK INTRA:                  -0.129
REMARK UNBOUND:                -0.130
REMARK SMILES O=C([O-])C=Cc1ccccc1
REMARK SMILES IDX 4 1 5 2 2 3 1 4 3 5 6 6 7 7 11 8 8 9 10 10 9 11
REMARK H PARENT
REMARK Flexibility Score: inf
ROOT
ATOM      1  C   UNL     1     -19.729   5.522  42.257  1.00  0.00     0.025 C 
ATOM      2  C   UNL     1     -18.772   5.607  43.194  1.00  0.00     0.010 C 
ENDROOT
BRANCH   1   3
ATOM      3  C   UNL     1     -19.757   6.410  41.082  1.00  0.00     0.064 C 
ATOM      4  O   UNL     1     -19.452   5.984  39.936  1.00  0.00    -0.545 OA
ATOM      5  O   UNL     1     -20.124   7.740  41.240  1.00  0.00    -0.545 OA
ENDBRANCH   1   3
BRANCH   2   6
ATOM      6  C   UNL     1     -18.686   4.741  44.402  1.00  0.00    -0.026 A 
ATOM      7  C   UNL     1     -18.243   3.416  44.239  1.00  0.00     0.008 A 
ATOM      8  C   UNL     1     -19.026   5.185  45.699  1.00  0.00     0.008 A 
ATOM      9  C   UNL     1     -18.141   2.557  45.337  1.00  0.00     0.001 A 
ATOM     10  C   UNL     1     -18.922   4.319  46.794  1.00  0.00     0.001 A 
ATOM     11  C   UNL     1     -18.480   3.007  46.613  1.00  0.00     0.000 A 
ENDBRANCH   2   6
TORSDOF 2
ENDMDL
MODEL 9
REMARK VINA RESULT:    -5.083     16.749     17.160
REMARK INTER + INTRA:          -5.808
REMARK INTER:                  -5.663
REMARK INTRA:                  -0.145
REMARK UNBOUND:                -0.130
REMARK SMILES O=C([O-])C=Cc1ccccc1
REMARK SMILES IDX 4 1 5 2 2 3 1 4 3 5 6 6 7 7 11 8 8 9 10 10 9 11
REMARK H PARENT
REMARK Flexibility Score: inf
ROOT
ATOM      1  C   UNL     1      -1.818   8.335  49.426  1.00  0.00     0.025 C 
ATOM      2  C   UNL     1      -2.057   9.654  49.484  1.00  0.00     0.010 C 
ENDROOT
BRANCH   1   3
ATOM      3  C   UNL     1      -0.720   7.704  50.177  1.00  0.00     0.064 C 
ATOM      4  O   UNL     1      -0.198   8.273  51.173  1.00  0.00    -0.545 OA
ATOM      5  O   UNL     1      -0.248   6.459  49.778  1.00  0.00    -0.545 OA
ENDBRANCH   1   3
BRANCH   2   6
ATOM      6  C   UNL     1      -3.149  10.354  48.753  1.00  0.00    -0.026 A 
ATOM      7  C   UNL     1      -3.729   9.706  47.648  1.00  0.00     0.008 A 
ATOM      8  C   UNL     1      -3.628  11.633  49.114  1.00  0.00     0.008 A 
ATOM      9  C   UNL     1      -4.758  10.313  46.923  1.00  0.00     0.001 A 
ATOM     10  C   UNL     1      -4.658  12.236  48.383  1.00  0.00     0.001 A 
ATOM     11  C   UNL     1      -5.222  11.576  47.289  1.00  0.00     0.000 A 
ENDBRANCH   2   6
TORSDOF 2
ENDMDL
