MODEL 1
REMARK VINA RESULT:    -3.925      0.000      0.000
REMARK INTER + INTRA:          -6.191
REMARK INTER:                  -5.302
REMARK INTRA:                  -0.889
REMARK UNBOUND:                -0.889
REMARK SMILES O=C[C@H](O)[C@@H](O)[C@H](O)CO
REMARK SMILES IDX 7 1 9 2 10 3 5 5 3 6 2 7 1 8 4 9 6 11 8 13
REMARK H PARENT 10 4 4 10 6 12 8 14
REMARK Flexibility Score: inf
ROOT
ATOM      1  C   UNL     1     -14.224   5.523 -22.340  1.00  0.00     0.171 C 
ENDROOT
BRANCH   1   2
ATOM      2  C   UNL     1     -14.308   7.046 -22.575  1.00  0.00     0.190 C 
BRANCH   2   3
ATOM      3  O   UNL     1     -14.516   7.730 -21.368  1.00  0.00    -0.394 OA
ATOM      4  H   UNL     1     -14.858   8.630 -21.607  1.00  0.00     0.210 HD
ENDBRANCH   2   3
ENDBRANCH   1   2
BRANCH   1   5
ATOM      5  C   UNL     1     -15.618   4.891 -22.072  1.00  0.00     0.181 C 
BRANCH   5   6
ATOM      6  C   UNL     1     -15.565   3.342 -21.972  1.00  0.00     0.209 C 
BRANCH   6   7
ATOM      7  C   UNL     1     -15.563   2.880 -20.535  1.00  0.00     0.258 C 
ATOM      8  O   UNL     1     -14.601   3.103 -19.817  1.00  0.00    -0.300 OA
ENDBRANCH   6   7
BRANCH   6   9
ATOM      9  O   UNL     1     -14.469   2.805 -22.673  1.00  0.00    -0.383 OA
ATOM     10  H   UNL     1     -14.302   3.371 -23.470  1.00  0.00     0.211 HD
ENDBRANCH   6   9
ENDBRANCH   5   6
BRANCH   5  11
ATOM     11  O   UNL     1     -16.258   5.468 -20.958  1.00  0.00    -0.387 OA
ATOM     12  H   UNL     1     -16.552   4.741 -20.355  1.00  0.00     0.211 HD
ENDBRANCH   5  11
ENDBRANCH   1   5
BRANCH   1  13
ATOM     13  O   UNL     1     -13.311   5.227 -21.310  1.00  0.00    -0.388 OA
ATOM     14  H   UNL     1     -13.664   5.607 -20.464  1.00  0.00     0.211 HD
ENDBRANCH   1  13
TORSDOF 8
ENDMDL
MODEL 2
REMARK VINA RESULT:    -3.921      9.343     10.737
REMARK INTER + INTRA:          -6.186
REMARK INTER:                  -5.256
REMARK INTRA:                  -0.930
REMARK UNBOUND:                -0.889
REMARK SMILES O=C[C@H](O)[C@@H](O)[C@H](O)CO
REMARK SMILES IDX 7 1 9 2 10 3 5 5 3 6 2 7 1 8 4 9 6 11 8 13
REMARK H PARENT 10 4 4 10 6 12 8 14
REMARK Flexibility Score: inf
ROOT
ATOM      1  C   UNL     1     -17.454  -0.750 -14.200  1.00  0.00     0.171 C 
ENDROOT
BRANCH   1   2
ATOM      2  C   UNL     1     -18.404   0.097 -15.072  1.00  0.00     0.190 C 
BRANCH   2   3
ATOM      3  O   UNL     1     -19.664  -0.511 -15.179  1.00  0.00    -0.394 OA
ATOM      4  H   UNL     1     -20.128  -0.357 -14.316  1.00  0.00     0.210 HD
ENDBRANCH   2   3
ENDBRANCH   1   2
BRANCH   1   5
ATOM      5  C   UNL     1     -17.401  -2.235 -14.658  1.00  0.00     0.181 C 
BRANCH   5   6
ATOM      6  C   UNL     1     -18.108  -3.195 -13.663  1.00  0.00     0.209 C 
BRANCH   6   7
ATOM      7  C   UNL     1     -17.798  -4.640 -13.974  1.00  0.00     0.258 C 
ATOM      8  O   UNL     1     -17.142  -4.931 -14.962  1.00  0.00    -0.300 OA
ENDBRANCH   6   7
BRANCH   6   9
ATOM      9  O   UNL     1     -19.497  -2.980 -13.618  1.00  0.00    -0.383 OA
ATOM     10  H   UNL     1     -19.663  -2.003 -13.667  1.00  0.00     0.211 HD
ENDBRANCH   6   9
ENDBRANCH   5   6
BRANCH   5  11
ATOM     11  O   UNL     1     -17.873  -2.401 -15.975  1.00  0.00    -0.387 OA
ATOM     12  H   UNL     1     -18.164  -3.340 -16.086  1.00  0.00     0.211 HD
ENDBRANCH   5  11
ENDBRANCH   1   5
BRANCH   1  13
ATOM     13  O   UNL     1     -17.793  -0.637 -12.838  1.00  0.00    -0.388 OA
ATOM     14  H   UNL     1     -17.102  -0.083 -12.392  1.00  0.00     0.211 HD
ENDBRANCH   1  13
TORSDOF 8
ENDMDL
MODEL 3
REMARK VINA RESULT:    -3.913     17.684     19.878
REMARK INTER + INTRA:          -6.174
REMARK INTER:                  -5.237
REMARK INTRA:                  -0.937
REMARK UNBOUND:                -0.889
REMARK SMILES O=C[C@H](O)[C@@H](O)[C@H](O)CO
REMARK SMILES IDX 7 1 9 2 10 3 5 5 3 6 2 7 1 8 4 9 6 11 8 13
REMARK H PARENT 10 4 4 10 6 12 8 14
REMARK Flexibility Score: inf
ROOT
ATOM      1  C   UNL     1     -14.673  -6.841  -6.476  1.00  0.00     0.171 C 
ENDROOT
BRANCH   1   2
ATOM      2  C   UNL     1     -14.715  -6.303  -7.921  1.00  0.00     0.190 C 
BRANCH   2   3
ATOM      3  O   UNL     1     -15.562  -7.083  -8.723  1.00  0.00    -0.394 OA
ATOM      4  H   UNL     1     -16.450  -6.640  -8.713  1.00  0.00     0.210 HD
ENDBRANCH   2   3
ENDBRANCH   1   2
BRANCH   1   5
ATOM      5  C   UNL     1     -13.996  -8.237  -6.387  1.00  0.00     0.181 C 
BRANCH   5   6
ATOM      6  C   UNL     1     -15.019  -9.388  -6.182  1.00  0.00     0.209 C 
BRANCH   6   7
ATOM      7  C   UNL     1     -14.326 -10.712  -5.966  1.00  0.00     0.258 C 
ATOM      8  O   UNL     1     -13.807 -11.297  -6.902  1.00  0.00    -0.300 OA
ENDBRANCH   6   7
BRANCH   6   9
ATOM      9  O   UNL     1     -15.938  -9.472  -7.245  1.00  0.00    -0.383 OA
ATOM     10  H   UNL     1     -15.964 -10.412  -7.561  1.00  0.00     0.211 HD
ENDBRANCH   6   9
ENDBRANCH   5   6
BRANCH   5  11
ATOM     11  O   UNL     1     -13.139  -8.483  -7.477  1.00  0.00    -0.387 OA
ATOM     12  H   UNL     1     -12.261  -8.069  -7.283  1.00  0.00     0.211 HD
ENDBRANCH   5  11
ENDBRANCH   1   5
BRANCH   1  13
ATOM     13  O   UNL     1     -15.961  -6.849  -5.909  1.00  0.00    -0.388 OA
ATOM     14  H   UNL     1     -15.970  -7.509  -5.168  1.00  0.00     0.211 HD
ENDBRANCH   1  13
TORSDOF 8
ENDMDL
MODEL 4
REMARK VINA RESULT:    -3.846      7.672      9.979
REMARK INTER + INTRA:          -6.084
REMARK INTER:                  -5.577
REMARK INTRA:                  -0.507
REMARK UNBOUND:                -0.889
REMARK SMILES O=C[C@H](O)[C@@H](O)[C@H](O)CO
REMARK SMILES IDX 7 1 9 2 10 3 5 5 3 6 2 7 1 8 4 9 6 11 8 13
REMARK H PARENT 10 4 4 10 6 12 8 14
REMARK Flexibility Score: inf
ROOT
ATOM      1  C   UNL     1     -17.752  -2.056 -14.838  1.00  0.00     0.171 C 
ENDROOT
BRANCH   1   2
ATOM      2  C   UNL     1     -18.213  -3.221 -13.937  1.00  0.00     0.190 C 
BRANCH   2   3
ATOM      3  O   UNL     1     -19.522  -3.012 -13.477  1.00  0.00    -0.394 OA
ATOM      4  H   UNL     1     -20.053  -2.709 -14.259  1.00  0.00     0.210 HD
ENDBRANCH   2   3
ENDBRANCH   1   2
BRANCH   1   5
ATOM      5  C   UNL     1     -18.562  -0.755 -14.578  1.00  0.00     0.181 C 
BRANCH   5   6
ATOM      6  C   UNL     1     -17.767   0.529 -14.942  1.00  0.00     0.209 C 
BRANCH   6   7
ATOM      7  C   UNL     1     -18.681   1.624 -15.435  1.00  0.00     0.258 C 
ATOM      8  O   UNL     1     -18.226   2.583 -16.038  1.00  0.00    -0.300 OA
ENDBRANCH   6   7
BRANCH   6   9
ATOM      9  O   UNL     1     -16.746   0.271 -15.875  1.00  0.00    -0.383 OA
ATOM     10  H   UNL     1     -17.098   0.461 -16.783  1.00  0.00     0.211 HD
ENDBRANCH   6   9
ENDBRANCH   5   6
BRANCH   5  11
ATOM     11  O   UNL     1     -19.827  -0.784 -15.196  1.00  0.00    -0.387 OA
ATOM     12  H   UNL     1     -20.517  -0.858 -14.492  1.00  0.00     0.211 HD
ENDBRANCH   5  11
ENDBRANCH   1   5
BRANCH   1  13
ATOM     13  O   UNL     1     -17.788  -2.429 -16.194  1.00  0.00    -0.388 OA
ATOM     14  H   UNL     1     -17.495  -1.653 -16.737  1.00  0.00     0.211 HD
ENDBRANCH   1  13
TORSDOF 8
ENDMDL
MODEL 5
REMARK VINA RESULT:    -3.841      9.395     10.736
REMARK INTER + INTRA:          -6.077
REMARK INTER:                  -5.350
REMARK INTRA:                  -0.728
REMARK UNBOUND:                -0.889
REMARK SMILES O=C[C@H](O)[C@@H](O)[C@H](O)CO
REMARK SMILES IDX 7 1 9 2 10 3 5 5 3 6 2 7 1 8 4 9 6 11 8 13
REMARK H PARENT 10 4 4 10 6 12 8 14
REMARK Flexibility Score: inf
ROOT
ATOM      1  C   UNL     1     -16.346  -0.054 -12.166  1.00  0.00     0.171 C 
ENDROOT
BRANCH   1   2
ATOM      2  C   UNL     1     -16.593  -0.832 -10.856  1.00  0.00     0.190 C 
BRANCH   2   3
ATOM      3  O   UNL     1     -17.714  -0.330 -10.178  1.00  0.00    -0.394 OA
ATOM      4  H   UNL     1     -17.588   0.652 -10.109  1.00  0.00     0.210 HD
ENDBRANCH   2   3
ENDBRANCH   1   2
BRANCH   1   5
ATOM      5  C   UNL     1     -17.194  -0.604 -13.347  1.00  0.00     0.181 C 
BRANCH   5   6
ATOM      6  C   UNL     1     -16.320  -1.127 -14.520  1.00  0.00     0.209 C 
BRANCH   6   7
ATOM      7  C   UNL     1     -17.137  -1.322 -15.774  1.00  0.00     0.258 C 
ATOM      8  O   UNL     1     -17.927  -2.248 -15.857  1.00  0.00    -0.300 OA
ENDBRANCH   6   7
BRANCH   6   9
ATOM      9  O   UNL     1     -15.633  -2.307 -14.181  1.00  0.00    -0.383 OA
ATOM     10  H   UNL     1     -15.764  -2.965 -14.912  1.00  0.00     0.211 HD
ENDBRANCH   6   9
ENDBRANCH   5   6
BRANCH   5  11
ATOM     11  O   UNL     1     -18.134  -1.563 -12.923  1.00  0.00    -0.387 OA
ATOM     12  H   UNL     1     -19.004  -1.111 -12.793  1.00  0.00     0.211 HD
ENDBRANCH   5  11
ENDBRANCH   1   5
BRANCH   1  13
ATOM     13  O   UNL     1     -14.974  -0.025 -12.478  1.00  0.00    -0.388 OA
ATOM     14  H   UNL     1     -14.470   0.156 -11.643  1.00  0.00     0.211 HD
ENDBRANCH   1  13
TORSDOF 8
ENDMDL
MODEL 6
REMARK VINA RESULT:    -3.827      9.738     10.767
REMARK INTER + INTRA:          -6.059
REMARK INTER:                  -5.108
REMARK INTRA:                  -0.951
REMARK UNBOUND:                -0.889
REMARK SMILES O=C[C@H](O)[C@@H](O)[C@H](O)CO
REMARK SMILES IDX 7 1 9 2 10 3 5 5 3 6 2 7 1 8 4 9 6 11 8 13
REMARK H PARENT 10 4 4 10 6 12 8 14
REMARK Flexibility Score: inf
ROOT
ATOM      1  C   UNL     1     -15.881  -2.942 -16.716  1.00  0.00     0.171 C 
ENDROOT
BRANCH   1   2
ATOM      2  C   UNL     1     -14.407  -3.397 -16.679  1.00  0.00     0.190 C 
BRANCH   2   3
ATOM      3  O   UNL     1     -14.294  -4.691 -16.150  1.00  0.00    -0.394 OA
ATOM      4  H   UNL     1     -14.003  -5.278 -16.895  1.00  0.00     0.210 HD
ENDBRANCH   2   3
ENDBRANCH   1   2
BRANCH   1   5
ATOM      5  C   UNL     1     -16.433  -2.620 -15.300  1.00  0.00     0.181 C 
BRANCH   5   6
ATOM      6  C   UNL     1     -17.462  -3.672 -14.803  1.00  0.00     0.209 C 
BRANCH   6   7
ATOM      7  C   UNL     1     -18.228  -3.173 -13.602  1.00  0.00     0.258 C 
ATOM      8  O   UNL     1     -18.229  -1.985 -13.322  1.00  0.00    -0.300 OA
ENDBRANCH   6   7
BRANCH   6   9
ATOM      9  O   UNL     1     -16.857  -4.913 -14.530  1.00  0.00    -0.383 OA
ATOM     10  H   UNL     1     -17.572  -5.573 -14.338  1.00  0.00     0.211 HD
ENDBRANCH   6   9
ENDBRANCH   5   6
BRANCH   5  11
ATOM     11  O   UNL     1     -15.403  -2.408 -14.363  1.00  0.00    -0.387 OA
ATOM     12  H   UNL     1     -14.534  -2.529 -14.822  1.00  0.00     0.211 HD
ENDBRANCH   5  11
ENDBRANCH   1   5
BRANCH   1  13
ATOM     13  O   UNL     1     -16.679  -3.889 -17.384  1.00  0.00    -0.388 OA
ATOM     14  H   UNL     1     -16.169  -4.738 -17.442  1.00  0.00     0.211 HD
ENDBRANCH   1  13
TORSDOF 8
ENDMDL
MODEL 7
REMARK VINA RESULT:    -3.804      8.544     10.524
REMARK INTER + INTRA:          -6.027
REMARK INTER:                  -5.072
REMARK INTRA:                  -0.955
REMARK UNBOUND:                -0.889
REMARK SMILES O=C[C@H](O)[C@@H](O)[C@H](O)CO
REMARK SMILES IDX 7 1 9 2 10 3 5 5 3 6 2 7 1 8 4 9 6 11 8 13
REMARK H PARENT 10 4 4 10 6 12 8 14
REMARK Flexibility Score: inf
ROOT
ATOM      1  C   UNL     1     -16.104  -1.520 -14.391  1.00  0.00     0.171 C 
ENDROOT
BRANCH   1   2
ATOM      2  C   UNL     1     -17.016  -0.887 -15.463  1.00  0.00     0.190 C 
BRANCH   2   3
ATOM      3  O   UNL     1     -17.143   0.496 -15.261  1.00  0.00    -0.394 OA
ATOM      4  H   UNL     1     -17.735   0.834 -15.982  1.00  0.00     0.210 HD
ENDBRANCH   2   3
ENDBRANCH   1   2
BRANCH   1   5
ATOM      5  C   UNL     1     -16.751  -1.496 -12.979  1.00  0.00     0.181 C 
BRANCH   5   6
ATOM      6  C   UNL     1     -16.085  -0.461 -12.031  1.00  0.00     0.209 C 
BRANCH   6   7
ATOM      7  C   UNL     1     -16.540  -0.646 -10.603  1.00  0.00     0.258 C 
ATOM      8  O   UNL     1     -17.603  -0.178 -10.230  1.00  0.00    -0.300 OA
ENDBRANCH   6   7
BRANCH   6   9
ATOM      9  O   UNL     1     -16.301   0.862 -12.458  1.00  0.00    -0.383 OA
ATOM     10  H   UNL     1     -17.038   0.858 -13.122  1.00  0.00     0.211 HD
ENDBRANCH   6   9
ENDBRANCH   5   6
BRANCH   5  11
ATOM     11  O   UNL     1     -18.149  -1.332 -13.038  1.00  0.00    -0.387 OA
ATOM     12  H   UNL     1     -18.392  -1.056 -13.956  1.00  0.00     0.211 HD
ENDBRANCH   5  11
ENDBRANCH   1   5
BRANCH   1  13
ATOM     13  O   UNL     1     -14.835  -0.911 -14.394  1.00  0.00    -0.388 OA
ATOM     14  H   UNL     1     -14.260  -1.396 -15.040  1.00  0.00     0.211 HD
ENDBRANCH   1  13
TORSDOF 8
ENDMDL
MODEL 8
REMARK VINA RESULT:    -3.745      9.129     10.176
REMARK INTER + INTRA:          -5.948
REMARK INTER:                  -5.236
REMARK INTRA:                  -0.712
REMARK UNBOUND:                -0.889
REMARK SMILES O=C[C@H](O)[C@@H](O)[C@H](O)CO
REMARK SMILES IDX 7 1 9 2 10 3 5 5 3 6 2 7 1 8 4 9 6 11 8 13
REMARK H PARENT 10 4 4 10 6 12 8 14
REMARK Flexibility Score: inf
ROOT
ATOM      1  C   UNL     1     -15.967  -2.769 -15.712  1.00  0.00     0.171 C 
ENDROOT
BRANCH   1   2
ATOM      2  C   UNL     1     -14.580  -3.224 -16.213  1.00  0.00     0.190 C 
BRANCH   2   3
ATOM      3  O   UNL     1     -14.457  -4.620 -16.151  1.00  0.00    -0.394 OA
ATOM      4  H   UNL     1     -15.374  -4.990 -16.239  1.00  0.00     0.210 HD
ENDBRANCH   2   3
ENDBRANCH   1   2
BRANCH   1   5
ATOM      5  C   UNL     1     -16.011  -1.246 -15.405  1.00  0.00     0.181 C 
BRANCH   5   6
ATOM      6  C   UNL     1     -17.443  -0.741 -15.080  1.00  0.00     0.209 C 
BRANCH   6   7
ATOM      7  C   UNL     1     -17.606  -0.448 -13.608  1.00  0.00     0.258 C 
ATOM      8  O   UNL     1     -17.688  -1.361 -12.803  1.00  0.00    -0.300 OA
ENDBRANCH   6   7
BRANCH   6   9
ATOM      9  O   UNL     1     -18.433  -1.638 -15.524  1.00  0.00    -0.383 OA
ATOM     10  H   UNL     1     -19.306  -1.346 -15.155  1.00  0.00     0.211 HD
ENDBRANCH   6   9
ENDBRANCH   5   6
BRANCH   5  11
ATOM     11  O   UNL     1     -15.085  -0.878 -14.409  1.00  0.00    -0.387 OA
ATOM     12  H   UNL     1     -14.711  -1.703 -14.011  1.00  0.00     0.211 HD
ENDBRANCH   5  11
ENDBRANCH   1   5
BRANCH   1  13
ATOM     13  O   UNL     1     -16.374  -3.537 -14.605  1.00  0.00    -0.388 OA
ATOM     14  H   UNL     1     -17.303  -3.279 -14.374  1.00  0.00     0.211 HD
ENDBRANCH   1  13
TORSDOF 8
ENDMDL
MODEL 9
REMARK VINA RESULT:    -1.175      1.326      2.122
REMARK INTER + INTRA:          -2.476
REMARK INTER:                  -1.913
REMARK INTRA:                  -0.563
REMARK UNBOUND:                -0.889
REMARK SMILES O=C[C@H](O)[C@@H](O)[C@H](O)CO
REMARK SMILES IDX 7 1 9 2 10 3 5 5 3 6 2 7 1 8 4 9 6 11 8 13
REMARK H PARENT 10 4 4 10 6 12 8 14
REMARK Flexibility Score: inf
ROOT
ATOM      1  C   UNL     1     -14.345   7.214 -22.291  1.00  0.00     0.171 C 
ENDROOT
BRANCH   1   2
ATOM      2  C   UNL     1     -14.780   8.125 -23.457  1.00  0.00     0.190 C 
BRANCH   2   3
ATOM      3  O   UNL     1     -16.091   7.832 -23.862  1.00  0.00    -0.394 OA
ATOM      4  H   UNL     1     -16.317   8.477 -24.581  1.00  0.00     0.210 HD
ENDBRANCH   2   3
ENDBRANCH   1   2
BRANCH   1   5
ATOM      5  C   UNL     1     -15.136   5.876 -22.262  1.00  0.00     0.181 C 
BRANCH   5   6
ATOM      6  C   UNL     1     -14.225   4.646 -21.997  1.00  0.00     0.209 C 
BRANCH   6   7
ATOM      7  C   UNL     1     -15.033   3.433 -21.607  1.00  0.00     0.258 C 
ATOM      8  O   UNL     1     -16.183   3.306 -21.998  1.00  0.00    -0.300 OA
ENDBRANCH   6   7
BRANCH   6   9
ATOM      9  O   UNL     1     -13.236   4.920 -21.033  1.00  0.00    -0.383 OA
ATOM     10  H   UNL     1     -13.608   5.569 -20.382  1.00  0.00     0.211 HD
ENDBRANCH   6   9
ENDBRANCH   5   6
BRANCH   5  11
ATOM     11  O   UNL     1     -16.228   5.923 -21.374  1.00  0.00    -0.387 OA
ATOM     12  H   UNL     1     -16.514   6.865 -21.281  1.00  0.00     0.211 HD
ENDBRANCH   5  11
ENDBRANCH   1   5
BRANCH   1  13
ATOM     13  O   UNL     1     -14.434   7.897 -21.064  1.00  0.00    -0.388 OA
ATOM     14  H   UNL     1     -15.027   7.379 -20.462  1.00  0.00     0.211 HD
ENDBRANCH   1  13
TORSDOF 8
ENDMDL
