MODEL 1
REMARK VINA RESULT:    -2.879      0.000      0.000
REMARK INTER + INTRA:          -4.042
REMARK INTER:                  -3.889
REMARK INTRA:                  -0.153
REMARK UNBOUND:                -0.153
REMARK SMILES CCCCCCCC(=O)[O-]
REMARK SMILES IDX 5 1 6 2 7 3 8 4 9 5 10 6 4 7 3 8 2 9 1 10
REMARK H PARENT
REMARK Flexibility Score: inf
ROOT
ATOM      1  C   UNL     1       3.634  18.882   6.406  1.00  0.00     0.000 C 
ENDROOT
BRANCH   1   2
ATOM      2  C   UNL     1       3.754  17.806   7.493  1.00  0.00     0.006 C 
BRANCH   2   3
ATOM      3  C   UNL     1       4.491  16.572   6.965  1.00  0.00     0.053 C 
BRANCH   3   4
ATOM      4  C   UNL     1       4.097  15.355   7.741  1.00  0.00     0.041 C 
ATOM      5  O   UNL     1       3.672  14.332   7.142  1.00  0.00    -0.550 OA
ATOM      6  O   UNL     1       4.246  15.332   9.121  1.00  0.00    -0.550 OA
ENDBRANCH   3   4
ENDBRANCH   2   3
ENDBRANCH   1   2
BRANCH   1   7
ATOM      7  C   UNL     1       2.258  19.557   6.448  1.00  0.00     0.000 C 
BRANCH   7   8
ATOM      8  C   UNL     1       2.113  20.579   5.311  1.00  0.00    -0.000 C 
BRANCH   8   9
ATOM      9  C   UNL     1       0.761  21.308   5.342  1.00  0.00    -0.003 C 
ATOM     10  C   UNL     1      -0.217  20.698   6.345  1.00  0.00     0.004 C 
ENDBRANCH   8   9
ENDBRANCH   7   8
ENDBRANCH   1   7
TORSDOF 6
ENDMDL
MODEL 2
REMARK VINA RESULT:    -2.829      1.463      2.136
REMARK INTER + INTRA:          -3.974
REMARK INTER:                  -3.717
REMARK INTRA:                  -0.257
REMARK UNBOUND:                -0.153
REMARK SMILES CCCCCCCC(=O)[O-]
REMARK SMILES IDX 5 1 6 2 7 3 8 4 9 5 10 6 4 7 3 8 2 9 1 10
REMARK H PARENT
REMARK Flexibility Score: inf
ROOT
ATOM      1  C   UNL     1       4.030  17.672   8.418  1.00  0.00     0.000 C 
ENDROOT
BRANCH   1   2
ATOM      2  C   UNL     1       4.353  16.691   7.285  1.00  0.00     0.006 C 
BRANCH   2   3
ATOM      3  C   UNL     1       3.973  15.259   7.672  1.00  0.00     0.053 C 
BRANCH   3   4
ATOM      4  C   UNL     1       4.401  14.297   6.609  1.00  0.00     0.041 C 
ATOM      5  O   UNL     1       5.463  14.499   5.964  1.00  0.00    -0.550 OA
ATOM      6  O   UNL     1       3.655  13.152   6.366  1.00  0.00    -0.550 OA
ENDBRANCH   3   4
ENDBRANCH   2   3
ENDBRANCH   1   2
BRANCH   1   7
ATOM      7  C   UNL     1       3.523  19.009   7.864  1.00  0.00     0.000 C 
BRANCH   7   8
ATOM      8  C   UNL     1       3.365  18.946   6.337  1.00  0.00    -0.000 C 
BRANCH   8   9
ATOM      9  C   UNL     1       2.517  20.102   5.784  1.00  0.00    -0.003 C 
ATOM     10  C   UNL     1       1.112  20.144   6.383  1.00  0.00     0.004 C 
ENDBRANCH   8   9
ENDBRANCH   7   8
ENDBRANCH   1   7
TORSDOF 6
ENDMDL
MODEL 3
REMARK VINA RESULT:    -2.785      1.378      1.781
REMARK INTER + INTRA:          -3.915
REMARK INTER:                  -3.677
REMARK INTRA:                  -0.239
REMARK UNBOUND:                -0.153
REMARK SMILES CCCCCCCC(=O)[O-]
REMARK SMILES IDX 5 1 6 2 7 3 8 4 9 5 10 6 4 7 3 8 2 9 1 10
REMARK H PARENT
REMARK Flexibility Score: inf
ROOT
ATOM      1  C   UNL     1       4.359  18.009   6.246  1.00  0.00     0.000 C 
ENDROOT
BRANCH   1   2
ATOM      2  C   UNL     1       5.075  16.791   6.841  1.00  0.00     0.006 C 
BRANCH   2   3
ATOM      3  C   UNL     1       4.099  15.906   7.622  1.00  0.00     0.053 C 
BRANCH   3   4
ATOM      4  C   UNL     1       4.410  14.460   7.402  1.00  0.00     0.041 C 
ATOM      5  O   UNL     1       3.642  13.746   6.705  1.00  0.00    -0.550 OA
ATOM      6  O   UNL     1       5.575  13.912   7.923  1.00  0.00    -0.550 OA
ENDBRANCH   3   4
ENDBRANCH   2   3
ENDBRANCH   1   2
BRANCH   1   7
ATOM      7  C   UNL     1       3.367  18.609   7.249  1.00  0.00     0.000 C 
BRANCH   7   8
ATOM      8  C   UNL     1       2.358  19.527   6.542  1.00  0.00    -0.000 C 
BRANCH   8   9
ATOM      9  C   UNL     1       2.963  20.242   5.324  1.00  0.00    -0.003 C 
ATOM     10  C   UNL     1       2.014  21.269   4.709  1.00  0.00     0.004 C 
ENDBRANCH   8   9
ENDBRANCH   7   8
ENDBRANCH   1   7
TORSDOF 6
ENDMDL
MODEL 4
REMARK VINA RESULT:    -2.676      3.307      3.879
REMARK INTER + INTRA:          -3.767
REMARK INTER:                  -3.482
REMARK INTRA:                  -0.286
REMARK UNBOUND:                -0.153
REMARK SMILES CCCCCCCC(=O)[O-]
REMARK SMILES IDX 5 1 6 2 7 3 8 4 9 5 10 6 4 7 3 8 2 9 1 10
REMARK H PARENT
REMARK Flexibility Score: inf
ROOT
ATOM      1  C   UNL     1       4.094  17.729   8.370  1.00  0.00     0.000 C 
ENDROOT
BRANCH   1   2
ATOM      2  C   UNL     1       4.278  16.673   7.273  1.00  0.00     0.006 C 
BRANCH   2   3
ATOM      3  C   UNL     1       3.959  15.271   7.801  1.00  0.00     0.053 C 
BRANCH   3   4
ATOM      4  C   UNL     1       4.528  14.227   6.893  1.00  0.00     0.041 C 
ATOM      5  O   UNL     1       5.775  14.134   6.737  1.00  0.00    -0.550 OA
ATOM      6  O   UNL     1       3.686  13.324   6.257  1.00  0.00    -0.550 OA
ENDBRANCH   3   4
ENDBRANCH   2   3
ENDBRANCH   1   2
BRANCH   1   7
ATOM      7  C   UNL     1       4.301  17.120   9.762  1.00  0.00     0.000 C 
BRANCH   7   8
ATOM      8  C   UNL     1       3.602  17.962  10.839  1.00  0.00    -0.000 C 
BRANCH   8   9
ATOM      9  C   UNL     1       2.815  19.141  10.247  1.00  0.00    -0.003 C 
ATOM     10  C   UNL     1       1.660  19.590  11.142  1.00  0.00     0.004 C 
ENDBRANCH   8   9
ENDBRANCH   7   8
ENDBRANCH   1   7
TORSDOF 6
ENDMDL
MODEL 5
REMARK VINA RESULT:    -2.668      4.264      5.524
REMARK INTER + INTRA:          -3.757
REMARK INTER:                  -3.560
REMARK INTRA:                  -0.197
REMARK UNBOUND:                -0.153
REMARK SMILES CCCCCCCC(=O)[O-]
REMARK SMILES IDX 5 1 6 2 7 3 8 4 9 5 10 6 4 7 3 8 2 9 1 10
REMARK H PARENT
REMARK Flexibility Score: inf
ROOT
ATOM      1  C   UNL     1       3.571  18.643   7.745  1.00  0.00     0.000 C 
ENDROOT
BRANCH   1   2
ATOM      2  C   UNL     1       3.180  19.108   6.337  1.00  0.00     0.006 C 
BRANCH   2   3
ATOM      3  C   UNL     1       1.869  19.899   6.365  1.00  0.00     0.053 C 
BRANCH   3   4
ATOM      4  C   UNL     1       1.799  20.839   5.203  1.00  0.00     0.041 C 
ATOM      5  O   UNL     1       0.774  21.549   5.023  1.00  0.00    -0.550 OA
ATOM      6  O   UNL     1       2.885  20.969   4.348  1.00  0.00    -0.550 OA
ENDBRANCH   3   4
ENDBRANCH   2   3
ENDBRANCH   1   2
BRANCH   1   7
ATOM      7  C   UNL     1       2.990  19.574   8.815  1.00  0.00     0.000 C 
BRANCH   7   8
ATOM      8  C   UNL     1       3.035  18.913  10.201  1.00  0.00    -0.000 C 
BRANCH   8   9
ATOM      9  C   UNL     1       1.906  19.399  11.123  1.00  0.00    -0.003 C 
ATOM     10  C   UNL     1       1.940  18.736  12.499  1.00  0.00     0.004 C 
ENDBRANCH   8   9
ENDBRANCH   7   8
ENDBRANCH   1   7
TORSDOF 6
ENDMDL
MODEL 6
REMARK VINA RESULT:    -2.593      2.978      3.696
REMARK INTER + INTRA:          -3.656
REMARK INTER:                  -3.287
REMARK INTRA:                  -0.368
REMARK UNBOUND:                -0.153
REMARK SMILES CCCCCCCC(=O)[O-]
REMARK SMILES IDX 5 1 6 2 7 3 8 4 9 5 10 6 4 7 3 8 2 9 1 10
REMARK H PARENT
REMARK Flexibility Score: inf
ROOT
ATOM      1  C   UNL     1       1.387  20.402  10.165  1.00  0.00     0.000 C 
ENDROOT
BRANCH   1   2
ATOM      2  C   UNL     1       1.983  19.281  11.025  1.00  0.00     0.006 C 
BRANCH   2   3
ATOM      3  C   UNL     1       3.222  18.676  10.358  1.00  0.00     0.053 C 
BRANCH   3   4
ATOM      4  C   UNL     1       3.761  17.548  11.179  1.00  0.00     0.041 C 
ATOM      5  O   UNL     1       4.192  16.506  10.618  1.00  0.00    -0.550 OA
ATOM      6  O   UNL     1       3.833  17.666  12.561  1.00  0.00    -0.550 OA
ENDBRANCH   3   4
ENDBRANCH   2   3
ENDBRANCH   1   2
BRANCH   1   7
ATOM      7  C   UNL     1       2.148  20.546   8.841  1.00  0.00     0.000 C 
BRANCH   7   8
ATOM      8  C   UNL     1       1.179  20.777   7.673  1.00  0.00    -0.000 C 
BRANCH   8   9
ATOM      9  C   UNL     1       1.605  20.034   6.397  1.00  0.00    -0.003 C 
ATOM     10  C   UNL     1       2.860  19.187   6.598  1.00  0.00     0.004 C 
ENDBRANCH   8   9
ENDBRANCH   7   8
ENDBRANCH   1   7
TORSDOF 6
ENDMDL
MODEL 7
REMARK VINA RESULT:    -2.573      2.236      2.648
REMARK INTER + INTRA:          -3.629
REMARK INTER:                  -3.347
REMARK INTRA:                  -0.282
REMARK UNBOUND:                -0.153
REMARK SMILES CCCCCCCC(=O)[O-]
REMARK SMILES IDX 5 1 6 2 7 3 8 4 9 5 10 6 4 7 3 8 2 9 1 10
REMARK H PARENT
REMARK Flexibility Score: inf
ROOT
ATOM      1  C   UNL     1       2.879  19.086   6.673  1.00  0.00     0.000 C 
ENDROOT
BRANCH   1   2
ATOM      2  C   UNL     1       4.109  18.174   6.590  1.00  0.00     0.006 C 
BRANCH   2   3
ATOM      3  C   UNL     1       4.912  18.448   5.315  1.00  0.00     0.053 C 
BRANCH   3   4
ATOM      4  C   UNL     1       5.620  17.210   4.865  1.00  0.00     0.041 C 
ATOM      5  O   UNL     1       5.004  16.113   4.809  1.00  0.00    -0.550 OA
ATOM      6  O   UNL     1       6.946  17.276   4.459  1.00  0.00    -0.550 OA
ENDBRANCH   3   4
ENDBRANCH   2   3
ENDBRANCH   1   2
BRANCH   1   7
ATOM      7  C   UNL     1       2.900  20.142   5.562  1.00  0.00     0.000 C 
BRANCH   7   8
ATOM      8  C   UNL     1       1.533  20.830   5.432  1.00  0.00    -0.000 C 
BRANCH   8   9
ATOM      9  C   UNL     1       0.560  20.425   6.550  1.00  0.00    -0.003 C 
ATOM     10  C   UNL     1      -0.902  20.667   6.178  1.00  0.00     0.004 C 
ENDBRANCH   8   9
ENDBRANCH   7   8
ENDBRANCH   1   7
TORSDOF 6
ENDMDL
MODEL 8
REMARK VINA RESULT:    -2.552      3.837      4.664
REMARK INTER + INTRA:          -3.600
REMARK INTER:                  -3.309
REMARK INTRA:                  -0.291
REMARK UNBOUND:                -0.153
REMARK SMILES CCCCCCCC(=O)[O-]
REMARK SMILES IDX 5 1 6 2 7 3 8 4 9 5 10 6 4 7 3 8 2 9 1 10
REMARK H PARENT
REMARK Flexibility Score: inf
ROOT
ATOM      1  C   UNL     1       2.088  20.207   9.208  1.00  0.00     0.000 C 
ENDROOT
BRANCH   1   2
ATOM      2  C   UNL     1       1.689  19.892  10.655  1.00  0.00     0.006 C 
BRANCH   2   3
ATOM      3  C   UNL     1       2.565  18.780  11.237  1.00  0.00     0.053 C 
BRANCH   3   4
ATOM      4  C   UNL     1       2.464  18.760  12.730  1.00  0.00     0.041 C 
ATOM      5  O   UNL     1       1.764  17.886  13.306  1.00  0.00    -0.550 OA
ATOM      6  O   UNL     1       3.183  19.676  13.488  1.00  0.00    -0.550 OA
ENDBRANCH   3   4
ENDBRANCH   2   3
ENDBRANCH   1   2
BRANCH   1   7
ATOM      7  C   UNL     1       3.250  19.317   8.751  1.00  0.00     0.000 C 
BRANCH   7   8
ATOM      8  C   UNL     1       3.133  18.985   7.256  1.00  0.00    -0.000 C 
BRANCH   8   9
ATOM      9  C   UNL     1       2.012  19.775   6.563  1.00  0.00    -0.003 C 
ATOM     10  C   UNL     1       2.486  20.490   5.298  1.00  0.00     0.004 C 
ENDBRANCH   8   9
ENDBRANCH   7   8
ENDBRANCH   1   7
TORSDOF 6
ENDMDL
MODEL 9
REMARK VINA RESULT:    -2.529      1.470      2.099
REMARK INTER + INTRA:          -3.569
REMARK INTER:                  -3.360
REMARK INTRA:                  -0.209
REMARK UNBOUND:                -0.153
REMARK SMILES CCCCCCCC(=O)[O-]
REMARK SMILES IDX 5 1 6 2 7 3 8 4 9 5 10 6 4 7 3 8 2 9 1 10
REMARK H PARENT
REMARK Flexibility Score: inf
ROOT
ATOM      1  C   UNL     1       2.567  19.357   6.511  1.00  0.00     0.000 C 
ENDROOT
BRANCH   1   2
ATOM      2  C   UNL     1       3.849  18.529   6.363  1.00  0.00     0.006 C 
BRANCH   2   3
ATOM      3  C   UNL     1       3.947  17.467   7.462  1.00  0.00     0.053 C 
BRANCH   3   4
ATOM      4  C   UNL     1       5.375  17.249   7.855  1.00  0.00     0.041 C 
ATOM      5  O   UNL     1       6.023  18.169   8.420  1.00  0.00    -0.550 OA
ATOM      6  O   UNL     1       5.974  16.015   7.642  1.00  0.00    -0.550 OA
ENDBRANCH   3   4
ENDBRANCH   2   3
ENDBRANCH   1   2
BRANCH   1   7
ATOM      7  C   UNL     1       2.463  20.415   5.406  1.00  0.00     0.000 C 
BRANCH   7   8
ATOM      8  C   UNL     1       1.072  21.065   5.397  1.00  0.00    -0.000 C 
BRANCH   8   9
ATOM      9  C   UNL     1       0.174  20.553   6.534  1.00  0.00    -0.003 C 
ATOM     10  C   UNL     1      -1.310  20.577   6.172  1.00  0.00     0.004 C 
ENDBRANCH   8   9
ENDBRANCH   7   8
ENDBRANCH   1   7
TORSDOF 6
ENDMDL
