MODEL 1
REMARK VINA RESULT:    -5.668      0.000      0.000
REMARK INTER + INTRA:          -6.514
REMARK INTER:                  -6.331
REMARK INTRA:                  -0.183
REMARK UNBOUND:                -0.183
REMARK SMILES O=C([O-])c1ccccc1C(=O)[O-]
REMARK SMILES IDX 4 1 9 2 5 3 8 4 6 5 7 6 2 7 1 8 3 9 10 10 11 11 12 12
REMARK H PARENT
REMARK Flexibility Score: inf
ROOT
ATOM      1  C   UNL     1      17.338  10.130 -20.891  1.00  0.00     0.006 A 
ATOM      2  C   UNL     1      17.326   9.032 -19.987  1.00  0.00     0.006 A 
ATOM      3  C   UNL     1      16.543  10.071 -22.051  1.00  0.00     0.010 A 
ATOM      4  C   UNL     1      16.472   7.943 -20.245  1.00  0.00     0.010 A 
ATOM      5  C   UNL     1      15.720   8.971 -22.297  1.00  0.00     0.001 A 
ATOM      6  C   UNL     1      15.676   7.915 -21.390  1.00  0.00     0.001 A 
ENDROOT
BRANCH   1   7
ATOM      7  C   UNL     1      18.098  11.373 -20.626  1.00  0.00     0.072 C 
ATOM      8  O   UNL     1      19.081  11.683 -21.352  1.00  0.00    -0.545 OA
ATOM      9  O   UNL     1      17.702  12.246 -19.619  1.00  0.00    -0.545 OA
ENDBRANCH   1   7
BRANCH   2  10
ATOM     10  C   UNL     1      18.232   8.949 -18.819  1.00  0.00     0.072 C 
ATOM     11  O   UNL     1      19.441   8.634 -18.976  1.00  0.00    -0.545 OA
ATOM     12  O   UNL     1      17.781   9.281 -17.547  1.00  0.00    -0.545 OA
ENDBRANCH   2  10
TORSDOF 2
ENDMDL
MODEL 2
REMARK VINA RESULT:    -5.625      0.067      2.861
REMARK INTER + INTRA:          -6.465
REMARK INTER:                  -6.269
REMARK INTRA:                  -0.196
REMARK UNBOUND:                -0.183
REMARK SMILES O=C([O-])c1ccccc1C(=O)[O-]
REMARK SMILES IDX 4 1 9 2 5 3 8 4 6 5 7 6 2 7 1 8 3 9 10 10 11 11 12 12
REMARK H PARENT
REMARK Flexibility Score: inf
ROOT
ATOM      1  C   UNL     1      17.306   9.013 -19.941  1.00  0.00     0.006 A 
ATOM      2  C   UNL     1      17.341  10.112 -20.843  1.00  0.00     0.006 A 
ATOM      3  C   UNL     1      16.434   7.939 -20.204  1.00  0.00     0.010 A 
ATOM      4  C   UNL     1      16.551  10.068 -22.007  1.00  0.00     0.010 A 
ATOM      5  C   UNL     1      15.643   7.927 -21.354  1.00  0.00     0.001 A 
ATOM      6  C   UNL     1      15.710   8.984 -22.259  1.00  0.00     0.001 A 
ENDROOT
BRANCH   1   7
ATOM      7  C   UNL     1      18.206   8.912 -18.770  1.00  0.00     0.072 C 
ATOM      8  O   UNL     1      19.408   8.562 -18.921  1.00  0.00    -0.545 OA
ATOM      9  O   UNL     1      17.760   9.260 -17.500  1.00  0.00    -0.545 OA
ENDBRANCH   1   7
BRANCH   2  10
ATOM     10  C   UNL     1      18.122  11.341 -20.573  1.00  0.00     0.072 C 
ATOM     11  O   UNL     1      19.142  11.607 -21.261  1.00  0.00    -0.545 OA
ATOM     12  O   UNL     1      17.705  12.247 -19.606  1.00  0.00    -0.545 OA
ENDBRANCH   2  10
TORSDOF 2
ENDMDL
MODEL 3
REMARK VINA RESULT:    -4.555      1.943      3.529
REMARK INTER + INTRA:          -5.271
REMARK INTER:                  -5.462
REMARK INTRA:                   0.191
REMARK UNBOUND:                -0.183
REMARK SMILES O=C([O-])c1ccccc1C(=O)[O-]
REMARK SMILES IDX 4 1 9 2 5 3 8 4 6 5 7 6 2 7 1 8 3 9 10 10 11 11 12 12
REMARK H PARENT
REMARK Flexibility Score: inf
ROOT
ATOM      1  C   UNL     1      18.184   9.666 -20.246  1.00  0.00     0.006 A 
ATOM      2  C   UNL     1      17.124   9.406 -21.158  1.00  0.00     0.006 A 
ATOM      3  C   UNL     1      19.082  10.715 -20.520  1.00  0.00     0.010 A 
ATOM      4  C   UNL     1      16.964  10.244 -22.278  1.00  0.00     0.010 A 
ATOM      5  C   UNL     1      18.916  11.520 -21.649  1.00  0.00     0.001 A 
ATOM      6  C   UNL     1      17.853  11.291 -22.519  1.00  0.00     0.001 A 
ENDROOT
BRANCH   1   7
ATOM      7  C   UNL     1      18.341   8.926 -18.973  1.00  0.00     0.072 C 
ATOM      8  O   UNL     1      19.180   7.989 -18.884  1.00  0.00    -0.545 OA
ATOM      9  O   UNL     1      17.617   9.292 -17.845  1.00  0.00    -0.545 OA
ENDBRANCH   1   7
BRANCH   2  10
ATOM     10  C   UNL     1      16.221   8.241 -21.021  1.00  0.00     0.072 C 
ATOM     11  O   UNL     1      15.667   7.994 -19.918  1.00  0.00    -0.545 OA
ATOM     12  O   UNL     1      15.920   7.444 -22.120  1.00  0.00    -0.545 OA
ENDBRANCH   2  10
TORSDOF 2
ENDMDL
MODEL 4
REMARK VINA RESULT:    -4.495      1.915      3.094
REMARK INTER + INTRA:          -5.204
REMARK INTER:                  -5.391
REMARK INTRA:                   0.187
REMARK UNBOUND:                -0.183
REMARK SMILES O=C([O-])c1ccccc1C(=O)[O-]
REMARK SMILES IDX 4 1 9 2 5 3 8 4 6 5 7 6 2 7 1 8 3 9 10 10 11 11 12 12
REMARK H PARENT
REMARK Flexibility Score: inf
ROOT
ATOM      1  C   UNL     1      17.099   9.397 -21.172  1.00  0.00     0.006 A 
ATOM      2  C   UNL     1      18.147   9.658 -20.247  1.00  0.00     0.006 A 
ATOM      3  C   UNL     1      16.952  10.235 -22.295  1.00  0.00     0.010 A 
ATOM      4  C   UNL     1      19.048  10.707 -20.510  1.00  0.00     0.010 A 
ATOM      5  C   UNL     1      17.844  11.284 -22.524  1.00  0.00     0.001 A 
ATOM      6  C   UNL     1      18.896  11.511 -21.640  1.00  0.00     0.001 A 
ENDROOT
BRANCH   1   7
ATOM      7  C   UNL     1      16.195   8.231 -21.048  1.00  0.00     0.072 C 
ATOM      8  O   UNL     1      16.011   7.462 -22.031  1.00  0.00    -0.545 OA
ATOM      9  O   UNL     1      15.589   7.929 -19.834  1.00  0.00    -0.545 OA
ENDBRANCH   1   7
BRANCH   2  10
ATOM     10  C   UNL     1      18.289   8.916 -18.973  1.00  0.00     0.072 C 
ATOM     11  O   UNL     1      19.129   7.984 -18.873  1.00  0.00    -0.545 OA
ATOM     12  O   UNL     1      17.548   9.280 -17.855  1.00  0.00    -0.545 OA
ENDBRANCH   2  10
TORSDOF 2
ENDMDL
MODEL 5
REMARK VINA RESULT:    -4.344      9.035      9.727
REMARK INTER + INTRA:          -5.034
REMARK INTER:                  -5.151
REMARK INTRA:                   0.117
REMARK UNBOUND:                -0.183
REMARK SMILES O=C([O-])c1ccccc1C(=O)[O-]
REMARK SMILES IDX 4 1 9 2 5 3 8 4 6 5 7 6 2 7 1 8 3 9 10 10 11 11 12 12
REMARK H PARENT
REMARK Flexibility Score: inf
ROOT
ATOM      1  C   UNL     1       9.070  14.426 -19.282  1.00  0.00     0.006 A 
ATOM      2  C   UNL     1       9.515  13.094 -19.060  1.00  0.00     0.006 A 
ATOM      3  C   UNL     1       9.065  15.335 -18.207  1.00  0.00     0.010 A 
ATOM      4  C   UNL     1       9.998  12.737 -17.787  1.00  0.00     0.010 A 
ATOM      5  C   UNL     1       9.529  14.952 -16.946  1.00  0.00     0.001 A 
ATOM      6  C   UNL     1      10.004  13.660 -16.741  1.00  0.00     0.001 A 
ENDROOT
BRANCH   1   7
ATOM      7  C   UNL     1       8.680  14.925 -20.620  1.00  0.00     0.072 C 
ATOM      8  O   UNL     1       9.520  14.943 -21.561  1.00  0.00    -0.545 OA
ATOM      9  O   UNL     1       7.373  15.320 -20.878  1.00  0.00    -0.545 OA
ENDBRANCH   1   7
BRANCH   2  10
ATOM     10  C   UNL     1       9.423  12.039 -20.095  1.00  0.00     0.072 C 
ATOM     11  O   UNL     1      10.386  11.249 -20.282  1.00  0.00    -0.545 OA
ATOM     12  O   UNL     1       8.254  11.863 -20.825  1.00  0.00    -0.545 OA
ENDBRANCH   2  10
TORSDOF 2
ENDMDL
MODEL 6
REMARK VINA RESULT:    -4.238      8.817      9.716
REMARK INTER + INTRA:          -4.917
REMARK INTER:                  -5.813
REMARK INTRA:                   0.897
REMARK UNBOUND:                -0.183
REMARK SMILES O=C([O-])c1ccccc1C(=O)[O-]
REMARK SMILES IDX 4 1 9 2 5 3 8 4 6 5 7 6 2 7 1 8 3 9 10 10 11 11 12 12
REMARK H PARENT
REMARK Flexibility Score: inf
ROOT
ATOM      1  C   UNL     1       9.641  13.760 -18.343  1.00  0.00     0.006 A 
ATOM      2  C   UNL     1       9.126  13.620 -19.661  1.00  0.00     0.006 A 
ATOM      3  C   UNL     1       9.611  15.026 -17.727  1.00  0.00     0.010 A 
ATOM      4  C   UNL     1       8.542  14.736 -20.291  1.00  0.00     0.010 A 
ATOM      5  C   UNL     1       9.047  16.124 -18.379  1.00  0.00     0.001 A 
ATOM      6  C   UNL     1       8.504  15.976 -19.653  1.00  0.00     0.001 A 
ENDROOT
BRANCH   1   7
ATOM      7  C   UNL     1      10.142  12.611 -17.556  1.00  0.00     0.072 C 
ATOM      8  O   UNL     1       9.969  12.573 -16.307  1.00  0.00    -0.545 OA
ATOM      9  O   UNL     1      10.752  11.532 -18.184  1.00  0.00    -0.545 OA
ENDBRANCH   1   7
BRANCH   2  10
ATOM     10  C   UNL     1       9.243  12.363 -20.434  1.00  0.00     0.072 C 
ATOM     11  O   UNL     1      10.375  11.932 -20.777  1.00  0.00    -0.545 OA
ATOM     12  O   UNL     1       8.115  11.607 -20.735  1.00  0.00    -0.545 OA
ENDBRANCH   2  10
TORSDOF 2
ENDMDL
MODEL 7
REMARK VINA RESULT:    -4.220     15.588     16.628
REMARK INTER + INTRA:          -4.896
REMARK INTER:                  -4.762
REMARK INTRA:                  -0.134
REMARK UNBOUND:                -0.183
REMARK SMILES O=C([O-])c1ccccc1C(=O)[O-]
REMARK SMILES IDX 4 1 9 2 5 3 8 4 6 5 7 6 2 7 1 8 3 9 10 10 11 11 12 12
REMARK H PARENT
REMARK Flexibility Score: inf
ROOT
ATOM      1  C   UNL     1       2.118   8.904 -14.804  1.00  0.00     0.006 A 
ATOM      2  C   UNL     1       1.827  10.272 -14.551  1.00  0.00     0.006 A 
ATOM      3  C   UNL     1       1.358   7.910 -14.158  1.00  0.00     0.010 A 
ATOM      4  C   UNL     1       0.745  10.597 -13.710  1.00  0.00     0.010 A 
ATOM      5  C   UNL     1       0.304   8.256 -13.311  1.00  0.00     0.001 A 
ATOM      6  C   UNL     1      -0.008   9.596 -13.097  1.00  0.00     0.001 A 
ENDROOT
BRANCH   1   7
ATOM      7  C   UNL     1       3.144   8.473 -15.782  1.00  0.00     0.072 C 
ATOM      8  O   UNL     1       2.797   7.987 -16.892  1.00  0.00    -0.545 OA
ATOM      9  O   UNL     1       4.496   8.658 -15.519  1.00  0.00    -0.545 OA
ENDBRANCH   1   7
BRANCH   2  10
ATOM     10  C   UNL     1       2.661  11.377 -15.076  1.00  0.00     0.072 C 
ATOM     11  O   UNL     1       2.275  12.044 -16.072  1.00  0.00    -0.545 OA
ATOM     12  O   UNL     1       3.845  11.735 -14.442  1.00  0.00    -0.545 OA
ENDBRANCH   2  10
TORSDOF 2
ENDMDL
MODEL 8
REMARK VINA RESULT:    -4.216     15.588     16.477
REMARK INTER + INTRA:          -4.892
REMARK INTER:                  -4.767
REMARK INTRA:                  -0.125
REMARK UNBOUND:                -0.183
REMARK SMILES O=C([O-])c1ccccc1C(=O)[O-]
REMARK SMILES IDX 4 1 9 2 5 3 8 4 6 5 7 6 2 7 1 8 3 9 10 10 11 11 12 12
REMARK H PARENT
REMARK Flexibility Score: inf
ROOT
ATOM      1  C   UNL     1       1.821  10.242 -14.560  1.00  0.00     0.006 A 
ATOM      2  C   UNL     1       2.112   8.875 -14.820  1.00  0.00     0.006 A 
ATOM      3  C   UNL     1       0.747  10.564 -13.708  1.00  0.00     0.010 A 
ATOM      4  C   UNL     1       1.360   7.879 -14.169  1.00  0.00     0.010 A 
ATOM      5  C   UNL     1       0.001   9.559 -13.090  1.00  0.00     0.001 A 
ATOM      6  C   UNL     1       0.314   8.221 -13.312  1.00  0.00     0.001 A 
ENDROOT
BRANCH   1   7
ATOM      7  C   UNL     1       2.649  11.350 -15.089  1.00  0.00     0.072 C 
ATOM      8  O   UNL     1       2.266  12.004 -16.096  1.00  0.00    -0.545 OA
ATOM      9  O   UNL     1       3.824  11.726 -14.449  1.00  0.00    -0.545 OA
ENDBRANCH   1   7
BRANCH   2  10
ATOM     10  C   UNL     1       3.130   8.450 -15.808  1.00  0.00     0.072 C 
ATOM     11  O   UNL     1       2.775   7.946 -16.906  1.00  0.00    -0.545 OA
ATOM     12  O   UNL     1       4.483   8.659 -15.568  1.00  0.00    -0.545 OA
ENDBRANCH   2  10
TORSDOF 2
ENDMDL
MODEL 9
REMARK VINA RESULT:    -4.207      8.853      9.520
REMARK INTER + INTRA:          -4.882
REMARK INTER:                  -5.771
REMARK INTRA:                   0.889
REMARK UNBOUND:                -0.183
REMARK SMILES O=C([O-])c1ccccc1C(=O)[O-]
REMARK SMILES IDX 4 1 9 2 5 3 8 4 6 5 7 6 2 7 1 8 3 9 10 10 11 11 12 12
REMARK H PARENT
REMARK Flexibility Score: inf
ROOT
ATOM      1  C   UNL     1       9.137  13.735 -19.599  1.00  0.00     0.006 A 
ATOM      2  C   UNL     1       9.653  13.768 -18.274  1.00  0.00     0.006 A 
ATOM      3  C   UNL     1       8.550  14.898 -20.135  1.00  0.00     0.010 A 
ATOM      4  C   UNL     1       9.621  14.979 -17.557  1.00  0.00     0.010 A 
ATOM      5  C   UNL     1       8.510  16.082 -19.397  1.00  0.00     0.001 A 
ATOM      6  C   UNL     1       9.055  16.125 -18.116  1.00  0.00     0.001 A 
ENDROOT
BRANCH   1   7
ATOM      7  C   UNL     1       9.257  12.547 -20.473  1.00  0.00     0.072 C 
ATOM      8  O   UNL     1      10.391  12.157 -20.863  1.00  0.00    -0.545 OA
ATOM      9  O   UNL     1       8.134  11.807 -20.825  1.00  0.00    -0.545 OA
ENDBRANCH   1   7
BRANCH   2  10
ATOM     10  C   UNL     1      10.159  12.560 -17.584  1.00  0.00     0.072 C 
ATOM     11  O   UNL     1      10.004  12.428 -16.342  1.00  0.00    -0.545 OA
ATOM     12  O   UNL     1      10.749  11.527 -18.304  1.00  0.00    -0.545 OA
ENDBRANCH   2  10
TORSDOF 2
ENDMDL
