MODEL 1
REMARK VINA RESULT:    -1.918      0.000      0.000
REMARK INTER + INTRA:          -1.918
REMARK INTER:                  -1.918
REMARK INTRA:                   0.000
REMARK UNBOUND:                 0.000
REMARK SMILES CC(=O)[O-]
REMARK SMILES IDX 1 1 2 2 3 3 4 4
REMARK H PARENT
REMARK Flexibility Score: inf
ROOT
ATOM      1  C   UNL     1       4.157   7.677  27.628  1.00  0.00     0.063 C 
ATOM      2  C   UNL     1       4.551   9.068  27.992  1.00  0.00     0.038 C 
ATOM      3  O   UNL     1       4.774   9.367  29.195  1.00  0.00    -0.550 OA
ATOM      4  O   UNL     1       4.622  10.051  27.013  1.00  0.00    -0.550 OA
ENDROOT
TORSDOF 0
ENDMDL
MODEL 2
REMARK VINA RESULT:    -1.903      0.130      1.625
REMARK INTER + INTRA:          -1.903
REMARK INTER:                  -1.903
REMARK INTRA:                   0.000
REMARK UNBOUND:                 0.000
REMARK SMILES CC(=O)[O-]
REMARK SMILES IDX 1 1 2 2 3 3 4 4
REMARK H PARENT
REMARK Flexibility Score: inf
ROOT
ATOM      1  C   UNL     1       4.065   7.789  27.479  1.00  0.00     0.063 C 
ATOM      2  C   UNL     1       4.490   9.155  27.900  1.00  0.00     0.038 C 
ATOM      3  O   UNL     1       4.624  10.066  27.042  1.00  0.00    -0.550 OA
ATOM      4  O   UNL     1       4.792   9.411  29.231  1.00  0.00    -0.550 OA
ENDROOT
TORSDOF 0
ENDMDL
MODEL 3
REMARK VINA RESULT:    -1.842     12.053     12.514
REMARK INTER + INTRA:          -1.842
REMARK INTER:                  -1.842
REMARK INTRA:                   0.000
REMARK UNBOUND:                 0.000
REMARK SMILES CC(=O)[O-]
REMARK SMILES IDX 1 1 2 2 3 3 4 4
REMARK H PARENT
REMARK Flexibility Score: inf
ROOT
ATOM      1  C   UNL     1      -1.871  10.110  37.542  1.00  0.00     0.063 C 
ATOM      2  C   UNL     1      -1.497   9.392  38.794  1.00  0.00     0.038 C 
ATOM      3  O   UNL     1      -0.388   9.621  39.345  1.00  0.00    -0.550 OA
ATOM      4  O   UNL     1      -2.347   8.432  39.327  1.00  0.00    -0.550 OA
ENDROOT
TORSDOF 0
ENDMDL
MODEL 4
REMARK VINA RESULT:    -1.840     12.033     12.438
REMARK INTER + INTRA:          -1.840
REMARK INTER:                  -1.840
REMARK INTRA:                   0.000
REMARK UNBOUND:                 0.000
REMARK SMILES CC(=O)[O-]
REMARK SMILES IDX 1 1 2 2 3 3 4 4
REMARK H PARENT
REMARK Flexibility Score: inf
ROOT
ATOM      1  C   UNL     1      -1.866  10.125  37.503  1.00  0.00     0.063 C 
ATOM      2  C   UNL     1      -1.478   9.369  38.727  1.00  0.00     0.038 C 
ATOM      3  O   UNL     1      -2.250   8.493  39.200  1.00  0.00    -0.550 OA
ATOM      4  O   UNL     1      -0.289   9.664  39.380  1.00  0.00    -0.550 OA
ENDROOT
TORSDOF 0
ENDMDL
MODEL 5
REMARK VINA RESULT:    -1.837     12.191     12.457
REMARK INTER + INTRA:          -1.837
REMARK INTER:                  -1.837
REMARK INTRA:                   0.000
REMARK UNBOUND:                 0.000
REMARK SMILES CC(=O)[O-]
REMARK SMILES IDX 1 1 2 2 3 3 4 4
REMARK H PARENT
REMARK Flexibility Score: inf
ROOT
ATOM      1  C   UNL     1      -2.210   8.240  39.419  1.00  0.00     0.063 C 
ATOM      2  C   UNL     1      -1.529   9.396  38.768  1.00  0.00     0.038 C 
ATOM      3  O   UNL     1      -0.411   9.790  39.192  1.00  0.00    -0.550 OA
ATOM      4  O   UNL     1      -2.150  10.074  37.728  1.00  0.00    -0.550 OA
ENDROOT
TORSDOF 0
ENDMDL
MODEL 6
REMARK VINA RESULT:    -1.819     12.167     12.441
REMARK INTER + INTRA:          -1.819
REMARK INTER:                  -1.819
REMARK INTRA:                   0.000
REMARK UNBOUND:                 0.000
REMARK SMILES CC(=O)[O-]
REMARK SMILES IDX 1 1 2 2 3 3 4 4
REMARK H PARENT
REMARK Flexibility Score: inf
ROOT
ATOM      1  C   UNL     1      -2.179   8.249  39.389  1.00  0.00     0.063 C 
ATOM      2  C   UNL     1      -1.534   9.396  38.688  1.00  0.00     0.038 C 
ATOM      3  O   UNL     1      -2.196  10.092  37.874  1.00  0.00    -0.550 OA
ATOM      4  O   UNL     1      -0.187   9.666  38.890  1.00  0.00    -0.550 OA
ENDROOT
TORSDOF 0
ENDMDL
MODEL 7
REMARK VINA RESULT:    -1.794     13.728     14.161
REMARK INTER + INTRA:          -1.794
REMARK INTER:                  -1.794
REMARK INTRA:                   0.000
REMARK UNBOUND:                 0.000
REMARK SMILES CC(=O)[O-]
REMARK SMILES IDX 1 1 2 2 3 3 4 4
REMARK H PARENT
REMARK Flexibility Score: inf
ROOT
ATOM      1  C   UNL     1      -2.914   6.131  39.567  1.00  0.00     0.063 C 
ATOM      2  C   UNL     1      -2.588   7.473  40.127  1.00  0.00     0.038 C 
ATOM      3  O   UNL     1      -2.614   7.661  41.372  1.00  0.00    -0.550 OA
ATOM      4  O   UNL     1      -2.306   8.533  39.276  1.00  0.00    -0.550 OA
ENDROOT
TORSDOF 0
ENDMDL
MODEL 8
REMARK VINA RESULT:    -1.716     10.192     10.635
REMARK INTER + INTRA:          -1.716
REMARK INTER:                  -1.716
REMARK INTRA:                   0.000
REMARK UNBOUND:                 0.000
REMARK SMILES CC(=O)[O-]
REMARK SMILES IDX 1 1 2 2 3 3 4 4
REMARK H PARENT
REMARK Flexibility Score: inf
ROOT
ATOM      1  C   UNL     1      -1.898  10.095  37.817  1.00  0.00     0.063 C 
ATOM      2  C   UNL     1      -1.308   9.342  36.673  1.00  0.00     0.038 C 
ATOM      3  O   UNL     1      -0.775   8.218  36.865  1.00  0.00    -0.550 OA
ATOM      4  O   UNL     1      -1.297   9.902  35.403  1.00  0.00    -0.550 OA
ENDROOT
TORSDOF 0
ENDMDL
MODEL 9
REMARK VINA RESULT:    -1.654      2.202      2.359
REMARK INTER + INTRA:          -1.654
REMARK INTER:                  -1.654
REMARK INTRA:                   0.000
REMARK UNBOUND:                 0.000
REMARK SMILES CC(=O)[O-]
REMARK SMILES IDX 1 1 2 2 3 3 4 4
REMARK H PARENT
REMARK Flexibility Score: inf
ROOT
ATOM      1  C   UNL     1       4.462   9.870  27.372  1.00  0.00     0.063 C 
ATOM      2  C   UNL     1       2.984  10.063  27.313  1.00  0.00     0.038 C 
ATOM      3  O   UNL     1       2.313  10.125  28.376  1.00  0.00    -0.550 OA
ATOM      4  O   UNL     1       2.339  10.122  26.085  1.00  0.00    -0.550 OA
ENDROOT
TORSDOF 0
ENDMDL
