MODEL 1
REMARK VINA RESULT:    -4.427      0.000      0.000
REMARK INTER + INTRA:          -6.076
REMARK INTER:                  -6.239
REMARK INTRA:                   0.163
REMARK UNBOUND:                 0.163
REMARK SMILES CC1=CCC(=C(C)C)C(=O)CC(C)=CCC1
REMARK SMILES IDX 12 1 14 2 13 3 15 4 16 5 2 6 1 7 3 8 11 10 9 11 10 12 5 13
REMARK SMILES IDX 6 14 7 15 8 16 4 17
REMARK H PARENT
REMARK Flexibility Score: 60.00
ROOT
ATOM      1  C   UNL     1      24.861  28.652  39.982  1.00  0.00    -0.070 C 
ATOM      2  C   UNL     1      25.604  29.778  40.073  1.00  0.00    -0.027 C 
ATOM      3  C   UNL     1      24.838  27.723  41.169  1.00  0.00     0.039 C 
ENDROOT
BRANCH   2   4
ATOM      4  C   UNL     1      25.679  30.875  39.034  1.00  0.00     0.032 C 
BRANCH   4   5
ATOM      5  C   UNL     1      24.500  31.871  39.058  1.00  0.00     0.034 C 
BRANCH   5   6
ATOM      6  C   UNL     1      23.840  32.048  37.703  1.00  0.00    -0.077 C 
ATOM      7  C   UNL     1      24.634  32.737  36.622  1.00  0.00     0.039 C 
ATOM      8  C   UNL     1      22.615  31.567  37.380  1.00  0.00    -0.023 CG0
ATOM      9  G   UNL     1      21.636  30.865  38.301  1.00  0.00     0.000 G0
ENDBRANCH   5   6
ENDBRANCH   4   5
ENDBRANCH   2   4
BRANCH   1  10
ATOM     10  C   UNL     1      23.986  28.330  38.787  1.00  0.00     0.111 C 
BRANCH  10  11
ATOM     11  C   UNL     1      22.532  28.595  39.078  1.00  0.00     0.163 C 
ATOM     12  O   UNL     1      22.065  28.202  40.181  1.00  0.00    -0.294 OA
BRANCH  11  13
ATOM     13  C   UNL     1      21.653  29.353  38.138  1.00  0.00    -0.002 C 
ATOM     14  C   UNL     1      20.857  28.696  37.241  1.00  0.00    -0.069 C 
ATOM     15  C   UNL     1      20.954  27.197  37.057  1.00  0.00     0.039 C 
ATOM     16  C   UNL     1      19.842  29.425  36.388  1.00  0.00     0.039 C 
BRANCH  13  17
ATOM     17  C   UNL     1      21.612  30.865  38.290  1.00  0.00     0.066 CG0
ATOM     18  G   UNL     1      22.602  31.563  37.379  1.00  0.00     0.000 G0
ENDBRANCH  13  17
ENDBRANCH  11  13
ENDBRANCH  10  11
ENDBRANCH   1  10
TORSDOF 0
ENDMDL
MODEL 2
REMARK VINA RESULT:    -4.271      2.452      5.364
REMARK INTER + INTRA:          -5.855
REMARK INTER:                  -6.104
REMARK INTRA:                   0.249
REMARK UNBOUND:                 0.163
REMARK SMILES CC1=CCC(=C(C)C)C(=O)CC(C)=CCC1
REMARK SMILES IDX 12 1 14 2 13 3 15 4 16 5 2 6 1 7 3 8 11 10 9 11 10 12 5 13
REMARK SMILES IDX 6 14 7 15 8 16 4 17
REMARK H PARENT
REMARK Flexibility Score: 60.00
ROOT
ATOM      1  C   UNL     1      18.732  28.954  36.002  1.00  0.00    -0.070 C 
ATOM      2  C   UNL     1      19.516  27.852  36.029  1.00  0.00    -0.027 C 
ATOM      3  C   UNL     1      17.615  29.000  34.991  1.00  0.00     0.039 C 
ENDROOT
BRANCH   2   4
ATOM      4  C   UNL     1      20.619  27.577  37.027  1.00  0.00     0.032 C 
BRANCH   4   5
ATOM      5  C   UNL     1      21.923  28.366  36.785  1.00  0.00     0.034 C 
BRANCH   5   6
ATOM      6  C   UNL     1      22.362  29.178  37.989  1.00  0.00    -0.077 C 
ATOM      7  C   UNL     1      22.795  28.425  39.222  1.00  0.00     0.039 C 
ATOM      8  C   UNL     1      22.457  30.530  38.007  1.00  0.00    -0.023 CG0
ATOM      9  G   UNL     1      22.062  31.488  36.901  1.00  0.00     0.000 G0
ENDBRANCH   5   6
ENDBRANCH   4   5
ENDBRANCH   2   4
BRANCH   1  10
ATOM     10  C   UNL     1      18.866  30.092  36.993  1.00  0.00     0.111 C 
BRANCH  10  11
ATOM     11  C   UNL     1      19.544  31.288  36.377  1.00  0.00     0.163 C 
ATOM     12  O   UNL     1      19.128  31.698  35.260  1.00  0.00    -0.294 OA
BRANCH  11  13
ATOM     13  C   UNL     1      20.640  32.031  37.069  1.00  0.00    -0.002 C 
ATOM     14  C   UNL     1      20.358  33.089  37.888  1.00  0.00    -0.069 C 
ATOM     15  C   UNL     1      18.954  33.642  37.999  1.00  0.00     0.039 C 
ATOM     16  C   UNL     1      21.426  33.760  38.724  1.00  0.00     0.039 C 
BRANCH  13  17
ATOM     17  C   UNL     1      22.055  31.503  36.898  1.00  0.00     0.066 CG0
ATOM     18  G   UNL     1      22.445  30.536  37.998  1.00  0.00     0.000 G0
ENDBRANCH  13  17
ENDBRANCH  11  13
ENDBRANCH  10  11
ENDBRANCH   1  10
TORSDOF 0
ENDMDL
MODEL 3
REMARK VINA RESULT:    -4.264      1.609      4.390
REMARK INTER + INTRA:          -5.846
REMARK INTER:                  -6.084
REMARK INTRA:                   0.238
REMARK UNBOUND:                 0.163
REMARK SMILES CC1=CCC(=C(C)C)C(=O)CC(C)=CCC1
REMARK SMILES IDX 12 1 14 2 13 3 15 4 16 5 2 6 1 7 3 8 11 10 9 11 10 12 5 13
REMARK SMILES IDX 6 14 7 15 8 16 4 17
REMARK H PARENT
REMARK Flexibility Score: 60.00
ROOT
ATOM      1  C   UNL     1      20.675  28.023  36.793  1.00  0.00    -0.070 C 
ATOM      2  C   UNL     1      19.490  28.451  36.300  1.00  0.00    -0.027 C 
ATOM      3  C   UNL     1      20.788  26.577  37.202  1.00  0.00     0.039 C 
ENDROOT
BRANCH   2   4
ATOM      4  C   UNL     1      19.208  29.831  35.749  1.00  0.00     0.032 C 
BRANCH   4   5
ATOM      5  C   UNL     1      19.089  30.942  36.814  1.00  0.00     0.034 C 
BRANCH   5   6
ATOM      6  C   UNL     1      20.023  32.112  36.563  1.00  0.00    -0.077 C 
ATOM      7  C   UNL     1      19.799  32.932  35.317  1.00  0.00     0.039 C 
ATOM      8  C   UNL     1      20.997  32.510  37.417  1.00  0.00    -0.023 CG0
ATOM      9  G   UNL     1      21.412  31.834  38.708  1.00  0.00     0.000 G0
ENDBRANCH   5   6
ENDBRANCH   4   5
ENDBRANCH   2   4
BRANCH   1  10
ATOM     10  C   UNL     1      21.909  28.900  36.864  1.00  0.00     0.111 C 
BRANCH  10  11
ATOM     11  C   UNL     1      22.143  29.416  38.259  1.00  0.00     0.163 C 
ATOM     12  O   UNL     1      22.054  28.601  39.217  1.00  0.00    -0.294 OA
BRANCH  11  13
ATOM     13  C   UNL     1      22.534  30.831  38.534  1.00  0.00    -0.002 C 
ATOM     14  C   UNL     1      23.848  31.208  38.525  1.00  0.00    -0.069 C 
ATOM     15  C   UNL     1      24.956  30.186  38.394  1.00  0.00     0.039 C 
ATOM     16  C   UNL     1      24.266  32.657  38.642  1.00  0.00     0.039 C 
BRANCH  13  17
ATOM     17  C   UNL     1      21.411  31.838  38.727  1.00  0.00     0.066 CG0
ATOM     18  G   UNL     1      21.003  32.501  37.426  1.00  0.00     0.000 G0
ENDBRANCH  13  17
ENDBRANCH  11  13
ENDBRANCH  10  11
ENDBRANCH   1  10
TORSDOF 0
ENDMDL
MODEL 4
REMARK VINA RESULT:    -4.051      1.890      2.487
REMARK INTER + INTRA:          -5.545
REMARK INTER:                  -5.936
REMARK INTRA:                   0.391
REMARK UNBOUND:                 0.163
REMARK SMILES CC1=CCC(=C(C)C)C(=O)CC(C)=CCC1
REMARK SMILES IDX 12 1 14 2 13 3 15 4 16 5 2 6 1 7 3 8 11 10 9 11 10 12 5 13
REMARK SMILES IDX 6 14 7 15 8 16 4 17
REMARK H PARENT
REMARK Flexibility Score: 60.00
ROOT
ATOM      1  C   UNL     1      23.921  30.887  38.888  1.00  0.00    -0.070 C 
ATOM      2  C   UNL     1      23.536  32.184  38.895  1.00  0.00    -0.027 C 
ATOM      3  C   UNL     1      25.377  30.581  39.131  1.00  0.00     0.039 C 
ENDROOT
BRANCH   2   4
ATOM      4  C   UNL     1      22.115  32.685  38.769  1.00  0.00     0.032 C 
BRANCH   4   5
ATOM      5  C   UNL     1      21.845  33.562  37.528  1.00  0.00     0.034 C 
BRANCH   5   6
ATOM      6  C   UNL     1      22.351  32.942  36.238  1.00  0.00    -0.077 C 
ATOM      7  C   UNL     1      23.467  33.650  35.511  1.00  0.00     0.039 C 
ATOM      8  C   UNL     1      21.915  31.762  35.734  1.00  0.00    -0.023 CG0
ATOM      9  G   UNL     1      20.799  30.892  36.278  1.00  0.00     0.000 G0
ENDBRANCH   5   6
ENDBRANCH   4   5
ENDBRANCH   2   4
BRANCH   1  10
ATOM     10  C   UNL     1      22.949  29.734  38.741  1.00  0.00     0.111 C 
BRANCH  10  11
ATOM     11  C   UNL     1      22.671  29.423  37.294  1.00  0.00     0.163 C 
ATOM     12  O   UNL     1      23.629  29.030  36.576  1.00  0.00    -0.294 OA
BRANCH  11  13
ATOM     13  C   UNL     1      21.300  29.505  36.706  1.00  0.00    -0.002 C 
ATOM     14  C   UNL     1      20.498  28.398  36.646  1.00  0.00    -0.069 C 
ATOM     15  C   UNL     1      21.021  27.029  37.023  1.00  0.00     0.039 C 
ATOM     16  C   UNL     1      19.054  28.480  36.204  1.00  0.00     0.039 C 
BRANCH  13  17
ATOM     17  C   UNL     1      20.809  30.876  36.273  1.00  0.00     0.066 CG0
ATOM     18  G   UNL     1      21.929  31.745  35.736  1.00  0.00     0.000 G0
ENDBRANCH  13  17
ENDBRANCH  11  13
ENDBRANCH  10  11
ENDBRANCH   1  10
TORSDOF 0
ENDMDL
MODEL 5
REMARK VINA RESULT:    -3.945      1.832      4.266
REMARK INTER + INTRA:          -5.396
REMARK INTER:                  -5.583
REMARK INTRA:                   0.187
REMARK UNBOUND:                 0.163
REMARK SMILES CC1=CCC(=C(C)C)C(=O)CC(C)=CCC1
REMARK SMILES IDX 12 1 14 2 13 3 15 4 16 5 2 6 1 7 3 8 11 10 9 11 10 12 5 13
REMARK SMILES IDX 6 14 7 15 8 16 4 17
REMARK H PARENT
REMARK Flexibility Score: 60.00
ROOT
ATOM      1  C   UNL     1      20.561  29.534  37.586  1.00  0.00    -0.070 C 
ATOM      2  C   UNL     1      19.977  30.747  37.715  1.00  0.00    -0.027 C 
ATOM      3  C   UNL     1      20.002  28.587  36.556  1.00  0.00     0.039 C 
ENDROOT
BRANCH   2   4
ATOM      4  C   UNL     1      20.449  31.865  38.618  1.00  0.00     0.032 C 
BRANCH   4   5
ATOM      5  C   UNL     1      21.415  32.869  37.954  1.00  0.00     0.034 C 
BRANCH   5   6
ATOM      6  C   UNL     1      22.570  33.270  38.853  1.00  0.00    -0.077 C 
ATOM      7  C   UNL     1      22.296  34.282  39.937  1.00  0.00     0.039 C 
ATOM      8  C   UNL     1      23.811  32.729  38.790  1.00  0.00    -0.023 CG0
ATOM      9  G   UNL     1      24.318  31.718  37.781  1.00  0.00     0.000 G0
ENDBRANCH   5   6
ENDBRANCH   4   5
ENDBRANCH   2   4
BRANCH   1  10
ATOM     10  C   UNL     1      21.799  29.124  38.358  1.00  0.00     0.111 C 
BRANCH  10  11
ATOM     11  C   UNL     1      23.060  29.485  37.617  1.00  0.00     0.163 C 
ATOM     12  O   UNL     1      23.157  29.145  36.407  1.00  0.00    -0.294 OA
BRANCH  11  13
ATOM     13  C   UNL     1      24.158  30.279  38.246  1.00  0.00    -0.002 C 
ATOM     14  C   UNL     1      25.017  29.699  39.138  1.00  0.00    -0.069 C 
ATOM     15  C   UNL     1      24.794  28.288  39.638  1.00  0.00     0.039 C 
ATOM     16  C   UNL     1      26.231  30.428  39.669  1.00  0.00     0.039 C 
BRANCH  13  17
ATOM     17  C   UNL     1      24.333  31.715  37.781  1.00  0.00     0.066 CG0
ATOM     18  G   UNL     1      23.814  32.716  38.794  1.00  0.00     0.000 G0
ENDBRANCH  13  17
ENDBRANCH  11  13
ENDBRANCH  10  11
ENDBRANCH   1  10
TORSDOF 0
ENDMDL
MODEL 6
REMARK VINA RESULT:    -3.886      2.751      6.030
REMARK INTER + INTRA:          -5.313
REMARK INTER:                  -5.621
REMARK INTRA:                   0.308
REMARK UNBOUND:                 0.163
REMARK SMILES CC1=CCC(=C(C)C)C(=O)CC(C)=CCC1
REMARK SMILES IDX 12 1 14 2 13 3 15 4 16 5 2 6 1 7 3 8 11 10 9 11 10 12 5 13
REMARK SMILES IDX 6 14 7 15 8 16 4 17
REMARK H PARENT
REMARK Flexibility Score: 60.00
ROOT
ATOM      1  C   UNL     1      17.679  31.789  37.586  1.00  0.00    -0.070 C 
ATOM      2  C   UNL     1      17.236  30.632  37.042  1.00  0.00    -0.027 C 
ATOM      3  C   UNL     1      16.810  33.013  37.447  1.00  0.00     0.039 C 
ENDROOT
BRANCH   2   4
ATOM      4  C   UNL     1      17.913  29.285  37.159  1.00  0.00     0.032 C 
BRANCH   4   5
ATOM      5  C   UNL     1      18.916  28.965  36.030  1.00  0.00     0.034 C 
BRANCH   5   6
ATOM      6  C   UNL     1      20.295  28.592  36.545  1.00  0.00    -0.077 C 
ATOM      7  C   UNL     1      20.512  27.171  37.001  1.00  0.00     0.039 C 
ATOM      8  C   UNL     1      21.359  29.431  36.556  1.00  0.00    -0.023 CG0
ATOM      9  G   UNL     1      21.373  30.896  36.166  1.00  0.00     0.000 G0
ENDBRANCH   5   6
ENDBRANCH   4   5
ENDBRANCH   2   4
BRANCH   1  10
ATOM     10  C   UNL     1      18.953  31.889  38.401  1.00  0.00     0.111 C 
BRANCH  10  11
ATOM     11  C   UNL     1      20.059  32.550  37.622  1.00  0.00     0.163 C 
ATOM     12  O   UNL     1      19.897  33.747  37.259  1.00  0.00    -0.294 OA
BRANCH  11  13
ATOM     13  C   UNL     1      21.352  31.863  37.325  1.00  0.00    -0.002 C 
ATOM     14  C   UNL     1      22.436  32.029  38.141  1.00  0.00    -0.069 C 
ATOM     15  C   UNL     1      22.417  33.031  39.275  1.00  0.00     0.039 C 
ATOM     16  C   UNL     1      23.705  31.227  37.959  1.00  0.00     0.039 C 
BRANCH  13  17
ATOM     17  C   UNL     1      21.375  30.906  36.144  1.00  0.00     0.066 CG0
ATOM     18  G   UNL     1      21.367  29.454  36.579  1.00  0.00     0.000 G0
ENDBRANCH  13  17
ENDBRANCH  11  13
ENDBRANCH  10  11
ENDBRANCH   1  10
TORSDOF 0
ENDMDL
MODEL 7
REMARK VINA RESULT:    -3.817      1.772      4.334
REMARK INTER + INTRA:          -5.215
REMARK INTER:                  -5.314
REMARK INTRA:                   0.099
REMARK UNBOUND:                 0.163
REMARK SMILES CC1=CCC(=C(C)C)C(=O)CC(C)=CCC1
REMARK SMILES IDX 12 1 14 2 13 3 15 4 16 5 2 6 1 7 3 8 11 10 9 11 10 12 5 13
REMARK SMILES IDX 6 14 7 15 8 16 4 17
REMARK H PARENT
REMARK Flexibility Score: 60.00
ROOT
ATOM      1  C   UNL     1      19.617  29.972  36.520  1.00  0.00    -0.070 C 
ATOM      2  C   UNL     1      19.738  31.111  35.800  1.00  0.00    -0.027 C 
ATOM      3  C   UNL     1      18.609  28.950  36.060  1.00  0.00     0.039 C 
ENDROOT
BRANCH   2   4
ATOM      4  C   UNL     1      20.753  32.206  36.042  1.00  0.00     0.032 C 
BRANCH   4   5
ATOM      5  C   UNL     1      22.110  31.999  35.338  1.00  0.00     0.034 C 
BRANCH   5   6
ATOM      6  C   UNL     1      23.299  32.319  36.226  1.00  0.00    -0.077 C 
ATOM      7  C   UNL     1      23.588  33.771  36.514  1.00  0.00     0.039 C 
ATOM      8  C   UNL     1      24.073  31.386  36.833  1.00  0.00    -0.023 CG0
ATOM      9  G   UNL     1      23.981  29.881  36.678  1.00  0.00     0.000 G0
ENDBRANCH   5   6
ENDBRANCH   4   5
ENDBRANCH   2   4
BRANCH   1  10
ATOM     10  C   UNL     1      20.505  29.639  37.702  1.00  0.00     0.111 C 
BRANCH  10  11
ATOM     11  C   UNL     1      21.712  28.843  37.282  1.00  0.00     0.163 C 
ATOM     12  O   UNL     1      21.540  27.872  36.496  1.00  0.00    -0.294 OA
BRANCH  11  13
ATOM     13  C   UNL     1      23.097  29.200  37.713  1.00  0.00    -0.002 C 
ATOM     14  C   UNL     1      23.553  28.856  38.955  1.00  0.00    -0.069 C 
ATOM     15  C   UNL     1      22.630  28.248  39.989  1.00  0.00     0.039 C 
ATOM     16  C   UNL     1      24.996  29.062  39.363  1.00  0.00     0.039 C 
BRANCH  13  17
ATOM     17  C   UNL     1      23.995  29.868  36.685  1.00  0.00     0.066 CG0
ATOM     18  G   UNL     1      24.048  31.373  36.858  1.00  0.00     0.000 G0
ENDBRANCH  13  17
ENDBRANCH  11  13
ENDBRANCH  10  11
ENDBRANCH   1  10
TORSDOF 0
ENDMDL
MODEL 8
REMARK VINA RESULT:    -3.732      2.060      4.236
REMARK INTER + INTRA:          -5.096
REMARK INTER:                  -5.367
REMARK INTRA:                   0.271
REMARK UNBOUND:                 0.163
REMARK SMILES CC1=CCC(=C(C)C)C(=O)CC(C)=CCC1
REMARK SMILES IDX 12 1 14 2 13 3 15 4 16 5 2 6 1 7 3 8 11 10 9 11 10 12 5 13
REMARK SMILES IDX 6 14 7 15 8 16 4 17
REMARK H PARENT
REMARK Flexibility Score: 60.00
ROOT
ATOM      1  C   UNL     1      23.782  28.636  39.974  1.00  0.00    -0.070 C 
ATOM      2  C   UNL     1      22.528  28.357  39.552  1.00  0.00    -0.027 C 
ATOM      3  C   UNL     1      24.431  27.677  40.940  1.00  0.00     0.039 C 
ENDROOT
BRANCH   2   4
ATOM      4  C   UNL     1      21.750  29.139  38.516  1.00  0.00     0.032 C 
BRANCH   4   5
ATOM      5  C   UNL     1      22.210  28.921  37.060  1.00  0.00     0.034 C 
BRANCH   5   6
ATOM      6  C   UNL     1      22.318  30.212  36.268  1.00  0.00    -0.077 C 
ATOM      7  C   UNL     1      21.064  31.032  36.092  1.00  0.00     0.039 C 
ATOM      8  C   UNL     1      23.476  30.710  35.771  1.00  0.00    -0.023 CG0
ATOM      9  G   UNL     1      24.844  30.057  35.810  1.00  0.00     0.000 G0
ENDBRANCH   5   6
ENDBRANCH   4   5
ENDBRANCH   2   4
BRANCH   1  10
ATOM     10  C   UNL     1      24.592  29.806  39.455  1.00  0.00     0.111 C 
BRANCH  10  11
ATOM     11  C   UNL     1      25.396  29.429  38.239  1.00  0.00     0.163 C 
ATOM     12  O   UNL     1      25.857  28.257  38.171  1.00  0.00    -0.294 OA
BRANCH  11  13
ATOM     13  C   UNL     1      25.609  30.367  37.096  1.00  0.00    -0.002 C 
ATOM     14  C   UNL     1      26.511  31.391  37.191  1.00  0.00    -0.069 C 
ATOM     15  C   UNL     1      27.204  31.707  38.498  1.00  0.00     0.039 C 
ATOM     16  C   UNL     1      26.864  32.258  36.003  1.00  0.00     0.039 C 
BRANCH  13  17
ATOM     17  C   UNL     1      24.858  30.075  35.807  1.00  0.00     0.066 CG0
ATOM     18  G   UNL     1      23.483  30.714  35.785  1.00  0.00     0.000 G0
ENDBRANCH  13  17
ENDBRANCH  11  13
ENDBRANCH  10  11
ENDBRANCH   1  10
TORSDOF 0
ENDMDL
MODEL 9
REMARK VINA RESULT:    -3.562      2.125      3.833
REMARK INTER + INTRA:          -4.857
REMARK INTER:                  -5.085
REMARK INTRA:                   0.228
REMARK UNBOUND:                 0.163
REMARK SMILES CC1=CCC(=C(C)C)C(=O)CC(C)=CCC1
REMARK SMILES IDX 12 1 14 2 13 3 15 4 16 5 2 6 1 7 3 8 11 10 9 11 10 12 5 13
REMARK SMILES IDX 6 14 7 15 8 16 4 17
REMARK H PARENT
REMARK Flexibility Score: 60.00
ROOT
ATOM      1  C   UNL     1      21.379  28.468  36.918  1.00  0.00    -0.070 C 
ATOM      2  C   UNL     1      22.270  28.019  37.831  1.00  0.00    -0.027 C 
ATOM      3  C   UNL     1      20.178  27.608  36.620  1.00  0.00     0.039 C 
ENDROOT
BRANCH   2   4
ATOM      4  C   UNL     1      23.479  28.776  38.334  1.00  0.00     0.032 C 
BRANCH   4   5
ATOM      5  C   UNL     1      23.159  29.955  39.277  1.00  0.00     0.034 C 
BRANCH   5   6
ATOM      6  C   UNL     1      23.806  31.258  38.843  1.00  0.00    -0.077 C 
ATOM      7  C   UNL     1      25.312  31.303  38.772  1.00  0.00     0.039 C 
ATOM      8  C   UNL     1      23.120  32.359  38.450  1.00  0.00    -0.023 CG0
ATOM      9  G   UNL     1      21.616  32.550  38.457  1.00  0.00     0.000 G0
ENDBRANCH   5   6
ENDBRANCH   4   5
ENDBRANCH   2   4
BRANCH   1  10
ATOM     10  C   UNL     1      21.485  29.827  36.254  1.00  0.00     0.111 C 
BRANCH  10  11
ATOM     11  C   UNL     1      20.555  30.828  36.888  1.00  0.00     0.163 C 
ATOM     12  O   UNL     1      19.421  30.428  37.267  1.00  0.00    -0.294 OA
BRANCH  11  13
ATOM     13  C   UNL     1      20.953  32.246  37.134  1.00  0.00    -0.002 C 
ATOM     14  C   UNL     1      20.655  33.224  36.224  1.00  0.00    -0.069 C 
ATOM     15  C   UNL     1      20.059  32.884  34.876  1.00  0.00     0.039 C 
ATOM     16  C   UNL     1      20.901  34.688  36.514  1.00  0.00     0.039 C 
BRANCH  13  17
ATOM     17  C   UNL     1      21.608  32.564  38.468  1.00  0.00     0.066 CG0
ATOM     18  G   UNL     1      23.109  32.351  38.437  1.00  0.00     0.000 G0
ENDBRANCH  13  17
ENDBRANCH  11  13
ENDBRANCH  10  11
ENDBRANCH   1  10
TORSDOF 0
ENDMDL
