MODEL 1
REMARK VINA RESULT:    -6.114      0.000      0.000
REMARK INTER + INTRA:          -6.292
REMARK INTER:                  -6.292
REMARK INTRA:                   0.000
REMARK UNBOUND:                 0.000
REMARK SMILES O=c1ccc2cc(O)ccc2o1
REMARK SMILES IDX 9 1 10 2 11 3 5 4 4 5 3 6 2 7 1 8 12 9 6 10 7 11 8 12
REMARK H PARENT 8 13
REMARK Flexibility Score: inf
ROOT
ATOM      1  C   UNL     1     -32.138   9.351 -32.439  1.00  0.00     0.050 A 
ATOM      2  C   UNL     1     -32.225   8.955 -33.778  1.00  0.00     0.052 A 
ATOM      3  C   UNL     1     -32.806   9.805 -34.724  1.00  0.00     0.138 A 
ATOM      4  C   UNL     1     -33.305  11.064 -34.324  1.00  0.00     0.021 A 
ATOM      5  C   UNL     1     -33.880  11.893 -35.293  1.00  0.00     0.019 A 
ATOM      6  C   UNL     1     -33.945  11.455 -36.615  1.00  0.00     0.094 A 
ATOM      7  C   UNL     1     -33.431  10.195 -36.940  1.00  0.00     0.336 A 
ATOM      8  O   UNL     1     -33.480   9.784 -38.128  1.00  0.00    -0.246 OA
ATOM      9  O   UNL     1     -32.888   9.426 -35.998  1.00  0.00    -0.423 OA
ATOM     10  C   UNL     1     -33.215  11.457 -32.981  1.00  0.00     0.058 A 
ATOM     11  C   UNL     1     -32.632  10.599 -32.038  1.00  0.00     0.116 A 
ENDROOT
BRANCH  11  12
ATOM     12  O   UNL     1     -32.535  10.975 -30.699  1.00  0.00    -0.508 OA
ATOM     13  H   UNL     1     -31.637  11.060 -30.237  1.00  0.00     0.293 HD
ENDBRANCH  11  12
TORSDOF 1
ENDMDL
MODEL 2
REMARK VINA RESULT:    -5.672      1.251      4.672
REMARK INTER + INTRA:          -5.838
REMARK INTER:                  -5.838
REMARK INTRA:                   0.000
REMARK UNBOUND:                 0.000
REMARK SMILES O=c1ccc2cc(O)ccc2o1
REMARK SMILES IDX 9 1 10 2 11 3 5 4 4 5 3 6 2 7 1 8 12 9 6 10 7 11 8 12
REMARK H PARENT 8 13
REMARK Flexibility Score: inf
ROOT
ATOM      1  C   UNL     1     -33.300  10.791 -36.626  1.00  0.00     0.050 A 
ATOM      2  C   UNL     1     -33.656  11.555 -35.509  1.00  0.00     0.052 A 
ATOM      3  C   UNL     1     -33.257  11.157 -34.231  1.00  0.00     0.138 A 
ATOM      4  C   UNL     1     -32.492   9.979 -34.069  1.00  0.00     0.021 A 
ATOM      5  C   UNL     1     -32.107   9.606 -32.778  1.00  0.00     0.019 A 
ATOM      6  C   UNL     1     -32.485  10.399 -31.696  1.00  0.00     0.094 A 
ATOM      7  C   UNL     1     -33.242  11.552 -31.930  1.00  0.00     0.336 A 
ATOM      8  O   UNL     1     -33.591  12.281 -30.965  1.00  0.00    -0.246 OA
ATOM      9  O   UNL     1     -33.595  11.885 -33.169  1.00  0.00    -0.423 OA
ATOM     10  C   UNL     1     -32.138   9.216 -35.191  1.00  0.00     0.058 A 
ATOM     11  C   UNL     1     -32.544   9.622 -36.471  1.00  0.00     0.116 A 
ENDROOT
BRANCH  11  12
ATOM     12  O   UNL     1     -32.200   8.875 -37.595  1.00  0.00    -0.508 OA
ATOM     13  H   UNL     1     -31.640   8.033 -37.521  1.00  0.00     0.293 HD
ENDBRANCH  11  12
TORSDOF 1
ENDMDL
MODEL 3
REMARK VINA RESULT:    -5.497      1.128      2.219
REMARK INTER + INTRA:          -5.658
REMARK INTER:                  -5.658
REMARK INTRA:                   0.000
REMARK UNBOUND:                 0.000
REMARK SMILES O=c1ccc2cc(O)ccc2o1
REMARK SMILES IDX 9 1 10 2 11 3 5 4 4 5 3 6 2 7 1 8 12 9 6 10 7 11 8 12
REMARK H PARENT 8 13
REMARK Flexibility Score: inf
ROOT
ATOM      1  C   UNL     1     -33.580  11.903 -32.057  1.00  0.00     0.050 A 
ATOM      2  C   UNL     1     -33.806  11.807 -33.435  1.00  0.00     0.052 A 
ATOM      3  C   UNL     1     -33.164  10.817 -34.184  1.00  0.00     0.138 A 
ATOM      4  C   UNL     1     -32.287   9.912 -33.545  1.00  0.00     0.021 A 
ATOM      5  C   UNL     1     -31.659   8.932 -34.319  1.00  0.00     0.019 A 
ATOM      6  C   UNL     1     -31.914   8.875 -35.688  1.00  0.00     0.094 A 
ATOM      7  C   UNL     1     -32.795   9.803 -36.254  1.00  0.00     0.336 A 
ATOM      8  O   UNL     1     -33.039   9.767 -37.488  1.00  0.00    -0.246 OA
ATOM      9  O   UNL     1     -33.380  10.727 -35.494  1.00  0.00    -0.423 OA
ATOM     10  C   UNL     1     -32.063  10.012 -32.163  1.00  0.00     0.058 A 
ATOM     11  C   UNL     1     -32.711  11.009 -31.420  1.00  0.00     0.116 A 
ENDROOT
BRANCH  11  12
ATOM     12  O   UNL     1     -32.500  11.121 -30.047  1.00  0.00    -0.508 OA
ATOM     13  H   UNL     1     -33.184  11.558 -29.440  1.00  0.00     0.293 HD
ENDBRANCH  11  12
TORSDOF 1
ENDMDL
MODEL 4
REMARK VINA RESULT:    -5.453      1.112      4.311
REMARK INTER + INTRA:          -5.612
REMARK INTER:                  -5.612
REMARK INTRA:                   0.000
REMARK UNBOUND:                 0.000
REMARK SMILES O=c1ccc2cc(O)ccc2o1
REMARK SMILES IDX 9 1 10 2 11 3 5 4 4 5 3 6 2 7 1 8 12 9 6 10 7 11 8 12
REMARK H PARENT 8 13
REMARK Flexibility Score: inf
ROOT
ATOM      1  C   UNL     1     -31.721   8.876 -35.880  1.00  0.00     0.050 A 
ATOM      2  C   UNL     1     -31.546   8.971 -34.495  1.00  0.00     0.052 A 
ATOM      3  C   UNL     1     -32.226   9.952 -33.768  1.00  0.00     0.138 A 
ATOM      4  C   UNL     1     -33.092  10.846 -34.436  1.00  0.00     0.021 A 
ATOM      5  C   UNL     1     -33.759  11.816 -33.682  1.00  0.00     0.019 A 
ATOM      6  C   UNL     1     -33.553  11.873 -32.305  1.00  0.00     0.094 A 
ATOM      7  C   UNL     1     -32.681  10.955 -31.710  1.00  0.00     0.336 A 
ATOM      8  O   UNL     1     -32.483  10.990 -30.467  1.00  0.00    -0.246 OA
ATOM      9  O   UNL     1     -32.058  10.041 -32.450  1.00  0.00    -0.423 OA
ATOM     10  C   UNL     1     -33.265  10.747 -35.824  1.00  0.00     0.058 A 
ATOM     11  C   UNL     1     -32.577   9.761 -36.547  1.00  0.00     0.116 A 
ENDROOT
BRANCH  11  12
ATOM     12  O   UNL     1     -32.738   9.650 -37.926  1.00  0.00    -0.508 OA
ATOM     13  H   UNL     1     -32.759   8.746 -38.386  1.00  0.00     0.293 HD
ENDBRANCH  11  12
TORSDOF 1
ENDMDL
MODEL 5
REMARK VINA RESULT:    -5.312      1.548      2.349
REMARK INTER + INTRA:          -5.468
REMARK INTER:                  -5.468
REMARK INTRA:                   0.000
REMARK UNBOUND:                 0.000
REMARK SMILES O=c1ccc2cc(O)ccc2o1
REMARK SMILES IDX 9 1 10 2 11 3 5 4 4 5 3 6 2 7 1 8 12 9 6 10 7 11 8 12
REMARK H PARENT 8 13
REMARK Flexibility Score: inf
ROOT
ATOM      1  C   UNL     1     -32.856  10.873 -32.969  1.00  0.00     0.050 A 
ATOM      2  C   UNL     1     -33.507  11.585 -33.983  1.00  0.00     0.052 A 
ATOM      3  C   UNL     1     -33.713  10.995 -35.233  1.00  0.00     0.138 A 
ATOM      4  C   UNL     1     -33.262   9.677 -35.470  1.00  0.00     0.021 A 
ATOM      5  C   UNL     1     -33.483   9.113 -36.731  1.00  0.00     0.019 A 
ATOM      6  C   UNL     1     -34.136   9.860 -37.709  1.00  0.00     0.094 A 
ATOM      7  C   UNL     1     -34.555  11.160 -37.404  1.00  0.00     0.336 A 
ATOM      8  O   UNL     1     -35.147  11.850 -38.275  1.00  0.00    -0.246 OA
ATOM      9  O   UNL     1     -34.333  11.673 -36.196  1.00  0.00    -0.423 OA
ATOM     10  C   UNL     1     -32.610   8.967 -34.451  1.00  0.00     0.058 A 
ATOM     11  C   UNL     1     -32.406   9.567 -33.200  1.00  0.00     0.116 A 
ENDROOT
BRANCH  11  12
ATOM     12  O   UNL     1     -31.760   8.875 -32.178  1.00  0.00    -0.508 OA
ATOM     13  H   UNL     1     -31.834   7.867 -32.092  1.00  0.00     0.293 HD
ENDBRANCH  11  12
TORSDOF 1
ENDMDL
MODEL 6
REMARK VINA RESULT:    -5.095      1.682      4.744
REMARK INTER + INTRA:          -5.243
REMARK INTER:                  -5.243
REMARK INTRA:                   0.000
REMARK UNBOUND:                 0.000
REMARK SMILES O=c1ccc2cc(O)ccc2o1
REMARK SMILES IDX 9 1 10 2 11 3 5 4 4 5 3 6 2 7 1 8 12 9 6 10 7 11 8 12
REMARK H PARENT 8 13
REMARK Flexibility Score: inf
ROOT
ATOM      1  C   UNL     1     -34.770   9.311 -38.391  1.00  0.00     0.050 A 
ATOM      2  C   UNL     1     -34.075   8.875 -37.258  1.00  0.00     0.052 A 
ATOM      3  C   UNL     1     -33.730   9.784 -36.254  1.00  0.00     0.138 A 
ATOM      4  C   UNL     1     -34.086  11.145 -36.387  1.00  0.00     0.021 A 
ATOM      5  C   UNL     1     -33.728  12.031 -35.366  1.00  0.00     0.019 A 
ATOM      6  C   UNL     1     -33.036  11.551 -34.256  1.00  0.00     0.094 A 
ATOM      7  C   UNL     1     -32.716  10.191 -34.191  1.00  0.00     0.336 A 
ATOM      8  O   UNL     1     -32.091   9.739 -33.196  1.00  0.00    -0.246 OA
ATOM      9  O   UNL     1     -33.068   9.368 -35.176  1.00  0.00    -0.423 OA
ATOM     10  C   UNL     1     -34.784  11.578 -37.525  1.00  0.00     0.058 A 
ATOM     11  C   UNL     1     -35.125  10.659 -38.528  1.00  0.00     0.116 A 
ENDROOT
BRANCH  11  12
ATOM     12  O   UNL     1     -35.818  11.073 -39.664  1.00  0.00    -0.508 OA
ATOM     13  H   UNL     1     -35.565  10.742 -40.588  1.00  0.00     0.293 HD
ENDBRANCH  11  12
TORSDOF 1
ENDMDL
MODEL 7
REMARK VINA RESULT:    -5.077      1.489      4.921
REMARK INTER + INTRA:          -5.225
REMARK INTER:                  -5.225
REMARK INTRA:                   0.000
REMARK UNBOUND:                 0.000
REMARK SMILES O=c1ccc2cc(O)ccc2o1
REMARK SMILES IDX 9 1 10 2 11 3 5 4 4 5 3 6 2 7 1 8 12 9 6 10 7 11 8 12
REMARK H PARENT 8 13
REMARK Flexibility Score: inf
ROOT
ATOM      1  C   UNL     1     -34.621  11.262 -37.726  1.00  0.00     0.050 A 
ATOM      2  C   UNL     1     -34.287  11.886 -36.519  1.00  0.00     0.052 A 
ATOM      3  C   UNL     1     -33.926  11.119 -35.409  1.00  0.00     0.138 A 
ATOM      4  C   UNL     1     -33.898   9.710 -35.509  1.00  0.00     0.021 A 
ATOM      5  C   UNL     1     -33.531   8.968 -34.381  1.00  0.00     0.019 A 
ATOM      6  C   UNL     1     -33.207   9.634 -33.201  1.00  0.00     0.094 A 
ATOM      7  C   UNL     1     -33.256  11.032 -33.174  1.00  0.00     0.336 A 
ATOM      8  O   UNL     1     -32.966  11.651 -32.117  1.00  0.00    -0.246 OA
ATOM      9  O   UNL     1     -33.608  11.714 -34.261  1.00  0.00    -0.423 OA
ATOM     10  C   UNL     1     -34.233   9.088 -36.721  1.00  0.00     0.058 A 
ATOM     11  C   UNL     1     -34.596   9.866 -37.830  1.00  0.00     0.116 A 
ENDROOT
BRANCH  11  12
ATOM     12  O   UNL     1     -34.931   9.263 -39.040  1.00  0.00    -0.508 OA
ATOM     13  H   UNL     1     -34.979   8.254 -39.134  1.00  0.00     0.293 HD
ENDBRANCH  11  12
TORSDOF 1
ENDMDL
MODEL 8
REMARK VINA RESULT:    -4.820      1.771      2.247
REMARK INTER + INTRA:          -4.961
REMARK INTER:                  -4.961
REMARK INTRA:                   0.000
REMARK UNBOUND:                 0.000
REMARK SMILES O=c1ccc2cc(O)ccc2o1
REMARK SMILES IDX 9 1 10 2 11 3 5 4 4 5 3 6 2 7 1 8 12 9 6 10 7 11 8 12
REMARK H PARENT 8 13
REMARK Flexibility Score: inf
ROOT
ATOM      1  C   UNL     1     -32.775  11.043 -30.730  1.00  0.00     0.050 A 
ATOM      2  C   UNL     1     -31.989  10.264 -31.586  1.00  0.00     0.052 A 
ATOM      3  C   UNL     1     -32.190  10.322 -32.968  1.00  0.00     0.138 A 
ATOM      4  C   UNL     1     -33.188  11.171 -33.498  1.00  0.00     0.021 A 
ATOM      5  C   UNL     1     -33.365  11.208 -34.884  1.00  0.00     0.019 A 
ATOM      6  C   UNL     1     -32.558  10.415 -35.698  1.00  0.00     0.094 A 
ATOM      7  C   UNL     1     -31.589   9.598 -35.105  1.00  0.00     0.336 A 
ATOM      8  O   UNL     1     -30.851   8.875 -35.824  1.00  0.00    -0.246 OA
ATOM      9  O   UNL     1     -31.441   9.581 -33.782  1.00  0.00    -0.423 OA
ATOM     10  C   UNL     1     -33.973  11.949 -32.635  1.00  0.00     0.058 A 
ATOM     11  C   UNL     1     -33.767  11.884 -31.249  1.00  0.00     0.116 A 
ENDROOT
BRANCH  11  12
ATOM     12  O   UNL     1     -34.538  12.651 -30.380  1.00  0.00    -0.508 OA
ATOM     13  H   UNL     1     -35.030  13.479 -30.698  1.00  0.00     0.293 HD
ENDBRANCH  11  12
TORSDOF 1
ENDMDL
MODEL 9
REMARK VINA RESULT:    -4.481     18.542     19.671
REMARK INTER + INTRA:          -4.612
REMARK INTER:                  -4.612
REMARK INTRA:                   0.000
REMARK UNBOUND:                 0.000
REMARK SMILES O=c1ccc2cc(O)ccc2o1
REMARK SMILES IDX 9 1 10 2 11 3 5 4 4 5 3 6 2 7 1 8 12 9 6 10 7 11 8 12
REMARK H PARENT 8 13
REMARK Flexibility Score: inf
ROOT
ATOM      1  C   UNL     1     -22.750  29.096 -29.896  1.00  0.00     0.050 A 
ATOM      2  C   UNL     1     -23.697  28.399 -30.654  1.00  0.00     0.052 A 
ATOM      3  C   UNL     1     -23.711  27.001 -30.645  1.00  0.00     0.138 A 
ATOM      4  C   UNL     1     -22.766  26.295 -29.868  1.00  0.00     0.021 A 
ATOM      5  C   UNL     1     -22.804  24.897 -29.878  1.00  0.00     0.019 A 
ATOM      6  C   UNL     1     -23.766  24.246 -30.648  1.00  0.00     0.094 A 
ATOM      7  C   UNL     1     -24.671  25.009 -31.393  1.00  0.00     0.336 A 
ATOM      8  O   UNL     1     -25.548  24.438 -32.093  1.00  0.00    -0.246 OA
ATOM      9  O   UNL     1     -24.613  26.339 -31.365  1.00  0.00    -0.423 OA
ATOM     10  C   UNL     1     -21.818  26.999 -29.110  1.00  0.00     0.058 A 
ATOM     11  C   UNL     1     -21.810  28.401 -29.126  1.00  0.00     0.116 A 
ENDROOT
BRANCH  11  12
ATOM     12  O   UNL     1     -20.875  29.114 -28.378  1.00  0.00    -0.508 OA
ATOM     13  H   UNL     1     -21.161  29.779 -27.668  1.00  0.00     0.293 HD
ENDBRANCH  11  12
TORSDOF 1
ENDMDL
