MODEL 1
REMARK VINA RESULT:    -5.154      0.000      0.000
REMARK INTER + INTRA:          -8.153
REMARK INTER:                  -7.866
REMARK INTRA:                  -0.287
REMARK UNBOUND:                -0.287
REMARK SMILES CC1=CCC[C@H](C)C(=O)C[C@H](C(C)C)C(=O)C1
REMARK SMILES IDX 8 1 9 2 6 3 7 4 5 5 4 6 3 7 2 8 1 9 10 11 11 12 15 13 16 14
REMARK SMILES IDX 17 15 12 17 13 18 14 19
REMARK H PARENT
REMARK Flexibility Score: 70.00
ROOT
ATOM      1  C   UNL     1      -7.513  30.315  23.104  1.00  0.00     0.136 C 
ATOM      2  O   UNL     1      -6.662  29.542  22.687  1.00  0.00    -0.299 OA
ENDROOT
BRANCH   1   3
ATOM      3  C   UNL     1      -8.770  29.725  23.724  1.00  0.00     0.053 C 
ATOM      4  C   UNL     1      -9.070  28.287  23.269  1.00  0.00     0.016 C 
BRANCH   3   5
ATOM      5  C   UNL     1      -8.800  29.901  25.259  1.00  0.00     0.015 C 
BRANCH   5   6
ATOM      6  C   UNL     1      -9.702  31.052  25.746  1.00  0.00     0.028 C 
BRANCH   6   7
ATOM      7  C   UNL     1      -8.950  32.083  26.549  1.00  0.00    -0.028 C 
ATOM      8  C   UNL     1      -8.759  33.374  26.179  1.00  0.00    -0.070 CG0
ATOM      9  C   UNL     1      -7.908  34.241  27.074  1.00  0.00     0.039 C 
ATOM     10  G   UNL     1      -9.382  33.994  24.934  1.00  0.00     0.000 G0
ENDBRANCH   6   7
ENDBRANCH   5   6
ENDBRANCH   3   5
ENDBRANCH   1   3
BRANCH   1  11
ATOM     11  C   UNL     1      -7.243  31.804  22.995  1.00  0.00     0.087 C 
BRANCH  11  12
ATOM     12  C   UNL     1      -8.545  32.635  22.833  1.00  0.00     0.066 C 
BRANCH  12  13
ATOM     13  C   UNL     1      -8.504  33.894  23.688  1.00  0.00     0.140 C 
ATOM     14  O   UNL     1      -7.795  34.837  23.367  1.00  0.00    -0.299 OA
BRANCH  13  15
ATOM     15  C   UNL     1      -9.378  34.004  24.914  1.00  0.00     0.106 CG0
ATOM     16  G   UNL     1      -8.764  33.374  26.158  1.00  0.00     0.000 G0
ENDBRANCH  13  15
ENDBRANCH  12  13
BRANCH  12  17
ATOM     17  C   UNL     1      -8.897  32.957  21.343  1.00  0.00    -0.006 C 
ATOM     18  C   UNL     1      -9.752  31.847  20.713  1.00  0.00     0.008 C 
ATOM     19  C   UNL     1      -7.665  33.230  20.458  1.00  0.00     0.008 C 
ENDBRANCH  12  17
ENDBRANCH  11  12
ENDBRANCH   1  11
TORSDOF 1
ENDMDL
MODEL 2
REMARK VINA RESULT:    -5.030      1.595      3.738
REMARK INTER + INTRA:          -7.963
REMARK INTER:                  -7.832
REMARK INTRA:                  -0.132
REMARK UNBOUND:                -0.287
REMARK SMILES CC1=CCC[C@H](C)C(=O)C[C@H](C(C)C)C(=O)C1
REMARK SMILES IDX 8 1 9 2 6 3 7 4 5 5 4 6 3 7 2 8 1 9 10 11 11 12 15 13 16 14
REMARK SMILES IDX 17 15 12 17 13 18 14 19
REMARK H PARENT
REMARK Flexibility Score: 70.00
ROOT
ATOM      1  C   UNL     1      -9.302  32.282  22.306  1.00  0.00     0.136 C 
ATOM      2  O   UNL     1     -10.124  32.767  21.542  1.00  0.00    -0.299 OA
ENDROOT
BRANCH   1   3
ATOM      3  C   UNL     1      -7.869  32.790  22.227  1.00  0.00     0.053 C 
ATOM      4  C   UNL     1      -7.369  33.013  20.790  1.00  0.00     0.016 C 
BRANCH   3   5
ATOM      5  C   UNL     1      -7.628  34.001  23.155  1.00  0.00     0.015 C 
BRANCH   5   6
ATOM      6  C   UNL     1      -8.768  34.267  24.158  1.00  0.00     0.028 C 
BRANCH   6   7
ATOM      7  C   UNL     1      -8.317  34.168  25.593  1.00  0.00    -0.028 C 
ATOM      8  C   UNL     1      -8.655  33.174  26.452  1.00  0.00    -0.070 CG0
ATOM      9  C   UNL     1      -8.174  33.286  27.878  1.00  0.00     0.039 C 
ATOM     10  G   UNL     1      -9.459  31.946  26.043  1.00  0.00     0.000 G0
ENDBRANCH   6   7
ENDBRANCH   5   6
ENDBRANCH   3   5
ENDBRANCH   1   3
BRANCH   1  11
ATOM     11  C   UNL     1      -9.772  31.231  23.293  1.00  0.00     0.087 C 
BRANCH  11  12
ATOM     12  C   UNL     1      -8.594  30.524  24.017  1.00  0.00     0.066 C 
BRANCH  12  13
ATOM     13  C   UNL     1      -8.621  30.805  25.513  1.00  0.00     0.140 C 
ATOM     14  O   UNL     1      -7.936  30.143  26.280  1.00  0.00    -0.299 OA
BRANCH  13  15
ATOM     15  C   UNL     1      -9.457  31.939  26.055  1.00  0.00     0.106 CG0
ATOM     16  G   UNL     1      -8.643  33.169  26.436  1.00  0.00     0.000 G0
ENDBRANCH  13  15
ENDBRANCH  12  13
BRANCH  12  17
ATOM     17  C   UNL     1      -8.509  28.991  23.717  1.00  0.00    -0.006 C 
ATOM     18  C   UNL     1      -8.210  28.723  22.233  1.00  0.00     0.008 C 
ATOM     19  C   UNL     1      -9.761  28.202  24.145  1.00  0.00     0.008 C 
ENDBRANCH  12  17
ENDBRANCH  11  12
ENDBRANCH   1  11
TORSDOF 1
ENDMDL
MODEL 3
REMARK VINA RESULT:    -4.880      2.051      3.103
REMARK INTER + INTRA:          -7.734
REMARK INTER:                  -7.649
REMARK INTRA:                  -0.085
REMARK UNBOUND:                -0.287
REMARK SMILES CC1=CCC[C@H](C)C(=O)C[C@H](C(C)C)C(=O)C1
REMARK SMILES IDX 8 1 9 2 6 3 7 4 5 5 4 6 3 7 2 8 1 9 10 11 11 12 15 13 16 14
REMARK SMILES IDX 17 15 12 17 13 18 14 19
REMARK H PARENT
REMARK Flexibility Score: 70.00
ROOT
ATOM      1  C   UNL     1      -8.709  31.446  23.221  1.00  0.00     0.136 C 
ATOM      2  O   UNL     1      -9.564  32.063  22.602  1.00  0.00    -0.299 OA
ENDROOT
BRANCH   1   3
ATOM      3  C   UNL     1      -8.534  29.966  22.913  1.00  0.00     0.053 C 
ATOM      4  C   UNL     1      -7.100  29.582  22.513  1.00  0.00     0.016 C 
BRANCH   3   5
ATOM      5  C   UNL     1      -9.123  29.066  24.021  1.00  0.00     0.015 C 
BRANCH   5   6
ATOM      6  C   UNL     1     -10.124  29.780  24.950  1.00  0.00     0.028 C 
BRANCH   6   7
ATOM      7  C   UNL     1      -9.754  29.662  26.408  1.00  0.00    -0.028 C 
ATOM      8  C   UNL     1      -9.649  30.702  27.274  1.00  0.00    -0.070 CG0
ATOM      9  C   UNL     1      -9.187  30.399  28.678  1.00  0.00     0.039 C 
ATOM     10  G   UNL     1     -10.005  32.138  26.911  1.00  0.00     0.000 G0
ENDBRANCH   6   7
ENDBRANCH   5   6
ENDBRANCH   3   5
ENDBRANCH   1   3
BRANCH   1  11
ATOM     11  C   UNL     1      -7.870  32.203  24.233  1.00  0.00     0.087 C 
BRANCH  11  12
ATOM     12  C   UNL     1      -8.676  33.309  24.967  1.00  0.00     0.066 C 
BRANCH  12  13
ATOM     13  C   UNL     1      -8.830  32.988  26.447  1.00  0.00     0.140 C 
ATOM     14  O   UNL     1      -8.035  33.433  27.263  1.00  0.00    -0.299 OA
BRANCH  13  15
ATOM     15  C   UNL     1      -9.996  32.156  26.922  1.00  0.00     0.106 CG0
ATOM     16  G   UNL     1      -9.624  30.715  27.247  1.00  0.00     0.000 G0
ENDBRANCH  13  15
ENDBRANCH  12  13
BRANCH  12  17
ATOM     17  C   UNL     1      -8.104  34.749  24.742  1.00  0.00    -0.006 C 
ATOM     18  C   UNL     1      -9.155  35.827  25.048  1.00  0.00     0.008 C 
ATOM     19  C   UNL     1      -7.522  34.974  23.333  1.00  0.00     0.008 C 
ENDBRANCH  12  17
ENDBRANCH  11  12
ENDBRANCH   1  11
TORSDOF 1
ENDMDL
MODEL 4
REMARK VINA RESULT:    -4.520      1.885      4.195
REMARK INTER + INTRA:          -7.185
REMARK INTER:                  -7.126
REMARK INTRA:                  -0.059
REMARK UNBOUND:                -0.287
REMARK SMILES CC1=CCC[C@H](C)C(=O)C[C@H](C(C)C)C(=O)C1
REMARK SMILES IDX 8 1 9 2 6 3 7 4 5 5 4 6 3 7 2 8 1 9 10 11 11 12 15 13 16 14
REMARK SMILES IDX 17 15 12 17 13 18 14 19
REMARK H PARENT
REMARK Flexibility Score: 70.00
ROOT
ATOM      1  C   UNL     1      -7.889  33.815  22.540  1.00  0.00     0.136 C 
ATOM      2  O   UNL     1      -7.852  34.977  22.161  1.00  0.00    -0.299 OA
ENDROOT
BRANCH   1   3
ATOM      3  C   UNL     1      -8.026  32.726  21.486  1.00  0.00     0.053 C 
ATOM      4  C   UNL     1      -7.473  33.124  20.107  1.00  0.00     0.016 C 
BRANCH   3   5
ATOM      5  C   UNL     1      -7.501  31.362  21.986  1.00  0.00     0.015 C 
BRANCH   5   6
ATOM      6  C   UNL     1      -8.608  30.343  22.322  1.00  0.00     0.028 C 
BRANCH   6   7
ATOM      7  C   UNL     1      -8.475  29.772  23.711  1.00  0.00    -0.028 C 
ATOM      8  C   UNL     1      -9.075  30.269  24.822  1.00  0.00    -0.070 CG0
ATOM      9  C   UNL     1      -8.759  29.613  26.142  1.00  0.00     0.039 C 
ATOM     10  G   UNL     1     -10.068  31.425  24.795  1.00  0.00     0.000 G0
ENDBRANCH   6   7
ENDBRANCH   5   6
ENDBRANCH   3   5
ENDBRANCH   1   3
BRANCH   1  11
ATOM     11  C   UNL     1      -7.771  33.542  24.027  1.00  0.00     0.087 C 
BRANCH  11  12
ATOM     12  C   UNL     1      -9.082  33.862  24.797  1.00  0.00     0.066 C 
BRANCH  12  13
ATOM     13  C   UNL     1      -9.578  32.646  25.566  1.00  0.00     0.140 C 
ATOM     14  O   UNL     1      -9.624  32.663  26.789  1.00  0.00    -0.299 OA
BRANCH  13  15
ATOM     15  C   UNL     1     -10.063  31.426  24.822  1.00  0.00     0.106 CG0
ATOM     16  G   UNL     1      -9.065  30.276  24.819  1.00  0.00     0.000 G0
ENDBRANCH  13  15
ENDBRANCH  12  13
BRANCH  12  17
ATOM     17  C   UNL     1      -8.971  35.124  25.716  1.00  0.00    -0.006 C 
ATOM     18  C   UNL     1      -9.350  36.407  24.958  1.00  0.00     0.008 C 
ATOM     19  C   UNL     1      -7.588  35.297  26.372  1.00  0.00     0.008 C 
ENDBRANCH  12  17
ENDBRANCH  11  12
ENDBRANCH   1  11
TORSDOF 1
ENDMDL
MODEL 5
REMARK VINA RESULT:    -4.257      1.866      4.841
REMARK INTER + INTRA:          -6.784
REMARK INTER:                  -7.292
REMARK INTRA:                   0.509
REMARK UNBOUND:                -0.287
REMARK SMILES CC1=CCC[C@H](C)C(=O)C[C@H](C(C)C)C(=O)C1
REMARK SMILES IDX 8 1 9 2 6 3 7 4 5 5 4 6 3 7 2 8 1 9 10 11 11 12 15 13 16 14
REMARK SMILES IDX 17 15 12 17 13 18 14 19
REMARK H PARENT
REMARK Flexibility Score: 70.00
ROOT
ATOM      1  C   UNL     1      -8.818  32.766  25.600  1.00  0.00     0.136 C 
ATOM      2  O   UNL     1      -7.969  32.119  26.196  1.00  0.00    -0.299 OA
ENDROOT
BRANCH   1   3
ATOM      3  C   UNL     1      -8.624  34.272  25.496  1.00  0.00     0.053 C 
ATOM      4  C   UNL     1      -8.362  34.958  26.848  1.00  0.00     0.016 C 
BRANCH   3   5
ATOM      5  C   UNL     1      -7.598  34.654  24.407  1.00  0.00     0.015 C 
BRANCH   5   6
ATOM      6  C   UNL     1      -8.224  35.228  23.121  1.00  0.00     0.028 C 
BRANCH   6   7
ATOM      7  C   UNL     1      -7.595  34.675  21.867  1.00  0.00    -0.028 C 
ATOM      8  C   UNL     1      -7.871  33.463  21.323  1.00  0.00    -0.070 CG0
ATOM      9  C   UNL     1      -7.081  33.044  20.108  1.00  0.00     0.039 C 
ATOM     10  G   UNL     1      -8.951  32.529  21.854  1.00  0.00     0.000 G0
ENDBRANCH   6   7
ENDBRANCH   5   6
ENDBRANCH   3   5
ENDBRANCH   1   3
BRANCH   1  11
ATOM     11  C   UNL     1      -9.989  32.021  24.988  1.00  0.00     0.087 C 
BRANCH  11  12
ATOM     12  C   UNL     1      -9.543  30.992  23.913  1.00  0.00     0.066 C 
BRANCH  12  13
ATOM     13  C   UNL     1      -8.514  31.594  22.968  1.00  0.00     0.140 C 
ATOM     14  O   UNL     1      -7.327  31.329  23.095  1.00  0.00    -0.299 OA
BRANCH  13  15
ATOM     15  C   UNL     1      -8.959  32.485  21.834  1.00  0.00     0.106 CG0
ATOM     16  G   UNL     1      -7.881  33.451  21.358  1.00  0.00     0.000 G0
ENDBRANCH  13  15
ENDBRANCH  12  13
BRANCH  12  17
ATOM     17  C   UNL     1      -9.051  29.635  24.519  1.00  0.00    -0.006 C 
ATOM     18  C   UNL     1      -9.263  28.470  23.538  1.00  0.00     0.008 C 
ATOM     19  C   UNL     1      -9.690  29.292  25.879  1.00  0.00     0.008 C 
ENDBRANCH  12  17
ENDBRANCH  11  12
ENDBRANCH   1  11
TORSDOF 1
ENDMDL
MODEL 6
REMARK VINA RESULT:    -4.228      1.574      1.862
REMARK INTER + INTRA:          -6.739
REMARK INTER:                  -7.097
REMARK INTRA:                   0.358
REMARK UNBOUND:                -0.287
REMARK SMILES CC1=CCC[C@H](C)C(=O)C[C@H](C(C)C)C(=O)C1
REMARK SMILES IDX 8 1 9 2 6 3 7 4 5 5 4 6 3 7 2 8 1 9 10 11 11 12 15 13 16 14
REMARK SMILES IDX 17 15 12 17 13 18 14 19
REMARK H PARENT
REMARK Flexibility Score: 70.00
ROOT
ATOM      1  C   UNL     1      -9.037  30.418  21.805  1.00  0.00     0.136 C 
ATOM      2  O   UNL     1      -9.799  30.500  20.852  1.00  0.00    -0.299 OA
ENDROOT
BRANCH   1   3
ATOM      3  C   UNL     1      -9.086  29.154  22.650  1.00  0.00     0.053 C 
ATOM      4  C   UNL     1      -7.871  28.232  22.457  1.00  0.00     0.016 C 
BRANCH   3   5
ATOM      5  C   UNL     1      -9.396  29.457  24.133  1.00  0.00     0.015 C 
BRANCH   5   6
ATOM      6  C   UNL     1      -8.194  29.998  24.932  1.00  0.00     0.028 C 
BRANCH   6   7
ATOM      7  C   UNL     1      -8.594  31.017  25.970  1.00  0.00    -0.028 C 
ATOM      8  C   UNL     1      -8.423  32.358  25.855  1.00  0.00    -0.070 CG0
ATOM      9  C   UNL     1      -8.811  33.216  27.033  1.00  0.00     0.039 C 
ATOM     10  G   UNL     1      -7.897  33.034  24.595  1.00  0.00     0.000 G0
ENDBRANCH   6   7
ENDBRANCH   5   6
ENDBRANCH   3   5
ENDBRANCH   1   3
BRANCH   1  11
ATOM     11  C   UNL     1      -8.083  31.570  22.060  1.00  0.00     0.087 C 
BRANCH  11  12
ATOM     12  C   UNL     1      -8.810  32.940  22.133  1.00  0.00     0.066 C 
BRANCH  12  13
ATOM     13  C   UNL     1      -8.955  33.410  23.573  1.00  0.00     0.140 C 
ATOM     14  O   UNL     1      -9.949  34.030  23.925  1.00  0.00    -0.299 OA
BRANCH  13  15
ATOM     15  C   UNL     1      -7.892  33.071  24.590  1.00  0.00     0.106 CG0
ATOM     16  G   UNL     1      -8.434  32.364  25.825  1.00  0.00     0.000 G0
ENDBRANCH  13  15
ENDBRANCH  12  13
BRANCH  12  17
ATOM     17  C   UNL     1      -8.159  34.038  21.227  1.00  0.00    -0.006 C 
ATOM     18  C   UNL     1      -7.151  33.429  20.239  1.00  0.00     0.008 C 
ATOM     19  C   UNL     1      -7.488  35.179  22.017  1.00  0.00     0.008 C 
ENDBRANCH  12  17
ENDBRANCH  11  12
ENDBRANCH   1  11
TORSDOF 1
ENDMDL
MODEL 7
REMARK VINA RESULT:    -4.014      1.708      3.070
REMARK INTER + INTRA:          -6.413
REMARK INTER:                  -7.709
REMARK INTRA:                   1.296
REMARK UNBOUND:                -0.287
REMARK SMILES CC1=CCC[C@H](C)C(=O)C[C@H](C(C)C)C(=O)C1
REMARK SMILES IDX 8 1 9 2 6 3 7 4 5 5 4 6 3 7 2 8 1 9 10 11 11 12 15 13 16 14
REMARK SMILES IDX 17 15 12 17 13 18 14 19
REMARK H PARENT
REMARK Flexibility Score: 70.00
ROOT
ATOM      1  C   UNL     1      -9.942  30.211  25.350  1.00  0.00     0.136 C 
ATOM      2  O   UNL     1     -10.010  29.047  24.979  1.00  0.00    -0.299 OA
ENDROOT
BRANCH   1   3
ATOM      3  C   UNL     1      -9.653  30.475  26.820  1.00  0.00     0.053 C 
ATOM      4  C   UNL     1      -8.372  29.796  27.333  1.00  0.00     0.016 C 
BRANCH   3   5
ATOM      5  C   UNL     1      -9.732  31.978  27.169  1.00  0.00     0.015 C 
BRANCH   5   6
ATOM      6  C   UNL     1      -8.417  32.749  26.943  1.00  0.00     0.028 C 
BRANCH   6   7
ATOM      7  C   UNL     1      -8.601  33.982  26.094  1.00  0.00    -0.028 C 
ATOM      8  C   UNL     1      -8.163  34.125  24.818  1.00  0.00    -0.070 CG0
ATOM      9  C   UNL     1      -8.368  35.463  24.154  1.00  0.00     0.039 C 
ATOM     10  G   UNL     1      -7.512  33.001  24.021  1.00  0.00     0.000 G0
ENDBRANCH   6   7
ENDBRANCH   5   6
ENDBRANCH   3   5
ENDBRANCH   1   3
BRANCH   1  11
ATOM     11  C   UNL     1     -10.125  31.305  24.315  1.00  0.00     0.087 C 
BRANCH  11  12
ATOM     12  C   UNL     1      -9.162  31.147  23.106  1.00  0.00     0.066 C 
BRANCH  12  13
ATOM     13  C   UNL     1      -8.352  32.415  22.879  1.00  0.00     0.140 C 
ATOM     14  O   UNL     1      -8.411  33.005  21.809  1.00  0.00    -0.299 OA
BRANCH  13  15
ATOM     15  C   UNL     1      -7.506  32.982  23.993  1.00  0.00     0.106 CG0
ATOM     16  G   UNL     1      -8.190  34.099  24.771  1.00  0.00     0.000 G0
ENDBRANCH  13  15
ENDBRANCH  12  13
BRANCH  12  17
ATOM     17  C   UNL     1      -8.246  29.882  23.201  1.00  0.00    -0.006 C 
ATOM     18  C   UNL     1      -6.758  30.256  23.111  1.00  0.00     0.008 C 
ATOM     19  C   UNL     1      -8.573  28.797  22.157  1.00  0.00     0.008 C 
ENDBRANCH  12  17
ENDBRANCH  11  12
ENDBRANCH   1  11
TORSDOF 1
ENDMDL
MODEL 8
REMARK VINA RESULT:    -3.570      1.813      3.891
REMARK INTER + INTRA:          -5.735
REMARK INTER:                  -6.399
REMARK INTRA:                   0.663
REMARK UNBOUND:                -0.287
REMARK SMILES CC1=CCC[C@H](C)C(=O)C[C@H](C(C)C)C(=O)C1
REMARK SMILES IDX 8 1 9 2 6 3 7 4 5 5 4 6 3 7 2 8 1 9 10 11 11 12 15 13 16 14
REMARK SMILES IDX 17 15 12 17 13 18 14 19
REMARK H PARENT
REMARK Flexibility Score: 70.00
ROOT
ATOM      1  C   UNL     1      -7.675  34.043  22.902  1.00  0.00     0.136 C 
ATOM      2  O   UNL     1      -8.253  34.599  21.980  1.00  0.00    -0.299 OA
ENDROOT
BRANCH   1   3
ATOM      3  C   UNL     1      -7.270  34.886  24.102  1.00  0.00     0.053 C 
ATOM      4  C   UNL     1      -5.924  35.609  23.925  1.00  0.00     0.016 C 
BRANCH   3   5
ATOM      5  C   UNL     1      -8.409  35.818  24.571  1.00  0.00     0.015 C 
BRANCH   5   6
ATOM      6  C   UNL     1      -9.323  35.206  25.650  1.00  0.00     0.028 C 
BRANCH   6   7
ATOM      7  C   UNL     1      -8.565  34.376  26.655  1.00  0.00    -0.028 C 
ATOM      8  C   UNL     1      -8.728  33.043  26.850  1.00  0.00    -0.070 CG0
ATOM      9  C   UNL     1      -7.938  32.395  27.960  1.00  0.00     0.039 C 
ATOM     10  G   UNL     1      -9.635  32.172  25.990  1.00  0.00     0.000 G0
ENDBRANCH   6   7
ENDBRANCH   5   6
ENDBRANCH   3   5
ENDBRANCH   1   3
BRANCH   1  11
ATOM     11  C   UNL     1      -7.427  32.550  22.796  1.00  0.00     0.087 C 
BRANCH  11  12
ATOM     12  C   UNL     1      -7.845  31.783  24.080  1.00  0.00     0.066 C 
BRANCH  12  13
ATOM     13  C   UNL     1      -9.253  32.166  24.515  1.00  0.00     0.140 C 
ATOM     14  O   UNL     1     -10.102  32.452  23.682  1.00  0.00    -0.299 OA
BRANCH  13  15
ATOM     15  C   UNL     1      -9.623  32.147  25.978  1.00  0.00     0.106 CG0
ATOM     16  G   UNL     1      -8.740  33.039  26.842  1.00  0.00     0.000 G0
ENDBRANCH  13  15
ENDBRANCH  12  13
BRANCH  12  17
ATOM     17  C   UNL     1      -7.676  30.232  23.962  1.00  0.00    -0.006 C 
ATOM     18  C   UNL     1      -6.791  29.851  22.764  1.00  0.00     0.008 C 
ATOM     19  C   UNL     1      -9.010  29.465  23.887  1.00  0.00     0.008 C 
ENDBRANCH  12  17
ENDBRANCH  11  12
ENDBRANCH   1  11
TORSDOF 1
ENDMDL
MODEL 9
REMARK VINA RESULT:    -3.545      1.992      5.164
REMARK INTER + INTRA:          -5.698
REMARK INTER:                  -6.872
REMARK INTRA:                   1.174
REMARK UNBOUND:                -0.287
REMARK SMILES CC1=CCC[C@H](C)C(=O)C[C@H](C(C)C)C(=O)C1
REMARK SMILES IDX 8 1 9 2 6 3 7 4 5 5 4 6 3 7 2 8 1 9 10 11 11 12 15 13 16 14
REMARK SMILES IDX 17 15 12 17 13 18 14 19
REMARK H PARENT
REMARK Flexibility Score: 70.00
ROOT
ATOM      1  C   UNL     1      -8.748  34.218  25.364  1.00  0.00     0.136 C 
ATOM      2  O   UNL     1      -8.987  35.279  25.922  1.00  0.00    -0.299 OA
ENDROOT
BRANCH   1   3
ATOM      3  C   UNL     1      -8.626  34.221  23.847  1.00  0.00     0.053 C 
ATOM      4  C   UNL     1      -7.174  34.176  23.342  1.00  0.00     0.016 C 
BRANCH   3   5
ATOM      5  C   UNL     1      -9.537  33.163  23.187  1.00  0.00     0.015 C 
BRANCH   5   6
ATOM      6  C   UNL     1      -8.933  32.502  21.932  1.00  0.00     0.028 C 
BRANCH   6   7
ATOM      7  C   UNL     1      -8.999  30.996  21.976  1.00  0.00    -0.028 C 
ATOM      8  C   UNL     1      -8.215  30.201  22.747  1.00  0.00    -0.070 CG0
ATOM      9  C   UNL     1      -8.370  28.708  22.597  1.00  0.00     0.039 C 
ATOM     10  G   UNL     1      -7.221  30.737  23.770  1.00  0.00     0.000 G0
ENDBRANCH   6   7
ENDBRANCH   5   6
ENDBRANCH   3   5
ENDBRANCH   1   3
BRANCH   1  11
ATOM     11  C   UNL     1      -8.566  32.981  26.224  1.00  0.00     0.087 C 
BRANCH  11  12
ATOM     12  C   UNL     1      -8.985  31.678  25.490  1.00  0.00     0.066 C 
BRANCH  12  13
ATOM     13  C   UNL     1      -7.777  30.805  25.185  1.00  0.00     0.140 C 
ATOM     14  O   UNL     1      -7.267  30.124  26.064  1.00  0.00    -0.299 OA
BRANCH  13  15
ATOM     15  C   UNL     1      -7.228  30.737  23.780  1.00  0.00     0.106 CG0
ATOM     16  G   UNL     1      -8.222  30.187  22.764  1.00  0.00     0.000 G0
ENDBRANCH  13  15
ENDBRANCH  12  13
BRANCH  12  17
ATOM     17  C   UNL     1     -10.106  30.878  26.234  1.00  0.00    -0.006 C 
ATOM     18  C   UNL     1     -10.041  31.098  27.754  1.00  0.00     0.008 C 
ATOM     19  C   UNL     1     -10.101  29.368  25.926  1.00  0.00     0.008 C 
ENDBRANCH  12  17
ENDBRANCH  11  12
ENDBRANCH   1  11
TORSDOF 1
ENDMDL
