MODEL 1
REMARK VINA RESULT:    -2.991      0.000      0.000
REMARK INTER + INTRA:          -3.650
REMARK INTER:                  -3.603
REMARK INTRA:                  -0.048
REMARK UNBOUND:                -0.048
REMARK SMILES CCCCCO
REMARK SMILES IDX 4 1 3 2 2 3 1 4 5 5 6 6
REMARK H PARENT 6 7
REMARK Flexibility Score: inf
ROOT
ATOM      1  C   UNL     1     212.644 197.266 213.694  1.00  0.00     0.028 C 
ENDROOT
BRANCH   1   2
ATOM      2  C   UNL     1     213.548 198.107 214.610  1.00  0.00     0.002 C 
BRANCH   2   3
ATOM      3  C   UNL     1     213.445 197.691 216.084  1.00  0.00    -0.003 C 
ATOM      4  C   UNL     1     212.203 196.840 216.329  1.00  0.00     0.004 C 
ENDBRANCH   2   3
ENDBRANCH   1   2
BRANCH   1   5
ATOM      5  C   UNL     1     212.197 198.028 212.440  1.00  0.00     0.156 C 
BRANCH   5   6
ATOM      6  O   UNL     1     211.454 199.161 212.803  1.00  0.00    -0.396 OA
ATOM      7  H   UNL     1     210.993 199.472 211.981  1.00  0.00     0.210 HD
ENDBRANCH   5   6
ENDBRANCH   1   5
TORSDOF 4
ENDMDL
MODEL 2
REMARK VINA RESULT:    -2.984      2.185      3.690
REMARK INTER + INTRA:          -3.643
REMARK INTER:                  -3.618
REMARK INTRA:                  -0.025
REMARK UNBOUND:                -0.048
REMARK SMILES CCCCCO
REMARK SMILES IDX 4 1 3 2 2 3 1 4 5 5 6 6
REMARK H PARENT 6 7
REMARK Flexibility Score: inf
ROOT
ATOM      1  C   UNL     1     213.325 197.627 215.607  1.00  0.00     0.028 C 
ENDROOT
BRANCH   1   2
ATOM      2  C   UNL     1     212.907 196.840 214.355  1.00  0.00     0.002 C 
BRANCH   2   3
ATOM      3  C   UNL     1     212.559 197.755 213.172  1.00  0.00    -0.003 C 
ATOM      4  C   UNL     1     212.236 196.939 211.924  1.00  0.00     0.004 C 
ENDBRANCH   2   3
ENDBRANCH   1   2
BRANCH   1   5
ATOM      5  C   UNL     1     212.991 196.890 216.910  1.00  0.00     0.156 C 
BRANCH   5   6
ATOM      6  O   UNL     1     211.801 196.165 216.763  1.00  0.00    -0.396 OA
ATOM      7  H   UNL     1     211.058 196.815 216.865  1.00  0.00     0.210 HD
ENDBRANCH   5   6
ENDBRANCH   1   5
TORSDOF 4
ENDMDL
MODEL 3
REMARK VINA RESULT:    -2.974      2.335      3.806
REMARK INTER + INTRA:          -3.630
REMARK INTER:                  -3.600
REMARK INTRA:                  -0.030
REMARK UNBOUND:                -0.048
REMARK SMILES CCCCCO
REMARK SMILES IDX 4 1 3 2 2 3 1 4 5 5 6 6
REMARK H PARENT 6 7
REMARK Flexibility Score: inf
ROOT
ATOM      1  C   UNL     1     212.993 196.802 213.863  1.00  0.00     0.028 C 
ENDROOT
BRANCH   1   2
ATOM      2  C   UNL     1     212.393 197.937 213.017  1.00  0.00     0.002 C 
BRANCH   2   3
ATOM      3  C   UNL     1     212.149 197.521 211.559  1.00  0.00    -0.003 C 
ATOM      4  C   UNL     1     212.640 196.099 211.304  1.00  0.00     0.004 C 
ENDBRANCH   2   3
ENDBRANCH   1   2
BRANCH   1   5
ATOM      5  C   UNL     1     212.590 196.887 215.340  1.00  0.00     0.156 C 
BRANCH   5   6
ATOM      6  O   UNL     1     213.119 195.798 216.048  1.00  0.00    -0.396 OA
ATOM      7  H   UNL     1     212.989 194.998 215.476  1.00  0.00     0.210 HD
ENDBRANCH   5   6
ENDBRANCH   1   5
TORSDOF 4
ENDMDL
MODEL 4
REMARK VINA RESULT:    -2.866      2.332      2.427
REMARK INTER + INTRA:          -3.500
REMARK INTER:                  -3.469
REMARK INTRA:                  -0.031
REMARK UNBOUND:                -0.048
REMARK SMILES CCCCCO
REMARK SMILES IDX 4 1 3 2 2 3 1 4 5 5 6 6
REMARK H PARENT 6 7
REMARK Flexibility Score: inf
ROOT
ATOM      1  C   UNL     1     212.982 196.523 213.857  1.00  0.00     0.028 C 
ENDROOT
BRANCH   1   2
ATOM      2  C   UNL     1     213.910 197.455 214.651  1.00  0.00     0.002 C 
BRANCH   2   3
ATOM      3  C   UNL     1     213.420 197.693 216.087  1.00  0.00    -0.003 C 
ATOM      4  C   UNL     1     212.175 196.862 216.387  1.00  0.00     0.004 C 
ENDBRANCH   2   3
ENDBRANCH   1   2
BRANCH   1   5
ATOM      5  C   UNL     1     213.718 195.749 212.757  1.00  0.00     0.156 C 
BRANCH   5   6
ATOM      6  O   UNL     1     213.383 194.389 212.815  1.00  0.00    -0.396 OA
ATOM      7  H   UNL     1     212.679 194.241 212.131  1.00  0.00     0.210 HD
ENDBRANCH   5   6
ENDBRANCH   1   5
TORSDOF 4
ENDMDL
MODEL 5
REMARK VINA RESULT:    -2.782      3.186      4.219
REMARK INTER + INTRA:          -3.399
REMARK INTER:                  -3.376
REMARK INTRA:                  -0.023
REMARK UNBOUND:                -0.048
REMARK SMILES CCCCCO
REMARK SMILES IDX 4 1 3 2 2 3 1 4 5 5 6 6
REMARK H PARENT 6 7
REMARK Flexibility Score: inf
ROOT
ATOM      1  C   UNL     1     212.589 196.558 212.026  1.00  0.00     0.028 C 
ENDROOT
BRANCH   1   2
ATOM      2  C   UNL     1     212.224 197.977 212.493  1.00  0.00     0.002 C 
BRANCH   2   3
ATOM      3  C   UNL     1     211.381 198.740 211.461  1.00  0.00    -0.003 C 
ATOM      4  C   UNL     1     210.732 197.782 210.467  1.00  0.00     0.004 C 
ENDBRANCH   2   3
ENDBRANCH   1   2
BRANCH   1   5
ATOM      5  C   UNL     1     213.463 195.807 213.038  1.00  0.00     0.156 C 
BRANCH   5   6
ATOM      6  O   UNL     1     213.404 194.427 212.797  1.00  0.00    -0.396 OA
ATOM      7  H   UNL     1     214.197 194.028 213.241  1.00  0.00     0.210 HD
ENDBRANCH   5   6
ENDBRANCH   1   5
TORSDOF 4
ENDMDL
MODEL 6
REMARK VINA RESULT:    -2.741     14.780     15.341
REMARK INTER + INTRA:          -3.350
REMARK INTER:                  -3.329
REMARK INTRA:                  -0.021
REMARK UNBOUND:                -0.048
REMARK SMILES CCCCCO
REMARK SMILES IDX 4 1 3 2 2 3 1 4 5 5 6 6
REMARK H PARENT 6 7
REMARK Flexibility Score: inf
ROOT
ATOM      1  C   UNL     1     210.750 212.968 215.963  1.00  0.00     0.028 C 
ENDROOT
BRANCH   1   2
ATOM      2  C   UNL     1     210.356 212.545 214.538  1.00  0.00     0.002 C 
BRANCH   2   3
ATOM      3  C   UNL     1     210.982 213.444 213.462  1.00  0.00    -0.003 C 
ATOM      4  C   UNL     1     212.353 213.950 213.898  1.00  0.00     0.004 C 
ENDBRANCH   2   3
ENDBRANCH   1   2
BRANCH   1   5
ATOM      5  C   UNL     1     210.029 212.153 217.044  1.00  0.00     0.156 C 
BRANCH   5   6
ATOM      6  O   UNL     1     210.253 210.783 216.846  1.00  0.00    -0.396 OA
ATOM      7  H   UNL     1     210.396 210.657 215.872  1.00  0.00     0.210 HD
ENDBRANCH   5   6
ENDBRANCH   1   5
TORSDOF 4
ENDMDL
MODEL 7
REMARK VINA RESULT:    -2.740      1.427      2.181
REMARK INTER + INTRA:          -3.349
REMARK INTER:                  -3.340
REMARK INTRA:                  -0.009
REMARK UNBOUND:                -0.048
REMARK SMILES CCCCCO
REMARK SMILES IDX 4 1 3 2 2 3 1 4 5 5 6 6
REMARK H PARENT 6 7
REMARK Flexibility Score: inf
ROOT
ATOM      1  C   UNL     1     212.096 197.783 211.363  1.00  0.00     0.028 C 
ENDROOT
BRANCH   1   2
ATOM      2  C   UNL     1     212.311 198.010 212.868  1.00  0.00     0.002 C 
BRANCH   2   3
ATOM      3  C   UNL     1     212.841 196.760 213.585  1.00  0.00    -0.003 C 
ATOM      4  C   UNL     1     212.705 196.895 215.098  1.00  0.00     0.004 C 
ENDBRANCH   2   3
ENDBRANCH   1   2
BRANCH   1   5
ATOM      5  C   UNL     1     210.935 198.610 210.798  1.00  0.00     0.156 C 
BRANCH   5   6
ATOM      6  O   UNL     1     211.186 199.978 210.975  1.00  0.00    -0.396 OA
ATOM      7  H   UNL     1     212.005 200.185 210.455  1.00  0.00     0.210 HD
ENDBRANCH   5   6
ENDBRANCH   1   5
TORSDOF 4
ENDMDL
MODEL 8
REMARK VINA RESULT:    -2.732      1.760      1.800
REMARK INTER + INTRA:          -3.339
REMARK INTER:                  -3.329
REMARK INTRA:                  -0.010
REMARK UNBOUND:                -0.048
REMARK SMILES CCCCCO
REMARK SMILES IDX 4 1 3 2 2 3 1 4 5 5 6 6
REMARK H PARENT 6 7
REMARK Flexibility Score: inf
ROOT
ATOM      1  C   UNL     1     212.600 197.081 213.104  1.00  0.00     0.028 C 
ENDROOT
BRANCH   1   2
ATOM      2  C   UNL     1     213.493 196.619 214.266  1.00  0.00     0.002 C 
BRANCH   2   3
ATOM      3  C   UNL     1     213.271 197.440 215.545  1.00  0.00    -0.003 C 
ATOM      4  C   UNL     1     212.163 196.833 216.400  1.00  0.00     0.004 C 
ENDBRANCH   2   3
ENDBRANCH   1   2
BRANCH   1   5
ATOM      5  C   UNL     1     212.726 196.186 211.865  1.00  0.00     0.156 C 
BRANCH   5   6
ATOM      6  O   UNL     1     211.469 196.000 211.273  1.00  0.00    -0.396 OA
ATOM      7  H   UNL     1     211.143 195.112 211.572  1.00  0.00     0.210 HD
ENDBRANCH   5   6
ENDBRANCH   1   5
TORSDOF 4
ENDMDL
MODEL 9
REMARK VINA RESULT:    -2.671      2.342      4.810
REMARK INTER + INTRA:          -3.265
REMARK INTER:                  -3.195
REMARK INTRA:                  -0.070
REMARK UNBOUND:                -0.048
REMARK SMILES CCCCCO
REMARK SMILES IDX 4 1 3 2 2 3 1 4 5 5 6 6
REMARK H PARENT 6 7
REMARK Flexibility Score: inf
ROOT
ATOM      1  C   UNL     1     212.241 197.375 211.444  1.00  0.00     0.028 C 
ENDROOT
BRANCH   1   2
ATOM      2  C   UNL     1     211.097 197.867 210.541  1.00  0.00     0.002 C 
BRANCH   2   3
ATOM      3  C   UNL     1     211.599 198.698 209.352  1.00  0.00    -0.003 C 
ATOM      4  C   UNL     1     210.945 200.076 209.330  1.00  0.00     0.004 C 
ENDBRANCH   2   3
ENDBRANCH   1   2
BRANCH   1   5
ATOM      5  C   UNL     1     212.268 198.082 212.804  1.00  0.00     0.156 C 
BRANCH   5   6
ATOM      6  O   UNL     1     211.472 199.235 212.766  1.00  0.00    -0.396 OA
ATOM      7  H   UNL     1     212.089 200.001 212.633  1.00  0.00     0.210 HD
ENDBRANCH   5   6
ENDBRANCH   1   5
TORSDOF 4
ENDMDL
