MODEL 1
REMARK VINA RESULT:    -3.327      0.000      0.000
REMARK INTER + INTRA:          -7.806
REMARK INTER:                  -6.049
REMARK INTRA:                  -1.757
REMARK UNBOUND:                -1.757
REMARK SMILES CCCCCCCCCCCCCCCC(=O)[O-]
REMARK SMILES IDX 9 1 10 2 11 3 12 4 13 5 14 6 15 7 16 8 17 9 18 10 8 11 7 12
REMARK SMILES IDX 6 13 5 14 4 15 3 16 2 17 1 18
REMARK H PARENT
REMARK Flexibility Score: inf
ROOT
ATOM      1  C   UNL     1     -18.925  41.420  93.687  1.00  0.00     0.000 C 
ENDROOT
BRANCH   1   2
ATOM      2  C   UNL     1     -18.884  41.299  95.218  1.00  0.00     0.000 C 
BRANCH   2   3
ATOM      3  C   UNL     1     -17.439  41.208  95.722  1.00  0.00     0.000 C 
BRANCH   3   4
ATOM      4  C   UNL     1     -16.467  40.923  94.568  1.00  0.00     0.000 C 
BRANCH   4   5
ATOM      5  C   UNL     1     -15.138  40.309  95.059  1.00  0.00     0.000 C 
BRANCH   5   6
ATOM      6  C   UNL     1     -14.469  39.383  94.025  1.00  0.00     0.006 C 
BRANCH   6   7
ATOM      7  C   UNL     1     -15.389  38.974  92.864  1.00  0.00     0.053 C 
BRANCH   7   8
ATOM      8  C   UNL     1     -14.691  39.065  91.542  1.00  0.00     0.041 C 
ATOM      9  O   UNL     1     -15.223  38.586  90.507  1.00  0.00    -0.550 OA
ATOM     10  O   UNL     1     -13.457  39.699  91.449  1.00  0.00    -0.550 OA
ENDBRANCH   7   8
ENDBRANCH   6   7
ENDBRANCH   5   6
ENDBRANCH   4   5
ENDBRANCH   3   4
ENDBRANCH   2   3
ENDBRANCH   1   2
BRANCH   1  11
ATOM     11  C   UNL     1     -20.279  41.001  93.093  1.00  0.00     0.000 C 
BRANCH  11  12
ATOM     12  C   UNL     1     -20.380  39.481  92.867  1.00  0.00    -0.000 C 
BRANCH  12  13
ATOM     13  C   UNL     1     -19.038  38.855  92.452  1.00  0.00    -0.000 C 
BRANCH  13  14
ATOM     14  C   UNL     1     -18.732  39.053  90.957  1.00  0.00    -0.000 C 
BRANCH  14  15
ATOM     15  C   UNL     1     -19.460  38.034  90.064  1.00  0.00    -0.000 C 
BRANCH  15  16
ATOM     16  C   UNL     1     -19.225  36.580  90.512  1.00  0.00    -0.000 C 
BRANCH  16  17
ATOM     17  C   UNL     1     -17.778  36.120  90.277  1.00  0.00    -0.003 C 
ATOM     18  C   UNL     1     -17.078  35.682  91.563  1.00  0.00     0.004 C 
ENDBRANCH  16  17
ENDBRANCH  15  16
ENDBRANCH  14  15
ENDBRANCH  13  14
ENDBRANCH  12  13
ENDBRANCH  11  12
ENDBRANCH   1  11
TORSDOF 14
ENDMDL
MODEL 2
REMARK VINA RESULT:    -3.301     17.534     19.566
REMARK INTER + INTRA:          -7.760
REMARK INTER:                  -5.344
REMARK INTRA:                  -2.415
REMARK UNBOUND:                -1.757
REMARK SMILES CCCCCCCCCCCCCCCC(=O)[O-]
REMARK SMILES IDX 9 1 10 2 11 3 12 4 13 5 14 6 15 7 16 8 17 9 18 10 8 11 7 12
REMARK SMILES IDX 6 13 5 14 4 15 3 16 2 17 1 18
REMARK H PARENT
REMARK Flexibility Score: inf
ROOT
ATOM      1  C   UNL     1      -7.737  31.214 105.276  1.00  0.00     0.000 C 
ENDROOT
BRANCH   1   2
ATOM      2  C   UNL     1      -6.915  31.697 104.071  1.00  0.00     0.000 C 
BRANCH   2   3
ATOM      3  C   UNL     1      -5.809  30.693 103.724  1.00  0.00     0.000 C 
BRANCH   3   4
ATOM      4  C   UNL     1      -4.468  31.405 103.497  1.00  0.00     0.000 C 
BRANCH   4   5
ATOM      5  C   UNL     1      -4.622  32.940 103.435  1.00  0.00     0.000 C 
BRANCH   5   6
ATOM      6  C   UNL     1      -3.803  33.594 102.305  1.00  0.00     0.006 C 
BRANCH   6   7
ATOM      7  C   UNL     1      -2.283  33.463 102.477  1.00  0.00     0.053 C 
BRANCH   7   8
ATOM      8  C   UNL     1      -1.675  32.598 101.417  1.00  0.00     0.041 C 
ATOM      9  O   UNL     1      -1.590  33.011 100.230  1.00  0.00    -0.550 OA
ATOM     10  O   UNL     1      -1.184  31.339 101.742  1.00  0.00    -0.550 OA
ENDBRANCH   7   8
ENDBRANCH   6   7
ENDBRANCH   5   6
ENDBRANCH   4   5
ENDBRANCH   3   4
ENDBRANCH   2   3
ENDBRANCH   1   2
BRANCH   1  11
ATOM     11  C   UNL     1      -7.344  29.801 105.736  1.00  0.00     0.000 C 
BRANCH  11  12
ATOM     12  C   UNL     1      -7.150  29.709 107.261  1.00  0.00    -0.000 C 
BRANCH  12  13
ATOM     13  C   UNL     1      -5.799  29.082 107.648  1.00  0.00    -0.000 C 
BRANCH  13  14
ATOM     14  C   UNL     1      -4.609  29.781 106.968  1.00  0.00    -0.000 C 
BRANCH  14  15
ATOM     15  C   UNL     1      -4.102  30.996 107.764  1.00  0.00    -0.000 C 
BRANCH  15  16
ATOM     16  C   UNL     1      -4.333  32.326 107.024  1.00  0.00    -0.000 C 
BRANCH  16  17
ATOM     17  C   UNL     1      -5.534  33.107 107.580  1.00  0.00    -0.003 C 
ATOM     18  C   UNL     1      -5.970  34.253 106.666  1.00  0.00     0.004 C 
ENDBRANCH  16  17
ENDBRANCH  15  16
ENDBRANCH  14  15
ENDBRANCH  13  14
ENDBRANCH  12  13
ENDBRANCH  11  12
ENDBRANCH   1  11
TORSDOF 14
ENDMDL
MODEL 3
REMARK VINA RESULT:    -3.254      1.739      4.590
REMARK INTER + INTRA:          -7.673
REMARK INTER:                  -5.505
REMARK INTRA:                  -2.168
REMARK UNBOUND:                -1.757
REMARK SMILES CCCCCCCCCCCCCCCC(=O)[O-]
REMARK SMILES IDX 9 1 10 2 11 3 12 4 13 5 14 6 15 7 16 8 17 9 18 10 8 11 7 12
REMARK SMILES IDX 6 13 5 14 4 15 3 16 2 17 1 18
REMARK H PARENT
REMARK Flexibility Score: inf
ROOT
ATOM      1  C   UNL     1     -19.473  40.429  92.961  1.00  0.00     0.000 C 
ENDROOT
BRANCH   1   2
ATOM      2  C   UNL     1     -20.893  40.110  93.455  1.00  0.00     0.000 C 
BRANCH   2   3
ATOM      3  C   UNL     1     -21.124  38.596  93.516  1.00  0.00     0.000 C 
BRANCH   3   4
ATOM      4  C   UNL     1     -19.883  37.867  94.050  1.00  0.00     0.000 C 
BRANCH   4   5
ATOM      5  C   UNL     1     -19.612  36.544  93.302  1.00  0.00     0.000 C 
BRANCH   5   6
ATOM      6  C   UNL     1     -20.263  36.483  91.907  1.00  0.00     0.006 C 
BRANCH   6   7
ATOM      7  C   UNL     1     -19.258  36.496  90.746  1.00  0.00     0.053 C 
BRANCH   7   8
ATOM      8  C   UNL     1     -18.769  37.880  90.448  1.00  0.00     0.041 C 
ATOM      9  O   UNL     1     -19.542  38.732  89.938  1.00  0.00    -0.550 OA
ATOM     10  O   UNL     1     -17.460  38.235  90.753  1.00  0.00    -0.550 OA
ENDBRANCH   7   8
ENDBRANCH   6   7
ENDBRANCH   5   6
ENDBRANCH   4   5
ENDBRANCH   3   4
ENDBRANCH   2   3
ENDBRANCH   1   2
BRANCH   1  11
ATOM     11  C   UNL     1     -18.755  41.463  93.842  1.00  0.00     0.000 C 
BRANCH  11  12
ATOM     12  C   UNL     1     -18.880  41.148  95.344  1.00  0.00    -0.000 C 
BRANCH  12  13
ATOM     13  C   UNL     1     -17.518  40.877  96.006  1.00  0.00    -0.000 C 
BRANCH  13  14
ATOM     14  C   UNL     1     -16.339  41.100  95.043  1.00  0.00    -0.000 C 
BRANCH  14  15
ATOM     15  C   UNL     1     -15.459  39.849  94.886  1.00  0.00    -0.000 C 
BRANCH  15  16
ATOM     16  C   UNL     1     -16.093  38.792  93.964  1.00  0.00    -0.000 C 
BRANCH  16  17
ATOM     17  C   UNL     1     -15.734  37.357  94.381  1.00  0.00    -0.003 C 
ATOM     18  C   UNL     1     -16.081  36.324  93.309  1.00  0.00     0.004 C 
ENDBRANCH  16  17
ENDBRANCH  15  16
ENDBRANCH  14  15
ENDBRANCH  13  14
ENDBRANCH  12  13
ENDBRANCH  11  12
ENDBRANCH   1  11
TORSDOF 14
ENDMDL
MODEL 4
REMARK VINA RESULT:    -3.217     14.896     16.533
REMARK INTER + INTRA:          -7.606
REMARK INTER:                  -6.460
REMARK INTRA:                  -1.146
REMARK UNBOUND:                -1.757
REMARK SMILES CCCCCCCCCCCCCCCC(=O)[O-]
REMARK SMILES IDX 9 1 10 2 11 3 12 4 13 5 14 6 15 7 16 8 17 9 18 10 8 11 7 12
REMARK SMILES IDX 6 13 5 14 4 15 3 16 2 17 1 18
REMARK H PARENT
REMARK Flexibility Score: inf
ROOT
ATOM      1  C   UNL     1      -2.147  38.850  96.654  1.00  0.00     0.000 C 
ENDROOT
BRANCH   1   2
ATOM      2  C   UNL     1      -1.179  39.364  95.578  1.00  0.00     0.000 C 
BRANCH   2   3
ATOM      3  C   UNL     1      -1.600  38.879  94.185  1.00  0.00     0.000 C 
BRANCH   3   4
ATOM      4  C   UNL     1      -2.669  39.800  93.578  1.00  0.00     0.000 C 
BRANCH   4   5
ATOM      5  C   UNL     1      -2.585  39.859  92.037  1.00  0.00     0.000 C 
BRANCH   5   6
ATOM      6  C   UNL     1      -1.208  39.449  91.481  1.00  0.00     0.006 C 
BRANCH   6   7
ATOM      7  C   UNL     1      -1.255  38.864  90.061  1.00  0.00     0.053 C 
BRANCH   7   8
ATOM      8  C   UNL     1      -1.129  37.371  90.070  1.00  0.00     0.041 C 
ATOM      9  O   UNL     1      -1.260  36.728  91.143  1.00  0.00    -0.550 OA
ATOM     10  O   UNL     1      -0.884  36.688  88.885  1.00  0.00    -0.550 OA
ENDBRANCH   7   8
ENDBRANCH   6   7
ENDBRANCH   5   6
ENDBRANCH   4   5
ENDBRANCH   3   4
ENDBRANCH   2   3
ENDBRANCH   1   2
BRANCH   1  11
ATOM     11  C   UNL     1      -2.668  39.969  97.569  1.00  0.00     0.000 C 
BRANCH  11  12
ATOM     12  C   UNL     1      -2.273  41.372  97.072  1.00  0.00    -0.000 C 
BRANCH  12  13
ATOM     13  C   UNL     1      -3.473  42.167  96.531  1.00  0.00    -0.000 C 
BRANCH  13  14
ATOM     14  C   UNL     1      -3.049  43.299  95.580  1.00  0.00    -0.000 C 
BRANCH  14  15
ATOM     15  C   UNL     1      -3.345  44.696  96.154  1.00  0.00    -0.000 C 
BRANCH  15  16
ATOM     16  C   UNL     1      -2.120  45.627  96.104  1.00  0.00    -0.000 C 
BRANCH  16  17
ATOM     17  C   UNL     1      -2.132  46.674  97.229  1.00  0.00    -0.003 C 
ATOM     18  C   UNL     1      -3.380  46.588  98.106  1.00  0.00     0.004 C 
ENDBRANCH  16  17
ENDBRANCH  15  16
ENDBRANCH  14  15
ENDBRANCH  13  14
ENDBRANCH  12  13
ENDBRANCH  11  12
ENDBRANCH   1  11
TORSDOF 14
ENDMDL
MODEL 5
REMARK VINA RESULT:    -3.194      1.890      5.461
REMARK INTER + INTRA:          -7.565
REMARK INTER:                  -6.160
REMARK INTRA:                  -1.405
REMARK UNBOUND:                -1.757
REMARK SMILES CCCCCCCCCCCCCCCC(=O)[O-]
REMARK SMILES IDX 9 1 10 2 11 3 12 4 13 5 14 6 15 7 16 8 17 9 18 10 8 11 7 12
REMARK SMILES IDX 6 13 5 14 4 15 3 16 2 17 1 18
REMARK H PARENT
REMARK Flexibility Score: inf
ROOT
ATOM      1  C   UNL     1     -19.603  40.439  93.099  1.00  0.00     0.000 C 
ENDROOT
BRANCH   1   2
ATOM      2  C   UNL     1     -20.909  40.032  93.800  1.00  0.00     0.000 C 
BRANCH   2   3
ATOM      3  C   UNL     1     -21.089  38.509  93.781  1.00  0.00     0.000 C 
BRANCH   3   4
ATOM      4  C   UNL     1     -19.755  37.791  94.033  1.00  0.00     0.000 C 
BRANCH   4   5
ATOM      5  C   UNL     1     -19.619  36.498  93.200  1.00  0.00     0.000 C 
BRANCH   5   6
ATOM      6  C   UNL     1     -20.387  36.544  91.865  1.00  0.00     0.006 C 
BRANCH   6   7
ATOM      7  C   UNL     1     -19.483  36.620  90.625  1.00  0.00     0.053 C 
BRANCH   7   8
ATOM      8  C   UNL     1     -18.857  37.972  90.475  1.00  0.00     0.041 C 
ATOM      9  O   UNL     1     -17.666  38.166  90.833  1.00  0.00    -0.550 OA
ATOM     10  O   UNL     1     -19.585  39.017  89.919  1.00  0.00    -0.550 OA
ENDBRANCH   7   8
ENDBRANCH   6   7
ENDBRANCH   5   6
ENDBRANCH   4   5
ENDBRANCH   3   4
ENDBRANCH   2   3
ENDBRANCH   1   2
BRANCH   1  11
ATOM     11  C   UNL     1     -18.784  41.453  93.912  1.00  0.00     0.000 C 
BRANCH  11  12
ATOM     12  C   UNL     1     -18.749  41.117  95.414  1.00  0.00    -0.000 C 
BRANCH  12  13
ATOM     13  C   UNL     1     -17.324  40.855  95.929  1.00  0.00    -0.000 C 
BRANCH  13  14
ATOM     14  C   UNL     1     -16.252  41.116  94.856  1.00  0.00    -0.000 C 
BRANCH  14  15
ATOM     15  C   UNL     1     -15.294  39.926  94.675  1.00  0.00    -0.000 C 
BRANCH  15  16
ATOM     16  C   UNL     1     -13.868  40.235  95.164  1.00  0.00    -0.000 C 
BRANCH  16  17
ATOM     17  C   UNL     1     -13.271  41.478  94.485  1.00  0.00    -0.003 C 
ATOM     18  C   UNL     1     -11.742  41.467  94.469  1.00  0.00     0.004 C 
ENDBRANCH  16  17
ENDBRANCH  15  16
ENDBRANCH  14  15
ENDBRANCH  13  14
ENDBRANCH  12  13
ENDBRANCH  11  12
ENDBRANCH   1  11
TORSDOF 14
ENDMDL
MODEL 6
REMARK VINA RESULT:    -3.188      2.226      5.761
REMARK INTER + INTRA:          -7.554
REMARK INTER:                  -6.493
REMARK INTRA:                  -1.061
REMARK UNBOUND:                -1.757
REMARK SMILES CCCCCCCCCCCCCCCC(=O)[O-]
REMARK SMILES IDX 9 1 10 2 11 3 12 4 13 5 14 6 15 7 16 8 17 9 18 10 8 11 7 12
REMARK SMILES IDX 6 13 5 14 4 15 3 16 2 17 1 18
REMARK H PARENT
REMARK Flexibility Score: inf
ROOT
ATOM      1  C   UNL     1     -18.949  40.754  95.251  1.00  0.00     0.000 C 
ENDROOT
BRANCH   1   2
ATOM      2  C   UNL     1     -19.062  41.230  93.795  1.00  0.00     0.000 C 
BRANCH   2   3
ATOM      3  C   UNL     1     -20.425  40.857  93.200  1.00  0.00     0.000 C 
BRANCH   3   4
ATOM      4  C   UNL     1     -20.299  39.679  92.223  1.00  0.00     0.000 C 
BRANCH   4   5
ATOM      5  C   UNL     1     -18.830  39.259  91.999  1.00  0.00     0.000 C 
BRANCH   5   6
ATOM      6  C   UNL     1     -18.496  37.867  92.569  1.00  0.00     0.006 C 
BRANCH   6   7
ATOM      7  C   UNL     1     -19.079  36.701  91.756  1.00  0.00     0.053 C 
BRANCH   7   8
ATOM      8  C   UNL     1     -18.713  36.796  90.306  1.00  0.00     0.041 C 
ATOM      9  O   UNL     1     -19.604  36.976  89.436  1.00  0.00    -0.550 OA
ATOM     10  O   UNL     1     -17.382  36.704  89.918  1.00  0.00    -0.550 OA
ENDBRANCH   7   8
ENDBRANCH   6   7
ENDBRANCH   5   6
ENDBRANCH   4   5
ENDBRANCH   3   4
ENDBRANCH   2   3
ENDBRANCH   1   2
BRANCH   1  11
ATOM     11  C   UNL     1     -17.612  41.142  95.902  1.00  0.00     0.000 C 
BRANCH  11  12
ATOM     12  C   UNL     1     -16.449  41.169  94.892  1.00  0.00    -0.000 C 
BRANCH  12  13
ATOM     13  C   UNL     1     -15.442  40.029  95.121  1.00  0.00    -0.000 C 
BRANCH  13  14
ATOM     14  C   UNL     1     -14.130  40.238  94.345  1.00  0.00    -0.000 C 
BRANCH  14  15
ATOM     15  C   UNL     1     -13.026  40.873  95.209  1.00  0.00    -0.000 C 
BRANCH  15  16
ATOM     16  C   UNL     1     -12.264  41.987  94.469  1.00  0.00    -0.000 C 
BRANCH  16  17
ATOM     17  C   UNL     1     -11.171  41.435  93.541  1.00  0.00    -0.003 C 
ATOM     18  C   UNL     1     -11.283  41.965  92.112  1.00  0.00     0.004 C 
ENDBRANCH  16  17
ENDBRANCH  15  16
ENDBRANCH  14  15
ENDBRANCH  13  14
ENDBRANCH  12  13
ENDBRANCH  11  12
ENDBRANCH   1  11
TORSDOF 14
ENDMDL
MODEL 7
REMARK VINA RESULT:    -3.158     16.477     19.177
REMARK INTER + INTRA:          -7.499
REMARK INTER:                  -4.726
REMARK INTRA:                  -2.773
REMARK UNBOUND:                -1.757
REMARK SMILES CCCCCCCCCCCCCCCC(=O)[O-]
REMARK SMILES IDX 9 1 10 2 11 3 12 4 13 5 14 6 15 7 16 8 17 9 18 10 8 11 7 12
REMARK SMILES IDX 6 13 5 14 4 15 3 16 2 17 1 18
REMARK H PARENT
REMARK Flexibility Score: inf
ROOT
ATOM      1  C   UNL     1      -4.992  29.510 107.228  1.00  0.00     0.000 C 
ENDROOT
BRANCH   1   2
ATOM      2  C   UNL     1      -6.450  29.531 107.712  1.00  0.00     0.000 C 
BRANCH   2   3
ATOM      3  C   UNL     1      -7.394  28.991 106.632  1.00  0.00     0.000 C 
BRANCH   3   4
ATOM      4  C   UNL     1      -8.661  29.851 106.524  1.00  0.00     0.000 C 
BRANCH   4   5
ATOM      5  C   UNL     1      -8.628  31.065 107.478  1.00  0.00     0.000 C 
BRANCH   5   6
ATOM      6  C   UNL     1      -9.354  32.305 106.921  1.00  0.00     0.006 C 
BRANCH   6   7
ATOM      7  C   UNL     1     -10.504  31.976 105.957  1.00  0.00     0.053 C 
BRANCH   7   8
ATOM      8  C   UNL     1     -10.646  33.013 104.886  1.00  0.00     0.041 C 
ATOM      9  O   UNL     1     -11.509  33.924 104.992  1.00  0.00    -0.550 OA
ATOM     10  O   UNL     1      -9.810  32.985 103.776  1.00  0.00    -0.550 OA
ENDBRANCH   7   8
ENDBRANCH   6   7
ENDBRANCH   5   6
ENDBRANCH   4   5
ENDBRANCH   3   4
ENDBRANCH   2   3
ENDBRANCH   1   2
BRANCH   1  11
ATOM     11  C   UNL     1      -4.242  30.814 107.543  1.00  0.00     0.000 C 
BRANCH  11  12
ATOM     12  C   UNL     1      -5.124  31.840 108.278  1.00  0.00    -0.000 C 
BRANCH  12  13
ATOM     13  C   UNL     1      -5.476  33.053 107.401  1.00  0.00    -0.000 C 
BRANCH  13  14
ATOM     14  C   UNL     1      -4.418  33.325 106.317  1.00  0.00    -0.000 C 
BRANCH  14  15
ATOM     15  C   UNL     1      -4.997  33.251 104.893  1.00  0.00    -0.000 C 
BRANCH  15  16
ATOM     16  C   UNL     1      -6.421  32.668 104.863  1.00  0.00    -0.000 C 
BRANCH  16  17
ATOM     17  C   UNL     1      -6.534  31.441 103.944  1.00  0.00    -0.003 C 
ATOM     18  C   UNL     1      -5.205  30.707 103.769  1.00  0.00     0.004 C 
ENDBRANCH  16  17
ENDBRANCH  15  16
ENDBRANCH  14  15
ENDBRANCH  13  14
ENDBRANCH  12  13
ENDBRANCH  11  12
ENDBRANCH   1  11
TORSDOF 14
ENDMDL
MODEL 8
REMARK VINA RESULT:    -3.144     12.235     15.196
REMARK INTER + INTRA:          -7.473
REMARK INTER:                  -5.087
REMARK INTRA:                  -2.386
REMARK UNBOUND:                -1.757
REMARK SMILES CCCCCCCCCCCCCCCC(=O)[O-]
REMARK SMILES IDX 9 1 10 2 11 3 12 4 13 5 14 6 15 7 16 8 17 9 18 10 8 11 7 12
REMARK SMILES IDX 6 13 5 14 4 15 3 16 2 17 1 18
REMARK H PARENT
REMARK Flexibility Score: inf
ROOT
ATOM      1  C   UNL     1      -1.123  38.534  95.371  1.00  0.00     0.000 C 
ENDROOT
BRANCH   1   2
ATOM      2  C   UNL     1      -1.889  38.246  96.672  1.00  0.00     0.000 C 
BRANCH   2   3
ATOM      3  C   UNL     1      -2.441  39.540  97.281  1.00  0.00     0.000 C 
BRANCH   3   4
ATOM      4  C   UNL     1      -2.027  40.764  96.451  1.00  0.00     0.000 C 
BRANCH   4   5
ATOM      5  C   UNL     1      -2.870  42.013  96.786  1.00  0.00     0.000 C 
BRANCH   5   6
ATOM      6  C   UNL     1      -3.089  42.948  95.582  1.00  0.00     0.006 C 
BRANCH   6   7
ATOM      7  C   UNL     1      -2.882  44.437  95.898  1.00  0.00     0.053 C 
BRANCH   7   8
ATOM      8  C   UNL     1      -3.937  44.961  96.822  1.00  0.00     0.041 C 
ATOM      9  O   UNL     1      -3.620  45.669  97.814  1.00  0.00    -0.550 OA
ATOM     10  O   UNL     1      -5.277  44.684  96.577  1.00  0.00    -0.550 OA
ENDBRANCH   7   8
ENDBRANCH   6   7
ENDBRANCH   5   6
ENDBRANCH   4   5
ENDBRANCH   3   4
ENDBRANCH   2   3
ENDBRANCH   1   2
BRANCH   1  11
ATOM     11  C   UNL     1      -1.456  37.536  94.252  1.00  0.00     0.000 C 
BRANCH  11  12
ATOM     12  C   UNL     1      -1.489  38.196  92.861  1.00  0.00    -0.000 C 
BRANCH  12  13
ATOM     13  C   UNL     1      -2.046  39.629  92.900  1.00  0.00    -0.000 C 
BRANCH  13  14
ATOM     14  C   UNL     1      -3.527  39.697  92.486  1.00  0.00    -0.000 C 
BRANCH  14  15
ATOM     15  C   UNL     1      -4.447  40.113  93.646  1.00  0.00    -0.000 C 
BRANCH  15  16
ATOM     16  C   UNL     1      -4.859  38.923  94.530  1.00  0.00    -0.000 C 
BRANCH  16  17
ATOM     17  C   UNL     1      -6.105  39.224  95.378  1.00  0.00    -0.003 C 
ATOM     18  C   UNL     1      -6.158  40.674  95.859  1.00  0.00     0.004 C 
ENDBRANCH  16  17
ENDBRANCH  15  16
ENDBRANCH  14  15
ENDBRANCH  13  14
ENDBRANCH  12  13
ENDBRANCH  11  12
ENDBRANCH   1  11
TORSDOF 14
ENDMDL
MODEL 9
REMARK VINA RESULT:    -3.142      3.245      5.659
REMARK INTER + INTRA:          -7.470
REMARK INTER:                  -5.495
REMARK INTRA:                  -1.975
REMARK UNBOUND:                -1.757
REMARK SMILES CCCCCCCCCCCCCCCC(=O)[O-]
REMARK SMILES IDX 9 1 10 2 11 3 12 4 13 5 14 6 15 7 16 8 17 9 18 10 8 11 7 12
REMARK SMILES IDX 6 13 5 14 4 15 3 16 2 17 1 18
REMARK H PARENT
REMARK Flexibility Score: inf
ROOT
ATOM      1  C   UNL     1     -20.342  39.561  92.263  1.00  0.00     0.000 C 
ENDROOT
BRANCH   1   2
ATOM      2  C   UNL     1     -19.099  39.248  91.415  1.00  0.00     0.000 C 
BRANCH   2   3
ATOM      3  C   UNL     1     -19.308  37.976  90.584  1.00  0.00     0.000 C 
BRANCH   3   4
ATOM      4  C   UNL     1     -19.868  36.838  91.448  1.00  0.00     0.000 C 
BRANCH   4   5
ATOM      5  C   UNL     1     -18.801  36.235  92.388  1.00  0.00     0.000 C 
BRANCH   5   6
ATOM      6  C   UNL     1     -19.146  36.381  93.882  1.00  0.00     0.006 C 
BRANCH   6   7
ATOM      7  C   UNL     1     -18.864  35.122  94.716  1.00  0.00     0.053 C 
BRANCH   7   8
ATOM      8  C   UNL     1     -19.910  34.071  94.509  1.00  0.00     0.041 C 
ATOM      9  O   UNL     1     -21.123  34.392  94.401  1.00  0.00    -0.550 OA
ATOM     10  O   UNL     1     -19.544  32.734  94.414  1.00  0.00    -0.550 OA
ENDBRANCH   7   8
ENDBRANCH   6   7
ENDBRANCH   5   6
ENDBRANCH   4   5
ENDBRANCH   3   4
ENDBRANCH   2   3
ENDBRANCH   1   2
BRANCH   1  11
ATOM     11  C   UNL     1     -20.093  40.671  93.296  1.00  0.00     0.000 C 
BRANCH  11  12
ATOM     12  C   UNL     1     -19.575  40.123  94.639  1.00  0.00    -0.000 C 
BRANCH  12  13
ATOM     13  C   UNL     1     -18.540  41.052  95.296  1.00  0.00    -0.000 C 
BRANCH  13  14
ATOM     14  C   UNL     1     -17.299  41.271  94.413  1.00  0.00    -0.000 C 
BRANCH  14  15
ATOM     15  C   UNL     1     -16.002  40.791  95.085  1.00  0.00    -0.000 C 
BRANCH  15  16
ATOM     16  C   UNL     1     -15.252  39.743  94.243  1.00  0.00    -0.000 C 
BRANCH  16  17
ATOM     17  C   UNL     1     -16.206  38.826  93.461  1.00  0.00    -0.003 C 
ATOM     18  C   UNL     1     -15.645  38.409  92.101  1.00  0.00     0.004 C 
ENDBRANCH  16  17
ENDBRANCH  15  16
ENDBRANCH  14  15
ENDBRANCH  13  14
ENDBRANCH  12  13
ENDBRANCH  11  12
ENDBRANCH   1  11
TORSDOF 14
ENDMDL
