MODEL 1
REMARK VINA RESULT:    -5.790      0.000      0.000
REMARK INTER + INTRA:          -9.971
REMARK INTER:                  -8.837
REMARK INTRA:                  -1.134
REMARK UNBOUND:                -1.134
REMARK SMILES CCCCCCCCCC=CC(=O)[O-]
REMARK SMILES IDX 7 1 8 2 9 3 10 4 11 5 12 6 13 7 14 8 6 9 5 10 4 11 3 12 2 13
REMARK SMILES IDX 1 14
REMARK H PARENT
REMARK Flexibility Score: inf
ROOT
ATOM      1  C   UNL     1      21.989  -0.084  -0.426  1.00  0.00     0.000 C 
ENDROOT
BRANCH   1   2
ATOM      2  C   UNL     1      22.367   0.738  -1.664  1.00  0.00     0.004 C 
BRANCH   2   3
ATOM      3  C   UNL     1      22.601  -0.170  -2.876  1.00  0.00     0.027 C 
BRANCH   3   4
ATOM      4  C   UNL     1      21.757  -1.410  -2.798  1.00  0.00    -0.025 C 
ATOM      5  C   UNL     1      22.129  -2.548  -3.395  1.00  0.00     0.020 C 
BRANCH   5   6
ATOM      6  C   UNL     1      21.306  -3.765  -3.337  1.00  0.00     0.064 C 
ATOM      7  O   UNL     1      20.763  -4.197  -4.386  1.00  0.00    -0.545 OA
ATOM      8  O   UNL     1      21.118  -4.447  -2.140  1.00  0.00    -0.545 OA
ENDBRANCH   5   6
ENDBRANCH   3   4
ENDBRANCH   2   3
ENDBRANCH   1   2
BRANCH   1   9
ATOM      9  C   UNL     1      23.190  -0.252   0.512  1.00  0.00     0.000 C 
BRANCH   9  10
ATOM     10  C   UNL     1      23.844  -1.627   0.330  1.00  0.00     0.000 C 
BRANCH  10  11
ATOM     11  C   UNL     1      25.146  -1.515  -0.476  1.00  0.00    -0.000 C 
BRANCH  11  12
ATOM     12  C   UNL     1      25.274  -2.600  -1.562  1.00  0.00    -0.000 C 
BRANCH  12  13
ATOM     13  C   UNL     1      26.059  -3.852  -1.136  1.00  0.00    -0.003 C 
ATOM     14  C   UNL     1      26.996  -3.598   0.045  1.00  0.00     0.004 C 
ENDBRANCH  12  13
ENDBRANCH  11  12
ENDBRANCH  10  11
ENDBRANCH   9  10
ENDBRANCH   1   9
TORSDOF 9
ENDMDL
MODEL 2
REMARK VINA RESULT:    -5.665      2.376      4.814
REMARK INTER + INTRA:          -9.779
REMARK INTER:                  -8.410
REMARK INTRA:                  -1.369
REMARK UNBOUND:                -1.134
REMARK SMILES CCCCCCCCCC=CC(=O)[O-]
REMARK SMILES IDX 7 1 8 2 9 3 10 4 11 5 12 6 13 7 14 8 6 9 5 10 4 11 3 12 2 13
REMARK SMILES IDX 1 14
REMARK H PARENT
REMARK Flexibility Score: inf
ROOT
ATOM      1  C   UNL     1      26.615  -4.141   0.812  1.00  0.00     0.000 C 
ENDROOT
BRANCH   1   2
ATOM      2  C   UNL     1      25.166  -4.389   1.247  1.00  0.00     0.004 C 
BRANCH   2   3
ATOM      3  C   UNL     1      24.692  -3.306   2.223  1.00  0.00     0.027 C 
BRANCH   3   4
ATOM      4  C   UNL     1      23.207  -3.101   2.129  1.00  0.00    -0.025 C 
ATOM      5  C   UNL     1      22.573  -3.113   0.951  1.00  0.00     0.020 C 
BRANCH   5   6
ATOM      6  C   UNL     1      21.122  -2.901   0.844  1.00  0.00     0.064 C 
ATOM      7  O   UNL     1      20.361  -3.345   1.742  1.00  0.00    -0.545 OA
ATOM      8  O   UNL     1      20.576  -2.215  -0.235  1.00  0.00    -0.545 OA
ENDBRANCH   5   6
ENDBRANCH   3   4
ENDBRANCH   2   3
ENDBRANCH   1   2
BRANCH   1   9
ATOM      9  C   UNL     1      26.725  -2.870  -0.039  1.00  0.00     0.000 C 
BRANCH   9  10
ATOM     10  C   UNL     1      26.255  -3.125  -1.475  1.00  0.00     0.000 C 
BRANCH  10  11
ATOM     11  C   UNL     1      24.974  -2.335  -1.784  1.00  0.00    -0.000 C 
BRANCH  11  12
ATOM     12  C   UNL     1      24.780  -1.122  -0.856  1.00  0.00    -0.000 C 
BRANCH  12  13
ATOM     13  C   UNL     1      23.546  -0.259  -1.171  1.00  0.00    -0.003 C 
ATOM     14  C   UNL     1      22.975   0.441   0.063  1.00  0.00     0.004 C 
ENDBRANCH  12  13
ENDBRANCH  11  12
ENDBRANCH  10  11
ENDBRANCH   9  10
ENDBRANCH   1   9
TORSDOF 9
ENDMDL
MODEL 3
REMARK VINA RESULT:    -5.651      1.464      2.196
REMARK INTER + INTRA:          -9.759
REMARK INTER:                  -8.130
REMARK INTRA:                  -1.629
REMARK UNBOUND:                -1.134
REMARK SMILES CCCCCCCCCC=CC(=O)[O-]
REMARK SMILES IDX 7 1 8 2 9 3 10 4 11 5 12 6 13 7 14 8 6 9 5 10 4 11 3 12 2 13
REMARK SMILES IDX 1 14
REMARK H PARENT
REMARK Flexibility Score: inf
ROOT
ATOM      1  C   UNL     1      22.488   0.514  -1.707  1.00  0.00     0.000 C 
ENDROOT
BRANCH   1   2
ATOM      2  C   UNL     1      22.781  -0.449  -2.864  1.00  0.00     0.004 C 
BRANCH   2   3
ATOM      3  C   UNL     1      21.759  -1.591  -2.901  1.00  0.00     0.027 C 
BRANCH   3   4
ATOM      4  C   UNL     1      22.433  -2.919  -3.093  1.00  0.00    -0.025 C 
ATOM      5  C   UNL     1      22.446  -3.842  -2.126  1.00  0.00     0.020 C 
BRANCH   5   6
ATOM      6  C   UNL     1      23.115  -5.141  -2.297  1.00  0.00     0.064 C 
ATOM      7  O   UNL     1      23.928  -5.540  -1.424  1.00  0.00    -0.545 OA
ATOM      8  O   UNL     1      22.861  -5.937  -3.408  1.00  0.00    -0.545 OA
ENDBRANCH   5   6
ENDBRANCH   3   4
ENDBRANCH   2   3
ENDBRANCH   1   2
BRANCH   1   9
ATOM      9  C   UNL     1      22.154  -0.253  -0.423  1.00  0.00     0.000 C 
BRANCH   9  10
ATOM     10  C   UNL     1      23.408  -0.469   0.433  1.00  0.00     0.000 C 
BRANCH  10  11
ATOM     11  C   UNL     1      23.512  -1.929   0.899  1.00  0.00    -0.000 C 
BRANCH  11  12
ATOM     12  C   UNL     1      24.820  -2.609   0.454  1.00  0.00    -0.000 C 
BRANCH  12  13
ATOM     13  C   UNL     1      25.425  -2.058  -0.848  1.00  0.00    -0.003 C 
ATOM     14  C   UNL     1      26.292  -3.079  -1.585  1.00  0.00     0.004 C 
ENDBRANCH  12  13
ENDBRANCH  11  12
ENDBRANCH  10  11
ENDBRANCH   9  10
ENDBRANCH   1   9
TORSDOF 9
ENDMDL
MODEL 4
REMARK VINA RESULT:    -5.618      2.444      5.325
REMARK INTER + INTRA:          -9.708
REMARK INTER:                  -8.676
REMARK INTRA:                  -1.033
REMARK UNBOUND:                -1.134
REMARK SMILES CCCCCCCCCC=CC(=O)[O-]
REMARK SMILES IDX 7 1 8 2 9 3 10 4 11 5 12 6 13 7 14 8 6 9 5 10 4 11 3 12 2 13
REMARK SMILES IDX 1 14
REMARK H PARENT
REMARK Flexibility Score: inf
ROOT
ATOM      1  C   UNL     1      26.902  -2.905  -0.435  1.00  0.00     0.000 C 
ENDROOT
BRANCH   1   2
ATOM      2  C   UNL     1      26.650  -4.075   0.523  1.00  0.00     0.004 C 
BRANCH   2   3
ATOM      3  C   UNL     1      25.682  -3.671   1.641  1.00  0.00     0.027 C 
BRANCH   3   4
ATOM      4  C   UNL     1      24.459  -4.542   1.644  1.00  0.00    -0.025 C 
ATOM      5  C   UNL     1      23.266  -4.071   2.022  1.00  0.00     0.020 C 
BRANCH   5   6
ATOM      6  C   UNL     1      22.063  -4.917   2.042  1.00  0.00     0.064 C 
ATOM      7  O   UNL     1      21.683  -5.431   3.125  1.00  0.00    -0.545 OA
ATOM      8  O   UNL     1      21.337  -5.159   0.880  1.00  0.00    -0.545 OA
ENDBRANCH   5   6
ENDBRANCH   3   4
ENDBRANCH   2   3
ENDBRANCH   1   2
BRANCH   1   9
ATOM      9  C   UNL     1      26.074  -3.054  -1.717  1.00  0.00     0.000 C 
BRANCH   9  10
ATOM     10  C   UNL     1      24.701  -2.389  -1.567  1.00  0.00     0.000 C 
BRANCH  10  11
ATOM     11  C   UNL     1      24.808  -1.074  -0.781  1.00  0.00    -0.000 C 
BRANCH  11  12
ATOM     12  C   UNL     1      23.596  -0.822   0.135  1.00  0.00    -0.000 C 
BRANCH  12  13
ATOM     13  C   UNL     1      22.841   0.490  -0.137  1.00  0.00    -0.003 C 
ATOM     14  C   UNL     1      22.393   0.632  -1.592  1.00  0.00     0.004 C 
ENDBRANCH  12  13
ENDBRANCH  11  12
ENDBRANCH  10  11
ENDBRANCH   9  10
ENDBRANCH   1   9
TORSDOF 9
ENDMDL
MODEL 5
REMARK VINA RESULT:    -5.584      1.435      2.099
REMARK INTER + INTRA:          -9.656
REMARK INTER:                  -8.756
REMARK INTRA:                  -0.900
REMARK UNBOUND:                -1.134
REMARK SMILES CCCCCCCCCC=CC(=O)[O-]
REMARK SMILES IDX 7 1 8 2 9 3 10 4 11 5 12 6 13 7 14 8 6 9 5 10 4 11 3 12 2 13
REMARK SMILES IDX 1 14
REMARK H PARENT
REMARK Flexibility Score: inf
ROOT
ATOM      1  C   UNL     1      22.317   0.179  -2.374  1.00  0.00     0.000 C 
ENDROOT
BRANCH   1   2
ATOM      2  C   UNL     1      22.794  -0.987  -3.248  1.00  0.00     0.004 C 
BRANCH   2   3
ATOM      3  C   UNL     1      21.781  -2.138  -3.228  1.00  0.00     0.027 C 
BRANCH   3   4
ATOM      4  C   UNL     1      22.333  -3.360  -3.904  1.00  0.00    -0.025 C 
ATOM      5  C   UNL     1      21.565  -4.425  -4.159  1.00  0.00     0.020 C 
BRANCH   5   6
ATOM      6  C   UNL     1      22.095  -5.633  -4.809  1.00  0.00     0.064 C 
ATOM      7  O   UNL     1      22.201  -5.668  -6.062  1.00  0.00    -0.545 OA
ATOM      8  O   UNL     1      22.484  -6.738  -4.059  1.00  0.00    -0.545 OA
ENDBRANCH   5   6
ENDBRANCH   3   4
ENDBRANCH   2   3
ENDBRANCH   1   2
BRANCH   1   9
ATOM      9  C   UNL     1      23.245   0.382  -1.171  1.00  0.00     0.000 C 
BRANCH   9  10
ATOM     10  C   UNL     1      22.798  -0.472   0.021  1.00  0.00     0.000 C 
BRANCH  10  11
ATOM     11  C   UNL     1      23.861  -1.521   0.377  1.00  0.00    -0.000 C 
BRANCH  11  12
ATOM     12  C   UNL     1      25.103  -1.448  -0.531  1.00  0.00    -0.000 C 
BRANCH  12  13
ATOM     13  C   UNL     1      25.374  -2.715  -1.359  1.00  0.00    -0.003 C 
ATOM     14  C   UNL     1      26.650  -3.445  -0.937  1.00  0.00     0.004 C 
ENDBRANCH  12  13
ENDBRANCH  11  12
ENDBRANCH  10  11
ENDBRANCH   9  10
ENDBRANCH   1   9
TORSDOF 9
ENDMDL
MODEL 6
REMARK VINA RESULT:    -5.567      1.929      4.232
REMARK INTER + INTRA:          -9.630
REMARK INTER:                  -8.051
REMARK INTRA:                  -1.579
REMARK UNBOUND:                -1.134
REMARK SMILES CCCCCCCCCC=CC(=O)[O-]
REMARK SMILES IDX 7 1 8 2 9 3 10 4 11 5 12 6 13 7 14 8 6 9 5 10 4 11 3 12 2 13
REMARK SMILES IDX 1 14
REMARK H PARENT
REMARK Flexibility Score: inf
ROOT
ATOM      1  C   UNL     1      26.111  -4.140   0.991  1.00  0.00     0.000 C 
ENDROOT
BRANCH   1   2
ATOM      2  C   UNL     1      25.132  -3.393   1.905  1.00  0.00     0.004 C 
BRANCH   2   3
ATOM      3  C   UNL     1      23.767  -4.091   1.937  1.00  0.00     0.027 C 
BRANCH   3   4
ATOM      4  C   UNL     1      23.464  -4.753   0.624  1.00  0.00    -0.025 C 
ATOM      5  C   UNL     1      22.505  -4.293  -0.186  1.00  0.00     0.020 C 
BRANCH   5   6
ATOM      6  C   UNL     1      22.189  -4.940  -1.468  1.00  0.00     0.064 C 
ATOM      7  O   UNL     1      20.986  -5.104  -1.801  1.00  0.00    -0.545 OA
ATOM      8  O   UNL     1      23.198  -5.374  -2.320  1.00  0.00    -0.545 OA
ENDBRANCH   5   6
ENDBRANCH   3   4
ENDBRANCH   2   3
ENDBRANCH   1   2
BRANCH   1   9
ATOM      9  C   UNL     1      26.921  -3.162   0.133  1.00  0.00     0.000 C 
BRANCH   9  10
ATOM     10  C   UNL     1      26.615  -3.353  -1.357  1.00  0.00     0.000 C 
BRANCH  10  11
ATOM     11  C   UNL     1      25.316  -2.635  -1.750  1.00  0.00    -0.000 C 
BRANCH  11  12
ATOM     12  C   UNL     1      25.132  -1.289  -1.025  1.00  0.00    -0.000 C 
BRANCH  12  13
ATOM     13  C   UNL     1      23.687  -0.760  -0.998  1.00  0.00    -0.003 C 
ATOM     14  C   UNL     1      23.135  -0.598   0.418  1.00  0.00     0.004 C 
ENDBRANCH  12  13
ENDBRANCH  11  12
ENDBRANCH  10  11
ENDBRANCH   9  10
ENDBRANCH   1   9
TORSDOF 9
ENDMDL
MODEL 7
REMARK VINA RESULT:    -5.561      1.805      2.443
REMARK INTER + INTRA:          -9.621
REMARK INTER:                  -8.474
REMARK INTRA:                  -1.147
REMARK UNBOUND:                -1.134
REMARK SMILES CCCCCCCCCC=CC(=O)[O-]
REMARK SMILES IDX 7 1 8 2 9 3 10 4 11 5 12 6 13 7 14 8 6 9 5 10 4 11 3 12 2 13
REMARK SMILES IDX 1 14
REMARK H PARENT
REMARK Flexibility Score: inf
ROOT
ATOM      1  C   UNL     1      22.119   0.601  -2.102  1.00  0.00     0.000 C 
ENDROOT
BRANCH   1   2
ATOM      2  C   UNL     1      21.700  -0.765  -2.660  1.00  0.00     0.004 C 
BRANCH   2   3
ATOM      3  C   UNL     1      22.902  -1.505  -3.260  1.00  0.00     0.027 C 
BRANCH   3   4
ATOM      4  C   UNL     1      22.813  -2.982  -3.007  1.00  0.00    -0.025 C 
ATOM      5  C   UNL     1      23.698  -3.612  -2.227  1.00  0.00     0.020 C 
BRANCH   5   6
ATOM      6  C   UNL     1      23.630  -5.061  -1.981  1.00  0.00     0.064 C 
ATOM      7  O   UNL     1      22.937  -5.787  -2.740  1.00  0.00    -0.545 OA
ATOM      8  O   UNL     1      24.320  -5.642  -0.923  1.00  0.00    -0.545 OA
ENDBRANCH   5   6
ENDBRANCH   3   4
ENDBRANCH   2   3
ENDBRANCH   1   2
BRANCH   1   9
ATOM      9  C   UNL     1      23.362   0.477  -1.214  1.00  0.00     0.000 C 
BRANCH   9  10
ATOM     10  C   UNL     1      23.018  -0.180   0.128  1.00  0.00     0.000 C 
BRANCH  10  11
ATOM     11  C   UNL     1      24.083  -1.214   0.524  1.00  0.00    -0.000 C 
BRANCH  11  12
ATOM     12  C   UNL     1      23.482  -2.476   1.169  1.00  0.00    -0.000 C 
BRANCH  12  13
ATOM     13  C   UNL     1      24.495  -3.371   1.903  1.00  0.00    -0.003 C 
ATOM     14  C   UNL     1      25.868  -3.398   1.231  1.00  0.00     0.004 C 
ENDBRANCH  12  13
ENDBRANCH  11  12
ENDBRANCH  10  11
ENDBRANCH   9  10
ENDBRANCH   1   9
TORSDOF 9
ENDMDL
MODEL 8
REMARK VINA RESULT:    -5.470      2.230      4.137
REMARK INTER + INTRA:          -9.483
REMARK INTER:                  -8.212
REMARK INTRA:                  -1.271
REMARK UNBOUND:                -1.134
REMARK SMILES CCCCCCCCCC=CC(=O)[O-]
REMARK SMILES IDX 7 1 8 2 9 3 10 4 11 5 12 6 13 7 14 8 6 9 5 10 4 11 3 12 2 13
REMARK SMILES IDX 1 14
REMARK H PARENT
REMARK Flexibility Score: inf
ROOT
ATOM      1  C   UNL     1      22.202   0.528  -0.993  1.00  0.00     0.000 C 
ENDROOT
BRANCH   1   2
ATOM      2  C   UNL     1      23.455   0.097  -0.221  1.00  0.00     0.004 C 
BRANCH   2   3
ATOM      3  C   UNL     1      23.207  -1.209   0.543  1.00  0.00     0.027 C 
BRANCH   3   4
ATOM      4  C   UNL     1      23.968  -2.350  -0.068  1.00  0.00    -0.025 C 
ATOM      5  C   UNL     1      25.147  -2.161  -0.669  1.00  0.00     0.020 C 
BRANCH   5   6
ATOM      6  C   UNL     1      25.896  -3.268  -1.284  1.00  0.00     0.064 C 
ATOM      7  O   UNL     1      26.814  -3.015  -2.106  1.00  0.00    -0.545 OA
ATOM      8  O   UNL     1      25.606  -4.591  -0.970  1.00  0.00    -0.545 OA
ENDBRANCH   5   6
ENDBRANCH   3   4
ENDBRANCH   2   3
ENDBRANCH   1   2
BRANCH   1   9
ATOM      9  C   UNL     1      22.354   0.244  -2.492  1.00  0.00     0.000 C 
BRANCH   9  10
ATOM     10  C   UNL     1      21.812  -1.146  -2.847  1.00  0.00     0.000 C 
BRANCH  10  11
ATOM     11  C   UNL     1      22.852  -1.958  -3.633  1.00  0.00    -0.000 C 
BRANCH  11  12
ATOM     12  C   UNL     1      22.387  -3.395  -3.936  1.00  0.00    -0.000 C 
BRANCH  12  13
ATOM     13  C   UNL     1      22.207  -4.290  -2.698  1.00  0.00    -0.003 C 
ATOM     14  C   UNL     1      22.852  -5.667  -2.857  1.00  0.00     0.004 C 
ENDBRANCH  12  13
ENDBRANCH  11  12
ENDBRANCH  10  11
ENDBRANCH   9  10
ENDBRANCH   1   9
TORSDOF 9
ENDMDL
MODEL 9
REMARK VINA RESULT:    -5.438      2.589      4.407
REMARK INTER + INTRA:          -9.433
REMARK INTER:                  -7.744
REMARK INTRA:                  -1.689
REMARK UNBOUND:                -1.134
REMARK SMILES CCCCCCCCCC=CC(=O)[O-]
REMARK SMILES IDX 7 1 8 2 9 3 10 4 11 5 12 6 13 7 14 8 6 9 5 10 4 11 3 12 2 13
REMARK SMILES IDX 1 14
REMARK H PARENT
REMARK Flexibility Score: inf
ROOT
ATOM      1  C   UNL     1      22.509  -0.072  -2.273  1.00  0.00     0.000 C 
ENDROOT
BRANCH   1   2
ATOM      2  C   UNL     1      22.165   0.111  -0.790  1.00  0.00     0.004 C 
BRANCH   2   3
ATOM      3  C   UNL     1      23.389  -0.155   0.095  1.00  0.00     0.027 C 
BRANCH   3   4
ATOM      4  C   UNL     1      24.369  -1.062  -0.591  1.00  0.00    -0.025 C 
ATOM      5  C   UNL     1      25.053  -1.991   0.085  1.00  0.00     0.020 C 
BRANCH   5   6
ATOM      6  C   UNL     1      26.026  -2.877  -0.572  1.00  0.00     0.064 C 
ATOM      7  O   UNL     1      26.101  -2.893  -1.828  1.00  0.00    -0.545 OA
ATOM      8  O   UNL     1      26.867  -3.697   0.173  1.00  0.00    -0.545 OA
ENDBRANCH   5   6
ENDBRANCH   3   4
ENDBRANCH   2   3
ENDBRANCH   1   2
BRANCH   1   9
ATOM      9  C   UNL     1      21.647  -1.170  -2.906  1.00  0.00     0.000 C 
BRANCH   9  10
ATOM     10  C   UNL     1      22.519  -2.257  -3.545  1.00  0.00     0.000 C 
BRANCH  10  11
ATOM     11  C   UNL     1      22.615  -3.491  -2.636  1.00  0.00    -0.000 C 
BRANCH  11  12
ATOM     12  C   UNL     1      21.433  -3.606  -1.655  1.00  0.00    -0.000 C 
BRANCH  12  13
ATOM     13  C   UNL     1      21.832  -3.825  -0.185  1.00  0.00    -0.003 C 
ATOM     14  C   UNL     1      21.015  -2.976   0.789  1.00  0.00     0.004 C 
ENDBRANCH  12  13
ENDBRANCH  11  12
ENDBRANCH  10  11
ENDBRANCH   9  10
ENDBRANCH   1   9
TORSDOF 9
ENDMDL
