MODEL 1
REMARK VINA RESULT:    -3.441      0.000      0.000
REMARK INTER + INTRA:         -13.600
REMARK INTER:                  -8.671
REMARK INTRA:                  -4.930
REMARK UNBOUND:                -4.930
REMARK SMILES CCCCCCCCCCCCCCCCCCCCCCCCCCCC(=O)[O-]
REMARK SMILES IDX 15 1 16 2 17 3 18 4 19 5 20 6 21 7 22 8 23 9 24 10 25 11
REMARK SMILES IDX 26 12 27 13 28 14 29 15 30 16 14 17 13 18 12 19 11 20 10 21
REMARK SMILES IDX 9 22 8 23 7 24 6 25 5 26 4 27 3 28 2 29 1 30
REMARK H PARENT
REMARK Flexibility Score: inf
ROOT
ATOM      1  C   UNL     1      48.501  29.396  89.956  1.00  0.00     0.000 C 
ENDROOT
BRANCH   1   2
ATOM      2  C   UNL     1      47.443  28.447  90.557  1.00  0.00     0.000 C 
BRANCH   2   3
ATOM      3  C   UNL     1      46.529  27.748  89.534  1.00  0.00     0.000 C 
BRANCH   3   4
ATOM      4  C   UNL     1      47.059  27.838  88.096  1.00  0.00     0.000 C 
BRANCH   4   5
ATOM      5  C   UNL     1      46.104  28.659  87.216  1.00  0.00     0.000 C 
BRANCH   5   6
ATOM      6  C   UNL     1      46.798  29.844  86.528  1.00  0.00     0.000 C 
BRANCH   6   7
ATOM      7  C   UNL     1      48.284  29.570  86.230  1.00  0.00     0.000 C 
BRANCH   7   8
ATOM      8  C   UNL     1      49.174  30.793  86.523  1.00  0.00     0.000 C 
BRANCH   8   9
ATOM      9  C   UNL     1      48.378  32.101  86.697  1.00  0.00     0.000 C 
BRANCH   9  10
ATOM     10  C   UNL     1      49.072  33.327  86.059  1.00  0.00     0.000 C 
BRANCH  10  11
ATOM     11  C   UNL     1      48.979  34.604  86.915  1.00  0.00     0.000 C 
BRANCH  11  12
ATOM     12  C   UNL     1      50.249  35.475  86.910  1.00  0.00     0.006 C 
BRANCH  12  13
ATOM     13  C   UNL     1      51.450  34.835  86.193  1.00  0.00     0.053 C 
BRANCH  13  14
ATOM     14  C   UNL     1      52.495  34.374  87.161  1.00  0.00     0.041 C 
ATOM     15  O   UNL     1      53.056  35.200  87.929  1.00  0.00    -0.550 OA
ATOM     16  O   UNL     1      52.873  33.039  87.192  1.00  0.00    -0.550 OA
ENDBRANCH  13  14
ENDBRANCH  12  13
ENDBRANCH  11  12
ENDBRANCH  10  11
ENDBRANCH   9  10
ENDBRANCH   8   9
ENDBRANCH   7   8
ENDBRANCH   6   7
ENDBRANCH   5   6
ENDBRANCH   4   5
ENDBRANCH   3   4
ENDBRANCH   2   3
ENDBRANCH   1   2
BRANCH   1  17
ATOM     17  C   UNL     1      48.241  30.898  90.179  1.00  0.00     0.000 C 
BRANCH  17  18
ATOM     18  C   UNL     1      46.808  31.243  90.628  1.00  0.00     0.000 C 
BRANCH  18  19
ATOM     19  C   UNL     1      45.873  31.648  89.464  1.00  0.00     0.000 C 
BRANCH  19  20
ATOM     20  C   UNL     1      44.401  31.262  89.691  1.00  0.00     0.000 C 
BRANCH  20  21
ATOM     21  C   UNL     1      44.225  30.299  90.881  1.00  0.00     0.000 C 
BRANCH  21  22
ATOM     22  C   UNL     1      42.756  29.919  91.124  1.00  0.00    -0.000 C 
BRANCH  22  23
ATOM     23  C   UNL     1      42.486  28.421  90.906  1.00  0.00    -0.000 C 
BRANCH  23  24
ATOM     24  C   UNL     1      42.675  27.987  89.440  1.00  0.00    -0.000 C 
BRANCH  24  25
ATOM     25  C   UNL     1      41.458  27.290  88.804  1.00  0.00    -0.000 C 
BRANCH  25  26
ATOM     26  C   UNL     1      40.150  28.075  88.996  1.00  0.00    -0.000 C 
BRANCH  26  27
ATOM     27  C   UNL     1      39.957  29.162  87.920  1.00  0.00    -0.000 C 
BRANCH  27  28
ATOM     28  C   UNL     1      40.297  30.586  88.398  1.00  0.00    -0.000 C 
BRANCH  28  29
ATOM     29  C   UNL     1      41.361  31.302  87.543  1.00  0.00    -0.003 C 
ATOM     30  C   UNL     1      42.151  30.338  86.658  1.00  0.00     0.004 C 
ENDBRANCH  28  29
ENDBRANCH  27  28
ENDBRANCH  26  27
ENDBRANCH  25  26
ENDBRANCH  24  25
ENDBRANCH  23  24
ENDBRANCH  22  23
ENDBRANCH  21  22
ENDBRANCH  20  21
ENDBRANCH  19  20
ENDBRANCH  18  19
ENDBRANCH  17  18
ENDBRANCH   1  17
TORSDOF 26
ENDMDL
MODEL 2
REMARK VINA RESULT:    -3.436      5.299      7.703
REMARK INTER + INTRA:         -13.589
REMARK INTER:                  -7.132
REMARK INTRA:                  -6.457
REMARK UNBOUND:                -4.930
REMARK SMILES CCCCCCCCCCCCCCCCCCCCCCCCCCCC(=O)[O-]
REMARK SMILES IDX 15 1 16 2 17 3 18 4 19 5 20 6 21 7 22 8 23 9 24 10 25 11
REMARK SMILES IDX 26 12 27 13 28 14 29 15 30 16 14 17 13 18 12 19 11 20 10 21
REMARK SMILES IDX 9 22 8 23 7 24 6 25 5 26 4 27 3 28 2 29 1 30
REMARK H PARENT
REMARK Flexibility Score: inf
ROOT
ATOM      1  C   UNL     1      47.011  29.888  90.517  1.00  0.00     0.000 C 
ENDROOT
BRANCH   1   2
ATOM      2  C   UNL     1      47.244  29.143  89.186  1.00  0.00     0.000 C 
BRANCH   2   3
ATOM      3  C   UNL     1      46.267  27.989  88.899  1.00  0.00     0.000 C 
BRANCH   3   4
ATOM      4  C   UNL     1      45.300  28.294  87.746  1.00  0.00     0.000 C 
BRANCH   4   5
ATOM      5  C   UNL     1      44.041  29.005  88.266  1.00  0.00     0.000 C 
BRANCH   5   6
ATOM      6  C   UNL     1      43.945  30.465  87.799  1.00  0.00     0.000 C 
BRANCH   6   7
ATOM      7  C   UNL     1      42.763  31.216  88.438  1.00  0.00     0.000 C 
BRANCH   7   8
ATOM      8  C   UNL     1      41.562  31.338  87.483  1.00  0.00     0.000 C 
BRANCH   8   9
ATOM      9  C   UNL     1      40.270  30.708  88.040  1.00  0.00     0.000 C 
BRANCH   9  10
ATOM     10  C   UNL     1      40.419  30.193  89.491  1.00  0.00     0.000 C 
BRANCH  10  11
ATOM     11  C   UNL     1      40.349  28.659  89.611  1.00  0.00     0.000 C 
BRANCH  11  12
ATOM     12  C   UNL     1      40.451  27.904  88.273  1.00  0.00     0.006 C 
BRANCH  12  13
ATOM     13  C   UNL     1      39.340  26.863  88.050  1.00  0.00     0.053 C 
BRANCH  13  14
ATOM     14  C   UNL     1      37.982  27.433  88.318  1.00  0.00     0.041 C 
ATOM     15  O   UNL     1      37.277  26.977  89.256  1.00  0.00    -0.550 OA
ATOM     16  O   UNL     1      37.482  28.446  87.510  1.00  0.00    -0.550 OA
ENDBRANCH  13  14
ENDBRANCH  12  13
ENDBRANCH  11  12
ENDBRANCH  10  11
ENDBRANCH   9  10
ENDBRANCH   8   9
ENDBRANCH   7   8
ENDBRANCH   6   7
ENDBRANCH   5   6
ENDBRANCH   4   5
ENDBRANCH   3   4
ENDBRANCH   2   3
ENDBRANCH   1   2
BRANCH   1  17
ATOM     17  C   UNL     1      46.340  31.268  90.391  1.00  0.00     0.000 C 
BRANCH  17  18
ATOM     18  C   UNL     1      45.099  31.464  91.284  1.00  0.00     0.000 C 
BRANCH  18  19
ATOM     19  C   UNL     1      44.689  30.194  92.066  1.00  0.00     0.000 C 
BRANCH  19  20
ATOM     20  C   UNL     1      43.237  29.754  91.811  1.00  0.00     0.000 C 
BRANCH  20  21
ATOM     21  C   UNL     1      42.977  28.303  92.261  1.00  0.00     0.000 C 
BRANCH  21  22
ATOM     22  C   UNL     1      43.623  27.269  91.326  1.00  0.00    -0.000 C 
BRANCH  22  23
ATOM     23  C   UNL     1      42.656  26.140  90.931  1.00  0.00    -0.000 C 
BRANCH  23  24
ATOM     24  C   UNL     1      43.288  25.124  89.960  1.00  0.00    -0.000 C 
BRANCH  24  25
ATOM     25  C   UNL     1      43.167  25.486  88.468  1.00  0.00    -0.000 C 
BRANCH  25  26
ATOM     26  C   UNL     1      42.471  24.392  87.641  1.00  0.00    -0.000 C 
BRANCH  26  27
ATOM     27  C   UNL     1      42.135  24.864  86.212  1.00  0.00    -0.000 C 
BRANCH  27  28
ATOM     28  C   UNL     1      42.764  26.219  85.834  1.00  0.00    -0.000 C 
BRANCH  28  29
ATOM     29  C   UNL     1      41.846  27.130  84.996  1.00  0.00    -0.003 C 
ATOM     30  C   UNL     1      42.279  28.595  85.032  1.00  0.00     0.004 C 
ENDBRANCH  28  29
ENDBRANCH  27  28
ENDBRANCH  26  27
ENDBRANCH  25  26
ENDBRANCH  24  25
ENDBRANCH  23  24
ENDBRANCH  22  23
ENDBRANCH  21  22
ENDBRANCH  20  21
ENDBRANCH  19  20
ENDBRANCH  18  19
ENDBRANCH  17  18
ENDBRANCH   1  17
TORSDOF 26
ENDMDL
MODEL 3
REMARK VINA RESULT:    -3.414      1.729      4.188
REMARK INTER + INTRA:         -13.534
REMARK INTER:                  -8.650
REMARK INTRA:                  -4.884
REMARK UNBOUND:                -4.930
REMARK SMILES CCCCCCCCCCCCCCCCCCCCCCCCCCCC(=O)[O-]
REMARK SMILES IDX 15 1 16 2 17 3 18 4 19 5 20 6 21 7 22 8 23 9 24 10 25 11
REMARK SMILES IDX 26 12 27 13 28 14 29 15 30 16 14 17 13 18 12 19 11 20 10 21
REMARK SMILES IDX 9 22 8 23 7 24 6 25 5 26 4 27 3 28 2 29 1 30
REMARK H PARENT
REMARK Flexibility Score: inf
ROOT
ATOM      1  C   UNL     1      44.577  27.237  91.399  1.00  0.00     0.000 C 
ENDROOT
BRANCH   1   2
ATOM      2  C   UNL     1      44.794  28.397  92.394  1.00  0.00     0.000 C 
BRANCH   2   3
ATOM      3  C   UNL     1      43.767  29.541  92.303  1.00  0.00     0.000 C 
BRANCH   3   4
ATOM      4  C   UNL     1      44.406  30.896  91.964  1.00  0.00     0.000 C 
BRANCH   4   5
ATOM      5  C   UNL     1      44.148  31.266  90.495  1.00  0.00     0.000 C 
BRANCH   5   6
ATOM      6  C   UNL     1      45.428  31.259  89.646  1.00  0.00     0.000 C 
BRANCH   6   7
ATOM      7  C   UNL     1      46.700  31.063  90.490  1.00  0.00     0.000 C 
BRANCH   7   8
ATOM      8  C   UNL     1      47.498  29.816  90.065  1.00  0.00     0.000 C 
BRANCH   8   9
ATOM      9  C   UNL     1      49.024  30.005  90.156  1.00  0.00     0.000 C 
BRANCH   9  10
ATOM     10  C   UNL     1      49.577  31.015  89.123  1.00  0.00     0.000 C 
BRANCH  10  11
ATOM     11  C   UNL     1      49.207  30.672  87.668  1.00  0.00     0.000 C 
BRANCH  11  12
ATOM     12  C   UNL     1      48.138  31.589  87.044  1.00  0.00     0.006 C 
BRANCH  12  13
ATOM     13  C   UNL     1      48.287  33.074  87.414  1.00  0.00     0.053 C 
BRANCH  13  14
ATOM     14  C   UNL     1      49.378  33.736  86.632  1.00  0.00     0.041 C 
ATOM     15  O   UNL     1      49.247  33.924  85.394  1.00  0.00    -0.550 OA
ATOM     16  O   UNL     1      50.555  34.116  87.264  1.00  0.00    -0.550 OA
ENDBRANCH  13  14
ENDBRANCH  12  13
ENDBRANCH  11  12
ENDBRANCH  10  11
ENDBRANCH   9  10
ENDBRANCH   8   9
ENDBRANCH   7   8
ENDBRANCH   6   7
ENDBRANCH   5   6
ENDBRANCH   4   5
ENDBRANCH   3   4
ENDBRANCH   2   3
ENDBRANCH   1   2
BRANCH   1  17
ATOM     17  C   UNL     1      43.737  27.584  90.156  1.00  0.00     0.000 C 
BRANCH  17  18
ATOM     18  C   UNL     1      44.546  27.722  88.851  1.00  0.00     0.000 C 
BRANCH  18  19
ATOM     19  C   UNL     1      43.666  27.887  87.589  1.00  0.00     0.000 C 
BRANCH  19  20
ATOM     20  C   UNL     1      43.896  29.214  86.846  1.00  0.00     0.000 C 
BRANCH  20  21
ATOM     21  C   UNL     1      42.575  29.925  86.494  1.00  0.00     0.000 C 
BRANCH  21  22
ATOM     22  C   UNL     1      42.217  31.038  87.491  1.00  0.00    -0.000 C 
BRANCH  22  23
ATOM     23  C   UNL     1      40.721  31.397  87.468  1.00  0.00    -0.000 C 
BRANCH  23  24
ATOM     24  C   UNL     1      39.943  30.789  88.650  1.00  0.00    -0.000 C 
BRANCH  24  25
ATOM     25  C   UNL     1      40.780  29.918  89.604  1.00  0.00    -0.000 C 
BRANCH  25  26
ATOM     26  C   UNL     1      40.252  28.479  89.720  1.00  0.00    -0.000 C 
BRANCH  26  27
ATOM     27  C   UNL     1      39.881  27.879  88.349  1.00  0.00    -0.000 C 
BRANCH  27  28
ATOM     28  C   UNL     1      38.775  26.808  88.410  1.00  0.00    -0.000 C 
BRANCH  28  29
ATOM     29  C   UNL     1      37.376  27.322  88.016  1.00  0.00    -0.003 C 
ATOM     30  C   UNL     1      37.429  28.640  87.245  1.00  0.00     0.004 C 
ENDBRANCH  28  29
ENDBRANCH  27  28
ENDBRANCH  26  27
ENDBRANCH  25  26
ENDBRANCH  24  25
ENDBRANCH  23  24
ENDBRANCH  22  23
ENDBRANCH  21  22
ENDBRANCH  20  21
ENDBRANCH  19  20
ENDBRANCH  18  19
ENDBRANCH  17  18
ENDBRANCH   1  17
TORSDOF 26
ENDMDL
MODEL 4
REMARK VINA RESULT:    -3.373      1.549      3.066
REMARK INTER + INTRA:         -13.431
REMARK INTER:                  -8.354
REMARK INTRA:                  -5.077
REMARK UNBOUND:                -4.930
REMARK SMILES CCCCCCCCCCCCCCCCCCCCCCCCCCCC(=O)[O-]
REMARK SMILES IDX 15 1 16 2 17 3 18 4 19 5 20 6 21 7 22 8 23 9 24 10 25 11
REMARK SMILES IDX 26 12 27 13 28 14 29 15 30 16 14 17 13 18 12 19 11 20 10 21
REMARK SMILES IDX 9 22 8 23 7 24 6 25 5 26 4 27 3 28 2 29 1 30
REMARK H PARENT
REMARK Flexibility Score: inf
ROOT
ATOM      1  C   UNL     1      44.079  31.307  89.410  1.00  0.00     0.000 C 
ENDROOT
BRANCH   1   2
ATOM      2  C   UNL     1      44.358  30.505  88.121  1.00  0.00     0.000 C 
BRANCH   2   3
ATOM      3  C   UNL     1      45.812  30.033  87.942  1.00  0.00     0.000 C 
BRANCH   3   4
ATOM      4  C   UNL     1      45.944  28.505  87.874  1.00  0.00     0.000 C 
BRANCH   4   5
ATOM      5  C   UNL     1      47.229  28.039  88.574  1.00  0.00     0.000 C 
BRANCH   5   6
ATOM      6  C   UNL     1      47.300  28.479  90.044  1.00  0.00     0.000 C 
BRANCH   6   7
ATOM      7  C   UNL     1      48.686  29.024  90.435  1.00  0.00     0.000 C 
BRANCH   7   8
ATOM      8  C   UNL     1      48.824  30.530  90.149  1.00  0.00     0.000 C 
BRANCH   8   9
ATOM      9  C   UNL     1      50.215  30.927  89.617  1.00  0.00     0.000 C 
BRANCH   9  10
ATOM     10  C   UNL     1      50.156  31.932  88.443  1.00  0.00     0.000 C 
BRANCH  10  11
ATOM     11  C   UNL     1      48.740  32.126  87.868  1.00  0.00     0.000 C 
BRANCH  11  12
ATOM     12  C   UNL     1      48.539  33.437  87.084  1.00  0.00     0.006 C 
BRANCH  12  13
ATOM     13  C   UNL     1      49.783  33.905  86.310  1.00  0.00     0.053 C 
BRANCH  13  14
ATOM     14  C   UNL     1      50.324  35.192  86.852  1.00  0.00     0.041 C 
ATOM     15  O   UNL     1      49.541  36.123  87.173  1.00  0.00    -0.550 OA
ATOM     16  O   UNL     1      51.695  35.373  86.972  1.00  0.00    -0.550 OA
ENDBRANCH  13  14
ENDBRANCH  12  13
ENDBRANCH  11  12
ENDBRANCH  10  11
ENDBRANCH   9  10
ENDBRANCH   8   9
ENDBRANCH   7   8
ENDBRANCH   6   7
ENDBRANCH   5   6
ENDBRANCH   4   5
ENDBRANCH   3   4
ENDBRANCH   2   3
ENDBRANCH   1   2
BRANCH   1  17
ATOM     17  C   UNL     1      45.240  31.353  90.421  1.00  0.00     0.000 C 
BRANCH  17  18
ATOM     18  C   UNL     1      44.906  30.779  91.811  1.00  0.00     0.000 C 
BRANCH  18  19
ATOM     19  C   UNL     1      43.503  30.133  91.896  1.00  0.00     0.000 C 
BRANCH  19  20
ATOM     20  C   UNL     1      43.533  28.638  92.257  1.00  0.00     0.000 C 
BRANCH  20  21
ATOM     21  C   UNL     1      43.827  27.746  91.036  1.00  0.00     0.000 C 
BRANCH  21  22
ATOM     22  C   UNL     1      42.777  27.900  89.924  1.00  0.00    -0.000 C 
BRANCH  22  23
ATOM     23  C   UNL     1      41.378  27.429  90.358  1.00  0.00    -0.000 C 
BRANCH  23  24
ATOM     24  C   UNL     1      40.257  28.372  89.884  1.00  0.00    -0.000 C 
BRANCH  24  25
ATOM     25  C   UNL     1      40.644  29.861  89.810  1.00  0.00    -0.000 C 
BRANCH  25  26
ATOM     26  C   UNL     1      40.376  30.482  88.429  1.00  0.00    -0.000 C 
BRANCH  26  27
ATOM     27  C   UNL     1      40.114  29.413  87.348  1.00  0.00    -0.000 C 
BRANCH  27  28
ATOM     28  C   UNL     1      41.371  28.993  86.564  1.00  0.00    -0.000 C 
BRANCH  28  29
ATOM     29  C   UNL     1      41.531  27.468  86.397  1.00  0.00    -0.003 C 
ATOM     30  C   UNL     1      42.977  27.055  86.122  1.00  0.00     0.004 C 
ENDBRANCH  28  29
ENDBRANCH  27  28
ENDBRANCH  26  27
ENDBRANCH  25  26
ENDBRANCH  24  25
ENDBRANCH  23  24
ENDBRANCH  22  23
ENDBRANCH  21  22
ENDBRANCH  20  21
ENDBRANCH  19  20
ENDBRANCH  18  19
ENDBRANCH  17  18
ENDBRANCH   1  17
TORSDOF 26
ENDMDL
MODEL 5
REMARK VINA RESULT:    -3.367      2.698      4.554
REMARK INTER + INTRA:         -13.414
REMARK INTER:                  -8.495
REMARK INTRA:                  -4.919
REMARK UNBOUND:                -4.930
REMARK SMILES CCCCCCCCCCCCCCCCCCCCCCCCCCCC(=O)[O-]
REMARK SMILES IDX 15 1 16 2 17 3 18 4 19 5 20 6 21 7 22 8 23 9 24 10 25 11
REMARK SMILES IDX 26 12 27 13 28 14 29 15 30 16 14 17 13 18 12 19 11 20 10 21
REMARK SMILES IDX 9 22 8 23 7 24 6 25 5 26 4 27 3 28 2 29 1 30
REMARK H PARENT
REMARK Flexibility Score: inf
ROOT
ATOM      1  C   UNL     1      44.794  26.922  91.542  1.00  0.00     0.000 C 
ENDROOT
BRANCH   1   2
ATOM      2  C   UNL     1      44.062  27.936  92.446  1.00  0.00     0.000 C 
BRANCH   2   3
ATOM      3  C   UNL     1      42.845  28.630  91.805  1.00  0.00     0.000 C 
BRANCH   3   4
ATOM      4  C   UNL     1      43.136  30.074  91.373  1.00  0.00     0.000 C 
BRANCH   4   5
ATOM      5  C   UNL     1      44.188  30.715  92.290  1.00  0.00     0.000 C 
BRANCH   5   6
ATOM      6  C   UNL     1      45.182  31.603  91.528  1.00  0.00     0.000 C 
BRANCH   6   7
ATOM      7  C   UNL     1      45.235  31.279  90.024  1.00  0.00     0.000 C 
BRANCH   7   8
ATOM      8  C   UNL     1      46.549  31.747  89.371  1.00  0.00     0.000 C 
BRANCH   8   9
ATOM      9  C   UNL     1      47.033  30.821  88.238  1.00  0.00     0.000 C 
BRANCH   9  10
ATOM     10  C   UNL     1      48.305  30.022  88.604  1.00  0.00     0.000 C 
BRANCH  10  11
ATOM     11  C   UNL     1      48.572  29.947  90.119  1.00  0.00     0.000 C 
BRANCH  11  12
ATOM     12  C   UNL     1      50.056  30.060  90.517  1.00  0.00     0.006 C 
BRANCH  12  13
ATOM     13  C   UNL     1      50.621  31.489  90.445  1.00  0.00     0.053 C 
BRANCH  13  14
ATOM     14  C   UNL     1      51.419  31.833  91.664  1.00  0.00     0.041 C 
ATOM     15  O   UNL     1      50.862  32.376  92.654  1.00  0.00    -0.550 OA
ATOM     16  O   UNL     1      52.785  31.584  91.694  1.00  0.00    -0.550 OA
ENDBRANCH  13  14
ENDBRANCH  12  13
ENDBRANCH  11  12
ENDBRANCH  10  11
ENDBRANCH   9  10
ENDBRANCH   8   9
ENDBRANCH   7   8
ENDBRANCH   6   7
ENDBRANCH   5   6
ENDBRANCH   4   5
ENDBRANCH   3   4
ENDBRANCH   2   3
ENDBRANCH   1   2
BRANCH   1  17
ATOM     17  C   UNL     1      45.842  27.526  90.588  1.00  0.00     0.000 C 
BRANCH  17  18
ATOM     18  C   UNL     1      45.353  27.733  89.142  1.00  0.00     0.000 C 
BRANCH  18  19
ATOM     19  C   UNL     1      44.024  27.007  88.825  1.00  0.00     0.000 C 
BRANCH  19  20
ATOM     20  C   UNL     1      43.145  27.747  87.802  1.00  0.00     0.000 C 
BRANCH  20  21
ATOM     21  C   UNL     1      43.701  29.140  87.451  1.00  0.00     0.000 C 
BRANCH  21  22
ATOM     22  C   UNL     1      42.637  30.065  86.838  1.00  0.00    -0.000 C 
BRANCH  22  23
ATOM     23  C   UNL     1      42.103  31.102  87.841  1.00  0.00    -0.000 C 
BRANCH  23  24
ATOM     24  C   UNL     1      40.604  30.920  88.146  1.00  0.00    -0.000 C 
BRANCH  24  25
ATOM     25  C   UNL     1      40.286  29.935  89.286  1.00  0.00    -0.000 C 
BRANCH  25  26
ATOM     26  C   UNL     1      39.777  28.576  88.779  1.00  0.00    -0.000 C 
BRANCH  26  27
ATOM     27  C   UNL     1      39.236  28.654  87.337  1.00  0.00    -0.000 C 
BRANCH  27  28
ATOM     28  C   UNL     1      39.386  27.345  86.538  1.00  0.00    -0.000 C 
BRANCH  28  29
ATOM     29  C   UNL     1      39.909  27.539  85.101  1.00  0.00    -0.003 C 
ATOM     30  C   UNL     1      38.800  27.446  84.053  1.00  0.00     0.004 C 
ENDBRANCH  28  29
ENDBRANCH  27  28
ENDBRANCH  26  27
ENDBRANCH  25  26
ENDBRANCH  24  25
ENDBRANCH  23  24
ENDBRANCH  22  23
ENDBRANCH  21  22
ENDBRANCH  20  21
ENDBRANCH  19  20
ENDBRANCH  18  19
ENDBRANCH  17  18
ENDBRANCH   1  17
TORSDOF 26
ENDMDL
MODEL 6
REMARK VINA RESULT:    -3.366      2.733      4.665
REMARK INTER + INTRA:         -13.413
REMARK INTER:                  -7.481
REMARK INTRA:                  -5.932
REMARK UNBOUND:                -4.930
REMARK SMILES CCCCCCCCCCCCCCCCCCCCCCCCCCCC(=O)[O-]
REMARK SMILES IDX 15 1 16 2 17 3 18 4 19 5 20 6 21 7 22 8 23 9 24 10 25 11
REMARK SMILES IDX 26 12 27 13 28 14 29 15 30 16 14 17 13 18 12 19 11 20 10 21
REMARK SMILES IDX 9 22 8 23 7 24 6 25 5 26 4 27 3 28 2 29 1 30
REMARK H PARENT
REMARK Flexibility Score: inf
ROOT
ATOM      1  C   UNL     1      45.347  26.755  89.545  1.00  0.00     0.000 C 
ENDROOT
BRANCH   1   2
ATOM      2  C   UNL     1      46.133  26.924  90.862  1.00  0.00     0.000 C 
BRANCH   2   3
ATOM      3  C   UNL     1      45.277  27.233  92.104  1.00  0.00     0.000 C 
BRANCH   3   4
ATOM      4  C   UNL     1      43.774  27.292  91.797  1.00  0.00     0.000 C 
BRANCH   4   5
ATOM      5  C   UNL     1      43.123  28.493  92.498  1.00  0.00     0.000 C 
BRANCH   5   6
ATOM      6  C   UNL     1      43.221  29.788  91.677  1.00  0.00     0.000 C 
BRANCH   6   7
ATOM      7  C   UNL     1      44.085  30.862  92.363  1.00  0.00     0.000 C 
BRANCH   7   8
ATOM      8  C   UNL     1      45.078  31.523  91.389  1.00  0.00     0.000 C 
BRANCH   8   9
ATOM      9  C   UNL     1      46.186  30.568  90.902  1.00  0.00     0.000 C 
BRANCH   9  10
ATOM     10  C   UNL     1      47.175  31.233  89.917  1.00  0.00     0.000 C 
BRANCH  10  11
ATOM     11  C   UNL     1      48.135  30.236  89.240  1.00  0.00     0.000 C 
BRANCH  11  12
ATOM     12  C   UNL     1      48.897  29.316  90.212  1.00  0.00     0.006 C 
BRANCH  12  13
ATOM     13  C   UNL     1      50.414  29.563  90.254  1.00  0.00     0.053 C 
BRANCH  13  14
ATOM     14  C   UNL     1      50.737  31.009  90.473  1.00  0.00     0.041 C 
ATOM     15  O   UNL     1      51.242  31.693  89.545  1.00  0.00    -0.550 OA
ATOM     16  O   UNL     1      50.510  31.591  91.713  1.00  0.00    -0.550 OA
ENDBRANCH  13  14
ENDBRANCH  12  13
ENDBRANCH  11  12
ENDBRANCH  10  11
ENDBRANCH   9  10
ENDBRANCH   8   9
ENDBRANCH   7   8
ENDBRANCH   6   7
ENDBRANCH   5   6
ENDBRANCH   4   5
ENDBRANCH   3   4
ENDBRANCH   2   3
ENDBRANCH   1   2
BRANCH   1  17
ATOM     17  C   UNL     1      46.061  27.269  88.281  1.00  0.00     0.000 C 
BRANCH  17  18
ATOM     18  C   UNL     1      45.218  28.217  87.406  1.00  0.00     0.000 C 
BRANCH  18  19
ATOM     19  C   UNL     1      44.177  29.038  88.204  1.00  0.00     0.000 C 
BRANCH  19  20
ATOM     20  C   UNL     1      44.218  30.546  87.904  1.00  0.00     0.000 C 
BRANCH  20  21
ATOM     21  C   UNL     1      42.921  31.262  88.325  1.00  0.00     0.000 C 
BRANCH  21  22
ATOM     22  C   UNL     1      41.725  30.896  87.433  1.00  0.00    -0.000 C 
BRANCH  22  23
ATOM     23  C   UNL     1      40.390  30.901  88.198  1.00  0.00    -0.000 C 
BRANCH  23  24
ATOM     24  C   UNL     1      39.778  29.495  88.342  1.00  0.00    -0.000 C 
BRANCH  24  25
ATOM     25  C   UNL     1      40.285  28.683  89.548  1.00  0.00    -0.000 C 
BRANCH  25  26
ATOM     26  C   UNL     1      41.208  27.522  89.143  1.00  0.00    -0.000 C 
BRANCH  26  27
ATOM     27  C   UNL     1      40.801  26.894  87.794  1.00  0.00    -0.000 C 
BRANCH  27  28
ATOM     28  C   UNL     1      41.889  26.004  87.162  1.00  0.00    -0.000 C 
BRANCH  28  29
ATOM     29  C   UNL     1      42.472  26.558  85.847  1.00  0.00    -0.003 C 
ATOM     30  C   UNL     1      41.789  27.850  85.398  1.00  0.00     0.004 C 
ENDBRANCH  28  29
ENDBRANCH  27  28
ENDBRANCH  26  27
ENDBRANCH  25  26
ENDBRANCH  24  25
ENDBRANCH  23  24
ENDBRANCH  22  23
ENDBRANCH  21  22
ENDBRANCH  20  21
ENDBRANCH  19  20
ENDBRANCH  18  19
ENDBRANCH  17  18
ENDBRANCH   1  17
TORSDOF 26
ENDMDL
MODEL 7
REMARK VINA RESULT:    -3.331      2.514      6.744
REMARK INTER + INTRA:         -13.323
REMARK INTER:                  -7.697
REMARK INTRA:                  -5.626
REMARK UNBOUND:                -4.930
REMARK SMILES CCCCCCCCCCCCCCCCCCCCCCCCCCCC(=O)[O-]
REMARK SMILES IDX 15 1 16 2 17 3 18 4 19 5 20 6 21 7 22 8 23 9 24 10 25 11
REMARK SMILES IDX 26 12 27 13 28 14 29 15 30 16 14 17 13 18 12 19 11 20 10 21
REMARK SMILES IDX 9 22 8 23 7 24 6 25 5 26 4 27 3 28 2 29 1 30
REMARK H PARENT
REMARK Flexibility Score: inf
ROOT
ATOM      1  C   UNL     1      44.973  31.241  89.112  1.00  0.00     0.000 C 
ENDROOT
BRANCH   1   2
ATOM      2  C   UNL     1      43.486  31.622  88.952  1.00  0.00     0.000 C 
BRANCH   2   3
ATOM      3  C   UNL     1      42.701  30.788  87.923  1.00  0.00     0.000 C 
BRANCH   3   4
ATOM      4  C   UNL     1      41.237  31.227  87.786  1.00  0.00     0.000 C 
BRANCH   4   5
ATOM      5  C   UNL     1      40.339  30.433  88.746  1.00  0.00     0.000 C 
BRANCH   5   6
ATOM      6  C   UNL     1      39.657  29.235  88.071  1.00  0.00     0.000 C 
BRANCH   6   7
ATOM      7  C   UNL     1      40.397  27.909  88.325  1.00  0.00     0.000 C 
BRANCH   7   8
ATOM      8  C   UNL     1      41.201  27.443  87.097  1.00  0.00     0.000 C 
BRANCH   8   9
ATOM      9  C   UNL     1      40.836  28.199  85.804  1.00  0.00     0.000 C 
BRANCH   9  10
ATOM     10  C   UNL     1      41.878  28.015  84.676  1.00  0.00     0.000 C 
BRANCH  10  11
ATOM     11  C   UNL     1      43.319  27.834  85.189  1.00  0.00     0.000 C 
BRANCH  11  12
ATOM     12  C   UNL     1      44.199  29.094  85.090  1.00  0.00     0.006 C 
BRANCH  12  13
ATOM     13  C   UNL     1      45.395  29.105  86.058  1.00  0.00     0.053 C 
BRANCH  13  14
ATOM     14  C   UNL     1      46.687  29.351  85.342  1.00  0.00     0.041 C 
ATOM     15  O   UNL     1      46.787  30.301  84.523  1.00  0.00    -0.550 OA
ATOM     16  O   UNL     1      47.771  28.510  85.557  1.00  0.00    -0.550 OA
ENDBRANCH  13  14
ENDBRANCH  12  13
ENDBRANCH  11  12
ENDBRANCH  10  11
ENDBRANCH   9  10
ENDBRANCH   8   9
ENDBRANCH   7   8
ENDBRANCH   6   7
ENDBRANCH   5   6
ENDBRANCH   4   5
ENDBRANCH   3   4
ENDBRANCH   2   3
ENDBRANCH   1   2
BRANCH   1  17
ATOM     17  C   UNL     1      45.515  31.293  90.553  1.00  0.00     0.000 C 
BRANCH  17  18
ATOM     18  C   UNL     1      44.436  31.212  91.650  1.00  0.00     0.000 C 
BRANCH  18  19
ATOM     19  C   UNL     1      44.129  29.769  92.114  1.00  0.00     0.000 C 
BRANCH  19  20
ATOM     20  C   UNL     1      42.907  29.144  91.418  1.00  0.00     0.000 C 
BRANCH  20  21
ATOM     21  C   UNL     1      43.213  27.749  90.840  1.00  0.00     0.000 C 
BRANCH  21  22
ATOM     22  C   UNL     1      44.055  27.811  89.556  1.00  0.00    -0.000 C 
BRANCH  22  23
ATOM     23  C   UNL     1      45.382  27.043  89.679  1.00  0.00    -0.000 C 
BRANCH  23  24
ATOM     24  C   UNL     1      46.608  27.909  89.334  1.00  0.00    -0.000 C 
BRANCH  24  25
ATOM     25  C   UNL     1      47.488  28.303  90.534  1.00  0.00    -0.000 C 
BRANCH  25  26
ATOM     26  C   UNL     1      48.539  29.369  90.182  1.00  0.00    -0.000 C 
BRANCH  26  27
ATOM     27  C   UNL     1      48.426  29.841  88.719  1.00  0.00    -0.000 C 
BRANCH  27  28
ATOM     28  C   UNL     1      48.864  31.301  88.495  1.00  0.00    -0.000 C 
BRANCH  28  29
ATOM     29  C   UNL     1      48.051  32.046  87.417  1.00  0.00    -0.003 C 
ATOM     30  C   UNL     1      48.609  33.437  87.116  1.00  0.00     0.004 C 
ENDBRANCH  28  29
ENDBRANCH  27  28
ENDBRANCH  26  27
ENDBRANCH  25  26
ENDBRANCH  24  25
ENDBRANCH  23  24
ENDBRANCH  22  23
ENDBRANCH  21  22
ENDBRANCH  20  21
ENDBRANCH  19  20
ENDBRANCH  18  19
ENDBRANCH  17  18
ENDBRANCH   1  17
TORSDOF 26
ENDMDL
MODEL 8
REMARK VINA RESULT:    -3.328      2.316      4.327
REMARK INTER + INTRA:         -13.317
REMARK INTER:                  -8.842
REMARK INTRA:                  -4.475
REMARK UNBOUND:                -4.930
REMARK SMILES CCCCCCCCCCCCCCCCCCCCCCCCCCCC(=O)[O-]
REMARK SMILES IDX 15 1 16 2 17 3 18 4 19 5 20 6 21 7 22 8 23 9 24 10 25 11
REMARK SMILES IDX 26 12 27 13 28 14 29 15 30 16 14 17 13 18 12 19 11 20 10 21
REMARK SMILES IDX 9 22 8 23 7 24 6 25 5 26 4 27 3 28 2 29 1 30
REMARK H PARENT
REMARK Flexibility Score: inf
ROOT
ATOM      1  C   UNL     1      42.729  29.471  90.629  1.00  0.00     0.000 C 
ENDROOT
BRANCH   1   2
ATOM      2  C   UNL     1      43.397  29.224  91.999  1.00  0.00     0.000 C 
BRANCH   2   3
ATOM      3  C   UNL     1      44.803  29.830  92.164  1.00  0.00     0.000 C 
BRANCH   3   4
ATOM      4  C   UNL     1      44.862  31.318  91.791  1.00  0.00     0.000 C 
BRANCH   4   5
ATOM      5  C   UNL     1      45.979  31.578  90.769  1.00  0.00     0.000 C 
BRANCH   5   6
ATOM      6  C   UNL     1      46.851  30.340  90.511  1.00  0.00     0.000 C 
BRANCH   6   7
ATOM      7  C   UNL     1      47.514  30.359  89.122  1.00  0.00     0.000 C 
BRANCH   7   8
ATOM      8  C   UNL     1      47.087  31.580  88.287  1.00  0.00     0.000 C 
BRANCH   8   9
ATOM      9  C   UNL     1      48.115  31.976  87.210  1.00  0.00     0.000 C 
BRANCH   9  10
ATOM     10  C   UNL     1      49.545  31.470  87.516  1.00  0.00     0.000 C 
BRANCH  10  11
ATOM     11  C   UNL     1      50.547  32.600  87.818  1.00  0.00     0.000 C 
BRANCH  11  12
ATOM     12  C   UNL     1      51.543  32.290  88.951  1.00  0.00     0.006 C 
BRANCH  12  13
ATOM     13  C   UNL     1      50.978  31.378  90.054  1.00  0.00     0.053 C 
BRANCH  13  14
ATOM     14  C   UNL     1      51.687  31.577  91.357  1.00  0.00     0.041 C 
ATOM     15  O   UNL     1      52.753  30.952  91.602  1.00  0.00    -0.550 OA
ATOM     16  O   UNL     1      51.154  32.428  92.316  1.00  0.00    -0.550 OA
ENDBRANCH  13  14
ENDBRANCH  12  13
ENDBRANCH  11  12
ENDBRANCH  10  11
ENDBRANCH   9  10
ENDBRANCH   8   9
ENDBRANCH   7   8
ENDBRANCH   6   7
ENDBRANCH   5   6
ENDBRANCH   4   5
ENDBRANCH   3   4
ENDBRANCH   2   3
ENDBRANCH   1   2
BRANCH   1  17
ATOM     17  C   UNL     1      43.537  28.996  89.407  1.00  0.00     0.000 C 
BRANCH  17  18
ATOM     18  C   UNL     1      43.625  30.017  88.257  1.00  0.00     0.000 C 
BRANCH  18  19
ATOM     19  C   UNL     1      42.702  31.244  88.443  1.00  0.00     0.000 C 
BRANCH  19  20
ATOM     20  C   UNL     1      41.478  31.243  87.511  1.00  0.00     0.000 C 
BRANCH  20  21
ATOM     21  C   UNL     1      40.182  30.855  88.246  1.00  0.00     0.000 C 
BRANCH  21  22
ATOM     22  C   UNL     1      40.010  29.333  88.381  1.00  0.00    -0.000 C 
BRANCH  22  23
ATOM     23  C   UNL     1      39.034  28.751  87.345  1.00  0.00    -0.000 C 
BRANCH  23  24
ATOM     24  C   UNL     1      39.721  27.804  86.343  1.00  0.00    -0.000 C 
BRANCH  24  25
ATOM     25  C   UNL     1      41.124  28.244  85.887  1.00  0.00    -0.000 C 
BRANCH  25  26
ATOM     26  C   UNL     1      42.220  27.229  86.255  1.00  0.00    -0.000 C 
BRANCH  26  27
ATOM     27  C   UNL     1      43.505  27.430  85.428  1.00  0.00    -0.000 C 
BRANCH  27  28
ATOM     28  C   UNL     1      43.603  28.807  84.743  1.00  0.00    -0.000 C 
BRANCH  28  29
ATOM     29  C   UNL     1      45.047  29.290  84.499  1.00  0.00    -0.003 C 
ATOM     30  C   UNL     1      45.956  29.060  85.706  1.00  0.00     0.004 C 
ENDBRANCH  28  29
ENDBRANCH  27  28
ENDBRANCH  26  27
ENDBRANCH  25  26
ENDBRANCH  24  25
ENDBRANCH  23  24
ENDBRANCH  22  23
ENDBRANCH  21  22
ENDBRANCH  20  21
ENDBRANCH  19  20
ENDBRANCH  18  19
ENDBRANCH  17  18
ENDBRANCH   1  17
TORSDOF 26
ENDMDL
MODEL 9
REMARK VINA RESULT:    -3.267      3.670      8.743
REMARK INTER + INTRA:         -13.163
REMARK INTER:                  -7.995
REMARK INTRA:                  -5.168
REMARK UNBOUND:                -4.930
REMARK SMILES CCCCCCCCCCCCCCCCCCCCCCCCCCCC(=O)[O-]
REMARK SMILES IDX 15 1 16 2 17 3 18 4 19 5 20 6 21 7 22 8 23 9 24 10 25 11
REMARK SMILES IDX 26 12 27 13 28 14 29 15 30 16 14 17 13 18 12 19 11 20 10 21
REMARK SMILES IDX 9 22 8 23 7 24 6 25 5 26 4 27 3 28 2 29 1 30
REMARK H PARENT
REMARK Flexibility Score: inf
ROOT
ATOM      1  C   UNL     1      47.739  28.360  90.599  1.00  0.00     0.000 C 
ENDROOT
BRANCH   1   2
ATOM      2  C   UNL     1      46.541  27.985  89.701  1.00  0.00     0.000 C 
BRANCH   2   3
ATOM      3  C   UNL     1      46.707  28.324  88.208  1.00  0.00     0.000 C 
BRANCH   3   4
ATOM      4  C   UNL     1      45.858  29.524  87.767  1.00  0.00     0.000 C 
BRANCH   4   5
ATOM      5  C   UNL     1      46.749  30.739  87.468  1.00  0.00     0.000 C 
BRANCH   5   6
ATOM      6  C   UNL     1      46.749  31.772  88.606  1.00  0.00     0.000 C 
BRANCH   6   7
ATOM      7  C   UNL     1      45.528  31.633  89.534  1.00  0.00     0.000 C 
BRANCH   7   8
ATOM      8  C   UNL     1      45.932  31.472  91.011  1.00  0.00     0.000 C 
BRANCH   8   9
ATOM      9  C   UNL     1      44.732  31.259  91.954  1.00  0.00     0.000 C 
BRANCH   9  10
ATOM     10  C   UNL     1      44.400  29.767  92.191  1.00  0.00     0.000 C 
BRANCH  10  11
ATOM     11  C   UNL     1      43.021  29.348  91.648  1.00  0.00     0.000 C 
BRANCH  11  12
ATOM     12  C   UNL     1      42.987  29.056  90.136  1.00  0.00     0.006 C 
BRANCH  12  13
ATOM     13  C   UNL     1      42.251  30.120  89.305  1.00  0.00     0.053 C 
BRANCH  13  14
ATOM     14  C   UNL     1      40.975  29.591  88.728  1.00  0.00     0.041 C 
ATOM     15  O   UNL     1      40.030  29.248  89.486  1.00  0.00    -0.550 OA
ATOM     16  O   UNL     1      40.842  29.445  87.354  1.00  0.00    -0.550 OA
ENDBRANCH  13  14
ENDBRANCH  12  13
ENDBRANCH  11  12
ENDBRANCH  10  11
ENDBRANCH   9  10
ENDBRANCH   8   9
ENDBRANCH   7   8
ENDBRANCH   6   7
ENDBRANCH   5   6
ENDBRANCH   4   5
ENDBRANCH   3   4
ENDBRANCH   2   3
ENDBRANCH   1   2
BRANCH   1  17
ATOM     17  C   UNL     1      48.964  28.930  89.859  1.00  0.00     0.000 C 
BRANCH  17  18
ATOM     18  C   UNL     1      49.562  30.203  90.489  1.00  0.00     0.000 C 
BRANCH  18  19
ATOM     19  C   UNL     1      50.156  31.188  89.455  1.00  0.00     0.000 C 
BRANCH  19  20
ATOM     20  C   UNL     1      51.484  31.825  89.901  1.00  0.00     0.000 C 
BRANCH  20  21
ATOM     21  C   UNL     1      52.567  31.746  88.810  1.00  0.00     0.000 C 
BRANCH  21  22
ATOM     22  C   UNL     1      53.453  33.000  88.762  1.00  0.00    -0.000 C 
BRANCH  22  23
ATOM     23  C   UNL     1      53.331  33.764  87.432  1.00  0.00    -0.000 C 
BRANCH  23  24
ATOM     24  C   UNL     1      52.374  34.967  87.520  1.00  0.00    -0.000 C 
BRANCH  24  25
ATOM     25  C   UNL     1      51.344  35.067  86.380  1.00  0.00    -0.000 C 
BRANCH  25  26
ATOM     26  C   UNL     1      49.900  35.215  86.888  1.00  0.00    -0.000 C 
BRANCH  26  27
ATOM     27  C   UNL     1      49.161  33.863  86.950  1.00  0.00    -0.000 C 
BRANCH  27  28
ATOM     28  C   UNL     1      49.294  33.015  85.671  1.00  0.00    -0.000 C 
BRANCH  28  29
ATOM     29  C   UNL     1      49.928  31.627  85.897  1.00  0.00    -0.003 C 
ATOM     30  C   UNL     1      51.321  31.510  85.278  1.00  0.00     0.004 C 
ENDBRANCH  28  29
ENDBRANCH  27  28
ENDBRANCH  26  27
ENDBRANCH  25  26
ENDBRANCH  24  25
ENDBRANCH  23  24
ENDBRANCH  22  23
ENDBRANCH  21  22
ENDBRANCH  20  21
ENDBRANCH  19  20
ENDBRANCH  18  19
ENDBRANCH  17  18
ENDBRANCH   1  17
TORSDOF 26
ENDMDL
