MODEL 1
REMARK VINA RESULT:    46.042      0.000      0.000
REMARK INTER + INTRA:          67.399
REMARK INTER:                  62.192
REMARK INTRA:                   5.207
REMARK UNBOUND:                 5.207
REMARK SMILES O=c1c(-c2ccc(O)cc2)coc2c([C@@H]3O[C@H](CO)[C@@H](O)[C@H](O)[C@@H]3O)c(O)ccc12
REMARK SMILES IDX 3 1 11 2 12 3 13 4 30 5 2 6 1 7 29 8 28 9 26 10 14 11 4 12
REMARK SMILES IDX 5 13 6 14 7 15 10 16 9 17 8 18 15 20 24 21 16 22 22 23 17 24
REMARK SMILES IDX 20 25 25 26 23 28 18 30 19 31 21 33 27 35
REMARK H PARENT 8 19 25 27 23 29 19 32 21 34 27 36
REMARK Flexibility Score: inf
ROOT
ATOM      1  C   UNL     1       9.678  10.820  30.687  1.00  0.00     0.065 A 
ATOM      2  C   UNL     1       9.209  11.469  29.537  1.00  0.00     0.208 A 
ATOM      3  O   UNL     1       9.961  12.357  28.900  1.00  0.00    -0.463 OA
ATOM      4  C   UNL     1      11.188  12.690  29.293  1.00  0.00     0.147 A 
ATOM      5  C   UNL     1      11.743  12.079  30.442  1.00  0.00     0.066 A 
ATOM      6  C   UNL     1      10.968  11.141  31.148  1.00  0.00     0.200 A 
ATOM      7  O   UNL     1      11.419  10.603  32.197  1.00  0.00    -0.288 OA
ATOM      8  C   UNL     1      13.045  12.414  30.845  1.00  0.00     0.020 A 
ATOM      9  C   UNL     1      13.793  13.329  30.107  1.00  0.00     0.047 A 
ATOM     10  C   UNL     1      13.255  13.937  28.967  1.00  0.00     0.125 A 
ATOM     11  C   UNL     1      11.934  13.646  28.561  1.00  0.00     0.069 A 
ENDROOT
BRANCH   1  12
ATOM     12  C   UNL     1       8.818   9.826  31.379  1.00  0.00    -0.011 A 
ATOM     13  C   UNL     1       9.260   9.190  32.553  1.00  0.00     0.013 A 
ATOM     14  C   UNL     1       8.452   8.246  33.193  1.00  0.00     0.047 A 
ATOM     15  C   UNL     1       7.193   7.924  32.667  1.00  0.00     0.115 A 
ATOM     16  C   UNL     1       7.558   9.492  30.853  1.00  0.00     0.013 A 
ATOM     17  C   UNL     1       6.751   8.549  31.497  1.00  0.00     0.047 A 
BRANCH  15  18
ATOM     18  O   UNL     1       6.378   6.987  33.296  1.00  0.00    -0.508 OA
ATOM     19  H   UNL     1       6.664   6.528  34.153  1.00  0.00     0.293 HD
ENDBRANCH  15  18
ENDBRANCH   1  12
BRANCH  11  20
ATOM     20  C   UNL     1      11.365  14.307  27.308  1.00  0.00     0.188 C 
ATOM     21  C   UNL     1      12.474  14.850  26.348  1.00  0.00     0.179 C 
ATOM     22  O   UNL     1      10.491  13.413  26.639  1.00  0.00    -0.362 OA
ATOM     23  C   UNL     1      12.219  14.470  24.868  1.00  0.00     0.177 C 
ATOM     24  C   UNL     1       9.777  14.078  25.609  1.00  0.00     0.176 C 
ATOM     25  C   UNL     1      10.728  14.633  24.496  1.00  0.00     0.177 C 
BRANCH  21  26
ATOM     26  O   UNL     1      13.780  14.504  26.746  1.00  0.00    -0.387 OA
ATOM     27  H   UNL     1      13.819  14.524  27.738  1.00  0.00     0.211 HD
ENDBRANCH  21  26
BRANCH  23  28
ATOM     28  O   UNL     1      12.683  13.174  24.568  1.00  0.00    -0.387 OA
ATOM     29  H   UNL     1      12.210  12.848  23.761  1.00  0.00     0.211 HD
ENDBRANCH  23  28
BRANCH  24  30
ATOM     30  C   UNL     1       8.757  13.093  25.028  1.00  0.00     0.191 C 
BRANCH  30  31
ATOM     31  O   UNL     1       7.817  13.777  24.245  1.00  0.00    -0.394 OA
ATOM     32  H   UNL     1       8.340  14.342  23.617  1.00  0.00     0.210 HD
ENDBRANCH  30  31
ENDBRANCH  24  30
BRANCH  25  33
ATOM     33  O   UNL     1      10.462  15.996  24.283  1.00  0.00    -0.388 OA
ATOM     34  H   UNL     1      10.616  16.455  25.149  1.00  0.00     0.211 HD
ENDBRANCH  25  33
ENDBRANCH  11  20
BRANCH  10  35
ATOM     35  O   UNL     1      14.037  14.829  28.231  1.00  0.00    -0.507 OA
ATOM     36  H   UNL     1      14.975  14.591  27.930  1.00  0.00     0.293 HD
ENDBRANCH  10  35
TORSDOF 9
ENDMDL
MODEL 2
REMARK VINA RESULT:    47.131      2.011      8.299
REMARK INTER + INTRA:          68.869
REMARK INTER:                  68.982
REMARK INTRA:                  -0.113
REMARK UNBOUND:                 5.207
REMARK SMILES O=c1c(-c2ccc(O)cc2)coc2c([C@@H]3O[C@H](CO)[C@@H](O)[C@H](O)[C@@H]3O)c(O)ccc12
REMARK SMILES IDX 3 1 11 2 12 3 13 4 30 5 2 6 1 7 29 8 28 9 26 10 14 11 4 12
REMARK SMILES IDX 5 13 6 14 7 15 10 16 9 17 8 18 15 20 24 21 16 22 22 23 17 24
REMARK SMILES IDX 20 25 25 26 23 28 18 30 19 31 21 33 27 35
REMARK H PARENT 8 19 25 27 23 29 19 32 21 34 27 36
REMARK Flexibility Score: inf
ROOT
ATOM      1  C   UNL     1      11.022  12.664  29.128  1.00  0.00     0.065 A 
ATOM      2  C   UNL     1       9.834  11.928  29.036  1.00  0.00     0.208 A 
ATOM      3  O   UNL     1       9.384  11.226  30.069  1.00  0.00    -0.463 OA
ATOM      4  C   UNL     1      10.011  11.170  31.241  1.00  0.00     0.147 A 
ATOM      5  C   UNL     1      11.216  11.888  31.424  1.00  0.00     0.066 A 
ATOM      6  C   UNL     1      11.727  12.634  30.346  1.00  0.00     0.200 A 
ATOM      7  O   UNL     1      12.818  13.257  30.463  1.00  0.00    -0.288 OA
ATOM      8  C   UNL     1      11.866  11.846  32.666  1.00  0.00     0.020 A 
ATOM      9  C   UNL     1      11.319  11.117  33.720  1.00  0.00     0.047 A 
ATOM     10  C   UNL     1      10.125  10.405  33.551  1.00  0.00     0.125 A 
ATOM     11  C   UNL     1       9.470  10.400  32.300  1.00  0.00     0.069 A 
ENDROOT
BRANCH   1  12
ATOM     12  C   UNL     1      11.501  13.446  27.960  1.00  0.00    -0.011 A 
ATOM     13  C   UNL     1      12.765  14.063  27.980  1.00  0.00     0.013 A 
ATOM     14  C   UNL     1      13.205  14.809  26.882  1.00  0.00     0.047 A 
ATOM     15  C   UNL     1      12.387  14.949  25.752  1.00  0.00     0.115 A 
ATOM     16  C   UNL     1      10.684  13.598  26.826  1.00  0.00     0.013 A 
ATOM     17  C   UNL     1      11.128  14.342  25.730  1.00  0.00     0.047 A 
BRANCH  15  18
ATOM     18  O   UNL     1      12.815  15.686  24.652  1.00  0.00    -0.508 OA
ATOM     19  H   UNL     1      12.163  16.005  23.943  1.00  0.00     0.293 HD
ENDBRANCH  15  18
ENDBRANCH   1  12
BRANCH  11  20
ATOM     20  C   UNL     1       8.162   9.629  32.134  1.00  0.00     0.188 C 
ATOM     21  C   UNL     1       8.383   8.140  31.711  1.00  0.00     0.179 C 
ATOM     22  O   UNL     1       7.388   9.723  33.318  1.00  0.00    -0.362 OA
ATOM     23  C   UNL     1       7.522   7.152  32.538  1.00  0.00     0.177 C 
ATOM     24  C   UNL     1       6.080   9.215  33.110  1.00  0.00     0.176 C 
ATOM     25  C   UNL     1       6.090   7.693  32.746  1.00  0.00     0.177 C 
BRANCH  21  26
ATOM     26  O   UNL     1       9.736   7.753  31.699  1.00  0.00    -0.387 OA
ATOM     27  H   UNL     1       9.854   7.013  32.351  1.00  0.00     0.211 HD
ENDBRANCH  21  26
BRANCH  23  28
ATOM     28  O   UNL     1       8.130   6.825  33.766  1.00  0.00    -0.387 OA
ATOM     29  H   UNL     1       7.696   6.010  34.127  1.00  0.00     0.211 HD
ENDBRANCH  23  28
BRANCH  24  30
ATOM     30  C   UNL     1       5.262   9.477  34.380  1.00  0.00     0.191 C 
BRANCH  30  31
ATOM     31  O   UNL     1       3.987   9.950  34.043  1.00  0.00    -0.394 OA
ATOM     32  H   UNL     1       4.052  10.278  33.108  1.00  0.00     0.210 HD
ENDBRANCH  30  31
ENDBRANCH  24  30
BRANCH  25  33
ATOM     33  O   UNL     1       5.353   7.484  31.568  1.00  0.00    -0.388 OA
ATOM     34  H   UNL     1       5.919   7.801  30.818  1.00  0.00     0.211 HD
ENDBRANCH  25  33
ENDBRANCH  11  20
BRANCH  10  35
ATOM     35  O   UNL     1       9.584   9.706  34.631  1.00  0.00    -0.507 OA
ATOM     36  H   UNL     1       9.346   8.723  34.563  1.00  0.00     0.293 HD
ENDBRANCH  10  35
TORSDOF 9
ENDMDL
