MODEL 1
REMARK VINA RESULT:    -4.673      0.000      0.000
REMARK INTER + INTRA:          -5.594
REMARK INTER:                  -5.356
REMARK INTRA:                  -0.239
REMARK UNBOUND:                -0.239
REMARK SMILES COc1ccc(C(C)=O)c(O)c1
REMARK SMILES IDX 6 1 10 2 12 3 3 4 4 5 5 6 7 7 8 8 9 9 11 10 2 12 1 13
REMARK H PARENT 11 11
REMARK Flexibility Score: inf
ROOT
ATOM      1  C   UNL     1       2.575   6.004 -10.598  1.00  0.00     0.059 A 
ATOM      2  C   UNL     1       2.843   4.837 -11.351  1.00  0.00     0.130 A 
ATOM      3  C   UNL     1       2.182   4.622 -12.572  1.00  0.00     0.093 A 
ATOM      4  C   UNL     1       1.239   5.549 -13.049  1.00  0.00     0.122 A 
ATOM      5  C   UNL     1       0.964   6.690 -12.294  1.00  0.00     0.047 A 
ATOM      6  C   UNL     1       1.620   6.916 -11.083  1.00  0.00     0.019 A 
ENDROOT
BRANCH   1   7
ATOM      7  C   UNL     1       3.256   6.297  -9.308  1.00  0.00     0.163 C 
ATOM      8  C   UNL     1       2.758   7.341  -8.355  1.00  0.00     0.093 C 
ATOM      9  O   UNL     1       4.291   5.649  -8.994  1.00  0.00    -0.294 OA
ENDBRANCH   1   7
BRANCH   2  10
ATOM     10  O   UNL     1       3.744   3.878 -10.888  1.00  0.00    -0.507 OA
ATOM     11  H   UNL     1       4.566   4.132 -10.353  1.00  0.00     0.293 HD
ENDBRANCH   2  10
BRANCH   4  12
ATOM     12  O   UNL     1       0.557   5.372 -14.262  1.00  0.00    -0.497 OA
ATOM     13  C   UNL     1       0.087   6.436 -15.083  1.00  0.00     0.278 C 
ENDBRANCH   4  12
TORSDOF 3
ENDMDL
MODEL 2
REMARK VINA RESULT:    -4.440     19.439     20.877
REMARK INTER + INTRA:          -5.328
REMARK INTER:                  -5.002
REMARK INTRA:                  -0.326
REMARK UNBOUND:                -0.239
REMARK SMILES COc1ccc(C(C)=O)c(O)c1
REMARK SMILES IDX 6 1 10 2 12 3 3 4 4 5 5 6 7 7 8 8 9 9 11 10 2 12 1 13
REMARK H PARENT 11 11
REMARK Flexibility Score: inf
ROOT
ATOM      1  C   UNL     1      18.138  -4.646 -19.293  1.00  0.00     0.059 A 
ATOM      2  C   UNL     1      16.862  -4.839 -18.714  1.00  0.00     0.130 A 
ATOM      3  C   UNL     1      16.461  -6.123 -18.310  1.00  0.00     0.093 A 
ATOM      4  C   UNL     1      17.310  -7.229 -18.491  1.00  0.00     0.122 A 
ATOM      5  C   UNL     1      18.561  -7.037 -19.080  1.00  0.00     0.047 A 
ATOM      6  C   UNL     1      18.972  -5.764 -19.479  1.00  0.00     0.019 A 
ENDROOT
BRANCH   1   7
ATOM      7  C   UNL     1      18.628  -3.309 -19.723  1.00  0.00     0.163 C 
ATOM      8  C   UNL     1      19.044  -3.019 -21.133  1.00  0.00     0.093 C 
ATOM      9  O   UNL     1      18.699  -2.375 -18.877  1.00  0.00    -0.294 OA
ENDBRANCH   1   7
BRANCH   2  10
ATOM     10  O   UNL     1      15.980  -3.770 -18.555  1.00  0.00    -0.507 OA
ATOM     11  H   UNL     1      16.270  -2.811 -18.707  1.00  0.00     0.293 HD
ENDBRANCH   2  10
BRANCH   4  12
ATOM     12  O   UNL     1      16.948  -8.528 -18.104  1.00  0.00    -0.497 OA
ATOM     13  C   UNL     1      15.936  -8.830 -17.149  1.00  0.00     0.278 C 
ENDBRANCH   4  12
TORSDOF 3
ENDMDL
MODEL 3
REMARK VINA RESULT:    -4.403     19.822     21.133
REMARK INTER + INTRA:          -5.285
REMARK INTER:                  -4.970
REMARK INTRA:                  -0.315
REMARK UNBOUND:                -0.239
REMARK SMILES COc1ccc(C(C)=O)c(O)c1
REMARK SMILES IDX 6 1 10 2 12 3 3 4 4 5 5 6 7 7 8 8 9 9 11 10 2 12 1 13
REMARK H PARENT 11 11
REMARK Flexibility Score: inf
ROOT
ATOM      1  C   UNL     1      17.383  -6.659 -18.566  1.00  0.00     0.059 A 
ATOM      2  C   UNL     1      18.686  -6.492 -19.090  1.00  0.00     0.130 A 
ATOM      3  C   UNL     1      19.105  -5.231 -19.542  1.00  0.00     0.093 A 
ATOM      4  C   UNL     1      18.235  -4.127 -19.494  1.00  0.00     0.122 A 
ATOM      5  C   UNL     1      16.944  -4.300 -18.992  1.00  0.00     0.047 A 
ATOM      6  C   UNL     1      16.519  -5.548 -18.536  1.00  0.00     0.019 A 
ENDROOT
BRANCH   1   7
ATOM      7  C   UNL     1      16.887  -7.965 -18.055  1.00  0.00     0.163 C 
ATOM      8  C   UNL     1      16.486  -8.171 -16.626  1.00  0.00     0.093 C 
ATOM      9  O   UNL     1      16.795  -8.943 -18.847  1.00  0.00    -0.294 OA
ENDBRANCH   1   7
BRANCH   2  10
ATOM     10  O   UNL     1      19.561  -7.575 -19.188  1.00  0.00    -0.507 OA
ATOM     11  H   UNL     1      19.758  -8.175 -18.397  1.00  0.00     0.293 HD
ENDBRANCH   2  10
BRANCH   4  12
ATOM     12  O   UNL     1      18.613  -2.850 -19.935  1.00  0.00    -0.497 OA
ATOM     13  C   UNL     1      19.423  -1.948 -19.188  1.00  0.00     0.278 C 
ENDBRANCH   4  12
TORSDOF 3
ENDMDL
MODEL 4
REMARK VINA RESULT:    -4.295     19.554     20.959
REMARK INTER + INTRA:          -5.161
REMARK INTER:                  -5.000
REMARK INTRA:                  -0.162
REMARK UNBOUND:                -0.239
REMARK SMILES COc1ccc(C(C)=O)c(O)c1
REMARK SMILES IDX 6 1 10 2 12 3 3 4 4 5 5 6 7 7 8 8 9 9 11 10 2 12 1 13
REMARK H PARENT 11 11
REMARK Flexibility Score: inf
ROOT
ATOM      1  C   UNL     1      17.620  -5.866 -18.988  1.00  0.00     0.059 A 
ATOM      2  C   UNL     1      17.158  -4.545 -18.785  1.00  0.00     0.130 A 
ATOM      3  C   UNL     1      17.961  -3.455 -19.157  1.00  0.00     0.093 A 
ATOM      4  C   UNL     1      19.234  -3.661 -19.717  1.00  0.00     0.122 A 
ATOM      5  C   UNL     1      19.695  -4.966 -19.899  1.00  0.00     0.047 A 
ATOM      6  C   UNL     1      18.902  -6.057 -19.538  1.00  0.00     0.019 A 
ENDROOT
BRANCH   1   7
ATOM      7  C   UNL     1      16.809  -7.061 -18.633  1.00  0.00     0.163 C 
ATOM      8  C   UNL     1      16.744  -7.603 -17.237  1.00  0.00     0.093 C 
ATOM      9  O   UNL     1      16.147  -7.648 -19.532  1.00  0.00    -0.294 OA
ENDBRANCH   1   7
BRANCH   2  10
ATOM     10  O   UNL     1      15.916  -4.305 -18.196  1.00  0.00    -0.507 OA
ATOM     11  H   UNL     1      15.169  -3.839 -18.697  1.00  0.00     0.293 HD
ENDBRANCH   2  10
BRANCH   4  12
ATOM     12  O   UNL     1      20.069  -2.601 -20.101  1.00  0.00    -0.497 OA
ATOM     13  C   UNL     1      19.779  -1.225 -19.874  1.00  0.00     0.278 C 
ENDBRANCH   4  12
TORSDOF 3
ENDMDL
MODEL 5
REMARK VINA RESULT:    -4.216      1.463      4.346
REMARK INTER + INTRA:          -5.071
REMARK INTER:                  -4.887
REMARK INTRA:                  -0.184
REMARK UNBOUND:                -0.239
REMARK SMILES COc1ccc(C(C)=O)c(O)c1
REMARK SMILES IDX 6 1 10 2 12 3 3 4 4 5 5 6 7 7 8 8 9 9 11 10 2 12 1 13
REMARK H PARENT 11 11
REMARK Flexibility Score: inf
ROOT
ATOM      1  C   UNL     1       1.673   5.517 -12.258  1.00  0.00     0.059 A 
ATOM      2  C   UNL     1       2.495   5.095 -11.187  1.00  0.00     0.130 A 
ATOM      3  C   UNL     1       2.757   5.967 -10.118  1.00  0.00     0.093 A 
ATOM      4  C   UNL     1       2.223   7.267 -10.105  1.00  0.00     0.122 A 
ATOM      5  C   UNL     1       1.426   7.686 -11.173  1.00  0.00     0.047 A 
ATOM      6  C   UNL     1       1.156   6.826 -12.238  1.00  0.00     0.019 A 
ENDROOT
BRANCH   1   7
ATOM      7  C   UNL     1       1.344   4.635 -13.409  1.00  0.00     0.163 C 
ATOM      8  C   UNL     1       0.404   5.051 -14.499  1.00  0.00     0.093 C 
ATOM      9  O   UNL     1       1.871   3.491 -13.482  1.00  0.00    -0.294 OA
ENDBRANCH   1   7
BRANCH   2  10
ATOM     10  O   UNL     1       3.073   3.826 -11.187  1.00  0.00    -0.507 OA
ATOM     11  H   UNL     1       4.020   3.670 -10.860  1.00  0.00     0.293 HD
ENDBRANCH   2  10
BRANCH   4  12
ATOM     12  O   UNL     1       2.460   8.169  -9.057  1.00  0.00    -0.497 OA
ATOM     13  C   UNL     1       1.548   8.426  -7.995  1.00  0.00     0.278 C 
ENDBRANCH   4  12
TORSDOF 3
ENDMDL
MODEL 6
REMARK VINA RESULT:    -4.188      7.132      9.808
REMARK INTER + INTRA:          -5.039
REMARK INTER:                  -4.853
REMARK INTRA:                  -0.186
REMARK UNBOUND:                -0.239
REMARK SMILES COc1ccc(C(C)=O)c(O)c1
REMARK SMILES IDX 6 1 10 2 12 3 3 4 4 5 5 6 7 7 8 8 9 9 11 10 2 12 1 13
REMARK H PARENT 11 11
REMARK Flexibility Score: inf
ROOT
ATOM      1  C   UNL     1       1.478   8.515 -19.644  1.00  0.00     0.059 A 
ATOM      2  C   UNL     1       2.002   7.719 -20.688  1.00  0.00     0.130 A 
ATOM      3  C   UNL     1       2.486   8.327 -21.858  1.00  0.00     0.093 A 
ATOM      4  C   UNL     1       2.441   9.723 -22.012  1.00  0.00     0.122 A 
ATOM      5  C   UNL     1       1.906  10.504 -20.986  1.00  0.00     0.047 A 
ATOM      6  C   UNL     1       1.427   9.911 -19.817  1.00  0.00     0.019 A 
ENDROOT
BRANCH   1   7
ATOM      7  C   UNL     1       0.967   7.932 -18.373  1.00  0.00     0.163 C 
ATOM      8  C   UNL     1       0.531   8.781 -17.217  1.00  0.00     0.093 C 
ATOM      9  O   UNL     1       0.894   6.679 -18.254  1.00  0.00    -0.294 OA
ENDBRANCH   1   7
BRANCH   2  10
ATOM     10  O   UNL     1       2.026   6.328 -20.585  1.00  0.00    -0.507 OA
ATOM     11  H   UNL     1       2.193   5.861 -19.702  1.00  0.00     0.293 HD
ENDBRANCH   2  10
BRANCH   4  12
ATOM     12  O   UNL     1       2.913  10.370 -23.164  1.00  0.00    -0.497 OA
ATOM     13  C   UNL     1       2.091  11.093 -24.075  1.00  0.00     0.278 C 
ENDBRANCH   4  12
TORSDOF 3
ENDMDL
MODEL 7
REMARK VINA RESULT:    -3.966      7.283     10.972
REMARK INTER + INTRA:          -4.784
REMARK INTER:                  -4.439
REMARK INTRA:                  -0.345
REMARK UNBOUND:                -0.239
REMARK SMILES COc1ccc(C(C)=O)c(O)c1
REMARK SMILES IDX 6 1 10 2 12 3 3 4 4 5 5 6 7 7 8 8 9 9 11 10 2 12 1 13
REMARK H PARENT 11 11
REMARK Flexibility Score: inf
ROOT
ATOM      1  C   UNL     1       1.287   9.018 -21.922  1.00  0.00     0.059 A 
ATOM      2  C   UNL     1       2.128   8.006 -21.403  1.00  0.00     0.130 A 
ATOM      3  C   UNL     1       2.459   8.000 -20.039  1.00  0.00     0.093 A 
ATOM      4  C   UNL     1       1.976   9.001 -19.179  1.00  0.00     0.122 A 
ATOM      5  C   UNL     1       1.161  10.009 -19.698  1.00  0.00     0.047 A 
ATOM      6  C   UNL     1       0.821  10.022 -21.052  1.00  0.00     0.019 A 
ENDROOT
BRANCH   1   7
ATOM      7  C   UNL     1       0.886   9.069 -23.354  1.00  0.00     0.163 C 
ATOM      8  C   UNL     1       0.896  10.341 -24.147  1.00  0.00     0.093 C 
ATOM      9  O   UNL     1       0.523   8.009 -23.932  1.00  0.00    -0.294 OA
ENDBRANCH   1   7
BRANCH   2  10
ATOM     10  O   UNL     1       2.656   7.020 -22.236  1.00  0.00    -0.507 OA
ATOM     11  H   UNL     1       2.167   6.151 -22.412  1.00  0.00     0.293 HD
ENDBRANCH   2  10
BRANCH   4  12
ATOM     12  O   UNL     1       2.283   9.032 -17.810  1.00  0.00    -0.497 OA
ATOM     13  C   UNL     1       1.618   9.853 -16.855  1.00  0.00     0.278 C 
ENDBRANCH   4  12
TORSDOF 3
ENDMDL
MODEL 8
REMARK VINA RESULT:    -3.943      0.982      4.632
REMARK INTER + INTRA:          -4.758
REMARK INTER:                  -4.428
REMARK INTRA:                  -0.330
REMARK UNBOUND:                -0.239
REMARK SMILES COc1ccc(C(C)=O)c(O)c1
REMARK SMILES IDX 6 1 10 2 12 3 3 4 4 5 5 6 7 7 8 8 9 9 11 10 2 12 1 13
REMARK H PARENT 11 11
REMARK Flexibility Score: inf
ROOT
ATOM      1  C   UNL     1       1.210   5.888 -13.022  1.00  0.00     0.059 A 
ATOM      2  C   UNL     1       1.969   4.760 -12.634  1.00  0.00     0.130 A 
ATOM      3  C   UNL     1       2.678   4.774 -11.422  1.00  0.00     0.093 A 
ATOM      4  C   UNL     1       2.656   5.909 -10.592  1.00  0.00     0.122 A 
ATOM      5  C   UNL     1       1.919   7.027 -10.987  1.00  0.00     0.047 A 
ATOM      6  C   UNL     1       1.207   7.021 -12.187  1.00  0.00     0.019 A 
ENDROOT
BRANCH   1   7
ATOM      7  C   UNL     1       0.423   5.927 -14.284  1.00  0.00     0.163 C 
ATOM      8  C   UNL     1       0.252   7.180 -15.087  1.00  0.00     0.093 C 
ATOM      9  O   UNL     1      -0.125   4.871 -14.704  1.00  0.00    -0.294 OA
ENDBRANCH   1   7
BRANCH   2  10
ATOM     10  O   UNL     1       2.044   3.633 -13.453  1.00  0.00    -0.507 OA
ATOM     11  H   UNL     1       1.214   3.156 -13.783  1.00  0.00     0.293 HD
ENDBRANCH   2  10
BRANCH   4  12
ATOM     12  O   UNL     1       3.350   5.965  -9.374  1.00  0.00    -0.497 OA
ATOM     13  C   UNL     1       3.222   7.017  -8.423  1.00  0.00     0.278 C 
ENDBRANCH   4  12
TORSDOF 3
ENDMDL
MODEL 9
REMARK VINA RESULT:    -3.783     20.500     21.774
REMARK INTER + INTRA:          -4.574
REMARK INTER:                  -4.291
REMARK INTRA:                  -0.283
REMARK UNBOUND:                -0.239
REMARK SMILES COc1ccc(C(C)=O)c(O)c1
REMARK SMILES IDX 6 1 10 2 12 3 3 4 4 5 5 6 7 7 8 8 9 9 11 10 2 12 1 13
REMARK H PARENT 11 11
REMARK Flexibility Score: inf
ROOT
ATOM      1  C   UNL     1      19.706  -2.549 -20.760  1.00  0.00     0.059 A 
ATOM      2  C   UNL     1      19.099  -2.779 -19.504  1.00  0.00     0.130 A 
ATOM      3  C   UNL     1      18.912  -4.093 -19.044  1.00  0.00     0.093 A 
ATOM      4  C   UNL     1      19.309  -5.190 -19.829  1.00  0.00     0.122 A 
ATOM      5  C   UNL     1      19.892  -4.959 -21.076  1.00  0.00     0.047 A 
ATOM      6  C   UNL     1      20.087  -3.657 -21.540  1.00  0.00     0.019 A 
ENDROOT
BRANCH   1   7
ATOM      7  C   UNL     1      19.948  -1.182 -21.294  1.00  0.00     0.163 C 
ATOM      8  C   UNL     1      20.125  -0.909 -22.757  1.00  0.00     0.093 C 
ATOM      9  O   UNL     1      20.007  -0.208 -20.494  1.00  0.00    -0.294 OA
ENDBRANCH   1   7
BRANCH   2  10
ATOM     10  O   UNL     1      18.658  -1.715 -18.718  1.00  0.00    -0.507 OA
ATOM     11  H   UNL     1      18.903  -0.755 -18.931  1.00  0.00     0.293 HD
ENDBRANCH   2  10
BRANCH   4  12
ATOM     12  O   UNL     1      19.140  -6.518 -19.408  1.00  0.00    -0.497 OA
ATOM     13  C   UNL     1      18.003  -6.999 -18.700  1.00  0.00     0.278 C 
ENDBRANCH   4  12
TORSDOF 3
ENDMDL
