MODEL 1
REMARK VINA RESULT:    -3.048      0.000      0.000
REMARK INTER + INTRA:          -3.442
REMARK INTER:                  -3.404
REMARK INTRA:                  -0.038
REMARK UNBOUND:                -0.038
REMARK SMILES CCCC(=O)[O-]
REMARK SMILES IDX 3 1 4 2 5 3 6 4 2 5 1 6
REMARK H PARENT
REMARK Flexibility Score: inf
ROOT
ATOM      1  C   UNL     1       4.050  -3.528   3.095  1.00  0.00     0.052 C 
ENDROOT
BRANCH   1   2
ATOM      2  C   UNL     1       4.961  -4.177   4.088  1.00  0.00     0.041 C 
ATOM      3  O   UNL     1       5.418  -5.329   3.869  1.00  0.00    -0.550 OA
ATOM      4  O   UNL     1       5.267  -3.530   5.278  1.00  0.00    -0.550 OA
ENDBRANCH   1   2
BRANCH   1   5
ATOM      5  C   UNL     1       3.886  -4.415   1.858  1.00  0.00     0.003 C 
ATOM      6  C   UNL     1       2.463  -4.954   1.751  1.00  0.00     0.004 C 
ENDBRANCH   1   5
TORSDOF 2
ENDMDL
MODEL 2
REMARK VINA RESULT:    -3.001     17.329     18.209
REMARK INTER + INTRA:          -3.390
REMARK INTER:                  -3.376
REMARK INTRA:                  -0.013
REMARK UNBOUND:                -0.038
REMARK SMILES CCCC(=O)[O-]
REMARK SMILES IDX 3 1 4 2 5 3 6 4 2 5 1 6
REMARK H PARENT
REMARK Flexibility Score: inf
ROOT
ATOM      1  C   UNL     1      11.123 -15.153  15.521  1.00  0.00     0.052 C 
ENDROOT
BRANCH   1   2
ATOM      2  C   UNL     1      12.199 -15.163  16.561  1.00  0.00     0.041 C 
ATOM      3  O   UNL     1      12.165 -14.343  17.515  1.00  0.00    -0.550 OA
ATOM      4  O   UNL     1      13.265 -16.046  16.450  1.00  0.00    -0.550 OA
ENDBRANCH   1   2
BRANCH   1   5
ATOM      5  C   UNL     1      11.486 -16.090  14.366  1.00  0.00     0.003 C 
ATOM      6  C   UNL     1      10.887 -15.602  13.051  1.00  0.00     0.004 C 
ENDBRANCH   1   5
TORSDOF 2
ENDMDL
MODEL 3
REMARK VINA RESULT:    -2.995     17.226     18.056
REMARK INTER + INTRA:          -3.384
REMARK INTER:                  -3.370
REMARK INTRA:                  -0.014
REMARK UNBOUND:                -0.038
REMARK SMILES CCCC(=O)[O-]
REMARK SMILES IDX 3 1 4 2 5 3 6 4 2 5 1 6
REMARK H PARENT
REMARK Flexibility Score: inf
ROOT
ATOM      1  C   UNL     1      11.075 -15.160  15.382  1.00  0.00     0.052 C 
ENDROOT
BRANCH   1   2
ATOM      2  C   UNL     1      12.145 -15.174  16.427  1.00  0.00     0.041 C 
ATOM      3  O   UNL     1      13.047 -16.051  16.398  1.00  0.00    -0.550 OA
ATOM      4  O   UNL     1      12.118 -14.249  17.462  1.00  0.00    -0.550 OA
ENDBRANCH   1   2
BRANCH   1   5
ATOM      5  C   UNL     1      11.438 -16.102  14.230  1.00  0.00     0.003 C 
ATOM      6  C   UNL     1      10.796 -15.648  12.923  1.00  0.00     0.004 C 
ENDBRANCH   1   5
TORSDOF 2
ENDMDL
MODEL 4
REMARK VINA RESULT:    -2.959     18.154     19.019
REMARK INTER + INTRA:          -3.343
REMARK INTER:                  -3.332
REMARK INTRA:                  -0.011
REMARK UNBOUND:                -0.038
REMARK SMILES CCCC(=O)[O-]
REMARK SMILES IDX 3 1 4 2 5 3 6 4 2 5 1 6
REMARK H PARENT
REMARK Flexibility Score: inf
ROOT
ATOM      1  C   UNL     1      12.821 -17.001  14.347  1.00  0.00     0.052 C 
ENDROOT
BRANCH   1   2
ATOM      2  C   UNL     1      13.661 -17.057  15.583  1.00  0.00     0.041 C 
ATOM      3  O   UNL     1      14.559 -17.931  15.700  1.00  0.00    -0.550 OA
ATOM      4  O   UNL     1      13.421 -16.174  16.628  1.00  0.00    -0.550 OA
ENDBRANCH   1   2
BRANCH   1   5
ATOM      5  C   UNL     1      11.701 -15.969  14.506  1.00  0.00     0.003 C 
ATOM      6  C   UNL     1      10.977 -15.733  13.184  1.00  0.00     0.004 C 
ENDBRANCH   1   5
TORSDOF 2
ENDMDL
MODEL 5
REMARK VINA RESULT:    -2.938      2.388      3.089
REMARK INTER + INTRA:          -3.320
REMARK INTER:                  -3.267
REMARK INTRA:                  -0.053
REMARK UNBOUND:                -0.038
REMARK SMILES CCCC(=O)[O-]
REMARK SMILES IDX 3 1 4 2 5 3 6 4 2 5 1 6
REMARK H PARENT
REMARK Flexibility Score: inf
ROOT
ATOM      1  C   UNL     1       5.005  -3.884   1.988  1.00  0.00     0.052 C 
ENDROOT
BRANCH   1   2
ATOM      2  C   UNL     1       5.080  -5.341   1.659  1.00  0.00     0.041 C 
ATOM      3  O   UNL     1       6.188  -5.937   1.674  1.00  0.00    -0.550 OA
ATOM      4  O   UNL     1       3.933  -6.030   1.288  1.00  0.00    -0.550 OA
ENDBRANCH   1   2
BRANCH   1   5
ATOM      5  C   UNL     1       4.183  -3.664   3.261  1.00  0.00     0.003 C 
ATOM      6  C   UNL     1       5.032  -3.879   4.510  1.00  0.00     0.004 C 
ENDBRANCH   1   5
TORSDOF 2
ENDMDL
MODEL 6
REMARK VINA RESULT:    -2.877     17.587     18.617
REMARK INTER + INTRA:          -3.252
REMARK INTER:                  -3.241
REMARK INTRA:                  -0.010
REMARK UNBOUND:                -0.038
REMARK SMILES CCCC(=O)[O-]
REMARK SMILES IDX 3 1 4 2 5 3 6 4 2 5 1 6
REMARK H PARENT
REMARK Flexibility Score: inf
ROOT
ATOM      1  C   UNL     1      12.491 -16.803  14.256  1.00  0.00     0.052 C 
ENDROOT
BRANCH   1   2
ATOM      2  C   UNL     1      11.326 -15.869  14.351  1.00  0.00     0.041 C 
ATOM      3  O   UNL     1      10.713 -15.514  13.311  1.00  0.00    -0.550 OA
ATOM      4  O   UNL     1      10.948 -15.353  15.583  1.00  0.00    -0.550 OA
ENDBRANCH   1   2
BRANCH   1   5
ATOM      5  C   UNL     1      13.333 -16.741  15.533  1.00  0.00     0.003 C 
ATOM      6  C   UNL     1      14.444 -17.786  15.513  1.00  0.00     0.004 C 
ENDBRANCH   1   5
TORSDOF 2
ENDMDL
MODEL 7
REMARK VINA RESULT:    -2.873     19.095     19.792
REMARK INTER + INTRA:          -3.247
REMARK INTER:                  -3.235
REMARK INTRA:                  -0.012
REMARK UNBOUND:                -0.038
REMARK SMILES CCCC(=O)[O-]
REMARK SMILES IDX 3 1 4 2 5 3 6 4 2 5 1 6
REMARK H PARENT
REMARK Flexibility Score: inf
ROOT
ATOM      1  C   UNL     1      13.626 -16.346  16.213  1.00  0.00     0.052 C 
ENDROOT
BRANCH   1   2
ATOM      2  C   UNL     1      14.080 -17.455  15.318  1.00  0.00     0.041 C 
ATOM      3  O   UNL     1      13.237 -18.220  14.780  1.00  0.00    -0.550 OA
ATOM      4  O   UNL     1      15.436 -17.675  15.116  1.00  0.00    -0.550 OA
ENDBRANCH   1   2
BRANCH   1   5
ATOM      5  C   UNL     1      12.438 -15.607  15.591  1.00  0.00     0.003 C 
ATOM      6  C   UNL     1      11.719 -14.748  16.627  1.00  0.00     0.004 C 
ENDBRANCH   1   5
TORSDOF 2
ENDMDL
MODEL 8
REMARK VINA RESULT:    -2.833     18.363     18.845
REMARK INTER + INTRA:          -3.202
REMARK INTER:                  -3.170
REMARK INTRA:                  -0.032
REMARK UNBOUND:                -0.038
REMARK SMILES CCCC(=O)[O-]
REMARK SMILES IDX 3 1 4 2 5 3 6 4 2 5 1 6
REMARK H PARENT
REMARK Flexibility Score: inf
ROOT
ATOM      1  C   UNL     1      12.527 -15.960  14.304  1.00  0.00     0.052 C 
ENDROOT
BRANCH   1   2
ATOM      2  C   UNL     1      13.288 -16.959  15.117  1.00  0.00     0.041 C 
ATOM      3  O   UNL     1      13.288 -18.174  14.790  1.00  0.00    -0.550 OA
ATOM      4  O   UNL     1      13.958 -16.555  16.264  1.00  0.00    -0.550 OA
ENDBRANCH   1   2
BRANCH   1   5
ATOM      5  C   UNL     1      11.233 -15.561  15.019  1.00  0.00     0.003 C 
ATOM      6  C   UNL     1      11.387 -14.220  15.729  1.00  0.00     0.004 C 
ENDBRANCH   1   5
TORSDOF 2
ENDMDL
MODEL 9
REMARK VINA RESULT:    -2.812     18.337     19.348
REMARK INTER + INTRA:          -3.178
REMARK INTER:                  -3.141
REMARK INTRA:                  -0.037
REMARK UNBOUND:                -0.038
REMARK SMILES CCCC(=O)[O-]
REMARK SMILES IDX 3 1 4 2 5 3 6 4 2 5 1 6
REMARK H PARENT
REMARK Flexibility Score: inf
ROOT
ATOM      1  C   UNL     1      12.963 -17.043  14.444  1.00  0.00     0.052 C 
ENDROOT
BRANCH   1   2
ATOM      2  C   UNL     1      12.328 -15.946  15.238  1.00  0.00     0.041 C 
ATOM      3  O   UNL     1      12.878 -15.524  16.288  1.00  0.00    -0.550 OA
ATOM      4  O   UNL     1      11.104 -15.422  14.844  1.00  0.00    -0.550 OA
ENDBRANCH   1   2
BRANCH   1   5
ATOM      5  C   UNL     1      14.009 -17.778  15.286  1.00  0.00     0.003 C 
ATOM      6  C   UNL     1      15.393 -17.687  14.650  1.00  0.00     0.004 C 
ENDBRANCH   1   5
TORSDOF 2
ENDMDL
