MODEL 1
REMARK VINA RESULT:    -4.404      0.000      0.000
REMARK INTER + INTRA:          -7.237
REMARK INTER:                  -6.464
REMARK INTRA:                  -0.773
REMARK UNBOUND:                -0.773
REMARK SMILES O=C([O-])CCCCCCCC(=O)[O-]
REMARK SMILES IDX 7 1 6 2 5 3 4 4 2 5 1 6 3 7 8 8 9 9 10 10 11 11 12 12 13 13
REMARK H PARENT
REMARK Flexibility Score: inf
ROOT
ATOM      1  C   UNL     1       4.154   6.758  11.133  1.00  0.00     0.000 C 
ENDROOT
BRANCH   1   2
ATOM      2  C   UNL     1       4.670   7.497   9.885  1.00  0.00     0.000 C 
BRANCH   2   3
ATOM      3  C   UNL     1       6.143   7.924  10.008  1.00  0.00     0.006 C 
BRANCH   3   4
ATOM      4  C   UNL     1       7.086   6.720  10.126  1.00  0.00     0.053 C 
BRANCH   4   5
ATOM      5  C   UNL     1       8.244   7.008  11.032  1.00  0.00     0.041 C 
ATOM      6  O   UNL     1       8.251   8.051  11.737  1.00  0.00    -0.550 OA
ATOM      7  O   UNL     1       9.297   6.107  11.124  1.00  0.00    -0.550 OA
ENDBRANCH   4   5
ENDBRANCH   3   4
ENDBRANCH   2   3
ENDBRANCH   1   2
BRANCH   1   8
ATOM      8  C   UNL     1       3.779   7.666  12.317  1.00  0.00     0.000 C 
BRANCH   8   9
ATOM      9  C   UNL     1       4.859   7.701  13.412  1.00  0.00     0.006 C 
BRANCH   9  10
ATOM     10  C   UNL     1       5.608   6.366  13.530  1.00  0.00     0.053 C 
BRANCH  10  11
ATOM     11  C   UNL     1       6.502   6.339  14.732  1.00  0.00     0.041 C 
ATOM     12  O   UNL     1       7.749   6.234  14.593  1.00  0.00    -0.550 OA
ATOM     13  O   UNL     1       5.955   6.395  16.007  1.00  0.00    -0.550 OA
ENDBRANCH  10  11
ENDBRANCH   9  10
ENDBRANCH   8   9
ENDBRANCH   1   8
TORSDOF 8
ENDMDL
MODEL 2
REMARK VINA RESULT:    -4.358      2.400      5.253
REMARK INTER + INTRA:          -7.169
REMARK INTER:                  -6.537
REMARK INTRA:                  -0.633
REMARK UNBOUND:                -0.773
REMARK SMILES O=C([O-])CCCCCCCC(=O)[O-]
REMARK SMILES IDX 7 1 6 2 5 3 4 4 2 5 1 6 3 7 8 8 9 9 10 10 11 11 12 12 13 13
REMARK H PARENT
REMARK Flexibility Score: inf
ROOT
ATOM      1  C   UNL     1       7.945   6.725  12.057  1.00  0.00     0.000 C 
ENDROOT
BRANCH   1   2
ATOM      2  C   UNL     1       7.429   6.771  13.507  1.00  0.00     0.000 C 
BRANCH   2   3
ATOM      3  C   UNL     1       5.982   6.267  13.645  1.00  0.00     0.006 C 
BRANCH   3   4
ATOM      4  C   UNL     1       5.058   7.324  14.264  1.00  0.00     0.053 C 
BRANCH   4   5
ATOM      5  C   UNL     1       4.525   6.885  15.594  1.00  0.00     0.041 C 
ATOM      6  O   UNL     1       5.309   6.443  16.475  1.00  0.00    -0.550 OA
ATOM      7  O   UNL     1       3.170   7.000  15.874  1.00  0.00    -0.550 OA
ENDBRANCH   4   5
ENDBRANCH   3   4
ENDBRANCH   2   3
ENDBRANCH   1   2
BRANCH   1   8
ATOM      8  C   UNL     1       8.110   8.098  11.383  1.00  0.00     0.000 C 
BRANCH   8   9
ATOM      9  C   UNL     1       6.955   8.437  10.425  1.00  0.00     0.006 C 
BRANCH   9  10
ATOM     10  C   UNL     1       6.219   7.182   9.937  1.00  0.00     0.053 C 
BRANCH  10  11
ATOM     11  C   UNL     1       4.742   7.411   9.841  1.00  0.00     0.041 C 
ATOM     12  O   UNL     1       4.271   8.155   8.941  1.00  0.00    -0.550 OA
ATOM     13  O   UNL     1       3.886   6.829  10.768  1.00  0.00    -0.550 OA
ENDBRANCH  10  11
ENDBRANCH   9  10
ENDBRANCH   8   9
ENDBRANCH   1   8
TORSDOF 8
ENDMDL
MODEL 3
REMARK VINA RESULT:    -4.355      0.092      3.873
REMARK INTER + INTRA:          -7.165
REMARK INTER:                  -6.383
REMARK INTRA:                  -0.782
REMARK UNBOUND:                -0.773
REMARK SMILES O=C([O-])CCCCCCCC(=O)[O-]
REMARK SMILES IDX 7 1 6 2 5 3 4 4 2 5 1 6 3 7 8 8 9 9 10 10 11 11 12 12 13 13
REMARK H PARENT
REMARK Flexibility Score: inf
ROOT
ATOM      1  C   UNL     1       4.108   6.821  11.228  1.00  0.00     0.000 C 
ENDROOT
BRANCH   1   2
ATOM      2  C   UNL     1       3.796   7.781  12.390  1.00  0.00     0.000 C 
BRANCH   2   3
ATOM      3  C   UNL     1       4.838   7.711  13.521  1.00  0.00     0.006 C 
BRANCH   3   4
ATOM      4  C   UNL     1       5.582   6.369  13.539  1.00  0.00     0.053 C 
BRANCH   4   5
ATOM      5  C   UNL     1       6.527   6.274  14.698  1.00  0.00     0.041 C 
ATOM      6  O   UNL     1       7.758   6.103  14.497  1.00  0.00    -0.550 OA
ATOM      7  O   UNL     1       6.054   6.411  15.996  1.00  0.00    -0.550 OA
ENDBRANCH   4   5
ENDBRANCH   3   4
ENDBRANCH   2   3
ENDBRANCH   1   2
BRANCH   1   8
ATOM      8  C   UNL     1       4.630   7.497   9.949  1.00  0.00     0.000 C 
BRANCH   8   9
ATOM      9  C   UNL     1       6.097   7.945  10.064  1.00  0.00     0.006 C 
BRANCH   9  10
ATOM     10  C   UNL     1       7.062   6.755  10.142  1.00  0.00     0.053 C 
BRANCH  10  11
ATOM     11  C   UNL     1       8.219   7.040  11.050  1.00  0.00     0.041 C 
ATOM     12  O   UNL     1       8.253   8.107  11.718  1.00  0.00    -0.550 OA
ATOM     13  O   UNL     1       9.277   6.144  11.133  1.00  0.00    -0.550 OA
ENDBRANCH  10  11
ENDBRANCH   9  10
ENDBRANCH   8   9
ENDBRANCH   1   8
TORSDOF 8
ENDMDL
MODEL 4
REMARK VINA RESULT:    -4.333      2.342      3.399
REMARK INTER + INTRA:          -7.133
REMARK INTER:                  -6.599
REMARK INTRA:                  -0.534
REMARK UNBOUND:                -0.773
REMARK SMILES O=C([O-])CCCCCCCC(=O)[O-]
REMARK SMILES IDX 7 1 6 2 5 3 4 4 2 5 1 6 3 7 8 8 9 9 10 10 11 11 12 12 13 13
REMARK H PARENT
REMARK Flexibility Score: inf
ROOT
ATOM      1  C   UNL     1       7.515   7.187  12.902  1.00  0.00     0.000 C 
ENDROOT
BRANCH   1   2
ATOM      2  C   UNL     1       8.298   6.724  11.660  1.00  0.00     0.000 C 
BRANCH   2   3
ATOM      3  C   UNL     1       7.477   6.823  10.363  1.00  0.00     0.006 C 
BRANCH   3   4
ATOM      4  C   UNL     1       5.985   7.053  10.639  1.00  0.00     0.053 C 
BRANCH   4   5
ATOM      5  C   UNL     1       5.394   8.055   9.696  1.00  0.00     0.041 C 
ATOM      6  O   UNL     1       4.229   7.891   9.247  1.00  0.00    -0.550 OA
ATOM      7  O   UNL     1       6.114   9.189   9.343  1.00  0.00    -0.550 OA
ENDBRANCH   4   5
ENDBRANCH   3   4
ENDBRANCH   2   3
ENDBRANCH   1   2
BRANCH   1   8
ATOM      8  C   UNL     1       7.527   6.200  14.082  1.00  0.00     0.000 C 
BRANCH   8   9
ATOM      9  C   UNL     1       6.114   5.827  14.566  1.00  0.00     0.006 C 
BRANCH   9  10
ATOM     10  C   UNL     1       5.129   6.997  14.433  1.00  0.00     0.053 C 
BRANCH  10  11
ATOM     11  C   UNL     1       4.571   7.402  15.763  1.00  0.00     0.041 C 
ATOM     12  O   UNL     1       4.125   6.531  16.556  1.00  0.00    -0.550 OA
ATOM     13  O   UNL     1       4.512   8.745  16.113  1.00  0.00    -0.550 OA
ENDBRANCH  10  11
ENDBRANCH   9  10
ENDBRANCH   8   9
ENDBRANCH   1   8
TORSDOF 8
ENDMDL
MODEL 5
REMARK VINA RESULT:    -4.292      2.585      5.505
REMARK INTER + INTRA:          -7.073
REMARK INTER:                  -6.636
REMARK INTRA:                  -0.437
REMARK UNBOUND:                -0.773
REMARK SMILES O=C([O-])CCCCCCCC(=O)[O-]
REMARK SMILES IDX 7 1 6 2 5 3 4 4 2 5 1 6 3 7 8 8 9 9 10 10 11 11 12 12 13 13
REMARK H PARENT
REMARK Flexibility Score: inf
ROOT
ATOM      1  C   UNL     1       7.511   7.118  13.164  1.00  0.00     0.000 C 
ENDROOT
BRANCH   1   2
ATOM      2  C   UNL     1       7.388   6.329  14.480  1.00  0.00     0.000 C 
BRANCH   2   3
ATOM      3  C   UNL     1       5.989   5.722  14.687  1.00  0.00     0.006 C 
BRANCH   3   4
ATOM      4  C   UNL     1       5.261   6.343  15.885  1.00  0.00     0.053 C 
BRANCH   4   5
ATOM      5  C   UNL     1       4.631   7.656  15.532  1.00  0.00     0.041 C 
ATOM      6  O   UNL     1       4.568   8.578  16.388  1.00  0.00    -0.550 OA
ATOM      7  O   UNL     1       4.148   7.875  14.248  1.00  0.00    -0.550 OA
ENDBRANCH   4   5
ENDBRANCH   3   4
ENDBRANCH   2   3
ENDBRANCH   1   2
BRANCH   1   8
ATOM      8  C   UNL     1       8.303   6.407  12.053  1.00  0.00     0.000 C 
BRANCH   8   9
ATOM      9  C   UNL     1       8.295   7.180  10.722  1.00  0.00     0.006 C 
BRANCH   9  10
ATOM     10  C   UNL     1       7.522   8.502  10.825  1.00  0.00     0.053 C 
BRANCH  10  11
ATOM     11  C   UNL     1       6.423   8.578   9.810  1.00  0.00     0.041 C 
ATOM     12  O   UNL     1       5.687   7.580   9.595  1.00  0.00    -0.550 OA
ATOM     13  O   UNL     1       6.233   9.742   9.076  1.00  0.00    -0.550 OA
ENDBRANCH  10  11
ENDBRANCH   9  10
ENDBRANCH   8   9
ENDBRANCH   1   8
TORSDOF 8
ENDMDL
MODEL 6
REMARK VINA RESULT:    -4.241      1.534      4.232
REMARK INTER + INTRA:          -6.998
REMARK INTER:                  -6.449
REMARK INTRA:                  -0.549
REMARK UNBOUND:                -0.773
REMARK SMILES O=C([O-])CCCCCCCC(=O)[O-]
REMARK SMILES IDX 7 1 6 2 5 3 4 4 2 5 1 6 3 7 8 8 9 9 10 10 11 11 12 12 13 13
REMARK H PARENT
REMARK Flexibility Score: inf
ROOT
ATOM      1  C   UNL     1       4.544   6.782  12.052  1.00  0.00     0.000 C 
ENDROOT
BRANCH   1   2
ATOM      2  C   UNL     1       4.177   7.600  13.303  1.00  0.00     0.000 C 
BRANCH   2   3
ATOM      3  C   UNL     1       5.181   7.416  14.455  1.00  0.00     0.006 C 
BRANCH   3   4
ATOM      4  C   UNL     1       5.950   6.092  14.346  1.00  0.00     0.053 C 
BRANCH   4   5
ATOM      5  C   UNL     1       7.415   6.318  14.126  1.00  0.00     0.041 C 
ATOM      6  O   UNL     1       8.256   5.502  14.586  1.00  0.00    -0.550 OA
ATOM      7  O   UNL     1       7.848   7.407  13.382  1.00  0.00    -0.550 OA
ENDBRANCH   4   5
ENDBRANCH   3   4
ENDBRANCH   2   3
ENDBRANCH   1   2
BRANCH   1   8
ATOM      8  C   UNL     1       3.888   7.264  10.746  1.00  0.00     0.000 C 
BRANCH   8   9
ATOM      9  C   UNL     1       4.902   7.477   9.609  1.00  0.00     0.006 C 
BRANCH   9  10
ATOM     10  C   UNL     1       6.343   7.575  10.128  1.00  0.00     0.053 C 
BRANCH  10  11
ATOM     11  C   UNL     1       6.895   8.958   9.965  1.00  0.00     0.041 C 
ATOM     12  O   UNL     1       7.931   9.306  10.591  1.00  0.00    -0.550 OA
ATOM     13  O   UNL     1       6.246   9.875   9.147  1.00  0.00    -0.550 OA
ENDBRANCH  10  11
ENDBRANCH   9  10
ENDBRANCH   8   9
ENDBRANCH   1   8
TORSDOF 8
ENDMDL
MODEL 7
REMARK VINA RESULT:    -4.236      2.492      3.547
REMARK INTER + INTRA:          -6.990
REMARK INTER:                  -6.227
REMARK INTRA:                  -0.763
REMARK UNBOUND:                -0.773
REMARK SMILES O=C([O-])CCCCCCCC(=O)[O-]
REMARK SMILES IDX 7 1 6 2 5 3 4 4 2 5 1 6 3 7 8 8 9 9 10 10 11 11 12 12 13 13
REMARK H PARENT
REMARK Flexibility Score: inf
ROOT
ATOM      1  C   UNL     1       7.773   7.301  12.911  1.00  0.00     0.000 C 
ENDROOT
BRANCH   1   2
ATOM      2  C   UNL     1       8.493   6.600  11.745  1.00  0.00     0.000 C 
BRANCH   2   3
ATOM      3  C   UNL     1       7.878   6.935  10.374  1.00  0.00     0.006 C 
BRANCH   3   4
ATOM      4  C   UNL     1       7.167   8.294  10.376  1.00  0.00     0.053 C 
BRANCH   4   5
ATOM      5  C   UNL     1       5.819   8.216   9.726  1.00  0.00     0.041 C 
ATOM      6  O   UNL     1       5.225   7.111   9.634  1.00  0.00    -0.550 OA
ATOM      7  O   UNL     1       5.204   9.370   9.258  1.00  0.00    -0.550 OA
ENDBRANCH   4   5
ENDBRANCH   3   4
ENDBRANCH   2   3
ENDBRANCH   1   2
BRANCH   1   8
ATOM      8  C   UNL     1       7.392   6.383  14.085  1.00  0.00     0.000 C 
BRANCH   8   9
ATOM      9  C   UNL     1       5.881   6.379  14.376  1.00  0.00     0.006 C 
BRANCH   9  10
ATOM     10  C   UNL     1       5.051   6.745  13.138  1.00  0.00     0.053 C 
BRANCH  10  11
ATOM     11  C   UNL     1       4.171   7.931  13.395  1.00  0.00     0.041 C 
ATOM     12  O   UNL     1       4.364   9.010  12.775  1.00  0.00    -0.550 OA
ATOM     13  O   UNL     1       3.160   7.855  14.344  1.00  0.00    -0.550 OA
ENDBRANCH  10  11
ENDBRANCH   9  10
ENDBRANCH   8   9
ENDBRANCH   1   8
TORSDOF 8
ENDMDL
MODEL 8
REMARK VINA RESULT:    -4.154      2.636      4.892
REMARK INTER + INTRA:          -6.870
REMARK INTER:                  -6.115
REMARK INTRA:                  -0.755
REMARK UNBOUND:                -0.773
REMARK SMILES O=C([O-])CCCCCCCC(=O)[O-]
REMARK SMILES IDX 7 1 6 2 5 3 4 4 2 5 1 6 3 7 8 8 9 9 10 10 11 11 12 12 13 13
REMARK H PARENT
REMARK Flexibility Score: inf
ROOT
ATOM      1  C   UNL     1       7.244   6.012  14.272  1.00  0.00     0.000 C 
ENDROOT
BRANCH   1   2
ATOM      2  C   UNL     1       5.779   6.005  14.746  1.00  0.00     0.000 C 
BRANCH   2   3
ATOM      3  C   UNL     1       5.219   7.419  14.983  1.00  0.00     0.006 C 
BRANCH   3   4
ATOM      4  C   UNL     1       3.913   7.659  14.214  1.00  0.00     0.053 C 
BRANCH   4   5
ATOM      5  C   UNL     1       4.171   8.071  12.797  1.00  0.00     0.041 C 
ATOM      6  O   UNL     1       4.585   9.232  12.542  1.00  0.00    -0.550 OA
ATOM      7  O   UNL     1       3.989   7.162  11.763  1.00  0.00    -0.550 OA
ENDBRANCH   4   5
ENDBRANCH   3   4
ENDBRANCH   2   3
ENDBRANCH   1   2
BRANCH   1   8
ATOM      8  C   UNL     1       7.612   7.160  13.317  1.00  0.00     0.000 C 
BRANCH   8   9
ATOM      9  C   UNL     1       7.560   6.747  11.836  1.00  0.00     0.006 C 
BRANCH   9  10
ATOM     10  C   UNL     1       8.286   7.749  10.928  1.00  0.00     0.053 C 
BRANCH  10  11
ATOM     11  C   UNL     1       7.345   8.776  10.375  1.00  0.00     0.041 C 
ATOM     12  O   UNL     1       6.378   8.424   9.649  1.00  0.00    -0.550 OA
ATOM     13  O   UNL     1       7.555  10.124  10.634  1.00  0.00    -0.550 OA
ENDBRANCH  10  11
ENDBRANCH   9  10
ENDBRANCH   8   9
ENDBRANCH   1   8
TORSDOF 8
ENDMDL
MODEL 9
REMARK VINA RESULT:    -4.148      2.587      3.913
REMARK INTER + INTRA:          -6.861
REMARK INTER:                  -6.080
REMARK INTRA:                  -0.782
REMARK UNBOUND:                -0.773
REMARK SMILES O=C([O-])CCCCCCCC(=O)[O-]
REMARK SMILES IDX 7 1 6 2 5 3 4 4 2 5 1 6 3 7 8 8 9 9 10 10 11 11 12 12 13 13
REMARK H PARENT
REMARK Flexibility Score: inf
ROOT
ATOM      1  C   UNL     1       5.491   6.645  13.441  1.00  0.00     0.000 C 
ENDROOT
BRANCH   1   2
ATOM      2  C   UNL     1       6.949   7.054  13.722  1.00  0.00     0.000 C 
BRANCH   2   3
ATOM      3  C   UNL     1       7.881   6.811  12.522  1.00  0.00     0.006 C 
BRANCH   3   4
ATOM      4  C   UNL     1       8.059   8.071  11.664  1.00  0.00     0.053 C 
BRANCH   4   5
ATOM      5  C   UNL     1       7.235   8.013  10.414  1.00  0.00     0.041 C 
ATOM      6  O   UNL     1       6.973   9.068   9.780  1.00  0.00    -0.550 OA
ATOM      7  O   UNL     1       6.789   6.790   9.930  1.00  0.00    -0.550 OA
ENDBRANCH   4   5
ENDBRANCH   3   4
ENDBRANCH   2   3
ENDBRANCH   1   2
BRANCH   1   8
ATOM      8  C   UNL     1       4.428   7.597  14.016  1.00  0.00     0.000 C 
BRANCH   8   9
ATOM      9  C   UNL     1       3.312   7.927  13.010  1.00  0.00     0.006 C 
BRANCH   9  10
ATOM     10  C   UNL     1       3.864   8.525  11.709  1.00  0.00     0.053 C 
BRANCH  10  11
ATOM     11  C   UNL     1       3.458   7.717  10.515  1.00  0.00     0.041 C 
ATOM     12  O   UNL     1       2.883   6.607  10.665  1.00  0.00    -0.550 OA
ATOM     13  O   UNL     1       3.745   8.174   9.235  1.00  0.00    -0.550 OA
ENDBRANCH  10  11
ENDBRANCH   9  10
ENDBRANCH   8   9
ENDBRANCH   1   8
TORSDOF 8
ENDMDL
