MODEL 1
REMARK VINA RESULT:    -6.884      0.000      0.000
REMARK INTER + INTRA:         -11.222
REMARK INTER:                  -9.298
REMARK INTRA:                  -1.923
REMARK UNBOUND:                -1.923
REMARK SMILES CC[C@@H](CC[C@H](C)[C@@H]1CC[C@H]2[C@@H]3CC(=O)C4=CC(=O)CC[C@@]4(C)[C@H]3CC[C@@]21C)C(C)C
REMARK SMILES IDX 4 1 3 2 2 3 1 4 29 5 30 6 31 7 5 8 6 9 7 10 8 11 9 12 27 13
REMARK SMILES IDX 10 14 11 15 26 16 28 17 12 18 25 19 24 20 13 21 22 22 14 23
REMARK SMILES IDX 16 24 21 25 23 26 15 27 17 28 20 29 18 30 19 31
REMARK H PARENT
REMARK Flexibility Score: inf
ROOT
ATOM      1  C   UNL     1      -3.817  34.802   4.124  1.00  0.00     0.004 C 
ENDROOT
BRANCH   1   2
ATOM      2  C   UNL     1      -5.164  34.017   4.115  1.00  0.00    -0.009 C 
BRANCH   2   3
ATOM      3  C   UNL     1      -6.395  34.961   4.000  1.00  0.00     0.000 C 
ATOM      4  C   UNL     1      -7.646  34.517   4.760  1.00  0.00     0.004 C 
ENDBRANCH   2   3
BRANCH   2   5
ATOM      5  C   UNL     1      -5.273  32.911   5.221  1.00  0.00    -0.014 C 
ATOM      6  C   UNL     1      -4.271  33.169   6.363  1.00  0.00     0.007 C 
ATOM      7  C   UNL     1      -5.022  31.497   4.664  1.00  0.00     0.007 C 
ENDBRANCH   2   5
ENDBRANCH   1   2
BRANCH   1   8
ATOM      8  C   UNL     1      -3.921  36.319   3.840  1.00  0.00     0.004 C 
BRANCH   8   9
ATOM      9  C   UNL     1      -3.436  36.728   2.415  1.00  0.00    -0.011 C 
ATOM     10  C   UNL     1      -1.905  36.980   2.468  1.00  0.00     0.008 C 
BRANCH   9  11
ATOM     11  C   UNL     1      -4.217  37.953   1.799  1.00  0.00    -0.002 C 
ATOM     12  C   UNL     1      -4.834  38.904   2.876  1.00  0.00     0.005 C 
ATOM     13  C   UNL     1      -5.431  37.637   0.844  1.00  0.00    -0.026 C 
ATOM     14  C   UNL     1      -6.335  39.019   2.601  1.00  0.00     0.005 C 
ATOM     15  C   UNL     1      -6.634  37.781   1.784  1.00  0.00    -0.001 C 
ATOM     16  C   UNL     1      -5.530  36.225   0.212  1.00  0.00     0.007 C 
ATOM     17  C   UNL     1      -5.412  38.711  -0.294  1.00  0.00     0.012 C 
ATOM     18  C   UNL     1      -8.011  37.703   1.078  1.00  0.00     0.004 C 
ATOM     19  C   UNL     1      -6.857  36.038  -0.553  1.00  0.00     0.005 C 
ATOM     20  C   UNL     1      -8.124  36.350   0.309  1.00  0.00     0.003 C 
ATOM     21  C   UNL     1      -9.132  37.778   2.139  1.00  0.00     0.085 C 
ATOM     22  C   UNL     1      -9.496  36.200  -0.486  1.00  0.00    -0.000 C 
ATOM     23  C   UNL     1     -10.480  37.495   1.560  1.00  0.00     0.159 C 
ATOM     24  C   UNL     1     -10.620  37.021   0.169  1.00  0.00     0.005 C 
ATOM     25  C   UNL     1      -9.369  36.656  -1.975  1.00  0.00     0.020 C 
ATOM     26  C   UNL     1      -9.915  34.708  -0.439  1.00  0.00     0.017 C 
ATOM     27  O   UNL     1     -11.503  37.689   2.273  1.00  0.00    -0.295 OA
ATOM     28  C   UNL     1     -11.727  37.354  -0.519  1.00  0.00     0.055 C 
ATOM     29  C   UNL     1     -10.692  36.576  -2.757  1.00  0.00     0.081 C 
ATOM     30  C   UNL     1     -11.845  37.111  -1.964  1.00  0.00     0.156 C 
ATOM     31  O   UNL     1     -12.936  37.353  -2.545  1.00  0.00    -0.295 OA
ENDBRANCH   9  11
ENDBRANCH   8   9
ENDBRANCH   1   8
TORSDOF 6
ENDMDL
MODEL 2
REMARK VINA RESULT:    -6.820      3.154      4.752
REMARK INTER + INTRA:         -11.136
REMARK INTER:                  -8.083
REMARK INTRA:                  -3.053
REMARK UNBOUND:                -1.923
REMARK SMILES CC[C@@H](CC[C@H](C)[C@@H]1CC[C@H]2[C@@H]3CC(=O)C4=CC(=O)CC[C@@]4(C)[C@H]3CC[C@@]21C)C(C)C
REMARK SMILES IDX 4 1 3 2 2 3 1 4 29 5 30 6 31 7 5 8 6 9 7 10 8 11 9 12 27 13
REMARK SMILES IDX 10 14 11 15 26 16 28 17 12 18 25 19 24 20 13 21 22 22 14 23
REMARK SMILES IDX 16 24 21 25 23 26 15 27 17 28 20 29 18 30 19 31
REMARK H PARENT
REMARK Flexibility Score: inf
ROOT
ATOM      1  C   UNL     1      -7.219  35.473  -0.174  1.00  0.00     0.004 C 
ENDROOT
BRANCH   1   2
ATOM      2  C   UNL     1      -8.735  35.779   0.018  1.00  0.00    -0.009 C 
BRANCH   2   3
ATOM      3  C   UNL     1      -9.154  35.764   1.517  1.00  0.00     0.000 C 
ATOM      4  C   UNL     1      -9.587  37.110   2.099  1.00  0.00     0.004 C 
ENDBRANCH   2   3
BRANCH   2   5
ATOM      5  C   UNL     1      -9.681  34.984  -0.946  1.00  0.00    -0.014 C 
ATOM      6  C   UNL     1     -11.105  35.573  -0.934  1.00  0.00     0.007 C 
ATOM      7  C   UNL     1      -9.771  33.491  -0.581  1.00  0.00     0.007 C 
ENDBRANCH   2   5
ENDBRANCH   1   2
BRANCH   1   8
ATOM      8  C   UNL     1      -6.241  36.477   0.482  1.00  0.00     0.004 C 
BRANCH   8   9
ATOM      9  C   UNL     1      -5.378  37.277  -0.543  1.00  0.00    -0.011 C 
ATOM     10  C   UNL     1      -3.921  37.344  -0.013  1.00  0.00     0.008 C 
BRANCH   9  11
ATOM     11  C   UNL     1      -5.951  38.708  -0.884  1.00  0.00    -0.002 C 
ATOM     12  C   UNL     1      -6.600  39.428   0.342  1.00  0.00     0.005 C 
ATOM     13  C   UNL     1      -7.061  38.800  -1.999  1.00  0.00    -0.026 C 
ATOM     14  C   UNL     1      -8.036  39.801  -0.034  1.00  0.00     0.005 C 
ATOM     15  C   UNL     1      -8.352  38.857  -1.173  1.00  0.00    -0.001 C 
ATOM     16  C   UNL     1      -7.220  37.617  -2.988  1.00  0.00     0.007 C 
ATOM     17  C   UNL     1      -6.793  40.113  -2.806  1.00  0.00     0.012 C 
ATOM     18  C   UNL     1      -9.631  39.135  -2.002  1.00  0.00     0.004 C 
ATOM     19  C   UNL     1      -8.453  37.799  -3.898  1.00  0.00     0.005 C 
ATOM     20  C   UNL     1      -9.781  38.045  -3.109  1.00  0.00     0.003 C 
ATOM     21  C   UNL     1     -10.862  39.085  -1.071  1.00  0.00     0.085 C 
ATOM     22  C   UNL     1     -11.051  38.278  -4.041  1.00  0.00    -0.000 C 
ATOM     23  C   UNL     1     -12.149  39.132  -1.829  1.00  0.00     0.159 C 
ATOM     24  C   UNL     1     -12.160  39.045  -3.303  1.00  0.00     0.005 C 
ATOM     25  C   UNL     1     -10.694  39.072  -5.338  1.00  0.00     0.020 C 
ATOM     26  C   UNL     1     -11.619  36.888  -4.430  1.00  0.00     0.017 C 
ATOM     27  O   UNL     1     -13.228  39.271  -1.191  1.00  0.00    -0.295 OA
ATOM     28  C   UNL     1     -13.134  39.680  -3.980  1.00  0.00     0.055 C 
ATOM     29  C   UNL     1     -11.910  39.362  -6.235  1.00  0.00     0.081 C 
ATOM     30  C   UNL     1     -13.094  39.824  -5.443  1.00  0.00     0.156 C 
ATOM     31  O   UNL     1     -14.075  40.343  -6.039  1.00  0.00    -0.295 OA
ENDBRANCH   9  11
ENDBRANCH   8   9
ENDBRANCH   1   8
TORSDOF 6
ENDMDL
MODEL 3
REMARK VINA RESULT:    -6.688      2.243      3.572
REMARK INTER + INTRA:         -10.957
REMARK INTER:                  -9.388
REMARK INTRA:                  -1.568
REMARK UNBOUND:                -1.923
REMARK SMILES CC[C@@H](CC[C@H](C)[C@@H]1CC[C@H]2[C@@H]3CC(=O)C4=CC(=O)CC[C@@]4(C)[C@H]3CC[C@@]21C)C(C)C
REMARK SMILES IDX 4 1 3 2 2 3 1 4 29 5 30 6 31 7 5 8 6 9 7 10 8 11 9 12 27 13
REMARK SMILES IDX 10 14 11 15 26 16 28 17 12 18 25 19 24 20 13 21 22 22 14 23
REMARK SMILES IDX 16 24 21 25 23 26 15 27 17 28 20 29 18 30 19 31
REMARK H PARENT
REMARK Flexibility Score: inf
ROOT
ATOM      1  C   UNL     1      -1.892  34.857   5.723  1.00  0.00     0.004 C 
ENDROOT
BRANCH   1   2
ATOM      2  C   UNL     1      -2.796  34.493   6.939  1.00  0.00    -0.009 C 
BRANCH   2   3
ATOM      3  C   UNL     1      -3.912  33.476   6.560  1.00  0.00     0.000 C 
ATOM      4  C   UNL     1      -5.263  33.689   7.244  1.00  0.00     0.004 C 
ENDBRANCH   2   3
BRANCH   2   5
ATOM      5  C   UNL     1      -3.276  35.727   7.778  1.00  0.00    -0.014 C 
ATOM      6  C   UNL     1      -2.934  37.049   7.064  1.00  0.00     0.007 C 
ATOM      7  C   UNL     1      -2.649  35.760   9.185  1.00  0.00     0.007 C 
ENDBRANCH   2   5
ENDBRANCH   1   2
BRANCH   1   8
ATOM      8  C   UNL     1      -2.391  34.368   4.342  1.00  0.00     0.004 C 
BRANCH   8   9
ATOM      9  C   UNL     1      -2.519  35.504   3.280  1.00  0.00    -0.011 C 
ATOM     10  C   UNL     1      -1.209  36.337   3.289  1.00  0.00     0.008 C 
BRANCH   9  11
ATOM     11  C   UNL     1      -3.798  36.411   3.461  1.00  0.00    -0.002 C 
ATOM     12  C   UNL     1      -5.023  35.647   4.062  1.00  0.00     0.005 C 
ATOM     13  C   UNL     1      -4.387  37.103   2.174  1.00  0.00    -0.026 C 
ATOM     14  C   UNL     1      -6.202  35.813   3.100  1.00  0.00     0.005 C 
ATOM     15  C   UNL     1      -5.532  36.159   1.788  1.00  0.00    -0.001 C 
ATOM     16  C   UNL     1      -3.482  37.237   0.923  1.00  0.00     0.007 C 
ATOM     17  C   UNL     1      -4.885  38.523   2.604  1.00  0.00     0.012 C 
ATOM     18  C   UNL     1      -6.431  36.679   0.638  1.00  0.00     0.004 C 
ATOM     19  C   UNL     1      -4.266  37.782  -0.289  1.00  0.00     0.005 C 
ATOM     20  C   UNL     1      -5.554  36.960  -0.622  1.00  0.00     0.003 C 
ATOM     21  C   UNL     1      -7.487  35.606   0.293  1.00  0.00     0.085 C 
ATOM     22  C   UNL     1      -6.393  37.541  -1.844  1.00  0.00    -0.000 C 
ATOM     23  C   UNL     1      -8.254  35.943  -0.945  1.00  0.00     0.159 C 
ATOM     24  C   UNL     1      -7.861  37.090  -1.787  1.00  0.00     0.005 C 
ATOM     25  C   UNL     1      -6.367  39.103  -1.888  1.00  0.00     0.020 C 
ATOM     26  C   UNL     1      -5.779  36.981  -3.153  1.00  0.00     0.017 C 
ATOM     27  O   UNL     1      -9.260  35.244  -1.248  1.00  0.00    -0.295 OA
ATOM     28  C   UNL     1      -8.817  37.749  -2.467  1.00  0.00     0.055 C 
ATOM     29  C   UNL     1      -7.214  39.699  -3.026  1.00  0.00     0.081 C 
ATOM     30  C   UNL     1      -8.545  39.024  -3.149  1.00  0.00     0.156 C 
ATOM     31  O   UNL     1      -9.447  39.553  -3.851  1.00  0.00    -0.295 OA
ENDBRANCH   9  11
ENDBRANCH   8   9
ENDBRANCH   1   8
TORSDOF 6
ENDMDL
MODEL 4
REMARK VINA RESULT:    -6.588      3.081      5.562
REMARK INTER + INTRA:         -10.822
REMARK INTER:                  -7.753
REMARK INTRA:                  -3.069
REMARK UNBOUND:                -1.923
REMARK SMILES CC[C@@H](CC[C@H](C)[C@@H]1CC[C@H]2[C@@H]3CC(=O)C4=CC(=O)CC[C@@]4(C)[C@H]3CC[C@@]21C)C(C)C
REMARK SMILES IDX 4 1 3 2 2 3 1 4 29 5 30 6 31 7 5 8 6 9 7 10 8 11 9 12 27 13
REMARK SMILES IDX 10 14 11 15 26 16 28 17 12 18 25 19 24 20 13 21 22 22 14 23
REMARK SMILES IDX 16 24 21 25 23 26 15 27 17 28 20 29 18 30 19 31
REMARK H PARENT
REMARK Flexibility Score: inf
ROOT
ATOM      1  C   UNL     1      -7.658  35.889   1.440  1.00  0.00     0.004 C 
ENDROOT
BRANCH   1   2
ATOM      2  C   UNL     1      -7.767  36.182  -0.087  1.00  0.00    -0.009 C 
BRANCH   2   3
ATOM      3  C   UNL     1      -8.866  35.322  -0.775  1.00  0.00     0.000 C 
ATOM      4  C   UNL     1      -9.900  34.694   0.161  1.00  0.00     0.004 C 
ENDBRANCH   2   3
BRANCH   2   5
ATOM      5  C   UNL     1      -6.390  36.227  -0.836  1.00  0.00    -0.014 C 
ATOM      6  C   UNL     1      -5.273  36.744   0.092  1.00  0.00     0.007 C 
ATOM      7  C   UNL     1      -6.432  37.120  -2.089  1.00  0.00     0.007 C 
ENDBRANCH   2   5
ENDBRANCH   1   2
BRANCH   1   8
ATOM      8  C   UNL     1      -8.100  37.035   2.379  1.00  0.00     0.004 C 
BRANCH   8   9
ATOM      9  C   UNL     1      -8.101  38.440   1.701  1.00  0.00    -0.011 C 
ATOM     10  C   UNL     1      -7.177  39.383   2.518  1.00  0.00     0.008 C 
BRANCH   9  11
ATOM     11  C   UNL     1      -9.541  39.053   1.497  1.00  0.00    -0.002 C 
ATOM     12  C   UNL     1     -10.691  38.125   2.007  1.00  0.00     0.005 C 
ATOM     13  C   UNL     1      -9.978  39.410   0.025  1.00  0.00    -0.026 C 
ATOM     14  C   UNL     1     -11.658  37.887   0.845  1.00  0.00     0.005 C 
ATOM     15  C   UNL     1     -10.815  38.189  -0.375  1.00  0.00    -0.001 C 
ATOM     16  C   UNL     1      -8.880  39.568  -1.057  1.00  0.00     0.007 C 
ATOM     17  C   UNL     1     -10.818  40.728   0.103  1.00  0.00     0.012 C 
ATOM     18  C   UNL     1     -11.544  38.329  -1.734  1.00  0.00     0.004 C 
ATOM     19  C   UNL     1      -9.491  39.750  -2.463  1.00  0.00     0.005 C 
ATOM     20  C   UNL     1     -10.499  38.622  -2.856  1.00  0.00     0.003 C 
ATOM     21  C   UNL     1     -12.279  37.009  -2.057  1.00  0.00     0.085 C 
ATOM     22  C   UNL     1     -11.167  38.825  -4.288  1.00  0.00    -0.000 C 
ATOM     23  C   UNL     1     -12.827  36.990  -3.447  1.00  0.00     0.159 C 
ATOM     24  C   UNL     1     -12.501  38.068  -4.401  1.00  0.00     0.005 C 
ATOM     25  C   UNL     1     -11.437  40.330  -4.605  1.00  0.00     0.020 C 
ATOM     26  C   UNL     1     -10.203  38.240  -5.352  1.00  0.00     0.017 C 
ATOM     27  O   UNL     1     -13.595  36.049  -3.786  1.00  0.00    -0.295 OA
ATOM     28  C   UNL     1     -13.407  38.395  -5.341  1.00  0.00     0.055 C 
ATOM     29  C   UNL     1     -12.133  40.557  -5.959  1.00  0.00     0.081 C 
ATOM     30  C   UNL     1     -13.254  39.590  -6.183  1.00  0.00     0.156 C 
ATOM     31  O   UNL     1     -14.079  39.802  -7.111  1.00  0.00    -0.295 OA
ENDBRANCH   9  11
ENDBRANCH   8   9
ENDBRANCH   1   8
TORSDOF 6
ENDMDL
MODEL 5
REMARK VINA RESULT:    -6.542      2.729      4.115
REMARK INTER + INTRA:         -10.760
REMARK INTER:                  -7.985
REMARK INTRA:                  -2.774
REMARK UNBOUND:                -1.923
REMARK SMILES CC[C@@H](CC[C@H](C)[C@@H]1CC[C@H]2[C@@H]3CC(=O)C4=CC(=O)CC[C@@]4(C)[C@H]3CC[C@@]21C)C(C)C
REMARK SMILES IDX 4 1 3 2 2 3 1 4 29 5 30 6 31 7 5 8 6 9 7 10 8 11 9 12 27 13
REMARK SMILES IDX 10 14 11 15 26 16 28 17 12 18 25 19 24 20 13 21 22 22 14 23
REMARK SMILES IDX 16 24 21 25 23 26 15 27 17 28 20 29 18 30 19 31
REMARK H PARENT
REMARK Flexibility Score: inf
ROOT
ATOM      1  C   UNL     1      -6.595  37.009   2.449  1.00  0.00     0.004 C 
ENDROOT
BRANCH   1   2
ATOM      2  C   UNL     1      -7.976  37.403   1.844  1.00  0.00    -0.009 C 
BRANCH   2   3
ATOM      3  C   UNL     1      -8.211  38.942   1.863  1.00  0.00     0.000 C 
ATOM      4  C   UNL     1      -9.549  39.416   1.294  1.00  0.00     0.004 C 
ENDBRANCH   2   3
BRANCH   2   5
ATOM      5  C   UNL     1      -9.178  36.540   2.364  1.00  0.00    -0.014 C 
ATOM      6  C   UNL     1      -8.739  35.620   3.520  1.00  0.00     0.007 C 
ATOM      7  C   UNL     1      -9.795  35.666   1.256  1.00  0.00     0.007 C 
ENDBRANCH   2   5
ENDBRANCH   1   2
BRANCH   1   8
ATOM      8  C   UNL     1      -5.367  37.738   1.853  1.00  0.00     0.004 C 
BRANCH   8   9
ATOM      9  C   UNL     1      -4.519  36.856   0.885  1.00  0.00    -0.011 C 
ATOM     10  C   UNL     1      -3.099  36.688   1.488  1.00  0.00     0.008 C 
BRANCH   9  11
ATOM     11  C   UNL     1      -4.473  37.395  -0.598  1.00  0.00    -0.002 C 
ATOM     12  C   UNL     1      -4.122  38.915  -0.699  1.00  0.00     0.005 C 
ATOM     13  C   UNL     1      -5.784  37.259  -1.462  1.00  0.00    -0.026 C 
ATOM     14  C   UNL     1      -5.238  39.608  -1.482  1.00  0.00     0.005 C 
ATOM     15  C   UNL     1      -6.405  38.656  -1.338  1.00  0.00    -0.001 C 
ATOM     16  C   UNL     1      -6.870  36.250  -1.010  1.00  0.00     0.007 C 
ATOM     17  C   UNL     1      -5.338  36.916  -2.922  1.00  0.00     0.012 C 
ATOM     18  C   UNL     1      -7.640  38.891  -2.244  1.00  0.00     0.004 C 
ATOM     19  C   UNL     1      -8.147  36.368  -1.869  1.00  0.00     0.005 C 
ATOM     20  C   UNL     1      -8.728  37.818  -1.928  1.00  0.00     0.003 C 
ATOM     21  C   UNL     1      -8.216  40.296  -1.964  1.00  0.00     0.085 C 
ATOM     22  C   UNL     1     -10.022  37.957  -2.847  1.00  0.00    -0.000 C 
ATOM     23  C   UNL     1      -9.530  40.516  -2.642  1.00  0.00     0.159 C 
ATOM     24  C   UNL     1     -10.221  39.404  -3.326  1.00  0.00     0.005 C 
ATOM     25  C   UNL     1      -9.952  37.036  -4.107  1.00  0.00     0.020 C 
ATOM     26  C   UNL     1     -11.257  37.570  -1.994  1.00  0.00     0.017 C 
ATOM     27  O   UNL     1     -10.031  41.673  -2.641  1.00  0.00    -0.295 OA
ATOM     28  C   UNL     1     -10.991  39.683  -4.394  1.00  0.00     0.055 C 
ATOM     29  C   UNL     1     -11.163  37.187  -5.045  1.00  0.00     0.081 C 
ATOM     30  C   UNL     1     -11.534  38.623  -5.256  1.00  0.00     0.156 C 
ATOM     31  O   UNL     1     -12.326  38.927  -6.186  1.00  0.00    -0.295 OA
ENDBRANCH   9  11
ENDBRANCH   8   9
ENDBRANCH   1   8
TORSDOF 6
ENDMDL
MODEL 6
REMARK VINA RESULT:    -6.539      2.942      7.503
REMARK INTER + INTRA:         -10.756
REMARK INTER:                  -7.330
REMARK INTRA:                  -3.426
REMARK UNBOUND:                -1.923
REMARK SMILES CC[C@@H](CC[C@H](C)[C@@H]1CC[C@H]2[C@@H]3CC(=O)C4=CC(=O)CC[C@@]4(C)[C@H]3CC[C@@]21C)C(C)C
REMARK SMILES IDX 4 1 3 2 2 3 1 4 29 5 30 6 31 7 5 8 6 9 7 10 8 11 9 12 27 13
REMARK SMILES IDX 10 14 11 15 26 16 28 17 12 18 25 19 24 20 13 21 22 22 14 23
REMARK SMILES IDX 16 24 21 25 23 26 15 27 17 28 20 29 18 30 19 31
REMARK H PARENT
REMARK Flexibility Score: inf
ROOT
ATOM      1  C   UNL     1      -7.208  38.287  -3.274  1.00  0.00     0.004 C 
ENDROOT
BRANCH   1   2
ATOM      2  C   UNL     1      -6.266  39.131  -2.362  1.00  0.00    -0.009 C 
BRANCH   2   3
ATOM      3  C   UNL     1      -6.530  40.659  -2.495  1.00  0.00     0.000 C 
ATOM      4  C   UNL     1      -7.112  41.342  -1.257  1.00  0.00     0.004 C 
ENDBRANCH   2   3
BRANCH   2   5
ATOM      5  C   UNL     1      -4.758  38.707  -2.425  1.00  0.00    -0.014 C 
ATOM      6  C   UNL     1      -4.617  37.175  -2.513  1.00  0.00     0.007 C 
ATOM      7  C   UNL     1      -3.959  39.199  -1.204  1.00  0.00     0.007 C 
ENDBRANCH   2   5
ENDBRANCH   1   2
BRANCH   1   8
ATOM      8  C   UNL     1      -8.720  38.406  -2.971  1.00  0.00     0.004 C 
BRANCH   8   9
ATOM      9  C   UNL     1      -9.347  37.107  -2.377  1.00  0.00    -0.011 C 
ATOM     10  C   UNL     1     -10.644  36.780  -3.166  1.00  0.00     0.008 C 
BRANCH   9  11
ATOM     11  C   UNL     1      -9.602  37.172  -0.820  1.00  0.00    -0.002 C 
ATOM     12  C   UNL     1      -9.968  38.603  -0.308  1.00  0.00     0.005 C 
ATOM     13  C   UNL     1      -8.424  36.729   0.128  1.00  0.00    -0.026 C 
ATOM     14  C   UNL     1      -8.974  38.981   0.792  1.00  0.00     0.005 C 
ATOM     15  C   UNL     1      -7.795  38.072   0.521  1.00  0.00    -0.001 C 
ATOM     16  C   UNL     1      -7.282  35.862  -0.461  1.00  0.00     0.007 C 
ATOM     17  C   UNL     1      -9.068  35.979   1.341  1.00  0.00     0.012 C 
ATOM     18  C   UNL     1      -6.700  37.972   1.612  1.00  0.00     0.004 C 
ATOM     19  C   UNL     1      -6.138  35.663   0.555  1.00  0.00     0.005 C 
ATOM     20  C   UNL     1      -5.575  37.002   1.132  1.00  0.00     0.003 C 
ATOM     21  C   UNL     1      -6.094  39.372   1.855  1.00  0.00     0.085 C 
ATOM     22  C   UNL     1      -4.423  36.805   2.214  1.00  0.00    -0.000 C 
ATOM     23  C   UNL     1      -4.888  39.323   2.736  1.00  0.00     0.159 C 
ATOM     24  C   UNL     1      -4.297  38.030   3.134  1.00  0.00     0.005 C 
ATOM     25  C   UNL     1      -4.665  35.549   3.111  1.00  0.00     0.020 C 
ATOM     26  C   UNL     1      -3.079  36.645   1.457  1.00  0.00     0.017 C 
ATOM     27  O   UNL     1      -4.395  40.405   3.156  1.00  0.00    -0.295 OA
ATOM     28  C   UNL     1      -3.683  37.941   4.329  1.00  0.00     0.055 C 
ATOM     29  C   UNL     1      -3.598  35.360   4.204  1.00  0.00     0.081 C 
ATOM     30  C   UNL     1      -3.264  36.648   4.891  1.00  0.00     0.156 C 
ATOM     31  O   UNL     1      -2.610  36.626   5.967  1.00  0.00    -0.295 OA
ENDBRANCH   9  11
ENDBRANCH   8   9
ENDBRANCH   1   8
TORSDOF 6
ENDMDL
MODEL 7
REMARK VINA RESULT:    -6.522      3.268      6.346
REMARK INTER + INTRA:         -10.734
REMARK INTER:                  -7.317
REMARK INTRA:                  -3.416
REMARK UNBOUND:                -1.923
REMARK SMILES CC[C@@H](CC[C@H](C)[C@@H]1CC[C@H]2[C@@H]3CC(=O)C4=CC(=O)CC[C@@]4(C)[C@H]3CC[C@@]21C)C(C)C
REMARK SMILES IDX 4 1 3 2 2 3 1 4 29 5 30 6 31 7 5 8 6 9 7 10 8 11 9 12 27 13
REMARK SMILES IDX 10 14 11 15 26 16 28 17 12 18 25 19 24 20 13 21 22 22 14 23
REMARK SMILES IDX 16 24 21 25 23 26 15 27 17 28 20 29 18 30 19 31
REMARK H PARENT
REMARK Flexibility Score: inf
ROOT
ATOM      1  C   UNL     1      -7.028  37.097  -2.433  1.00  0.00     0.004 C 
ENDROOT
BRANCH   1   2
ATOM      2  C   UNL     1      -6.647  37.739  -1.066  1.00  0.00    -0.009 C 
BRANCH   2   3
ATOM      3  C   UNL     1      -5.761  39.007  -1.237  1.00  0.00     0.000 C 
ATOM      4  C   UNL     1      -6.379  40.319  -0.752  1.00  0.00     0.004 C 
ENDBRANCH   2   3
BRANCH   2   5
ATOM      5  C   UNL     1      -6.144  36.716   0.010  1.00  0.00    -0.014 C 
ATOM      6  C   UNL     1      -6.897  35.376  -0.106  1.00  0.00     0.007 C 
ATOM      7  C   UNL     1      -6.312  37.244   1.447  1.00  0.00     0.007 C 
ENDBRANCH   2   5
ENDBRANCH   1   2
BRANCH   1   8
ATOM      8  C   UNL     1      -7.812  38.006  -3.409  1.00  0.00     0.004 C 
BRANCH   8   9
ATOM      9  C   UNL     1      -9.284  37.549  -3.652  1.00  0.00    -0.011 C 
ATOM     10  C   UNL     1      -9.560  37.569  -5.179  1.00  0.00     0.008 C 
BRANCH   9  11
ATOM     11  C   UNL     1     -10.355  38.381  -2.845  1.00  0.00    -0.002 C 
ATOM     12  C   UNL     1      -9.952  39.877  -2.633  1.00  0.00     0.005 C 
ATOM     13  C   UNL     1     -10.719  37.885  -1.394  1.00  0.00    -0.026 C 
ATOM     14  C   UNL     1      -9.981  40.166  -1.130  1.00  0.00     0.005 C 
ATOM     15  C   UNL     1      -9.853  38.792  -0.510  1.00  0.00    -0.001 C 
ATOM     16  C   UNL     1     -10.377  36.426  -1.001  1.00  0.00     0.007 C 
ATOM     17  C   UNL     1     -12.253  38.126  -1.198  1.00  0.00     0.012 C 
ATOM     18  C   UNL     1     -10.130  38.661   1.008  1.00  0.00     0.004 C 
ATOM     19  C   UNL     1     -10.646  36.163   0.496  1.00  0.00     0.005 C 
ATOM     20  C   UNL     1      -9.929  37.176   1.447  1.00  0.00     0.003 C 
ATOM     21  C   UNL     1      -9.142  39.558   1.785  1.00  0.00     0.085 C 
ATOM     22  C   UNL     1     -10.236  36.939   2.991  1.00  0.00    -0.000 C 
ATOM     23  C   UNL     1      -9.204  39.325   3.260  1.00  0.00     0.159 C 
ATOM     24  C   UNL     1     -10.005  38.216   3.816  1.00  0.00     0.005 C 
ATOM     25  C   UNL     1     -11.705  36.465   3.235  1.00  0.00     0.020 C 
ATOM     26  C   UNL     1      -9.254  35.859   3.513  1.00  0.00     0.017 C 
ATOM     27  O   UNL     1      -8.577  40.105   4.028  1.00  0.00    -0.295 OA
ATOM     28  C   UNL     1     -10.556  38.365   5.035  1.00  0.00     0.055 C 
ATOM     29  C   UNL     1     -12.051  36.280   4.723  1.00  0.00     0.081 C 
ATOM     30  C   UNL     1     -11.539  37.408   5.564  1.00  0.00     0.156 C 
ATOM     31  O   UNL     1     -11.954  37.538   6.745  1.00  0.00    -0.295 OA
ENDBRANCH   9  11
ENDBRANCH   8   9
ENDBRANCH   1   8
TORSDOF 6
ENDMDL
MODEL 8
REMARK VINA RESULT:    -6.503      3.349      6.329
REMARK INTER + INTRA:         -10.707
REMARK INTER:                  -7.791
REMARK INTRA:                  -2.916
REMARK UNBOUND:                -1.923
REMARK SMILES CC[C@@H](CC[C@H](C)[C@@H]1CC[C@H]2[C@@H]3CC(=O)C4=CC(=O)CC[C@@]4(C)[C@H]3CC[C@@]21C)C(C)C
REMARK SMILES IDX 4 1 3 2 2 3 1 4 29 5 30 6 31 7 5 8 6 9 7 10 8 11 9 12 27 13
REMARK SMILES IDX 10 14 11 15 26 16 28 17 12 18 25 19 24 20 13 21 22 22 14 23
REMARK SMILES IDX 16 24 21 25 23 26 15 27 17 28 20 29 18 30 19 31
REMARK H PARENT
REMARK Flexibility Score: inf
ROOT
ATOM      1  C   UNL     1      -6.528  36.367  -1.268  1.00  0.00     0.004 C 
ENDROOT
BRANCH   1   2
ATOM      2  C   UNL     1      -7.232  37.562  -1.980  1.00  0.00    -0.009 C 
BRANCH   2   3
ATOM      3  C   UNL     1      -8.378  37.093  -2.923  1.00  0.00     0.000 C 
ATOM      4  C   UNL     1      -8.500  37.851  -4.245  1.00  0.00     0.004 C 
ENDBRANCH   2   3
BRANCH   2   5
ATOM      5  C   UNL     1      -6.249  38.614  -2.598  1.00  0.00    -0.014 C 
ATOM      6  C   UNL     1      -4.781  38.210  -2.355  1.00  0.00     0.007 C 
ATOM      7  C   UNL     1      -6.464  40.027  -2.024  1.00  0.00     0.007 C 
ENDBRANCH   2   5
ENDBRANCH   1   2
BRANCH   1   8
ATOM      8  C   UNL     1      -6.728  36.284   0.264  1.00  0.00     0.004 C 
BRANCH   8   9
ATOM      9  C   UNL     1      -7.476  37.512   0.869  1.00  0.00    -0.011 C 
ATOM     10  C   UNL     1      -6.633  38.072   2.047  1.00  0.00     0.008 C 
BRANCH   9  11
ATOM     11  C   UNL     1      -8.964  37.209   1.298  1.00  0.00    -0.002 C 
ATOM     12  C   UNL     1      -9.370  35.710   1.121  1.00  0.00     0.005 C 
ATOM     13  C   UNL     1     -10.110  37.994   0.552  1.00  0.00    -0.026 C 
ATOM     14  C   UNL     1     -10.613  35.658   0.230  1.00  0.00     0.005 C 
ATOM     15  C   UNL     1     -10.569  36.980  -0.504  1.00  0.00    -0.001 C 
ATOM     16  C   UNL     1      -9.745  39.293  -0.211  1.00  0.00     0.007 C 
ATOM     17  C   UNL     1     -11.214  38.313   1.614  1.00  0.00     0.012 C 
ATOM     18  C   UNL     1     -11.832  37.406  -1.293  1.00  0.00     0.004 C 
ATOM     19  C   UNL     1     -10.945  39.835  -1.015  1.00  0.00     0.005 C 
ATOM     20  C   UNL     1     -11.575  38.781  -1.984  1.00  0.00     0.003 C 
ATOM     21  C   UNL     1     -12.138  36.345  -2.373  1.00  0.00     0.085 C 
ATOM     22  C   UNL     1     -12.841  39.319  -2.786  1.00  0.00    -0.000 C 
ATOM     23  C   UNL     1     -13.213  36.787  -3.314  1.00  0.00     0.159 C 
ATOM     24  C   UNL     1     -13.738  38.165  -3.265  1.00  0.00     0.005 C 
ATOM     25  C   UNL     1     -13.716  40.288  -1.928  1.00  0.00     0.020 C 
ATOM     26  C   UNL     1     -12.328  40.067  -4.043  1.00  0.00     0.017 C 
ATOM     27  O   UNL     1     -13.682  35.955  -4.138  1.00  0.00    -0.295 OA
ATOM     28  C   UNL     1     -15.021  38.380  -3.609  1.00  0.00     0.055 C 
ATOM     29  C   UNL     1     -14.978  40.783  -2.656  1.00  0.00     0.081 C 
ATOM     30  C   UNL     1     -15.679  39.676  -3.381  1.00  0.00     0.156 C 
ATOM     31  O   UNL     1     -16.850  39.857  -3.806  1.00  0.00    -0.295 OA
ENDBRANCH   9  11
ENDBRANCH   8   9
ENDBRANCH   1   8
TORSDOF 6
ENDMDL
MODEL 9
REMARK VINA RESULT:    -6.431      2.701      7.194
REMARK INTER + INTRA:         -10.610
REMARK INTER:                  -7.494
REMARK INTRA:                  -3.116
REMARK UNBOUND:                -1.923
REMARK SMILES CC[C@@H](CC[C@H](C)[C@@H]1CC[C@H]2[C@@H]3CC(=O)C4=CC(=O)CC[C@@]4(C)[C@H]3CC[C@@]21C)C(C)C
REMARK SMILES IDX 4 1 3 2 2 3 1 4 29 5 30 6 31 7 5 8 6 9 7 10 8 11 9 12 27 13
REMARK SMILES IDX 10 14 11 15 26 16 28 17 12 18 25 19 24 20 13 21 22 22 14 23
REMARK SMILES IDX 16 24 21 25 23 26 15 27 17 28 20 29 18 30 19 31
REMARK H PARENT
REMARK Flexibility Score: inf
ROOT
ATOM      1  C   UNL     1      -9.643  39.815   0.235  1.00  0.00     0.004 C 
ENDROOT
BRANCH   1   2
ATOM      2  C   UNL     1     -10.091  39.259   1.621  1.00  0.00    -0.009 C 
BRANCH   2   3
ATOM      3  C   UNL     1      -8.881  38.961   2.555  1.00  0.00     0.000 C 
ATOM      4  C   UNL     1      -7.736  39.973   2.501  1.00  0.00     0.004 C 
ENDBRANCH   2   3
BRANCH   2   5
ATOM      5  C   UNL     1     -11.168  38.123   1.544  1.00  0.00    -0.014 C 
ATOM      6  C   UNL     1     -12.454  38.529   2.291  1.00  0.00     0.007 C 
ATOM      7  C   UNL     1     -10.663  36.794   2.133  1.00  0.00     0.007 C 
ENDBRANCH   2   5
ENDBRANCH   1   2
BRANCH   1   8
ATOM      8  C   UNL     1     -10.150  39.032  -0.999  1.00  0.00     0.004 C 
BRANCH   8   9
ATOM      9  C   UNL     1      -9.085  38.879  -2.129  1.00  0.00    -0.011 C 
ATOM     10  C   UNL     1      -9.769  39.164  -3.493  1.00  0.00     0.008 C 
BRANCH   9  11
ATOM     11  C   UNL     1      -8.336  37.490  -2.120  1.00  0.00    -0.002 C 
ATOM     12  C   UNL     1      -9.217  36.310  -1.594  1.00  0.00     0.005 C 
ATOM     13  C   UNL     1      -7.018  37.379  -1.262  1.00  0.00    -0.026 C 
ATOM     14  C   UNL     1      -8.477  35.649  -0.430  1.00  0.00     0.005 C 
ATOM     15  C   UNL     1      -7.522  36.728   0.032  1.00  0.00    -0.001 C 
ATOM     16  C   UNL     1      -6.291  38.683  -0.847  1.00  0.00     0.007 C 
ATOM     17  C   UNL     1      -6.027  36.468  -2.059  1.00  0.00     0.012 C 
ATOM     18  C   UNL     1      -6.403  36.321   1.022  1.00  0.00     0.004 C 
ATOM     19  C   UNL     1      -5.124  38.399   0.122  1.00  0.00     0.005 C 
ATOM     20  C   UNL     1      -5.545  37.574   1.381  1.00  0.00     0.003 C 
ATOM     21  C   UNL     1      -7.043  35.757   2.310  1.00  0.00     0.085 C 
ATOM     22  C   UNL     1      -4.338  37.239   2.365  1.00  0.00    -0.000 C 
ATOM     23  C   UNL     1      -6.038  35.541   3.395  1.00  0.00     0.159 C 
ATOM     24  C   UNL     1      -4.647  36.012   3.240  1.00  0.00     0.005 C 
ATOM     25  C   UNL     1      -3.008  36.961   1.595  1.00  0.00     0.020 C 
ATOM     26  C   UNL     1      -4.141  38.452   3.310  1.00  0.00     0.017 C 
ATOM     27  O   UNL     1      -6.390  34.927   4.439  1.00  0.00    -0.295 OA
ATOM     28  C   UNL     1      -3.661  35.326   3.847  1.00  0.00     0.055 C 
ATOM     29  C   UNL     1      -1.834  36.579   2.514  1.00  0.00     0.081 C 
ATOM     30  C   UNL     1      -2.243  35.596   3.568  1.00  0.00     0.156 C 
ATOM     31  O   UNL     1      -1.358  34.994   4.230  1.00  0.00    -0.295 OA
ENDBRANCH   9  11
ENDBRANCH   8   9
ENDBRANCH   1   8
TORSDOF 6
ENDMDL
