MODEL 1
REMARK VINA RESULT:    -7.185      0.000      0.000
REMARK INTER + INTRA:          -8.644
REMARK INTER:                  -8.445
REMARK INTRA:                  -0.199
REMARK UNBOUND:                -0.199
REMARK SMILES O=c1c(O)c(-c2ccc(O)c(O)c2)oc2cc(O)ccc12
REMARK SMILES IDX 5 1 3 2 2 3 1 4 21 5 15 6 14 7 16 8 17 9 19 10 20 11 6 12
REMARK SMILES IDX 7 13 8 14 9 15 13 16 11 17 10 18 12 20 4 22 18 24
REMARK H PARENT 10 19 12 21 4 23 18 25
REMARK Flexibility Score: inf
ROOT
ATOM      1  C   UNL     1      11.556 -17.744 -31.771  1.00  0.00     0.180 A 
ATOM      2  C   UNL     1      10.470 -18.613 -32.011  1.00  0.00     0.208 A 
ATOM      3  C   UNL     1       9.862 -18.603 -33.275  1.00  0.00     0.235 A 
ATOM      4  O   UNL     1       8.883 -19.364 -33.510  1.00  0.00    -0.285 OA
ATOM      5  C   UNL     1      10.357 -17.749 -34.273  1.00  0.00     0.069 A 
ATOM      6  C   UNL     1      11.461 -16.927 -33.962  1.00  0.00     0.142 A 
ATOM      7  O   UNL     1      12.003 -16.960 -32.749  1.00  0.00    -0.452 OA
ATOM      8  C   UNL     1      11.990 -16.069 -34.933  1.00  0.00     0.094 A 
ATOM      9  C   UNL     1      11.426 -16.021 -36.214  1.00  0.00     0.119 A 
ATOM     10  C   UNL     1      10.330 -16.833 -36.524  1.00  0.00     0.047 A 
ATOM     11  C   UNL     1       9.795 -17.694 -35.562  1.00  0.00     0.020 A 
ENDROOT
BRANCH   1  12
ATOM     12  C   UNL     1      12.238 -17.682 -30.459  1.00  0.00     0.025 A 
ATOM     13  C   UNL     1      12.065 -16.552 -29.645  1.00  0.00     0.016 A 
ATOM     14  C   UNL     1      12.683 -16.479 -28.394  1.00  0.00     0.051 A 
ATOM     15  C   UNL     1      13.469 -17.543 -27.932  1.00  0.00     0.157 A 
ATOM     16  C   UNL     1      13.011 -18.756 -29.983  1.00  0.00     0.062 A 
ATOM     17  C   UNL     1      13.630 -18.688 -28.729  1.00  0.00     0.158 A 
BRANCH  15  18
ATOM     18  O   UNL     1      14.086 -17.467 -26.683  1.00  0.00    -0.504 OA
ATOM     19  H   UNL     1      13.690 -16.920 -25.928  1.00  0.00     0.293 HD
ENDBRANCH  15  18
BRANCH  17  20
ATOM     20  O   UNL     1      14.395 -19.769 -28.292  1.00  0.00    -0.504 OA
ATOM     21  H   UNL     1      15.408 -19.755 -28.315  1.00  0.00     0.293 HD
ENDBRANCH  17  20
ENDBRANCH   1  12
BRANCH   2  22
ATOM     22  O   UNL     1      10.031 -19.488 -31.013  1.00  0.00    -0.502 OA
ATOM     23  H   UNL     1       9.990 -20.490 -31.152  1.00  0.00     0.293 HD
ENDBRANCH   2  22
BRANCH   9  24
ATOM     24  O   UNL     1      11.944 -15.168 -37.187  1.00  0.00    -0.508 OA
ATOM     25  H   UNL     1      12.777 -14.615 -37.016  1.00  0.00     0.293 HD
ENDBRANCH   9  24
TORSDOF 5
ENDMDL
MODEL 2
REMARK VINA RESULT:    -6.984      1.698      2.448
REMARK INTER + INTRA:          -8.408
REMARK INTER:                  -8.273
REMARK INTRA:                  -0.135
REMARK UNBOUND:                -0.199
REMARK SMILES O=c1c(O)c(-c2ccc(O)c(O)c2)oc2cc(O)ccc12
REMARK SMILES IDX 5 1 3 2 2 3 1 4 21 5 15 6 14 7 16 8 17 9 19 10 20 11 6 12
REMARK SMILES IDX 7 13 8 14 9 15 13 16 11 17 10 18 12 20 4 22 18 24
REMARK H PARENT 10 19 12 21 4 23 18 25
REMARK Flexibility Score: inf
ROOT
ATOM      1  C   UNL     1      11.601 -17.276 -31.639  1.00  0.00     0.180 A 
ATOM      2  C   UNL     1      10.494 -16.520 -31.197  1.00  0.00     0.208 A 
ATOM      3  C   UNL     1       9.861 -15.655 -32.103  1.00  0.00     0.235 A 
ATOM      4  O   UNL     1       8.875 -14.961 -31.728  1.00  0.00    -0.285 OA
ATOM      5  C   UNL     1      10.328 -15.576 -33.424  1.00  0.00     0.069 A 
ATOM      6  C   UNL     1      11.426 -16.381 -33.795  1.00  0.00     0.142 A 
ATOM      7  O   UNL     1      12.003 -17.181 -32.904  1.00  0.00    -0.452 OA
ATOM      8  C   UNL     1      11.915 -16.339 -35.105  1.00  0.00     0.094 A 
ATOM      9  C   UNL     1      11.318 -15.497 -36.053  1.00  0.00     0.119 A 
ATOM     10  C   UNL     1      10.232 -14.696 -35.687  1.00  0.00     0.047 A 
ATOM     11  C   UNL     1       9.735 -14.733 -34.381  1.00  0.00     0.020 A 
ENDROOT
BRANCH   1  12
ATOM     12  C   UNL     1      12.334 -18.195 -30.740  1.00  0.00     0.025 A 
ATOM     13  C   UNL     1      12.451 -19.550 -31.086  1.00  0.00     0.016 A 
ATOM     14  C   UNL     1      13.155 -20.433 -30.264  1.00  0.00     0.051 A 
ATOM     15  C   UNL     1      13.767 -19.970 -29.091  1.00  0.00     0.157 A 
ATOM     16  C   UNL     1      12.966 -17.730 -29.573  1.00  0.00     0.062 A 
ATOM     17  C   UNL     1      13.675 -18.611 -28.747  1.00  0.00     0.158 A 
BRANCH  15  18
ATOM     18  O   UNL     1      14.467 -20.854 -28.270  1.00  0.00    -0.504 OA
ATOM     19  H   UNL     1      14.006 -21.371 -27.530  1.00  0.00     0.293 HD
ENDBRANCH  15  18
BRANCH  17  20
ATOM     20  O   UNL     1      14.283 -18.117 -27.594  1.00  0.00    -0.504 OA
ATOM     21  H   UNL     1      15.265 -18.270 -27.396  1.00  0.00     0.293 HD
ENDBRANCH  17  20
ENDBRANCH   1  12
BRANCH   2  22
ATOM     22  O   UNL     1      10.022 -16.656 -29.889  1.00  0.00    -0.502 OA
ATOM     23  H   UNL     1      10.413 -17.327 -29.239  1.00  0.00     0.293 HD
ENDBRANCH   2  22
BRANCH   9  24
ATOM     24  O   UNL     1      11.799 -15.447 -37.360  1.00  0.00    -0.508 OA
ATOM     25  H   UNL     1      12.586 -16.013 -37.656  1.00  0.00     0.293 HD
ENDBRANCH   9  24
TORSDOF 5
ENDMDL
MODEL 3
REMARK VINA RESULT:    -6.954      1.553      6.647
REMARK INTER + INTRA:          -8.373
REMARK INTER:                  -8.054
REMARK INTRA:                  -0.319
REMARK UNBOUND:                -0.199
REMARK SMILES O=c1c(O)c(-c2ccc(O)c(O)c2)oc2cc(O)ccc12
REMARK SMILES IDX 5 1 3 2 2 3 1 4 21 5 15 6 14 7 16 8 17 9 19 10 20 11 6 12
REMARK SMILES IDX 7 13 8 14 9 15 13 16 11 17 10 18 12 20 4 22 18 24
REMARK H PARENT 10 19 12 21 4 23 18 25
REMARK Flexibility Score: inf
ROOT
ATOM      1  C   UNL     1      11.571 -17.378 -32.156  1.00  0.00     0.180 A 
ATOM      2  C   UNL     1      11.747 -18.776 -32.076  1.00  0.00     0.208 A 
ATOM      3  C   UNL     1      12.418 -19.311 -30.965  1.00  0.00     0.235 A 
ATOM      4  O   UNL     1      12.596 -20.557 -30.875  1.00  0.00    -0.285 OA
ATOM      5  C   UNL     1      12.878 -18.450 -29.956  1.00  0.00     0.069 A 
ATOM      6  C   UNL     1      12.643 -17.066 -30.099  1.00  0.00     0.142 A 
ATOM      7  O   UNL     1      12.011 -16.599 -31.171  1.00  0.00    -0.452 OA
ATOM      8  C   UNL     1      13.077 -16.176 -29.110  1.00  0.00     0.094 A 
ATOM      9  C   UNL     1      13.748 -16.654 -27.977  1.00  0.00     0.119 A 
ATOM     10  C   UNL     1      13.984 -18.025 -27.834  1.00  0.00     0.047 A 
ATOM     11  C   UNL     1      13.553 -18.922 -28.816  1.00  0.00     0.020 A 
ENDROOT
BRANCH   1  12
ATOM     12  C   UNL     1      10.892 -16.736 -33.304  1.00  0.00     0.025 A 
ATOM     13  C   UNL     1       9.533 -16.402 -33.202  1.00  0.00     0.016 A 
ATOM     14  C   UNL     1       8.875 -15.777 -34.265  1.00  0.00     0.051 A 
ATOM     15  C   UNL     1       9.572 -15.463 -35.439  1.00  0.00     0.157 A 
ATOM     16  C   UNL     1      11.592 -16.401 -34.476  1.00  0.00     0.062 A 
ATOM     17  C   UNL     1      10.938 -15.772 -35.542  1.00  0.00     0.158 A 
BRANCH  15  18
ATOM     18  O   UNL     1       8.913 -14.841 -36.499  1.00  0.00    -0.504 OA
ATOM     19  H   UNL     1       8.393 -13.980 -36.369  1.00  0.00     0.293 HD
ENDBRANCH  15  18
BRANCH  17  20
ATOM     20  O   UNL     1      11.662 -15.460 -36.692  1.00  0.00    -0.504 OA
ATOM     21  H   UNL     1      11.536 -15.966 -37.561  1.00  0.00     0.293 HD
ENDBRANCH  17  20
ENDBRANCH   1  12
BRANCH   2  22
ATOM     22  O   UNL     1      11.235 -19.612 -33.072  1.00  0.00    -0.502 OA
ATOM     23  H   UNL     1      11.367 -19.422 -34.058  1.00  0.00     0.293 HD
ENDBRANCH   2  22
BRANCH   9  24
ATOM     24  O   UNL     1      14.186 -15.776 -26.988  1.00  0.00    -0.508 OA
ATOM     25  H   UNL     1      13.531 -15.279 -26.394  1.00  0.00     0.293 HD
ENDBRANCH   9  24
TORSDOF 5
ENDMDL
MODEL 4
REMARK VINA RESULT:    -6.936      1.775      6.833
REMARK INTER + INTRA:          -8.352
REMARK INTER:                  -8.037
REMARK INTRA:                  -0.315
REMARK UNBOUND:                -0.199
REMARK SMILES O=c1c(O)c(-c2ccc(O)c(O)c2)oc2cc(O)ccc12
REMARK SMILES IDX 5 1 3 2 2 3 1 4 21 5 15 6 14 7 16 8 17 9 19 10 20 11 6 12
REMARK SMILES IDX 7 13 8 14 9 15 13 16 11 17 10 18 12 20 4 22 18 24
REMARK H PARENT 10 19 12 21 4 23 18 25
REMARK Flexibility Score: inf
ROOT
ATOM      1  C   UNL     1      10.913 -17.021 -32.461  1.00  0.00     0.180 A 
ATOM      2  C   UNL     1       9.944 -16.219 -31.821  1.00  0.00     0.208 A 
ATOM      3  C   UNL     1      10.050 -16.003 -30.438  1.00  0.00     0.235 A 
ATOM      4  O   UNL     1       9.190 -15.297 -29.842  1.00  0.00    -0.285 OA
ATOM      5  C   UNL     1      11.122 -16.570 -29.732  1.00  0.00     0.069 A 
ATOM      6  C   UNL     1      12.063 -17.341 -30.447  1.00  0.00     0.142 A 
ATOM      7  O   UNL     1      11.921 -17.529 -31.755  1.00  0.00    -0.452 OA
ATOM      8  C   UNL     1      13.151 -17.914 -29.780  1.00  0.00     0.094 A 
ATOM      9  C   UNL     1      13.310 -17.728 -28.401  1.00  0.00     0.119 A 
ATOM     10  C   UNL     1      12.378 -16.967 -27.689  1.00  0.00     0.047 A 
ATOM     11  C   UNL     1      11.288 -16.388 -28.346  1.00  0.00     0.020 A 
ENDROOT
BRANCH   1  12
ATOM     12  C   UNL     1      10.859 -17.311 -33.911  1.00  0.00     0.025 A 
ATOM     13  C   UNL     1      10.165 -18.444 -34.362  1.00  0.00     0.016 A 
ATOM     14  C   UNL     1      10.084 -18.727 -35.728  1.00  0.00     0.051 A 
ATOM     15  C   UNL     1      10.682 -17.873 -36.664  1.00  0.00     0.157 A 
ATOM     16  C   UNL     1      11.441 -16.445 -34.854  1.00  0.00     0.062 A 
ATOM     17  C   UNL     1      11.359 -16.724 -36.223  1.00  0.00     0.158 A 
BRANCH  15  18
ATOM     18  O   UNL     1      10.602 -18.158 -38.026  1.00  0.00    -0.504 OA
ATOM     19  H   UNL     1      10.204 -19.028 -38.364  1.00  0.00     0.293 HD
ENDBRANCH  15  18
BRANCH  17  20
ATOM     20  O   UNL     1      11.954 -15.846 -37.129  1.00  0.00    -0.504 OA
ATOM     21  H   UNL     1      11.407 -15.243 -37.733  1.00  0.00     0.293 HD
ENDBRANCH  17  20
ENDBRANCH   1  12
BRANCH   2  22
ATOM     22  O   UNL     1       8.915 -15.628 -32.560  1.00  0.00    -0.502 OA
ATOM     23  H   UNL     1       8.159 -16.168 -32.962  1.00  0.00     0.293 HD
ENDBRANCH   2  22
BRANCH   9  24
ATOM     24  O   UNL     1      14.389 -18.296 -27.728  1.00  0.00    -0.508 OA
ATOM     25  H   UNL     1      15.233 -18.573 -28.218  1.00  0.00     0.293 HD
ENDBRANCH   9  24
TORSDOF 5
ENDMDL
MODEL 5
REMARK VINA RESULT:    -6.756      1.685      2.484
REMARK INTER + INTRA:          -8.140
REMARK INTER:                  -7.838
REMARK INTRA:                  -0.302
REMARK UNBOUND:                -0.199
REMARK SMILES O=c1c(O)c(-c2ccc(O)c(O)c2)oc2cc(O)ccc12
REMARK SMILES IDX 5 1 3 2 2 3 1 4 21 5 15 6 14 7 16 8 17 9 19 10 20 11 6 12
REMARK SMILES IDX 7 13 8 14 9 15 13 16 11 17 10 18 12 20 4 22 18 24
REMARK H PARENT 10 19 12 21 4 23 18 25
REMARK Flexibility Score: inf
ROOT
ATOM      1  C   UNL     1      11.189 -17.911 -33.244  1.00  0.00     0.180 A 
ATOM      2  C   UNL     1      10.164 -18.470 -34.037  1.00  0.00     0.208 A 
ATOM      3  C   UNL     1       9.797 -17.819 -35.226  1.00  0.00     0.235 A 
ATOM      4  O   UNL     1       8.876 -18.295 -35.946  1.00  0.00    -0.285 OA
ATOM      5  C   UNL     1      10.468 -16.647 -35.606  1.00  0.00     0.069 A 
ATOM      6  C   UNL     1      11.498 -16.164 -34.771  1.00  0.00     0.142 A 
ATOM      7  O   UNL     1      11.808 -16.804 -33.649  1.00  0.00    -0.452 OA
ATOM      8  C   UNL     1      12.197 -15.003 -35.121  1.00  0.00     0.094 A 
ATOM      9  C   UNL     1      11.877 -14.316 -36.299  1.00  0.00     0.119 A 
ATOM     10  C   UNL     1      10.855 -14.791 -37.127  1.00  0.00     0.047 A 
ATOM     11  C   UNL     1      10.152 -15.950 -36.787  1.00  0.00     0.020 A 
ENDROOT
BRANCH   1  12
ATOM     12  C   UNL     1      11.619 -18.525 -31.969  1.00  0.00     0.025 A 
ATOM     13  C   UNL     1      12.562 -19.565 -31.988  1.00  0.00     0.016 A 
ATOM     14  C   UNL     1      12.999 -20.146 -30.795  1.00  0.00     0.051 A 
ATOM     15  C   UNL     1      12.511 -19.686 -29.564  1.00  0.00     0.157 A 
ATOM     16  C   UNL     1      11.148 -18.052 -30.731  1.00  0.00     0.062 A 
ATOM     17  C   UNL     1      11.585 -18.631 -29.534  1.00  0.00     0.158 A 
BRANCH  15  18
ATOM     18  O   UNL     1      12.947 -20.270 -28.375  1.00  0.00    -0.504 OA
ATOM     19  H   UNL     1      13.902 -20.590 -28.260  1.00  0.00     0.293 HD
ENDBRANCH  15  18
BRANCH  17  20
ATOM     20  O   UNL     1      11.090 -18.141 -28.325  1.00  0.00    -0.504 OA
ATOM     21  H   UNL     1      10.648 -17.233 -28.253  1.00  0.00     0.293 HD
ENDBRANCH  17  20
ENDBRANCH   1  12
BRANCH   2  22
ATOM     22  O   UNL     1       9.548 -19.665 -33.657  1.00  0.00    -0.502 OA
ATOM     23  H   UNL     1       8.897 -20.154 -34.260  1.00  0.00     0.293 HD
ENDBRANCH   2  22
BRANCH   9  24
ATOM     24  O   UNL     1      12.566 -13.159 -36.655  1.00  0.00    -0.508 OA
ATOM     25  H   UNL     1      12.145 -12.452 -37.248  1.00  0.00     0.293 HD
ENDBRANCH   9  24
TORSDOF 5
ENDMDL
MODEL 6
REMARK VINA RESULT:    -6.751      5.934      8.541
REMARK INTER + INTRA:          -8.134
REMARK INTER:                  -7.838
REMARK INTRA:                  -0.296
REMARK UNBOUND:                -0.199
REMARK SMILES O=c1c(O)c(-c2ccc(O)c(O)c2)oc2cc(O)ccc12
REMARK SMILES IDX 5 1 3 2 2 3 1 4 21 5 15 6 14 7 16 8 17 9 19 10 20 11 6 12
REMARK SMILES IDX 7 13 8 14 9 15 13 16 11 17 10 18 12 20 4 22 18 24
REMARK H PARENT 10 19 12 21 4 23 18 25
REMARK Flexibility Score: inf
ROOT
ATOM      1  C   UNL     1      10.002 -11.679 -35.060  1.00  0.00     0.180 A 
ATOM      2  C   UNL     1       9.433 -11.025 -36.174  1.00  0.00     0.208 A 
ATOM      3  C   UNL     1       9.388  -9.623 -36.186  1.00  0.00     0.235 A 
ATOM      4  O   UNL     1       8.875  -9.016 -37.166  1.00  0.00    -0.285 OA
ATOM      5  C   UNL     1       9.926  -8.906 -35.105  1.00  0.00     0.069 A 
ATOM      6  C   UNL     1      10.499  -9.632 -34.039  1.00  0.00     0.142 A 
ATOM      7  O   UNL     1      10.513 -10.961 -34.062  1.00  0.00    -0.452 OA
ATOM      8  C   UNL     1      11.054  -8.954 -32.948  1.00  0.00     0.094 A 
ATOM      9  C   UNL     1      11.042  -7.554 -32.909  1.00  0.00     0.119 A 
ATOM     10  C   UNL     1      10.473  -6.832 -33.963  1.00  0.00     0.047 A 
ATOM     11  C   UNL     1       9.917  -7.500 -35.057  1.00  0.00     0.020 A 
ENDROOT
BRANCH   1  12
ATOM     12  C   UNL     1      10.068 -13.154 -34.964  1.00  0.00     0.025 A 
ATOM     13  C   UNL     1       9.066 -13.846 -34.266  1.00  0.00     0.016 A 
ATOM     14  C   UNL     1       9.097 -15.240 -34.180  1.00  0.00     0.051 A 
ATOM     15  C   UNL     1      10.122 -15.964 -34.804  1.00  0.00     0.157 A 
ATOM     16  C   UNL     1      11.084 -13.886 -35.607  1.00  0.00     0.062 A 
ATOM     17  C   UNL     1      11.116 -15.283 -35.524  1.00  0.00     0.158 A 
BRANCH  15  18
ATOM     18  O   UNL     1      10.152 -17.355 -34.714  1.00  0.00    -0.504 OA
ATOM     19  H   UNL     1      10.789 -17.833 -34.087  1.00  0.00     0.293 HD
ENDBRANCH  15  18
BRANCH  17  20
ATOM     20  O   UNL     1      12.142 -15.975 -36.167  1.00  0.00    -0.504 OA
ATOM     21  H   UNL     1      12.619 -15.599 -36.978  1.00  0.00     0.293 HD
ENDBRANCH  17  20
ENDBRANCH   1  12
BRANCH   2  22
ATOM     22  O   UNL     1       8.949 -11.765 -37.257  1.00  0.00    -0.502 OA
ATOM     23  H   UNL     1       9.185 -12.740 -37.394  1.00  0.00     0.293 HD
ENDBRANCH   2  22
BRANCH   9  24
ATOM     24  O   UNL     1      11.592  -6.870 -31.826  1.00  0.00    -0.508 OA
ATOM     25  H   UNL     1      11.061  -6.172 -31.316  1.00  0.00     0.293 HD
ENDBRANCH   9  24
TORSDOF 5
ENDMDL
MODEL 7
REMARK VINA RESULT:    -6.722      1.832      1.998
REMARK INTER + INTRA:          -8.100
REMARK INTER:                  -7.823
REMARK INTRA:                  -0.277
REMARK UNBOUND:                -0.199
REMARK SMILES O=c1c(O)c(-c2ccc(O)c(O)c2)oc2cc(O)ccc12
REMARK SMILES IDX 5 1 3 2 2 3 1 4 21 5 15 6 14 7 16 8 17 9 19 10 20 11 6 12
REMARK SMILES IDX 7 13 8 14 9 15 13 16 11 17 10 18 12 20 4 22 18 24
REMARK H PARENT 10 19 12 21 4 23 18 25
REMARK Flexibility Score: inf
ROOT
ATOM      1  C   UNL     1      11.132 -17.345 -31.417  1.00  0.00     0.180 A 
ATOM      2  C   UNL     1      11.020 -18.529 -32.177  1.00  0.00     0.208 A 
ATOM      3  C   UNL     1      10.462 -18.457 -33.463  1.00  0.00     0.235 A 
ATOM      4  O   UNL     1      10.343 -19.504 -34.158  1.00  0.00    -0.285 OA
ATOM      5  C   UNL     1      10.050 -17.215 -33.968  1.00  0.00     0.069 A 
ATOM      6  C   UNL     1      10.216 -16.073 -33.155  1.00  0.00     0.142 A 
ATOM      7  O   UNL     1      10.740 -16.185 -31.940  1.00  0.00    -0.452 OA
ATOM      8  C   UNL     1       9.826 -14.815 -33.627  1.00  0.00     0.094 A 
ATOM      9  C   UNL     1       9.268 -14.683 -34.905  1.00  0.00     0.119 A 
ATOM     10  C   UNL     1       9.099 -15.813 -35.712  1.00  0.00     0.047 A 
ATOM     11  C   UNL     1       9.487 -17.074 -35.250  1.00  0.00     0.020 A 
ENDROOT
BRANCH   1  12
ATOM     12  C   UNL     1      11.691 -17.341 -30.047  1.00  0.00     0.025 A 
ATOM     13  C   UNL     1      12.970 -16.808 -29.826  1.00  0.00     0.016 A 
ATOM     14  C   UNL     1      13.510 -16.774 -28.538  1.00  0.00     0.051 A 
ATOM     15  C   UNL     1      12.773 -17.259 -27.450  1.00  0.00     0.157 A 
ATOM     16  C   UNL     1      10.945 -17.807 -28.949  1.00  0.00     0.062 A 
ATOM     17  C   UNL     1      11.482 -17.773 -27.657  1.00  0.00     0.158 A 
BRANCH  15  18
ATOM     18  O   UNL     1      13.315 -17.226 -26.165  1.00  0.00    -0.504 OA
ATOM     19  H   UNL     1      13.844 -18.007 -25.793  1.00  0.00     0.293 HD
ENDBRANCH  15  18
BRANCH  17  20
ATOM     20  O   UNL     1      10.718 -18.251 -26.593  1.00  0.00    -0.504 OA
ATOM     21  H   UNL     1      10.928 -18.016 -25.631  1.00  0.00     0.293 HD
ENDBRANCH  17  20
ENDBRANCH   1  12
BRANCH   2  22
ATOM     22  O   UNL     1      11.485 -19.744 -31.666  1.00  0.00    -0.502 OA
ATOM     23  H   UNL     1      11.864 -19.828 -30.731  1.00  0.00     0.293 HD
ENDBRANCH   2  22
BRANCH   9  24
ATOM     24  O   UNL     1       8.875 -13.434 -35.383  1.00  0.00    -0.508 OA
ATOM     25  H   UNL     1       9.468 -12.618 -35.281  1.00  0.00     0.293 HD
ENDBRANCH   9  24
TORSDOF 5
ENDMDL
MODEL 8
REMARK VINA RESULT:    -6.514      2.011      7.167
REMARK INTER + INTRA:          -7.855
REMARK INTER:                  -7.717
REMARK INTRA:                  -0.138
REMARK UNBOUND:                -0.199
REMARK SMILES O=c1c(O)c(-c2ccc(O)c(O)c2)oc2cc(O)ccc12
REMARK SMILES IDX 5 1 3 2 2 3 1 4 21 5 15 6 14 7 16 8 17 9 19 10 20 11 6 12
REMARK SMILES IDX 7 13 8 14 9 15 13 16 11 17 10 18 12 20 4 22 18 24
REMARK H PARENT 10 19 12 21 4 23 18 25
REMARK Flexibility Score: inf
ROOT
ATOM      1  C   UNL     1      11.602 -17.332 -32.003  1.00  0.00     0.180 A 
ATOM      2  C   UNL     1      12.861 -16.695 -31.947  1.00  0.00     0.208 A 
ATOM      3  C   UNL     1      13.446 -16.465 -30.693  1.00  0.00     0.235 A 
ATOM      4  O   UNL     1      14.567 -15.888 -30.616  1.00  0.00    -0.285 OA
ATOM      5  C   UNL     1      12.781 -16.889 -29.532  1.00  0.00     0.069 A 
ATOM      6  C   UNL     1      11.537 -17.539 -29.673  1.00  0.00     0.142 A 
ATOM      7  O   UNL     1      11.012 -17.730 -30.879  1.00  0.00    -0.452 OA
ATOM      8  C   UNL     1      10.847 -17.985 -28.540  1.00  0.00     0.094 A 
ATOM      9  C   UNL     1      11.387 -17.787 -27.263  1.00  0.00     0.119 A 
ATOM     10  C   UNL     1      12.618 -17.141 -27.120  1.00  0.00     0.047 A 
ATOM     11  C   UNL     1      13.316 -16.692 -28.245  1.00  0.00     0.020 A 
ENDROOT
BRANCH   1  12
ATOM     12  C   UNL     1      10.911 -17.593 -33.286  1.00  0.00     0.025 A 
ATOM     13  C   UNL     1      10.561 -18.909 -33.625  1.00  0.00     0.016 A 
ATOM     14  C   UNL     1       9.890 -19.178 -34.820  1.00  0.00     0.051 A 
ATOM     15  C   UNL     1       9.544 -18.132 -35.686  1.00  0.00     0.157 A 
ATOM     16  C   UNL     1      10.543 -16.544 -34.147  1.00  0.00     0.062 A 
ATOM     17  C   UNL     1       9.869 -16.809 -35.345  1.00  0.00     0.158 A 
BRANCH  15  18
ATOM     18  O   UNL     1       8.875 -18.402 -36.880  1.00  0.00    -0.504 OA
ATOM     19  H   UNL     1       8.222 -19.174 -36.960  1.00  0.00     0.293 HD
ENDBRANCH  15  18
BRANCH  17  20
ATOM     20  O   UNL     1       9.526 -15.745 -36.179  1.00  0.00    -0.504 OA
ATOM     21  H   UNL     1       9.350 -14.814 -35.819  1.00  0.00     0.293 HD
ENDBRANCH  17  20
ENDBRANCH   1  12
BRANCH   2  22
ATOM     22  O   UNL     1      13.521 -16.329 -33.122  1.00  0.00    -0.502 OA
ATOM     23  H   UNL     1      14.005 -17.003 -33.704  1.00  0.00     0.293 HD
ENDBRANCH   2  22
BRANCH   9  24
ATOM     24  O   UNL     1      10.707 -18.226 -26.129  1.00  0.00    -0.508 OA
ATOM     25  H   UNL     1      11.195 -18.661 -25.354  1.00  0.00     0.293 HD
ENDBRANCH   9  24
TORSDOF 5
ENDMDL
MODEL 9
REMARK VINA RESULT:    -6.378      2.024      2.240
REMARK INTER + INTRA:          -7.696
REMARK INTER:                  -7.386
REMARK INTRA:                  -0.309
REMARK UNBOUND:                -0.199
REMARK SMILES O=c1c(O)c(-c2ccc(O)c(O)c2)oc2cc(O)ccc12
REMARK SMILES IDX 5 1 3 2 2 3 1 4 21 5 15 6 14 7 16 8 17 9 19 10 20 11 6 12
REMARK SMILES IDX 7 13 8 14 9 15 13 16 11 17 10 18 12 20 4 22 18 24
REMARK H PARENT 10 19 12 21 4 23 18 25
REMARK Flexibility Score: inf
ROOT
ATOM      1  C   UNL     1      10.708 -17.217 -32.571  1.00  0.00     0.180 A 
ATOM      2  C   UNL     1      10.658 -18.225 -33.558  1.00  0.00     0.208 A 
ATOM      3  C   UNL     1      10.365 -17.862 -34.881  1.00  0.00     0.235 A 
ATOM      4  O   UNL     1      10.305 -18.747 -35.779  1.00  0.00    -0.285 OA
ATOM      5  C   UNL     1      10.151 -16.511 -35.196  1.00  0.00     0.069 A 
ATOM      6  C   UNL     1      10.241 -15.560 -34.157  1.00  0.00     0.142 A 
ATOM      7  O   UNL     1      10.511 -15.946 -32.915  1.00  0.00    -0.452 OA
ATOM      8  C   UNL     1      10.043 -14.202 -34.432  1.00  0.00     0.094 A 
ATOM      9  C   UNL     1       9.752 -13.782 -35.736  1.00  0.00     0.119 A 
ATOM     10  C   UNL     1       9.660 -14.723 -36.767  1.00  0.00     0.047 A 
ATOM     11  C   UNL     1       9.858 -16.081 -36.503  1.00  0.00     0.020 A 
ENDROOT
BRANCH   1  12
ATOM     12  C   UNL     1      10.992 -17.521 -31.151  1.00  0.00     0.025 A 
ATOM     13  C   UNL     1       9.925 -17.754 -30.270  1.00  0.00     0.016 A 
ATOM     14  C   UNL     1      10.169 -18.063 -28.929  1.00  0.00     0.051 A 
ATOM     15  C   UNL     1      11.483 -18.159 -28.454  1.00  0.00     0.157 A 
ATOM     16  C   UNL     1      12.310 -17.638 -30.675  1.00  0.00     0.062 A 
ATOM     17  C   UNL     1      12.558 -17.950 -29.333  1.00  0.00     0.158 A 
BRANCH  15  18
ATOM     18  O   UNL     1      11.724 -18.465 -27.115  1.00  0.00    -0.504 OA
ATOM     19  H   UNL     1      11.406 -19.336 -26.704  1.00  0.00     0.293 HD
ENDBRANCH  15  18
BRANCH  17  20
ATOM     20  O   UNL     1      13.878 -18.050 -28.894  1.00  0.00    -0.504 OA
ATOM     21  H   UNL     1      14.382 -17.256 -28.518  1.00  0.00     0.293 HD
ENDBRANCH  17  20
ENDBRANCH   1  12
BRANCH   2  22
ATOM     22  O   UNL     1      10.925 -19.555 -33.224  1.00  0.00    -0.502 OA
ATOM     23  H   UNL     1      11.637 -20.100 -33.696  1.00  0.00     0.293 HD
ENDBRANCH   2  22
BRANCH   9  24
ATOM     24  O   UNL     1       9.552 -12.433 -36.019  1.00  0.00    -0.508 OA
ATOM     25  H   UNL     1       9.253 -12.122 -36.937  1.00  0.00     0.293 HD
ENDBRANCH   9  24
TORSDOF 5
ENDMDL
