MODEL 1
REMARK VINA RESULT:    -2.831      0.000      0.000
REMARK INTER + INTRA:          -3.435
REMARK INTER:                  -3.328
REMARK INTRA:                  -0.107
REMARK UNBOUND:                -0.107
REMARK SMILES CCCCC(=O)[O-]
REMARK SMILES IDX 4 1 5 2 6 3 7 4 3 5 2 6 1 7
REMARK H PARENT
REMARK Flexibility Score: inf
ROOT
ATOM      1  C   UNL     1     -24.287   2.488 -32.902  1.00  0.00     0.053 C 
ENDROOT
BRANCH   1   2
ATOM      2  C   UNL     1     -23.139   2.531 -33.861  1.00  0.00     0.041 C 
ATOM      3  O   UNL     1     -22.735   3.633 -34.316  1.00  0.00    -0.550 OA
ATOM      4  O   UNL     1     -22.486   1.358 -34.215  1.00  0.00    -0.550 OA
ENDBRANCH   1   2
BRANCH   1   5
ATOM      5  C   UNL     1     -25.595   2.848 -33.616  1.00  0.00     0.006 C 
BRANCH   5   6
ATOM      6  C   UNL     1     -26.117   4.239 -33.223  1.00  0.00    -0.003 C 
ATOM      7  C   UNL     1     -25.459   4.781 -31.955  1.00  0.00     0.004 C 
ENDBRANCH   5   6
ENDBRANCH   1   5
TORSDOF 3
ENDMDL
MODEL 2
REMARK VINA RESULT:    -2.808      1.319      1.692
REMARK INTER + INTRA:          -3.408
REMARK INTER:                  -3.315
REMARK INTRA:                  -0.093
REMARK UNBOUND:                -0.107
REMARK SMILES CCCCC(=O)[O-]
REMARK SMILES IDX 4 1 5 2 6 3 7 4 3 5 2 6 1 7
REMARK H PARENT
REMARK Flexibility Score: inf
ROOT
ATOM      1  C   UNL     1     -23.250   3.410 -33.934  1.00  0.00     0.053 C 
ENDROOT
BRANCH   1   2
ATOM      2  C   UNL     1     -22.827   2.156 -34.633  1.00  0.00     0.041 C 
ATOM      3  O   UNL     1     -22.831   2.099 -35.890  1.00  0.00    -0.550 OA
ATOM      4  O   UNL     1     -22.382   1.066 -33.896  1.00  0.00    -0.550 OA
ENDBRANCH   1   2
BRANCH   1   5
ATOM      5  C   UNL     1     -24.295   3.096 -32.856  1.00  0.00     0.006 C 
BRANCH   5   6
ATOM      6  C   UNL     1     -25.602   2.544 -33.446  1.00  0.00    -0.003 C 
ATOM      7  C   UNL     1     -26.660   3.629 -33.655  1.00  0.00     0.004 C 
ENDBRANCH   5   6
ENDBRANCH   1   5
TORSDOF 3
ENDMDL
MODEL 3
REMARK VINA RESULT:    -2.800      1.299      1.840
REMARK INTER + INTRA:          -3.398
REMARK INTER:                  -3.318
REMARK INTRA:                  -0.080
REMARK UNBOUND:                -0.107
REMARK SMILES CCCCC(=O)[O-]
REMARK SMILES IDX 4 1 5 2 6 3 7 4 3 5 2 6 1 7
REMARK H PARENT
REMARK Flexibility Score: inf
ROOT
ATOM      1  C   UNL     1     -23.378   3.294 -33.824  1.00  0.00     0.053 C 
ENDROOT
BRANCH   1   2
ATOM      2  C   UNL     1     -22.813   2.130 -34.576  1.00  0.00     0.041 C 
ATOM      3  O   UNL     1     -22.422   1.105 -33.957  1.00  0.00    -0.550 OA
ATOM      4  O   UNL     1     -22.763   2.156 -35.963  1.00  0.00    -0.550 OA
ENDBRANCH   1   2
BRANCH   1   5
ATOM      5  C   UNL     1     -24.432   2.819 -32.816  1.00  0.00     0.006 C 
BRANCH   5   6
ATOM      6  C   UNL     1     -25.797   2.559 -33.470  1.00  0.00    -0.003 C 
ATOM      7  C   UNL     1     -26.593   3.843 -33.708  1.00  0.00     0.004 C 
ENDBRANCH   5   6
ENDBRANCH   1   5
TORSDOF 3
ENDMDL
MODEL 4
REMARK VINA RESULT:    -2.751     20.252     21.155
REMARK INTER + INTRA:          -3.340
REMARK INTER:                  -3.283
REMARK INTRA:                  -0.057
REMARK UNBOUND:                -0.107
REMARK SMILES CCCCC(=O)[O-]
REMARK SMILES IDX 4 1 5 2 6 3 7 4 3 5 2 6 1 7
REMARK H PARENT
REMARK Flexibility Score: inf
ROOT
ATOM      1  C   UNL     1     -20.104 -11.632 -19.042  1.00  0.00     0.053 C 
ENDROOT
BRANCH   1   2
ATOM      2  C   UNL     1     -18.965 -11.052 -19.820  1.00  0.00     0.041 C 
ATOM      3  O   UNL     1     -18.719  -9.819 -19.758  1.00  0.00    -0.550 OA
ATOM      4  O   UNL     1     -18.146 -11.881 -20.576  1.00  0.00    -0.550 OA
ENDBRANCH   1   2
BRANCH   1   5
ATOM      5  C   UNL     1     -19.954 -13.154 -18.930  1.00  0.00     0.006 C 
BRANCH   5   6
ATOM      6  C   UNL     1     -21.304 -13.885 -18.995  1.00  0.00    -0.003 C 
ATOM      7  C   UNL     1     -22.362 -13.105 -19.775  1.00  0.00     0.004 C 
ENDBRANCH   5   6
ENDBRANCH   1   5
TORSDOF 3
ENDMDL
MODEL 5
REMARK VINA RESULT:    -2.709      2.738      3.889
REMARK INTER + INTRA:          -3.291
REMARK INTER:                  -3.241
REMARK INTRA:                  -0.050
REMARK UNBOUND:                -0.107
REMARK SMILES CCCCC(=O)[O-]
REMARK SMILES IDX 4 1 5 2 6 3 7 4 3 5 2 6 1 7
REMARK H PARENT
REMARK Flexibility Score: inf
ROOT
ATOM      1  C   UNL     1     -25.684   2.607 -33.516  1.00  0.00     0.053 C 
ENDROOT
BRANCH   1   2
ATOM      2  C   UNL     1     -26.675   3.726 -33.447  1.00  0.00     0.041 C 
ATOM      3  O   UNL     1     -27.836   3.573 -33.910  1.00  0.00    -0.550 OA
ATOM      4  O   UNL     1     -26.333   4.921 -32.828  1.00  0.00    -0.550 OA
ENDBRANCH   1   2
BRANCH   1   5
ATOM      5  C   UNL     1     -24.398   2.985 -32.771  1.00  0.00     0.006 C 
BRANCH   5   6
ATOM      6  C   UNL     1     -23.201   3.166 -33.717  1.00  0.00    -0.003 C 
ATOM      7  C   UNL     1     -22.679   1.839 -34.268  1.00  0.00     0.004 C 
ENDBRANCH   5   6
ENDBRANCH   1   5
TORSDOF 3
ENDMDL
MODEL 6
REMARK VINA RESULT:    -2.679      2.597      3.523
REMARK INTER + INTRA:          -3.255
REMARK INTER:                  -3.186
REMARK INTRA:                  -0.069
REMARK UNBOUND:                -0.107
REMARK SMILES CCCCC(=O)[O-]
REMARK SMILES IDX 4 1 5 2 6 3 7 4 3 5 2 6 1 7
REMARK H PARENT
REMARK Flexibility Score: inf
ROOT
ATOM      1  C   UNL     1     -24.916   2.938 -32.874  1.00  0.00     0.053 C 
ENDROOT
BRANCH   1   2
ATOM      2  C   UNL     1     -25.617   4.231 -32.595  1.00  0.00     0.041 C 
ATOM      3  O   UNL     1     -25.372   4.868 -31.538  1.00  0.00    -0.550 OA
ATOM      4  O   UNL     1     -26.503   4.756 -33.527  1.00  0.00    -0.550 OA
ENDBRANCH   1   2
BRANCH   1   5
ATOM      5  C   UNL     1     -25.087   2.544 -34.346  1.00  0.00     0.006 C 
BRANCH   5   6
ATOM      6  C   UNL     1     -23.746   2.446 -35.090  1.00  0.00    -0.003 C 
ATOM      7  C   UNL     1     -22.542   2.605 -34.160  1.00  0.00     0.004 C 
ENDBRANCH   5   6
ENDBRANCH   1   5
TORSDOF 3
ENDMDL
MODEL 7
REMARK VINA RESULT:    -2.665     20.666     21.623
REMARK INTER + INTRA:          -3.239
REMARK INTER:                  -3.206
REMARK INTRA:                  -0.034
REMARK UNBOUND:                -0.107
REMARK SMILES CCCCC(=O)[O-]
REMARK SMILES IDX 4 1 5 2 6 3 7 4 3 5 2 6 1 7
REMARK H PARENT
REMARK Flexibility Score: inf
ROOT
ATOM      1  C   UNL     1     -20.700 -12.157 -19.101  1.00  0.00     0.053 C 
ENDROOT
BRANCH   1   2
ATOM      2  C   UNL     1     -21.402 -13.479 -19.091  1.00  0.00     0.041 C 
ATOM      3  O   UNL     1     -22.651 -13.534 -19.237  1.00  0.00    -0.550 OA
ATOM      4  O   UNL     1     -20.671 -14.653 -18.970  1.00  0.00    -0.550 OA
ENDBRANCH   1   2
BRANCH   1   5
ATOM      5  C   UNL     1     -19.180 -12.359 -19.120  1.00  0.00     0.006 C 
BRANCH   5   6
ATOM      6  C   UNL     1     -18.478 -11.448 -20.140  1.00  0.00    -0.003 C 
ATOM      7  C   UNL     1     -18.840  -9.974 -19.962  1.00  0.00     0.004 C 
ENDBRANCH   5   6
ENDBRANCH   1   5
TORSDOF 3
ENDMDL
MODEL 8
REMARK VINA RESULT:    -2.552      1.881      2.817
REMARK INTER + INTRA:          -3.106
REMARK INTER:                  -3.027
REMARK INTRA:                  -0.080
REMARK UNBOUND:                -0.107
REMARK SMILES CCCCC(=O)[O-]
REMARK SMILES IDX 4 1 5 2 6 3 7 4 3 5 2 6 1 7
REMARK H PARENT
REMARK Flexibility Score: inf
ROOT
ATOM      1  C   UNL     1     -22.893   2.199 -35.064  1.00  0.00     0.053 C 
ENDROOT
BRANCH   1   2
ATOM      2  C   UNL     1     -22.770   3.179 -36.188  1.00  0.00     0.041 C 
ATOM      3  O   UNL     1     -22.828   2.783 -37.382  1.00  0.00    -0.550 OA
ATOM      4  O   UNL     1     -22.640   4.535 -35.918  1.00  0.00    -0.550 OA
ENDBRANCH   1   2
BRANCH   1   5
ATOM      5  C   UNL     1     -23.017   2.935 -33.724  1.00  0.00     0.006 C 
BRANCH   5   6
ATOM      6  C   UNL     1     -24.267   2.518 -32.935  1.00  0.00    -0.003 C 
ATOM      7  C   UNL     1     -25.567   2.863 -33.662  1.00  0.00     0.004 C 
ENDBRANCH   5   6
ENDBRANCH   1   5
TORSDOF 3
ENDMDL
MODEL 9
REMARK VINA RESULT:    -2.472      2.391      3.529
REMARK INTER + INTRA:          -3.013
REMARK INTER:                  -2.937
REMARK INTRA:                  -0.076
REMARK UNBOUND:                -0.107
REMARK SMILES CCCCC(=O)[O-]
REMARK SMILES IDX 4 1 5 2 6 3 7 4 3 5 2 6 1 7
REMARK H PARENT
REMARK Flexibility Score: inf
ROOT
ATOM      1  C   UNL     1     -23.988   2.882 -35.249  1.00  0.00     0.053 C 
ENDROOT
BRANCH   1   2
ATOM      2  C   UNL     1     -23.506   2.255 -33.979  1.00  0.00     0.041 C 
ATOM      3  O   UNL     1     -22.490   1.512 -33.985  1.00  0.00    -0.550 OA
ATOM      4  O   UNL     1     -24.151   2.530 -32.780  1.00  0.00    -0.550 OA
ENDBRANCH   1   2
BRANCH   1   5
ATOM      5  C   UNL     1     -23.082   2.481 -36.420  1.00  0.00     0.006 C 
BRANCH   5   6
ATOM      6  C   UNL     1     -22.399   3.690 -37.077  1.00  0.00    -0.003 C 
ATOM      7  C   UNL     1     -22.715   5.006 -36.366  1.00  0.00     0.004 C 
ENDBRANCH   5   6
ENDBRANCH   1   5
TORSDOF 3
ENDMDL
