MODEL 1
REMARK VINA RESULT:    -3.800      0.000      0.000
REMARK INTER + INTRA:          -7.977
REMARK INTER:                  -6.466
REMARK INTRA:                  -1.511
REMARK UNBOUND:                -1.511
REMARK SMILES CCCCCCCCCCCCCC(=O)[O-]
REMARK SMILES IDX 8 1 9 2 10 3 11 4 12 5 13 6 14 7 15 8 16 9 7 10 6 11 5 12
REMARK SMILES IDX 4 13 3 14 2 15 1 16
REMARK H PARENT
REMARK Flexibility Score: inf
ROOT
ATOM      1  C   UNL     1      29.394  11.747 -14.287  1.00  0.00     0.000 C 
ENDROOT
BRANCH   1   2
ATOM      2  C   UNL     1      28.489  12.989 -14.346  1.00  0.00     0.000 C 
BRANCH   2   3
ATOM      3  C   UNL     1      29.026  14.160 -13.503  1.00  0.00     0.000 C 
BRANCH   3   4
ATOM      4  C   UNL     1      29.181  15.497 -14.257  1.00  0.00     0.000 C 
BRANCH   4   5
ATOM      5  C   UNL     1      30.423  15.595 -15.167  1.00  0.00     0.006 C 
BRANCH   5   6
ATOM      6  C   UNL     1      30.103  15.802 -16.656  1.00  0.00     0.053 C 
BRANCH   6   7
ATOM      7  C   UNL     1      29.969  14.501 -17.386  1.00  0.00     0.041 C 
ATOM      8  O   UNL     1      29.118  14.374 -18.304  1.00  0.00    -0.550 OA
ATOM      9  O   UNL     1      30.809  13.438 -17.076  1.00  0.00    -0.550 OA
ENDBRANCH   6   7
ENDBRANCH   5   6
ENDBRANCH   4   5
ENDBRANCH   3   4
ENDBRANCH   2   3
ENDBRANCH   1   2
BRANCH   1  10
ATOM     10  C   UNL     1      29.949  11.487 -12.877  1.00  0.00     0.000 C 
BRANCH  10  11
ATOM     11  C   UNL     1      28.942  10.755 -11.973  1.00  0.00    -0.000 C 
BRANCH  11  12
ATOM     12  C   UNL     1      28.420  11.642 -10.830  1.00  0.00    -0.000 C 
BRANCH  12  13
ATOM     13  C   UNL     1      26.931  11.999 -10.992  1.00  0.00    -0.000 C 
BRANCH  13  14
ATOM     14  C   UNL     1      26.670  13.509 -10.866  1.00  0.00    -0.000 C 
BRANCH  14  15
ATOM     15  C   UNL     1      25.271  13.912 -11.354  1.00  0.00    -0.003 C 
ATOM     16  C   UNL     1      25.351  15.031 -12.389  1.00  0.00     0.004 C 
ENDBRANCH  14  15
ENDBRANCH  13  14
ENDBRANCH  12  13
ENDBRANCH  11  12
ENDBRANCH  10  11
ENDBRANCH   1  10
TORSDOF 12
ENDMDL
MODEL 2
REMARK VINA RESULT:    -3.784      2.949      5.715
REMARK INTER + INTRA:          -7.950
REMARK INTER:                  -6.329
REMARK INTRA:                  -1.621
REMARK UNBOUND:                -1.511
REMARK SMILES CCCCCCCCCCCCCC(=O)[O-]
REMARK SMILES IDX 8 1 9 2 10 3 11 4 12 5 13 6 14 7 15 8 16 9 7 10 6 11 5 12
REMARK SMILES IDX 4 13 3 14 2 15 1 16
REMARK H PARENT
REMARK Flexibility Score: inf
ROOT
ATOM      1  C   UNL     1      30.350  11.913 -15.018  1.00  0.00     0.000 C 
ENDROOT
BRANCH   1   2
ATOM      2  C   UNL     1      30.613  11.618 -13.532  1.00  0.00     0.000 C 
BRANCH   2   3
ATOM      3  C   UNL     1      29.337  11.218 -12.768  1.00  0.00     0.000 C 
BRANCH   3   4
ATOM      4  C   UNL     1      29.099  11.975 -11.445  1.00  0.00     0.000 C 
BRANCH   4   5
ATOM      5  C   UNL     1      28.463  13.372 -11.595  1.00  0.00     0.006 C 
BRANCH   5   6
ATOM      6  C   UNL     1      27.158  13.390 -12.407  1.00  0.00     0.053 C 
BRANCH   6   7
ATOM      7  C   UNL     1      26.064  14.124 -11.694  1.00  0.00     0.041 C 
ATOM      8  O   UNL     1      25.821  13.879 -10.484  1.00  0.00    -0.550 OA
ATOM      9  O   UNL     1      25.336  15.105 -12.358  1.00  0.00    -0.550 OA
ENDBRANCH   6   7
ENDBRANCH   5   6
ENDBRANCH   4   5
ENDBRANCH   3   4
ENDBRANCH   2   3
ENDBRANCH   1   2
BRANCH   1  10
ATOM     10  C   UNL     1      28.861  11.805 -15.387  1.00  0.00     0.000 C 
BRANCH  10  11
ATOM     11  C   UNL     1      28.471  12.741 -16.546  1.00  0.00    -0.000 C 
BRANCH  11  12
ATOM     12  C   UNL     1      29.695  13.320 -17.276  1.00  0.00    -0.000 C 
BRANCH  12  13
ATOM     13  C   UNL     1      29.771  14.854 -17.180  1.00  0.00    -0.000 C 
BRANCH  13  14
ATOM     14  C   UNL     1      30.999  15.335 -16.391  1.00  0.00    -0.000 C 
BRANCH  14  15
ATOM     15  C   UNL     1      30.624  16.194 -15.174  1.00  0.00    -0.003 C 
ATOM     16  C   UNL     1      29.436  15.597 -14.425  1.00  0.00     0.004 C 
ENDBRANCH  14  15
ENDBRANCH  13  14
ENDBRANCH  12  13
ENDBRANCH  11  12
ENDBRANCH  10  11
ENDBRANCH   1  10
TORSDOF 12
ENDMDL
MODEL 3
REMARK VINA RESULT:    -3.781      3.269      6.219
REMARK INTER + INTRA:          -7.945
REMARK INTER:                  -6.952
REMARK INTRA:                  -0.993
REMARK UNBOUND:                -1.511
REMARK SMILES CCCCCCCCCCCCCC(=O)[O-]
REMARK SMILES IDX 8 1 9 2 10 3 11 4 12 5 13 6 14 7 15 8 16 9 7 10 6 11 5 12
REMARK SMILES IDX 4 13 3 14 2 15 1 16
REMARK H PARENT
REMARK Flexibility Score: inf
ROOT
ATOM      1  C   UNL     1      27.740  13.265 -13.154  1.00  0.00     0.000 C 
ENDROOT
BRANCH   1   2
ATOM      2  C   UNL     1      27.803  13.490 -11.634  1.00  0.00     0.000 C 
BRANCH   2   3
ATOM      3  C   UNL     1      26.482  13.140 -10.923  1.00  0.00     0.000 C 
BRANCH   3   4
ATOM      4  C   UNL     1      25.623  14.350 -10.502  1.00  0.00     0.000 C 
BRANCH   4   5
ATOM      5  C   UNL     1      24.365  14.590 -11.361  1.00  0.00     0.006 C 
BRANCH   5   6
ATOM      6  C   UNL     1      24.570  15.571 -12.526  1.00  0.00     0.053 C 
BRANCH   6   7
ATOM      7  C   UNL     1      23.297  16.262 -12.907  1.00  0.00     0.041 C 
ATOM      8  O   UNL     1      22.532  16.719 -12.017  1.00  0.00    -0.550 OA
ATOM      9  O   UNL     1      22.971  16.432 -14.247  1.00  0.00    -0.550 OA
ENDBRANCH   6   7
ENDBRANCH   5   6
ENDBRANCH   4   5
ENDBRANCH   3   4
ENDBRANCH   2   3
ENDBRANCH   1   2
BRANCH   1  10
ATOM     10  C   UNL     1      29.133  13.116 -13.788  1.00  0.00     0.000 C 
BRANCH  10  11
ATOM     11  C   UNL     1      29.221  11.910 -14.741  1.00  0.00    -0.000 C 
BRANCH  11  12
ATOM     12  C   UNL     1      29.665  12.308 -16.158  1.00  0.00    -0.000 C 
BRANCH  12  13
ATOM     13  C   UNL     1      28.607  13.148 -16.895  1.00  0.00    -0.000 C 
BRANCH  13  14
ATOM     14  C   UNL     1      29.218  14.346 -17.639  1.00  0.00    -0.000 C 
BRANCH  14  15
ATOM     15  C   UNL     1      30.391  14.982 -16.878  1.00  0.00    -0.003 C 
ATOM     16  C   UNL     1      29.901  16.066 -15.921  1.00  0.00     0.004 C 
ENDBRANCH  14  15
ENDBRANCH  13  14
ENDBRANCH  12  13
ENDBRANCH  11  12
ENDBRANCH  10  11
ENDBRANCH   1  10
TORSDOF 12
ENDMDL
MODEL 4
REMARK VINA RESULT:    -3.772     17.058     18.469
REMARK INTER + INTRA:          -7.929
REMARK INTER:                  -6.802
REMARK INTRA:                  -1.126
REMARK UNBOUND:                -1.511
REMARK SMILES CCCCCCCCCCCCCC(=O)[O-]
REMARK SMILES IDX 8 1 9 2 10 3 11 4 12 5 13 6 14 7 15 8 16 9 7 10 6 11 5 12
REMARK SMILES IDX 4 13 3 14 2 15 1 16
REMARK H PARENT
REMARK Flexibility Score: inf
ROOT
ATOM      1  C   UNL     1      17.363   0.497 -13.947  1.00  0.00     0.000 C 
ENDROOT
BRANCH   1   2
ATOM      2  C   UNL     1      18.091  -0.338 -15.015  1.00  0.00     0.000 C 
BRANCH   2   3
ATOM      3  C   UNL     1      17.545  -0.097 -16.435  1.00  0.00     0.000 C 
BRANCH   3   4
ATOM      4  C   UNL     1      17.592   1.367 -16.917  1.00  0.00     0.000 C 
BRANCH   4   5
ATOM      5  C   UNL     1      16.246   1.937 -17.410  1.00  0.00     0.006 C 
BRANCH   5   6
ATOM      6  C   UNL     1      16.376   3.148 -18.347  1.00  0.00     0.053 C 
BRANCH   6   7
ATOM      7  C   UNL     1      15.082   3.891 -18.484  1.00  0.00     0.041 C 
ATOM      8  O   UNL     1      14.894   4.659 -19.464  1.00  0.00    -0.550 OA
ATOM      9  O   UNL     1      14.071   3.708 -17.549  1.00  0.00    -0.550 OA
ENDBRANCH   6   7
ENDBRANCH   5   6
ENDBRANCH   4   5
ENDBRANCH   3   4
ENDBRANCH   2   3
ENDBRANCH   1   2
BRANCH   1  10
ATOM     10  C   UNL     1      16.531  -0.369 -12.987  1.00  0.00     0.000 C 
BRANCH  10  11
ATOM     11  C   UNL     1      15.689   0.473 -12.012  1.00  0.00    -0.000 C 
BRANCH  11  12
ATOM     12  C   UNL     1      14.237  -0.021 -11.905  1.00  0.00    -0.000 C 
BRANCH  12  13
ATOM     13  C   UNL     1      13.878  -1.043 -12.998  1.00  0.00    -0.000 C 
BRANCH  13  14
ATOM     14  C   UNL     1      12.459  -0.838 -13.554  1.00  0.00    -0.000 C 
BRANCH  14  15
ATOM     15  C   UNL     1      12.447  -0.568 -15.065  1.00  0.00    -0.003 C 
ATOM     16  C   UNL     1      13.841  -0.209 -15.571  1.00  0.00     0.004 C 
ENDBRANCH  14  15
ENDBRANCH  13  14
ENDBRANCH  12  13
ENDBRANCH  11  12
ENDBRANCH  10  11
ENDBRANCH   1  10
TORSDOF 12
ENDMDL
MODEL 5
REMARK VINA RESULT:    -3.765      3.184      5.941
REMARK INTER + INTRA:          -7.917
REMARK INTER:                  -6.430
REMARK INTRA:                  -1.487
REMARK UNBOUND:                -1.511
REMARK SMILES CCCCCCCCCCCCCC(=O)[O-]
REMARK SMILES IDX 8 1 9 2 10 3 11 4 12 5 13 6 14 7 15 8 16 9 7 10 6 11 5 12
REMARK SMILES IDX 4 13 3 14 2 15 1 16
REMARK H PARENT
REMARK Flexibility Score: inf
ROOT
ATOM      1  C   UNL     1      29.684  10.021 -16.453  1.00  0.00     0.000 C 
ENDROOT
BRANCH   1   2
ATOM      2  C   UNL     1      29.995  10.751 -15.136  1.00  0.00     0.000 C 
BRANCH   2   3
ATOM      3  C   UNL     1      28.975  11.859 -14.813  1.00  0.00     0.000 C 
BRANCH   3   4
ATOM      4  C   UNL     1      29.377  12.807 -13.664  1.00  0.00     0.000 C 
BRANCH   4   5
ATOM      5  C   UNL     1      28.321  13.868 -13.292  1.00  0.00     0.006 C 
BRANCH   5   6
ATOM      6  C   UNL     1      27.385  13.456 -12.146  1.00  0.00     0.053 C 
BRANCH   6   7
ATOM      7  C   UNL     1      26.277  14.444 -11.945  1.00  0.00     0.041 C 
ATOM      8  O   UNL     1      26.370  15.606 -12.421  1.00  0.00    -0.550 OA
ATOM      9  O   UNL     1      25.126  14.070 -11.262  1.00  0.00    -0.550 OA
ENDBRANCH   6   7
ENDBRANCH   5   6
ENDBRANCH   4   5
ENDBRANCH   3   4
ENDBRANCH   2   3
ENDBRANCH   1   2
BRANCH   1  10
ATOM     10  C   UNL     1      30.837  10.112 -17.466  1.00  0.00     0.000 C 
BRANCH  10  11
ATOM     11  C   UNL     1      30.554  11.121 -18.593  1.00  0.00    -0.000 C 
BRANCH  11  12
ATOM     12  C   UNL     1      30.746  12.579 -18.144  1.00  0.00    -0.000 C 
BRANCH  12  13
ATOM     13  C   UNL     1      29.443  13.396 -18.213  1.00  0.00    -0.000 C 
BRANCH  13  14
ATOM     14  C   UNL     1      29.458  14.612 -17.273  1.00  0.00    -0.000 C 
BRANCH  14  15
ATOM     15  C   UNL     1      30.788  14.763 -16.520  1.00  0.00    -0.003 C 
ATOM     16  C   UNL     1      30.689  15.838 -15.440  1.00  0.00     0.004 C 
ENDBRANCH  14  15
ENDBRANCH  13  14
ENDBRANCH  12  13
ENDBRANCH  11  12
ENDBRANCH  10  11
ENDBRANCH   1  10
TORSDOF 12
ENDMDL
MODEL 6
REMARK VINA RESULT:    -3.753      3.071      6.192
REMARK INTER + INTRA:          -7.898
REMARK INTER:                  -6.567
REMARK INTRA:                  -1.331
REMARK UNBOUND:                -1.511
REMARK SMILES CCCCCCCCCCCCCC(=O)[O-]
REMARK SMILES IDX 8 1 9 2 10 3 11 4 12 5 13 6 14 7 15 8 16 9 7 10 6 11 5 12
REMARK SMILES IDX 4 13 3 14 2 15 1 16
REMARK H PARENT
REMARK Flexibility Score: inf
ROOT
ATOM      1  C   UNL     1      29.219  11.623 -14.642  1.00  0.00     0.000 C 
ENDROOT
BRANCH   1   2
ATOM      2  C   UNL     1      29.417  12.966 -13.919  1.00  0.00     0.000 C 
BRANCH   2   3
ATOM      3  C   UNL     1      28.245  13.320 -12.985  1.00  0.00     0.000 C 
BRANCH   3   4
ATOM      4  C   UNL     1      28.474  13.000 -11.494  1.00  0.00     0.000 C 
BRANCH   4   5
ATOM      5  C   UNL     1      28.112  11.561 -11.071  1.00  0.00     0.006 C 
BRANCH   5   6
ATOM      6  C   UNL     1      29.177  10.868 -10.205  1.00  0.00     0.053 C 
BRANCH   6   7
ATOM      7  C   UNL     1      29.775   9.681 -10.896  1.00  0.00     0.041 C 
ATOM      8  O   UNL     1      30.740   9.064 -10.374  1.00  0.00    -0.550 OA
ATOM      9  O   UNL     1      29.243   9.235 -12.100  1.00  0.00    -0.550 OA
ENDBRANCH   6   7
ENDBRANCH   5   6
ENDBRANCH   4   5
ENDBRANCH   3   4
ENDBRANCH   2   3
ENDBRANCH   1   2
BRANCH   1  10
ATOM     10  C   UNL     1      29.340  11.751 -16.169  1.00  0.00     0.000 C 
BRANCH  10  11
ATOM     11  C   UNL     1      28.485  12.900 -16.734  1.00  0.00    -0.000 C 
BRANCH  11  12
ATOM     12  C   UNL     1      29.214  13.695 -17.830  1.00  0.00    -0.000 C 
BRANCH  12  13
ATOM     13  C   UNL     1      29.660  15.089 -17.353  1.00  0.00    -0.000 C 
BRANCH  13  14
ATOM     14  C   UNL     1      30.986  15.050 -16.576  1.00  0.00    -0.000 C 
BRANCH  14  15
ATOM     15  C   UNL     1      31.082  16.150 -15.509  1.00  0.00    -0.003 C 
ATOM     16  C   UNL     1      29.712  16.454 -14.909  1.00  0.00     0.004 C 
ENDBRANCH  14  15
ENDBRANCH  13  14
ENDBRANCH  12  13
ENDBRANCH  11  12
ENDBRANCH  10  11
ENDBRANCH   1  10
TORSDOF 12
ENDMDL
MODEL 7
REMARK VINA RESULT:    -3.721      2.904      5.542
REMARK INTER + INTRA:          -7.842
REMARK INTER:                  -6.336
REMARK INTRA:                  -1.506
REMARK UNBOUND:                -1.511
REMARK SMILES CCCCCCCCCCCCCC(=O)[O-]
REMARK SMILES IDX 8 1 9 2 10 3 11 4 12 5 13 6 14 7 15 8 16 9 7 10 6 11 5 12
REMARK SMILES IDX 4 13 3 14 2 15 1 16
REMARK H PARENT
REMARK Flexibility Score: inf
ROOT
ATOM      1  C   UNL     1      29.091  14.011 -17.178  1.00  0.00     0.000 C 
ENDROOT
BRANCH   1   2
ATOM      2  C   UNL     1      29.990  15.210 -16.833  1.00  0.00     0.000 C 
BRANCH   2   3
ATOM      3  C   UNL     1      30.577  15.127 -15.411  1.00  0.00     0.000 C 
BRANCH   3   4
ATOM      4  C   UNL     1      29.912  14.088 -14.486  1.00  0.00     0.000 C 
BRANCH   4   5
ATOM      5  C   UNL     1      28.800  14.643 -13.572  1.00  0.00     0.006 C 
BRANCH   5   6
ATOM      6  C   UNL     1      27.756  13.600 -13.141  1.00  0.00     0.053 C 
BRANCH   6   7
ATOM      7  C   UNL     1      27.821  13.317 -11.671  1.00  0.00     0.041 C 
ATOM      8  O   UNL     1      26.797  13.460 -10.952  1.00  0.00    -0.550 OA
ATOM      9  O   UNL     1      29.004  12.863 -11.101  1.00  0.00    -0.550 OA
ENDBRANCH   6   7
ENDBRANCH   5   6
ENDBRANCH   4   5
ENDBRANCH   3   4
ENDBRANCH   2   3
ENDBRANCH   1   2
BRANCH   1  10
ATOM     10  C   UNL     1      29.613  13.208 -18.380  1.00  0.00     0.000 C 
BRANCH  10  11
ATOM     11  C   UNL     1      30.834  12.341 -18.024  1.00  0.00    -0.000 C 
BRANCH  11  12
ATOM     12  C   UNL     1      30.439  10.956 -17.486  1.00  0.00    -0.000 C 
BRANCH  12  13
ATOM     13  C   UNL     1      30.724  10.802 -15.981  1.00  0.00    -0.000 C 
BRANCH  13  14
ATOM     14  C   UNL     1      29.515  10.256 -15.205  1.00  0.00    -0.000 C 
BRANCH  14  15
ATOM     15  C   UNL     1      29.633  10.477 -13.690  1.00  0.00    -0.003 C 
ATOM     16  C   UNL     1      29.179   9.242 -12.917  1.00  0.00     0.004 C 
ENDBRANCH  14  15
ENDBRANCH  13  14
ENDBRANCH  12  13
ENDBRANCH  11  12
ENDBRANCH  10  11
ENDBRANCH   1  10
TORSDOF 12
ENDMDL
MODEL 8
REMARK VINA RESULT:    -3.710      2.646      4.274
REMARK INTER + INTRA:          -7.823
REMARK INTER:                  -6.243
REMARK INTRA:                  -1.581
REMARK UNBOUND:                -1.511
REMARK SMILES CCCCCCCCCCCCCC(=O)[O-]
REMARK SMILES IDX 8 1 9 2 10 3 11 4 12 5 13 6 14 7 15 8 16 9 7 10 6 11 5 12
REMARK SMILES IDX 4 13 3 14 2 15 1 16
REMARK H PARENT
REMARK Flexibility Score: inf
ROOT
ATOM      1  C   UNL     1      30.239  11.301 -16.942  1.00  0.00     0.000 C 
ENDROOT
BRANCH   1   2
ATOM      2  C   UNL     1      30.206  12.688 -17.604  1.00  0.00     0.000 C 
BRANCH   2   3
ATOM      3  C   UNL     1      29.109  13.601 -17.025  1.00  0.00     0.000 C 
BRANCH   3   4
ATOM      4  C   UNL     1      29.618  14.871 -16.314  1.00  0.00     0.000 C 
BRANCH   4   5
ATOM      5  C   UNL     1      29.755  14.753 -14.782  1.00  0.00     0.006 C 
BRANCH   5   6
ATOM      6  C   UNL     1      28.536  14.129 -14.083  1.00  0.00     0.053 C 
BRANCH   6   7
ATOM      7  C   UNL     1      28.162  14.874 -12.839  1.00  0.00     0.041 C 
ATOM      8  O   UNL     1      27.886  16.101 -12.894  1.00  0.00    -0.550 OA
ATOM      9  O   UNL     1      28.083  14.204 -11.624  1.00  0.00    -0.550 OA
ENDBRANCH   6   7
ENDBRANCH   5   6
ENDBRANCH   4   5
ENDBRANCH   3   4
ENDBRANCH   2   3
ENDBRANCH   1   2
BRANCH   1  10
ATOM     10  C   UNL     1      29.094  11.100 -15.936  1.00  0.00     0.000 C 
BRANCH  10  11
ATOM     11  C   UNL     1      29.551  10.368 -14.661  1.00  0.00    -0.000 C 
BRANCH  11  12
ATOM     12  C   UNL     1      30.763  11.041 -13.995  1.00  0.00    -0.000 C 
BRANCH  12  13
ATOM     13  C   UNL     1      30.447  11.568 -12.584  1.00  0.00    -0.000 C 
BRANCH  13  14
ATOM     14  C   UNL     1      29.125  11.012 -12.030  1.00  0.00    -0.000 C 
BRANCH  14  15
ATOM     15  C   UNL     1      29.159  10.806 -10.508  1.00  0.00    -0.003 C 
ATOM     16  C   UNL     1      29.994   9.583 -10.138  1.00  0.00     0.004 C 
ENDBRANCH  14  15
ENDBRANCH  13  14
ENDBRANCH  12  13
ENDBRANCH  11  12
ENDBRANCH  10  11
ENDBRANCH   1  10
TORSDOF 12
ENDMDL
MODEL 9
REMARK VINA RESULT:    -3.673      1.541      2.278
REMARK INTER + INTRA:          -7.761
REMARK INTER:                  -6.590
REMARK INTRA:                  -1.171
REMARK UNBOUND:                -1.511
REMARK SMILES CCCCCCCCCCCCCC(=O)[O-]
REMARK SMILES IDX 8 1 9 2 10 3 11 4 12 5 13 6 14 7 15 8 16 9 7 10 6 11 5 12
REMARK SMILES IDX 4 13 3 14 2 15 1 16
REMARK H PARENT
REMARK Flexibility Score: inf
ROOT
ATOM      1  C   UNL     1      29.247   9.392 -13.212  1.00  0.00     0.000 C 
ENDROOT
BRANCH   1   2
ATOM      2  C   UNL     1      29.845   9.975 -14.503  1.00  0.00     0.000 C 
BRANCH   2   3
ATOM      3  C   UNL     1      30.186  11.472 -14.380  1.00  0.00     0.000 C 
BRANCH   3   4
ATOM      4  C   UNL     1      29.005  12.436 -14.610  1.00  0.00     0.000 C 
BRANCH   4   5
ATOM      5  C   UNL     1      28.455  12.466 -16.050  1.00  0.00     0.006 C 
BRANCH   5   6
ATOM      6  C   UNL     1      29.535  12.564 -17.139  1.00  0.00     0.053 C 
BRANCH   6   7
ATOM      7  C   UNL     1      29.922  13.983 -17.419  1.00  0.00     0.041 C 
ATOM      8  O   UNL     1      29.209  14.698 -18.171  1.00  0.00    -0.550 OA
ATOM      9  O   UNL     1      31.052  14.528 -16.821  1.00  0.00    -0.550 OA
ENDBRANCH   6   7
ENDBRANCH   5   6
ENDBRANCH   4   5
ENDBRANCH   3   4
ENDBRANCH   2   3
ENDBRANCH   1   2
BRANCH   1  10
ATOM     10  C   UNL     1      30.305   9.169 -12.119  1.00  0.00     0.000 C 
BRANCH  10  11
ATOM     11  C   UNL     1      29.766   9.464 -10.708  1.00  0.00    -0.000 C 
BRANCH  11  12
ATOM     12  C   UNL     1      29.557  10.967 -10.457  1.00  0.00    -0.000 C 
BRANCH  12  13
ATOM     13  C   UNL     1      28.069  11.357 -10.411  1.00  0.00    -0.000 C 
BRANCH  13  14
ATOM     14  C   UNL     1      27.743  12.549 -11.325  1.00  0.00    -0.000 C 
BRANCH  14  15
ATOM     15  C   UNL     1      26.278  12.999 -11.215  1.00  0.00    -0.003 C 
ATOM     16  C   UNL     1      26.059  14.333 -11.922  1.00  0.00     0.004 C 
ENDBRANCH  14  15
ENDBRANCH  13  14
ENDBRANCH  12  13
ENDBRANCH  11  12
ENDBRANCH  10  11
ENDBRANCH   1  10
TORSDOF 12
ENDMDL
