MODEL 1
REMARK VINA RESULT:    -5.338      0.000      0.000
REMARK INTER + INTRA:          -5.338
REMARK INTER:                  -5.338
REMARK INTRA:                   0.000
REMARK UNBOUND:                 0.000
REMARK SMILES CC(C)=C1CC[C@@H](C)CC1=O
REMARK SMILES IDX 8 1 7 2 6 3 5 4 4 5 2 6 1 7 3 8 10 9 11 10 9 11
REMARK H PARENT
REMARK Flexibility Score: inf
ROOT
ATOM      1  C   UNL     1       6.911  -0.102  46.819  1.00  0.00     0.008 C 
ATOM      2  C   UNL     1       7.188  -1.121  47.931  1.00  0.00    -0.006 C 
ATOM      3  C   UNL     1       8.129  -2.227  47.428  1.00  0.00     0.008 C 
ATOM      4  C   UNL     1       8.501  -3.199  48.556  1.00  0.00     0.039 C 
ATOM      5  C   UNL     1       7.277  -3.753  49.275  1.00  0.00    -0.006 C 
ATOM      6  C   UNL     1       7.277  -5.010  49.809  1.00  0.00    -0.070 C 
ATOM      7  C   UNL     1       8.496  -5.898  49.724  1.00  0.00     0.039 C 
ATOM      8  C   UNL     1       6.050  -5.591  50.475  1.00  0.00     0.039 C 
ATOM      9  C   UNL     1       6.139  -2.803  49.459  1.00  0.00     0.159 C 
ATOM     10  O   UNL     1       5.386  -2.871  50.467  1.00  0.00    -0.295 OA
ATOM     11  C   UNL     1       5.876  -1.737  48.435  1.00  0.00     0.084 C 
ENDROOT
TORSDOF 0
ENDMDL
MODEL 2
REMARK VINA RESULT:    -5.055      1.653      2.481
REMARK INTER + INTRA:          -5.055
REMARK INTER:                  -5.055
REMARK INTRA:                   0.000
REMARK UNBOUND:                 0.000
REMARK SMILES CC(C)=C1CC[C@@H](C)CC1=O
REMARK SMILES IDX 8 1 7 2 6 3 5 4 4 5 2 6 1 7 3 8 10 9 11 10 9 11
REMARK H PARENT
REMARK Flexibility Score: inf
ROOT
ATOM      1  C   UNL     1       7.041  -0.016  46.794  1.00  0.00     0.008 C 
ATOM      2  C   UNL     1       6.716  -1.445  47.242  1.00  0.00    -0.006 C 
ATOM      3  C   UNL     1       5.201  -1.623  47.427  1.00  0.00     0.008 C 
ATOM      4  C   UNL     1       4.848  -3.075  47.775  1.00  0.00     0.039 C 
ATOM      5  C   UNL     1       5.648  -3.604  48.958  1.00  0.00    -0.006 C 
ATOM      6  C   UNL     1       5.121  -4.525  49.817  1.00  0.00    -0.070 C 
ATOM      7  C   UNL     1       3.727  -5.073  49.618  1.00  0.00     0.039 C 
ATOM      8  C   UNL     1       5.885  -5.015  51.026  1.00  0.00     0.039 C 
ATOM      9  C   UNL     1       7.067  -3.143  49.048  1.00  0.00     0.159 C 
ATOM     10  O   UNL     1       7.965  -3.882  49.532  1.00  0.00    -0.295 OA
ATOM     11  C   UNL     1       7.448  -1.780  48.549  1.00  0.00     0.084 C 
ENDROOT
TORSDOF 0
ENDMDL
MODEL 3
REMARK VINA RESULT:    -5.020      1.792      4.348
REMARK INTER + INTRA:          -5.020
REMARK INTER:                  -5.020
REMARK INTRA:                   0.000
REMARK UNBOUND:                 0.000
REMARK SMILES CC(C)=C1CC[C@@H](C)CC1=O
REMARK SMILES IDX 8 1 7 2 6 3 5 4 4 5 2 6 1 7 3 8 10 9 11 10 9 11
REMARK H PARENT
REMARK Flexibility Score: inf
ROOT
ATOM      1  C   UNL     1       8.490  -6.033  49.657  1.00  0.00     0.008 C 
ATOM      2  C   UNL     1       7.456  -5.034  49.124  1.00  0.00    -0.006 C 
ATOM      3  C   UNL     1       7.170  -5.294  47.636  1.00  0.00     0.008 C 
ATOM      4  C   UNL     1       6.062  -4.372  47.111  1.00  0.00     0.039 C 
ATOM      5  C   UNL     1       6.336  -2.903  47.407  1.00  0.00    -0.006 C 
ATOM      6  C   UNL     1       5.911  -1.918  46.562  1.00  0.00    -0.070 C 
ATOM      7  C   UNL     1       5.134  -2.243  45.307  1.00  0.00     0.039 C 
ATOM      8  C   UNL     1       6.226  -0.461  46.816  1.00  0.00     0.039 C 
ATOM      9  C   UNL     1       6.986  -2.609  48.719  1.00  0.00     0.159 C 
ATOM     10  O   UNL     1       6.742  -1.544  49.347  1.00  0.00    -0.295 OA
ATOM     11  C   UNL     1       7.947  -3.593  49.320  1.00  0.00     0.084 C 
ENDROOT
TORSDOF 0
ENDMDL
MODEL 4
REMARK VINA RESULT:    -5.020      1.530      2.418
REMARK INTER + INTRA:          -5.020
REMARK INTER:                  -5.020
REMARK INTRA:                   0.000
REMARK UNBOUND:                 0.000
REMARK SMILES CC(C)=C1CC[C@@H](C)CC1=O
REMARK SMILES IDX 8 1 7 2 6 3 5 4 4 5 2 6 1 7 3 8 10 9 11 10 9 11
REMARK H PARENT
REMARK Flexibility Score: inf
ROOT
ATOM      1  C   UNL     1       7.052  -0.054  46.806  1.00  0.00     0.008 C 
ATOM      2  C   UNL     1       6.717  -1.486  47.241  1.00  0.00    -0.006 C 
ATOM      3  C   UNL     1       5.898  -1.478  48.541  1.00  0.00     0.008 C 
ATOM      4  C   UNL     1       5.465  -2.896  48.937  1.00  0.00     0.039 C 
ATOM      5  C   UNL     1       6.635  -3.870  48.989  1.00  0.00    -0.006 C 
ATOM      6  C   UNL     1       6.650  -4.915  49.868  1.00  0.00    -0.070 C 
ATOM      7  C   UNL     1       5.497  -5.159  50.814  1.00  0.00     0.039 C 
ATOM      8  C   UNL     1       7.830  -5.854  49.967  1.00  0.00     0.039 C 
ATOM      9  C   UNL     1       7.693  -3.679  47.952  1.00  0.00     0.159 C 
ATOM     10  O   UNL     1       8.338  -4.657  47.487  1.00  0.00    -0.295 OA
ATOM     11  C   UNL     1       8.002  -2.304  47.436  1.00  0.00     0.084 C 
ENDROOT
TORSDOF 0
ENDMDL
MODEL 5
REMARK VINA RESULT:    -5.012      1.944      4.504
REMARK INTER + INTRA:          -5.012
REMARK INTER:                  -5.012
REMARK INTRA:                   0.000
REMARK UNBOUND:                 0.000
REMARK SMILES CC(C)=C1CC[C@@H](C)CC1=O
REMARK SMILES IDX 8 1 7 2 6 3 5 4 4 5 2 6 1 7 3 8 10 9 11 10 9 11
REMARK H PARENT
REMARK Flexibility Score: inf
ROOT
ATOM      1  C   UNL     1       5.859  -4.949  51.151  1.00  0.00     0.008 C 
ATOM      2  C   UNL     1       6.291  -4.210  49.879  1.00  0.00    -0.006 C 
ATOM      3  C   UNL     1       6.449  -2.706  50.154  1.00  0.00     0.008 C 
ATOM      4  C   UNL     1       6.981  -1.966  48.919  1.00  0.00     0.039 C 
ATOM      5  C   UNL     1       6.157  -2.250  47.669  1.00  0.00    -0.006 C 
ATOM      6  C   UNL     1       6.005  -1.309  46.691  1.00  0.00    -0.070 C 
ATOM      7  C   UNL     1       6.663   0.047  46.799  1.00  0.00     0.039 C 
ATOM      8  C   UNL     1       5.145  -1.558  45.473  1.00  0.00     0.039 C 
ATOM      9  C   UNL     1       5.633  -3.642  47.531  1.00  0.00     0.159 C 
ATOM     10  O   UNL     1       5.491  -4.178  46.400  1.00  0.00    -0.295 OA
ATOM     11  C   UNL     1       5.271  -4.434  48.754  1.00  0.00     0.084 C 
ENDROOT
TORSDOF 0
ENDMDL
MODEL 6
REMARK VINA RESULT:    -4.980      1.894      2.553
REMARK INTER + INTRA:          -4.980
REMARK INTER:                  -4.980
REMARK INTRA:                   0.000
REMARK UNBOUND:                 0.000
REMARK SMILES CC(C)=C1CC[C@@H](C)CC1=O
REMARK SMILES IDX 8 1 7 2 6 3 5 4 4 5 2 6 1 7 3 8 10 9 11 10 9 11
REMARK H PARENT
REMARK Flexibility Score: inf
ROOT
ATOM      1  C   UNL     1       4.762  -1.917  45.146  1.00  0.00     0.008 C 
ATOM      2  C   UNL     1       5.556  -2.157  46.436  1.00  0.00    -0.006 C 
ATOM      3  C   UNL     1       6.950  -1.516  46.341  1.00  0.00     0.008 C 
ATOM      4  C   UNL     1       7.720  -1.656  47.660  1.00  0.00     0.039 C 
ATOM      5  C   UNL     1       7.770  -3.096  48.157  1.00  0.00    -0.006 C 
ATOM      6  C   UNL     1       8.839  -3.565  48.864  1.00  0.00    -0.070 C 
ATOM      7  C   UNL     1      10.011  -2.672  49.200  1.00  0.00     0.039 C 
ATOM      8  C   UNL     1       8.925  -5.006  49.314  1.00  0.00     0.039 C 
ATOM      9  C   UNL     1       6.540  -3.912  47.925  1.00  0.00     0.159 C 
ATOM     10  O   UNL     1       6.192  -4.815  48.732  1.00  0.00    -0.295 OA
ATOM     11  C   UNL     1       5.687  -3.661  46.716  1.00  0.00     0.084 C 
ENDROOT
TORSDOF 0
ENDMDL
MODEL 7
REMARK VINA RESULT:    -4.924      1.776      4.025
REMARK INTER + INTRA:          -4.924
REMARK INTER:                  -4.924
REMARK INTRA:                   0.000
REMARK UNBOUND:                 0.000
REMARK SMILES CC(C)=C1CC[C@@H](C)CC1=O
REMARK SMILES IDX 8 1 7 2 6 3 5 4 4 5 2 6 1 7 3 8 10 9 11 10 9 11
REMARK H PARENT
REMARK Flexibility Score: inf
ROOT
ATOM      1  C   UNL     1       3.779  -5.368  50.161  1.00  0.00     0.008 C 
ATOM      2  C   UNL     1       4.875  -4.798  49.253  1.00  0.00    -0.006 C 
ATOM      3  C   UNL     1       6.188  -4.624  50.034  1.00  0.00     0.008 C 
ATOM      4  C   UNL     1       7.324  -4.152  49.118  1.00  0.00     0.039 C 
ATOM      5  C   UNL     1       6.951  -2.911  48.317  1.00  0.00    -0.006 C 
ATOM      6  C   UNL     1       7.889  -1.982  47.971  1.00  0.00    -0.070 C 
ATOM      7  C   UNL     1       9.342  -2.154  48.351  1.00  0.00     0.039 C 
ATOM      8  C   UNL     1       7.521  -0.719  47.226  1.00  0.00     0.039 C 
ATOM      9  C   UNL     1       5.536  -2.838  47.843  1.00  0.00     0.159 C 
ATOM     10  O   UNL     1       5.238  -2.271  46.757  1.00  0.00    -0.295 OA
ATOM     11  C   UNL     1       4.436  -3.452  48.659  1.00  0.00     0.084 C 
ENDROOT
TORSDOF 0
ENDMDL
MODEL 8
REMARK VINA RESULT:    -4.790      1.649      4.287
REMARK INTER + INTRA:          -4.790
REMARK INTER:                  -4.790
REMARK INTRA:                   0.000
REMARK UNBOUND:                 0.000
REMARK SMILES CC(C)=C1CC[C@@H](C)CC1=O
REMARK SMILES IDX 8 1 7 2 6 3 5 4 4 5 2 6 1 7 3 8 10 9 11 10 9 11
REMARK H PARENT
REMARK Flexibility Score: inf
ROOT
ATOM      1  C   UNL     1       3.743  -5.626  50.123  1.00  0.00     0.008 C 
ATOM      2  C   UNL     1       4.848  -4.577  49.949  1.00  0.00    -0.006 C 
ATOM      3  C   UNL     1       4.418  -3.501  48.939  1.00  0.00     0.008 C 
ATOM      4  C   UNL     1       5.468  -2.387  48.830  1.00  0.00     0.039 C 
ATOM      5  C   UNL     1       6.865  -2.928  48.551  1.00  0.00    -0.006 C 
ATOM      6  C   UNL     1       7.767  -2.214  47.815  1.00  0.00    -0.070 C 
ATOM      7  C   UNL     1       7.425  -0.850  47.263  1.00  0.00     0.039 C 
ATOM      8  C   UNL     1       9.136  -2.764  47.484  1.00  0.00     0.039 C 
ATOM      9  C   UNL     1       7.216  -4.215  49.222  1.00  0.00     0.159 C 
ATOM     10  O   UNL     1       8.397  -4.464  49.583  1.00  0.00    -0.295 OA
ATOM     11  C   UNL     1       6.152  -5.241  49.485  1.00  0.00     0.084 C 
ENDROOT
TORSDOF 0
ENDMDL
MODEL 9
REMARK VINA RESULT:    -4.686      7.899      8.952
REMARK INTER + INTRA:          -4.686
REMARK INTER:                  -4.686
REMARK INTRA:                   0.000
REMARK UNBOUND:                 0.000
REMARK SMILES CC(C)=C1CC[C@@H](C)CC1=O
REMARK SMILES IDX 8 1 7 2 6 3 5 4 4 5 2 6 1 7 3 8 10 9 11 10 9 11
REMARK H PARENT
REMARK Flexibility Score: inf
ROOT
ATOM      1  C   UNL     1      11.870   2.823  56.125  1.00  0.00     0.008 C 
ATOM      2  C   UNL     1      10.790   2.816  55.037  1.00  0.00    -0.006 C 
ATOM      3  C   UNL     1      10.105   4.189  54.946  1.00  0.00     0.008 C 
ATOM      4  C   UNL     1       9.092   4.233  53.794  1.00  0.00     0.039 C 
ATOM      5  C   UNL     1       8.095   3.083  53.850  1.00  0.00    -0.006 C 
ATOM      6  C   UNL     1       6.815   3.232  53.397  1.00  0.00    -0.070 C 
ATOM      7  C   UNL     1       6.340   4.539  52.806  1.00  0.00     0.039 C 
ATOM      8  C   UNL     1       5.800   2.116  53.499  1.00  0.00     0.039 C 
ATOM      9  C   UNL     1       8.633   1.769  54.314  1.00  0.00     0.159 C 
ATOM     10  O   UNL     1       8.175   0.681  53.874  1.00  0.00    -0.295 OA
ATOM     11  C   UNL     1       9.746   1.726  55.321  1.00  0.00     0.084 C 
ENDROOT
TORSDOF 0
ENDMDL
