MODEL 1
REMARK VINA RESULT:    -3.122      0.000      0.000
REMARK INTER + INTRA:          -9.934
REMARK INTER:                  -8.233
REMARK INTRA:                  -1.702
REMARK UNBOUND:                -1.702
REMARK SMILES CCCCCCCCCCCCCCCCCCCCCCCCCCCCCC(=O)[O-]
REMARK SMILES IDX 16 1 17 2 18 3 19 4 20 5 21 6 22 7 23 8 24 9 25 10 26 11
REMARK SMILES IDX 27 12 28 13 29 14 30 15 31 16 32 17 15 18 14 19 13 20 12 21
REMARK SMILES IDX 11 22 10 23 9 24 8 25 7 26 6 27 5 28 4 29 3 30 2 31 1 32
REMARK H PARENT
REMARK Flexibility Score: inf
ROOT
ATOM      1  C   UNL     1     -44.979 -34.277  20.977  1.00  0.00     0.000 C 
ENDROOT
BRANCH   1   2
ATOM      2  C   UNL     1     -45.486 -33.604  22.268  1.00  0.00     0.000 C 
BRANCH   2   3
ATOM      3  C   UNL     1     -44.783 -34.088  23.551  1.00  0.00     0.000 C 
BRANCH   3   4
ATOM      4  C   UNL     1     -44.725 -33.005  24.641  1.00  0.00     0.000 C 
BRANCH   4   5
ATOM      5  C   UNL     1     -43.376 -32.983  25.377  1.00  0.00     0.000 C 
BRANCH   5   6
ATOM      6  C   UNL     1     -43.529 -32.901  26.904  1.00  0.00     0.000 C 
BRANCH   6   7
ATOM      7  C   UNL     1     -43.046 -34.200  27.566  1.00  0.00     0.000 C 
BRANCH   7   8
ATOM      8  C   UNL     1     -42.223 -33.945  28.840  1.00  0.00     0.000 C 
BRANCH   8   9
ATOM      9  C   UNL     1     -41.498 -32.587  28.813  1.00  0.00     0.000 C 
BRANCH   9  10
ATOM     10  C   UNL     1     -39.998 -32.713  29.122  1.00  0.00     0.000 C 
BRANCH  10  11
ATOM     11  C   UNL     1     -39.121 -31.877  28.174  1.00  0.00     0.000 C 
BRANCH  11  12
ATOM     12  C   UNL     1     -39.242 -32.347  26.708  1.00  0.00     0.000 C 
BRANCH  12  13
ATOM     13  C   UNL     1     -37.988 -32.067  25.863  1.00  0.00     0.006 C 
BRANCH  13  14
ATOM     14  C   UNL     1     -37.740 -33.134  24.789  1.00  0.00     0.053 C 
BRANCH  14  15
ATOM     15  C   UNL     1     -37.124 -32.522  23.570  1.00  0.00     0.041 C 
ATOM     16  O   UNL     1     -37.803 -32.387  22.519  1.00  0.00    -0.550 OA
ATOM     17  O   UNL     1     -35.804 -32.088  23.597  1.00  0.00    -0.550 OA
ENDBRANCH  14  15
ENDBRANCH  13  14
ENDBRANCH  12  13
ENDBRANCH  11  12
ENDBRANCH  10  11
ENDBRANCH   9  10
ENDBRANCH   8   9
ENDBRANCH   7   8
ENDBRANCH   6   7
ENDBRANCH   5   6
ENDBRANCH   4   5
ENDBRANCH   3   4
ENDBRANCH   2   3
ENDBRANCH   1   2
BRANCH   1  18
ATOM     18  C   UNL     1     -46.125 -34.759  20.071  1.00  0.00     0.000 C 
BRANCH  18  19
ATOM     19  C   UNL     1     -45.772 -36.039  19.297  1.00  0.00     0.000 C 
BRANCH  19  20
ATOM     20  C   UNL     1     -44.308 -36.064  18.826  1.00  0.00     0.000 C 
BRANCH  20  21
ATOM     21  C   UNL     1     -43.963 -37.330  18.024  1.00  0.00     0.000 C 
BRANCH  21  22
ATOM     22  C   UNL     1     -45.108 -38.353  17.873  1.00  0.00     0.000 C 
BRANCH  22  23
ATOM     23  C   UNL     1     -46.113 -38.021  16.750  1.00  0.00     0.000 C 
BRANCH  23  24
ATOM     24  C   UNL     1     -45.503 -38.148  15.341  1.00  0.00    -0.000 C 
BRANCH  24  25
ATOM     25  C   UNL     1     -46.090 -37.127  14.352  1.00  0.00    -0.000 C 
BRANCH  25  26
ATOM     26  C   UNL     1     -45.404 -37.174  12.975  1.00  0.00    -0.000 C 
BRANCH  26  27
ATOM     27  C   UNL     1     -44.892 -35.799  12.517  1.00  0.00    -0.000 C 
BRANCH  27  28
ATOM     28  C   UNL     1     -46.000 -34.930  11.895  1.00  0.00    -0.000 C 
BRANCH  28  29
ATOM     29  C   UNL     1     -46.095 -33.523  12.520  1.00  0.00    -0.000 C 
BRANCH  29  30
ATOM     30  C   UNL     1     -45.335 -33.371  13.854  1.00  0.00    -0.000 C 
BRANCH  30  31
ATOM     31  C   UNL     1     -45.895 -32.252  14.748  1.00  0.00    -0.003 C 
ATOM     32  C   UNL     1     -46.016 -32.713  16.198  1.00  0.00     0.004 C 
ENDBRANCH  30  31
ENDBRANCH  29  30
ENDBRANCH  28  29
ENDBRANCH  27  28
ENDBRANCH  26  27
ENDBRANCH  25  26
ENDBRANCH  24  25
ENDBRANCH  23  24
ENDBRANCH  22  23
ENDBRANCH  21  22
ENDBRANCH  20  21
ENDBRANCH  19  20
ENDBRANCH  18  19
ENDBRANCH   1  18
TORSDOF 28
ENDMDL
MODEL 2
REMARK VINA RESULT:    -2.985      3.125     12.598
REMARK INTER + INTRA:          -9.572
REMARK INTER:                  -8.397
REMARK INTRA:                  -1.175
REMARK UNBOUND:                -1.702
REMARK SMILES CCCCCCCCCCCCCCCCCCCCCCCCCCCCCC(=O)[O-]
REMARK SMILES IDX 16 1 17 2 18 3 19 4 20 5 21 6 22 7 23 8 24 9 25 10 26 11
REMARK SMILES IDX 27 12 28 13 29 14 30 15 31 16 32 17 15 18 14 19 13 20 12 21
REMARK SMILES IDX 11 22 10 23 9 24 8 25 7 26 6 27 5 28 4 29 3 30 2 31 1 32
REMARK H PARENT
REMARK Flexibility Score: inf
ROOT
ATOM      1  C   UNL     1     -43.686 -35.345  19.127  1.00  0.00     0.000 C 
ENDROOT
BRANCH   1   2
ATOM      2  C   UNL     1     -44.887 -35.945  18.370  1.00  0.00     0.000 C 
BRANCH   2   3
ATOM      3  C   UNL     1     -45.955 -34.913  17.960  1.00  0.00     0.000 C 
BRANCH   3   4
ATOM      4  C   UNL     1     -45.375 -33.501  17.771  1.00  0.00     0.000 C 
BRANCH   4   5
ATOM      5  C   UNL     1     -44.889 -33.252  16.334  1.00  0.00     0.000 C 
BRANCH   5   6
ATOM      6  C   UNL     1     -46.037 -33.214  15.313  1.00  0.00     0.000 C 
BRANCH   6   7
ATOM      7  C   UNL     1     -46.047 -31.876  14.559  1.00  0.00     0.000 C 
BRANCH   7   8
ATOM      8  C   UNL     1     -45.370 -31.967  13.182  1.00  0.00     0.000 C 
BRANCH   8   9
ATOM      9  C   UNL     1     -46.119 -32.903  12.216  1.00  0.00     0.000 C 
BRANCH   9  10
ATOM     10  C   UNL     1     -46.120 -34.364  12.692  1.00  0.00     0.000 C 
BRANCH  10  11
ATOM     11  C   UNL     1     -44.934 -35.173  12.141  1.00  0.00     0.000 C 
BRANCH  11  12
ATOM     12  C   UNL     1     -44.902 -36.610  12.706  1.00  0.00     0.000 C 
BRANCH  12  13
ATOM     13  C   UNL     1     -45.162 -36.686  14.220  1.00  0.00     0.006 C 
BRANCH  13  14
ATOM     14  C   UNL     1     -45.713 -38.047  14.665  1.00  0.00     0.053 C 
BRANCH  14  15
ATOM     15  C   UNL     1     -45.225 -38.389  16.038  1.00  0.00     0.041 C 
ATOM     16  O   UNL     1     -44.031 -38.156  16.362  1.00  0.00    -0.550 OA
ATOM     17  O   UNL     1     -46.091 -38.955  16.966  1.00  0.00    -0.550 OA
ENDBRANCH  14  15
ENDBRANCH  13  14
ENDBRANCH  12  13
ENDBRANCH  11  12
ENDBRANCH  10  11
ENDBRANCH   9  10
ENDBRANCH   8   9
ENDBRANCH   7   8
ENDBRANCH   6   7
ENDBRANCH   5   6
ENDBRANCH   4   5
ENDBRANCH   3   4
ENDBRANCH   2   3
ENDBRANCH   1   2
BRANCH   1  18
ATOM     18  C   UNL     1     -43.415 -36.054  20.465  1.00  0.00     0.000 C 
BRANCH  18  19
ATOM     19  C   UNL     1     -44.186 -35.426  21.637  1.00  0.00     0.000 C 
BRANCH  19  20
ATOM     20  C   UNL     1     -45.236 -34.400  21.177  1.00  0.00     0.000 C 
BRANCH  20  21
ATOM     21  C   UNL     1     -45.313 -33.173  22.100  1.00  0.00     0.000 C 
BRANCH  21  22
ATOM     22  C   UNL     1     -45.157 -33.465  23.607  1.00  0.00     0.000 C 
BRANCH  22  23
ATOM     23  C   UNL     1     -43.957 -32.755  24.270  1.00  0.00     0.000 C 
BRANCH  23  24
ATOM     24  C   UNL     1     -44.214 -32.391  25.745  1.00  0.00    -0.000 C 
BRANCH  24  25
ATOM     25  C   UNL     1     -42.915 -32.302  26.564  1.00  0.00    -0.000 C 
BRANCH  25  26
ATOM     26  C   UNL     1     -42.742 -33.486  27.532  1.00  0.00    -0.000 C 
BRANCH  26  27
ATOM     27  C   UNL     1     -41.558 -33.300  28.495  1.00  0.00    -0.000 C 
BRANCH  27  28
ATOM     28  C   UNL     1     -40.894 -31.919  28.359  1.00  0.00    -0.000 C 
BRANCH  28  29
ATOM     29  C   UNL     1     -39.383 -31.936  28.670  1.00  0.00    -0.000 C 
BRANCH  29  30
ATOM     30  C   UNL     1     -38.493 -32.297  27.465  1.00  0.00    -0.000 C 
BRANCH  30  31
ATOM     31  C   UNL     1     -37.899 -33.713  27.550  1.00  0.00    -0.003 C 
ATOM     32  C   UNL     1     -37.884 -34.389  26.181  1.00  0.00     0.004 C 
ENDBRANCH  30  31
ENDBRANCH  29  30
ENDBRANCH  28  29
ENDBRANCH  27  28
ENDBRANCH  26  27
ENDBRANCH  25  26
ENDBRANCH  24  25
ENDBRANCH  23  24
ENDBRANCH  22  23
ENDBRANCH  21  22
ENDBRANCH  20  21
ENDBRANCH  19  20
ENDBRANCH  18  19
ENDBRANCH   1  18
TORSDOF 28
ENDMDL
MODEL 3
REMARK VINA RESULT:    -2.975      3.476     12.655
REMARK INTER + INTRA:          -9.545
REMARK INTER:                  -7.735
REMARK INTRA:                  -1.810
REMARK UNBOUND:                -1.702
REMARK SMILES CCCCCCCCCCCCCCCCCCCCCCCCCCCCCC(=O)[O-]
REMARK SMILES IDX 16 1 17 2 18 3 19 4 20 5 21 6 22 7 23 8 24 9 25 10 26 11
REMARK SMILES IDX 27 12 28 13 29 14 30 15 31 16 32 17 15 18 14 19 13 20 12 21
REMARK SMILES IDX 11 22 10 23 9 24 8 25 7 26 6 27 5 28 4 29 3 30 2 31 1 32
REMARK H PARENT
REMARK Flexibility Score: inf
ROOT
ATOM      1  C   UNL     1     -43.832 -35.177  20.976  1.00  0.00     0.000 C 
ENDROOT
BRANCH   1   2
ATOM      2  C   UNL     1     -44.348 -36.601  20.695  1.00  0.00     0.000 C 
BRANCH   2   3
ATOM      3  C   UNL     1     -44.216 -37.042  19.224  1.00  0.00     0.000 C 
BRANCH   3   4
ATOM      4  C   UNL     1     -45.498 -36.791  18.411  1.00  0.00     0.000 C 
BRANCH   4   5
ATOM      5  C   UNL     1     -45.825 -35.295  18.275  1.00  0.00     0.000 C 
BRANCH   5   6
ATOM      6  C   UNL     1     -46.043 -34.861  16.817  1.00  0.00     0.000 C 
BRANCH   6   7
ATOM      7  C   UNL     1     -45.228 -33.598  16.502  1.00  0.00     0.000 C 
BRANCH   7   8
ATOM      8  C   UNL     1     -46.069 -32.505  15.823  1.00  0.00     0.000 C 
BRANCH   8   9
ATOM      9  C   UNL     1     -45.420 -31.976  14.530  1.00  0.00     0.000 C 
BRANCH   9  10
ATOM     10  C   UNL     1     -46.015 -32.617  13.267  1.00  0.00     0.000 C 
BRANCH  10  11
ATOM     11  C   UNL     1     -45.282 -33.902  12.847  1.00  0.00     0.000 C 
BRANCH  11  12
ATOM     12  C   UNL     1     -46.038 -34.662  11.735  1.00  0.00     0.000 C 
BRANCH  12  13
ATOM     13  C   UNL     1     -46.125 -36.179  11.970  1.00  0.00     0.006 C 
BRANCH  13  14
ATOM     14  C   UNL     1     -45.870 -36.574  13.430  1.00  0.00     0.053 C 
BRANCH  14  15
ATOM     15  C   UNL     1     -45.186 -37.903  13.505  1.00  0.00     0.041 C 
ATOM     16  O   UNL     1     -44.189 -38.060  14.257  1.00  0.00    -0.550 OA
ATOM     17  O   UNL     1     -45.657 -38.974  12.754  1.00  0.00    -0.550 OA
ENDBRANCH  14  15
ENDBRANCH  13  14
ENDBRANCH  12  13
ENDBRANCH  11  12
ENDBRANCH  10  11
ENDBRANCH   9  10
ENDBRANCH   8   9
ENDBRANCH   7   8
ENDBRANCH   6   7
ENDBRANCH   5   6
ENDBRANCH   4   5
ENDBRANCH   3   4
ENDBRANCH   2   3
ENDBRANCH   1   2
BRANCH   1  18
ATOM     18  C   UNL     1     -44.797 -34.360  21.853  1.00  0.00     0.000 C 
BRANCH  18  19
ATOM     19  C   UNL     1     -44.529 -34.536  23.355  1.00  0.00     0.000 C 
BRANCH  19  20
ATOM     20  C   UNL     1     -44.886 -33.284  24.174  1.00  0.00     0.000 C 
BRANCH  20  21
ATOM     21  C   UNL     1     -45.941 -33.563  25.258  1.00  0.00     0.000 C 
BRANCH  21  22
ATOM     22  C   UNL     1     -45.401 -33.663  26.700  1.00  0.00     0.000 C 
BRANCH  22  23
ATOM     23  C   UNL     1     -45.400 -32.327  27.472  1.00  0.00     0.000 C 
BRANCH  23  24
ATOM     24  C   UNL     1     -43.988 -31.881  27.898  1.00  0.00    -0.000 C 
BRANCH  24  25
ATOM     25  C   UNL     1     -42.941 -32.992  27.718  1.00  0.00    -0.000 C 
BRANCH  25  26
ATOM     26  C   UNL     1     -41.870 -32.981  28.823  1.00  0.00    -0.000 C 
BRANCH  26  27
ATOM     27  C   UNL     1     -40.795 -31.905  28.601  1.00  0.00    -0.000 C 
BRANCH  27  28
ATOM     28  C   UNL     1     -39.457 -32.493  28.119  1.00  0.00    -0.000 C 
BRANCH  28  29
ATOM     29  C   UNL     1     -39.540 -33.127  26.715  1.00  0.00    -0.000 C 
BRANCH  29  30
ATOM     30  C   UNL     1     -38.192 -33.642  26.173  1.00  0.00    -0.000 C 
BRANCH  30  31
ATOM     31  C   UNL     1     -37.985 -33.347  24.678  1.00  0.00    -0.003 C 
ATOM     32  C   UNL     1     -38.632 -32.022  24.282  1.00  0.00     0.004 C 
ENDBRANCH  30  31
ENDBRANCH  29  30
ENDBRANCH  28  29
ENDBRANCH  27  28
ENDBRANCH  26  27
ENDBRANCH  25  26
ENDBRANCH  24  25
ENDBRANCH  23  24
ENDBRANCH  22  23
ENDBRANCH  21  22
ENDBRANCH  20  21
ENDBRANCH  19  20
ENDBRANCH  18  19
ENDBRANCH   1  18
TORSDOF 28
ENDMDL
MODEL 4
REMARK VINA RESULT:    -2.971      1.453      3.141
REMARK INTER + INTRA:          -9.536
REMARK INTER:                  -6.975
REMARK INTRA:                  -2.561
REMARK UNBOUND:                -1.702
REMARK SMILES CCCCCCCCCCCCCCCCCCCCCCCCCCCCCC(=O)[O-]
REMARK SMILES IDX 16 1 17 2 18 3 19 4 20 5 21 6 22 7 23 8 24 9 25 10 26 11
REMARK SMILES IDX 27 12 28 13 29 14 30 15 31 16 32 17 15 18 14 19 13 20 12 21
REMARK SMILES IDX 11 22 10 23 9 24 8 25 7 26 6 27 5 28 4 29 3 30 2 31 1 32
REMARK H PARENT
REMARK Flexibility Score: inf
ROOT
ATOM      1  C   UNL     1     -42.807 -35.256  20.856  1.00  0.00     0.000 C 
ENDROOT
BRANCH   1   2
ATOM      2  C   UNL     1     -43.873 -35.381  21.961  1.00  0.00     0.000 C 
BRANCH   2   3
ATOM      3  C   UNL     1     -45.024 -34.362  21.848  1.00  0.00     0.000 C 
BRANCH   3   4
ATOM      4  C   UNL     1     -46.125 -34.590  22.897  1.00  0.00     0.000 C 
BRANCH   4   5
ATOM      5  C   UNL     1     -45.939 -33.712  24.145  1.00  0.00     0.000 C 
BRANCH   5   6
ATOM      6  C   UNL     1     -44.920 -32.580  23.934  1.00  0.00     0.000 C 
BRANCH   6   7
ATOM      7  C   UNL     1     -43.744 -32.722  24.912  1.00  0.00     0.000 C 
BRANCH   7   8
ATOM      8  C   UNL     1     -44.102 -33.559  26.151  1.00  0.00     0.000 C 
BRANCH   8   9
ATOM      9  C   UNL     1     -44.223 -32.706  27.427  1.00  0.00     0.000 C 
BRANCH   9  10
ATOM     10  C   UNL     1     -42.961 -31.875  27.702  1.00  0.00     0.000 C 
BRANCH  10  11
ATOM     11  C   UNL     1     -41.767 -32.734  28.154  1.00  0.00     0.000 C 
BRANCH  11  12
ATOM     12  C   UNL     1     -40.415 -32.085  27.784  1.00  0.00     0.000 C 
BRANCH  12  13
ATOM     13  C   UNL     1     -40.205 -31.913  26.271  1.00  0.00     0.006 C 
BRANCH  13  14
ATOM     14  C   UNL     1     -38.729 -31.980  25.860  1.00  0.00     0.053 C 
BRANCH  14  15
ATOM     15  C   UNL     1     -38.434 -33.271  25.161  1.00  0.00     0.041 C 
ATOM     16  O   UNL     1     -38.182 -34.308  25.829  1.00  0.00    -0.550 OA
ATOM     17  O   UNL     1     -38.451 -33.333  23.773  1.00  0.00    -0.550 OA
ENDBRANCH  14  15
ENDBRANCH  13  14
ENDBRANCH  12  13
ENDBRANCH  11  12
ENDBRANCH  10  11
ENDBRANCH   9  10
ENDBRANCH   8   9
ENDBRANCH   7   8
ENDBRANCH   6   7
ENDBRANCH   5   6
ENDBRANCH   4   5
ENDBRANCH   3   4
ENDBRANCH   2   3
ENDBRANCH   1   2
BRANCH   1  18
ATOM     18  C   UNL     1     -42.972 -36.314  19.751  1.00  0.00     0.000 C 
BRANCH  18  19
ATOM     19  C   UNL     1     -44.419 -36.813  19.617  1.00  0.00     0.000 C 
BRANCH  19  20
ATOM     20  C   UNL     1     -44.619 -37.744  18.409  1.00  0.00     0.000 C 
BRANCH  20  21
ATOM     21  C   UNL     1     -46.003 -37.587  17.760  1.00  0.00     0.000 C 
BRANCH  21  22
ATOM     22  C   UNL     1     -46.084 -36.569  16.604  1.00  0.00     0.000 C 
BRANCH  22  23
ATOM     23  C   UNL     1     -45.836 -35.105  17.028  1.00  0.00     0.000 C 
BRANCH  23  24
ATOM     24  C   UNL     1     -44.638 -34.464  16.304  1.00  0.00    -0.000 C 
BRANCH  24  25
ATOM     25  C   UNL     1     -44.785 -32.940  16.158  1.00  0.00    -0.000 C 
BRANCH  25  26
ATOM     26  C   UNL     1     -45.912 -32.543  15.189  1.00  0.00    -0.000 C 
BRANCH  26  27
ATOM     27  C   UNL     1     -45.383 -32.046  13.833  1.00  0.00    -0.000 C 
BRANCH  27  28
ATOM     28  C   UNL     1     -45.896 -32.890  12.652  1.00  0.00    -0.000 C 
BRANCH  28  29
ATOM     29  C   UNL     1     -45.106 -34.200  12.450  1.00  0.00    -0.000 C 
BRANCH  29  30
ATOM     30  C   UNL     1     -45.914 -35.478  12.753  1.00  0.00    -0.000 C 
BRANCH  30  31
ATOM     31  C   UNL     1     -45.031 -36.720  12.958  1.00  0.00    -0.003 C 
ATOM     32  C   UNL     1     -45.782 -37.812  13.717  1.00  0.00     0.004 C 
ENDBRANCH  30  31
ENDBRANCH  29  30
ENDBRANCH  28  29
ENDBRANCH  27  28
ENDBRANCH  26  27
ENDBRANCH  25  26
ENDBRANCH  24  25
ENDBRANCH  23  24
ENDBRANCH  22  23
ENDBRANCH  21  22
ENDBRANCH  20  21
ENDBRANCH  19  20
ENDBRANCH  18  19
ENDBRANCH   1  18
TORSDOF 28
ENDMDL
MODEL 5
REMARK VINA RESULT:    -2.905      1.782      3.504
REMARK INTER + INTRA:          -9.361
REMARK INTER:                  -8.068
REMARK INTRA:                  -1.293
REMARK UNBOUND:                -1.702
REMARK SMILES CCCCCCCCCCCCCCCCCCCCCCCCCCCCCC(=O)[O-]
REMARK SMILES IDX 16 1 17 2 18 3 19 4 20 5 21 6 22 7 23 8 24 9 25 10 26 11
REMARK SMILES IDX 27 12 28 13 29 14 30 15 31 16 32 17 15 18 14 19 13 20 12 21
REMARK SMILES IDX 11 22 10 23 9 24 8 25 7 26 6 27 5 28 4 29 3 30 2 31 1 32
REMARK H PARENT
REMARK Flexibility Score: inf
ROOT
ATOM      1  C   UNL     1     -45.501 -35.246  18.947  1.00  0.00     0.000 C 
ENDROOT
BRANCH   1   2
ATOM      2  C   UNL     1     -45.817 -36.159  20.147  1.00  0.00     0.000 C 
BRANCH   2   3
ATOM      3  C   UNL     1     -45.918 -35.420  21.495  1.00  0.00     0.000 C 
BRANCH   3   4
ATOM      4  C   UNL     1     -45.411 -33.970  21.416  1.00  0.00     0.000 C 
BRANCH   4   5
ATOM      5  C   UNL     1     -44.673 -33.535  22.693  1.00  0.00     0.000 C 
BRANCH   5   6
ATOM      6  C   UNL     1     -45.611 -32.924  23.747  1.00  0.00     0.000 C 
BRANCH   6   7
ATOM      7  C   UNL     1     -45.852 -33.915  24.895  1.00  0.00     0.000 C 
BRANCH   7   8
ATOM      8  C   UNL     1     -46.041 -33.215  26.251  1.00  0.00     0.000 C 
BRANCH   8   9
ATOM      9  C   UNL     1     -44.711 -33.004  26.998  1.00  0.00     0.000 C 
BRANCH   9  10
ATOM     10  C   UNL     1     -44.444 -34.094  28.047  1.00  0.00     0.000 C 
BRANCH  10  11
ATOM     11  C   UNL     1     -43.025 -34.021  28.637  1.00  0.00     0.000 C 
BRANCH  11  12
ATOM     12  C   UNL     1     -42.578 -32.565  28.891  1.00  0.00     0.000 C 
BRANCH  12  13
ATOM     13  C   UNL     1     -41.270 -32.186  28.179  1.00  0.00     0.006 C 
BRANCH  13  14
ATOM     14  C   UNL     1     -40.083 -33.063  28.598  1.00  0.00     0.053 C 
BRANCH  14  15
ATOM     15  C   UNL     1     -39.053 -33.111  27.514  1.00  0.00     0.041 C 
ATOM     16  O   UNL     1     -39.231 -32.472  26.444  1.00  0.00    -0.550 OA
ATOM     17  O   UNL     1     -37.889 -33.849  27.688  1.00  0.00    -0.550 OA
ENDBRANCH  14  15
ENDBRANCH  13  14
ENDBRANCH  12  13
ENDBRANCH  11  12
ENDBRANCH  10  11
ENDBRANCH   9  10
ENDBRANCH   8   9
ENDBRANCH   7   8
ENDBRANCH   6   7
ENDBRANCH   5   6
ENDBRANCH   4   5
ENDBRANCH   3   4
ENDBRANCH   2   3
ENDBRANCH   1   2
BRANCH   1  18
ATOM     18  C   UNL     1     -44.198 -35.640  18.230  1.00  0.00     0.000 C 
BRANCH  18  19
ATOM     19  C   UNL     1     -44.446 -36.279  16.855  1.00  0.00     0.000 C 
BRANCH  19  20
ATOM     20  C   UNL     1     -44.358 -37.814  16.889  1.00  0.00     0.000 C 
BRANCH  20  21
ATOM     21  C   UNL     1     -45.555 -38.495  16.205  1.00  0.00     0.000 C 
BRANCH  21  22
ATOM     22  C   UNL     1     -46.124 -37.757  14.975  1.00  0.00     0.000 C 
BRANCH  22  23
ATOM     23  C   UNL     1     -45.198 -36.661  14.407  1.00  0.00     0.000 C 
BRANCH  23  24
ATOM     24  C   UNL     1     -45.084 -36.707  12.871  1.00  0.00    -0.000 C 
BRANCH  24  25
ATOM     25  C   UNL     1     -45.878 -35.580  12.189  1.00  0.00    -0.000 C 
BRANCH  25  26
ATOM     26  C   UNL     1     -46.121 -34.379  13.119  1.00  0.00    -0.000 C 
BRANCH  26  27
ATOM     27  C   UNL     1     -45.404 -33.104  12.646  1.00  0.00    -0.000 C 
BRANCH  27  28
ATOM     28  C   UNL     1     -45.585 -31.925  13.618  1.00  0.00    -0.000 C 
BRANCH  28  29
ATOM     29  C   UNL     1     -45.972 -32.367  15.046  1.00  0.00    -0.000 C 
BRANCH  29  30
ATOM     30  C   UNL     1     -45.004 -31.879  16.142  1.00  0.00    -0.000 C 
BRANCH  30  31
ATOM     31  C   UNL     1     -43.749 -32.757  16.280  1.00  0.00    -0.003 C 
ATOM     32  C   UNL     1     -42.476 -31.919  16.190  1.00  0.00     0.004 C 
ENDBRANCH  30  31
ENDBRANCH  29  30
ENDBRANCH  28  29
ENDBRANCH  27  28
ENDBRANCH  26  27
ENDBRANCH  25  26
ENDBRANCH  24  25
ENDBRANCH  23  24
ENDBRANCH  22  23
ENDBRANCH  21  22
ENDBRANCH  20  21
ENDBRANCH  19  20
ENDBRANCH  18  19
ENDBRANCH   1  18
TORSDOF 28
ENDMDL
MODEL 6
REMARK VINA RESULT:    -2.630      1.600      3.304
REMARK INTER + INTRA:          -8.638
REMARK INTER:                  -6.773
REMARK INTRA:                  -1.864
REMARK UNBOUND:                -1.702
REMARK SMILES CCCCCCCCCCCCCCCCCCCCCCCCCCCCCC(=O)[O-]
REMARK SMILES IDX 16 1 17 2 18 3 19 4 20 5 21 6 22 7 23 8 24 9 25 10 26 11
REMARK SMILES IDX 27 12 28 13 29 14 30 15 31 16 32 17 15 18 14 19 13 20 12 21
REMARK SMILES IDX 11 22 10 23 9 24 8 25 7 26 6 27 5 28 4 29 3 30 2 31 1 32
REMARK H PARENT
REMARK Flexibility Score: inf
ROOT
ATOM      1  C   UNL     1     -43.242 -35.412  21.265  1.00  0.00     0.000 C 
ENDROOT
BRANCH   1   2
ATOM      2  C   UNL     1     -44.399 -34.653  21.944  1.00  0.00     0.000 C 
BRANCH   2   3
ATOM      3  C   UNL     1     -43.949 -33.467  22.818  1.00  0.00     0.000 C 
BRANCH   3   4
ATOM      4  C   UNL     1     -45.124 -32.775  23.532  1.00  0.00     0.000 C 
BRANCH   4   5
ATOM      5  C   UNL     1     -46.087 -33.778  24.187  1.00  0.00     0.000 C 
BRANCH   5   6
ATOM      6  C   UNL     1     -45.586 -34.288  25.547  1.00  0.00     0.000 C 
BRANCH   6   7
ATOM      7  C   UNL     1     -45.489 -33.133  26.555  1.00  0.00     0.000 C 
BRANCH   7   8
ATOM      8  C   UNL     1     -45.261 -33.622  27.995  1.00  0.00     0.000 C 
BRANCH   8   9
ATOM      9  C   UNL     1     -43.916 -33.147  28.575  1.00  0.00     0.000 C 
BRANCH   9  10
ATOM     10  C   UNL     1     -43.281 -32.020  27.747  1.00  0.00     0.000 C 
BRANCH  10  11
ATOM     11  C   UNL     1     -41.769 -31.876  27.993  1.00  0.00     0.000 C 
BRANCH  11  12
ATOM     12  C   UNL     1     -41.192 -33.080  28.769  1.00  0.00     0.000 C 
BRANCH  12  13
ATOM     13  C   UNL     1     -39.752 -33.442  28.369  1.00  0.00     0.006 C 
BRANCH  13  14
ATOM     14  C   UNL     1     -39.572 -33.592  26.853  1.00  0.00     0.053 C 
BRANCH  14  15
ATOM     15  C   UNL     1     -38.291 -32.959  26.409  1.00  0.00     0.041 C 
ATOM     16  O   UNL     1     -37.850 -31.939  27.003  1.00  0.00    -0.550 OA
ATOM     17  O   UNL     1     -37.574 -33.501  25.349  1.00  0.00    -0.550 OA
ENDBRANCH  14  15
ENDBRANCH  13  14
ENDBRANCH  12  13
ENDBRANCH  11  12
ENDBRANCH  10  11
ENDBRANCH   9  10
ENDBRANCH   8   9
ENDBRANCH   7   8
ENDBRANCH   6   7
ENDBRANCH   5   6
ENDBRANCH   4   5
ENDBRANCH   3   4
ENDBRANCH   2   3
ENDBRANCH   1   2
BRANCH   1  18
ATOM     18  C   UNL     1     -43.726 -36.349  20.145  1.00  0.00     0.000 C 
BRANCH  18  19
ATOM     19  C   UNL     1     -45.239 -36.610  20.200  1.00  0.00     0.000 C 
BRANCH  19  20
ATOM     20  C   UNL     1     -46.021 -35.802  19.151  1.00  0.00     0.000 C 
BRANCH  20  21
ATOM     21  C   UNL     1     -45.733 -34.293  19.226  1.00  0.00     0.000 C 
BRANCH  21  22
ATOM     22  C   UNL     1     -45.138 -33.666  17.948  1.00  0.00     0.000 C 
BRANCH  22  23
ATOM     23  C   UNL     1     -46.103 -33.645  16.743  1.00  0.00     0.000 C 
BRANCH  23  24
ATOM     24  C   UNL     1     -45.690 -34.621  15.625  1.00  0.00    -0.000 C 
BRANCH  24  25
ATOM     25  C   UNL     1     -44.770 -33.966  14.582  1.00  0.00    -0.000 C 
BRANCH  25  26
ATOM     26  C   UNL     1     -45.538 -33.461  13.348  1.00  0.00    -0.000 C 
BRANCH  26  27
ATOM     27  C   UNL     1     -46.125 -34.603  12.502  1.00  0.00    -0.000 C 
BRANCH  27  28
ATOM     28  C   UNL     1     -45.236 -35.860  12.506  1.00  0.00    -0.000 C 
BRANCH  28  29
ATOM     29  C   UNL     1     -45.975 -37.127  12.985  1.00  0.00    -0.000 C 
BRANCH  29  30
ATOM     30  C   UNL     1     -45.044 -38.288  13.387  1.00  0.00    -0.000 C 
BRANCH  30  31
ATOM     31  C   UNL     1     -44.053 -37.914  14.502  1.00  0.00    -0.003 C 
ATOM     32  C   UNL     1     -44.758 -37.801  15.852  1.00  0.00     0.004 C 
ENDBRANCH  30  31
ENDBRANCH  29  30
ENDBRANCH  28  29
ENDBRANCH  27  28
ENDBRANCH  26  27
ENDBRANCH  25  26
ENDBRANCH  24  25
ENDBRANCH  23  24
ENDBRANCH  22  23
ENDBRANCH  21  22
ENDBRANCH  20  21
ENDBRANCH  19  20
ENDBRANCH  18  19
ENDBRANCH   1  18
TORSDOF 28
ENDMDL
MODEL 7
REMARK VINA RESULT:    -0.196      2.169      3.744
REMARK INTER + INTRA:          -2.218
REMARK INTER:                   0.027
REMARK INTRA:                  -2.246
REMARK UNBOUND:                -1.702
REMARK SMILES CCCCCCCCCCCCCCCCCCCCCCCCCCCCCC(=O)[O-]
REMARK SMILES IDX 16 1 17 2 18 3 19 4 20 5 21 6 22 7 23 8 24 9 25 10 26 11
REMARK SMILES IDX 27 12 28 13 29 14 30 15 31 16 32 17 15 18 14 19 13 20 12 21
REMARK SMILES IDX 11 22 10 23 9 24 8 25 7 26 6 27 5 28 4 29 3 30 2 31 1 32
REMARK H PARENT
REMARK Flexibility Score: inf
ROOT
ATOM      1  C   UNL     1     -45.401 -35.732  18.779  1.00  0.00     0.000 C 
ENDROOT
BRANCH   1   2
ATOM      2  C   UNL     1     -44.607 -36.398  19.919  1.00  0.00     0.000 C 
BRANCH   2   3
ATOM      3  C   UNL     1     -43.651 -35.446  20.663  1.00  0.00     0.000 C 
BRANCH   3   4
ATOM      4  C   UNL     1     -44.237 -34.933  21.990  1.00  0.00     0.000 C 
BRANCH   4   5
ATOM      5  C   UNL     1     -45.664 -34.385  21.831  1.00  0.00     0.000 C 
BRANCH   5   6
ATOM      6  C   UNL     1     -45.781 -32.901  22.213  1.00  0.00     0.000 C 
BRANCH   6   7
ATOM      7  C   UNL     1     -46.125 -32.751  23.702  1.00  0.00     0.000 C 
BRANCH   7   8
ATOM      8  C   UNL     1     -44.904 -32.950  24.615  1.00  0.00     0.000 C 
BRANCH   8   9
ATOM      9  C   UNL     1     -43.797 -31.910  24.356  1.00  0.00     0.000 C 
BRANCH   9  10
ATOM     10  C   UNL     1     -42.495 -32.549  23.850  1.00  0.00     0.000 C 
BRANCH  10  11
ATOM     11  C   UNL     1     -41.259 -32.096  24.647  1.00  0.00     0.000 C 
BRANCH  11  12
ATOM     12  C   UNL     1     -39.989 -32.873  24.235  1.00  0.00     0.000 C 
BRANCH  12  13
ATOM     13  C   UNL     1     -38.749 -31.981  24.054  1.00  0.00     0.006 C 
BRANCH  13  14
ATOM     14  C   UNL     1     -37.455 -32.652  24.531  1.00  0.00     0.053 C 
BRANCH  14  15
ATOM     15  C   UNL     1     -37.518 -32.936  25.999  1.00  0.00     0.041 C 
ATOM     16  O   UNL     1     -37.734 -32.002  26.815  1.00  0.00    -0.550 OA
ATOM     17  O   UNL     1     -37.353 -34.234  26.468  1.00  0.00    -0.550 OA
ENDBRANCH  14  15
ENDBRANCH  13  14
ENDBRANCH  12  13
ENDBRANCH  11  12
ENDBRANCH  10  11
ENDBRANCH   9  10
ENDBRANCH   8   9
ENDBRANCH   7   8
ENDBRANCH   6   7
ENDBRANCH   5   6
ENDBRANCH   4   5
ENDBRANCH   3   4
ENDBRANCH   2   3
ENDBRANCH   1   2
BRANCH   1  18
ATOM     18  C   UNL     1     -44.953 -36.211  17.387  1.00  0.00     0.000 C 
BRANCH  18  19
ATOM     19  C   UNL     1     -44.043 -37.447  17.449  1.00  0.00     0.000 C 
BRANCH  19  20
ATOM     20  C   UNL     1     -44.061 -38.265  16.147  1.00  0.00     0.000 C 
BRANCH  20  21
ATOM     21  C   UNL     1     -44.361 -37.405  14.908  1.00  0.00     0.000 C 
BRANCH  21  22
ATOM     22  C   UNL     1     -45.812 -37.472  14.389  1.00  0.00     0.000 C 
BRANCH  22  23
ATOM     23  C   UNL     1     -46.062 -36.664  13.097  1.00  0.00     0.000 C 
BRANCH  23  24
ATOM     24  C   UNL     1     -44.826 -35.869  12.637  1.00  0.00    -0.000 C 
BRANCH  24  25
ATOM     25  C   UNL     1     -45.152 -34.873  11.512  1.00  0.00    -0.000 C 
BRANCH  25  26
ATOM     26  C   UNL     1     -46.123 -33.767  11.962  1.00  0.00    -0.000 C 
BRANCH  26  27
ATOM     27  C   UNL     1     -45.404 -32.563  12.592  1.00  0.00    -0.000 C 
BRANCH  27  28
ATOM     28  C   UNL     1     -45.731 -32.391  14.086  1.00  0.00    -0.000 C 
BRANCH  28  29
ATOM     29  C   UNL     1     -44.891 -33.306  15.002  1.00  0.00    -0.000 C 
BRANCH  29  30
ATOM     30  C   UNL     1     -44.337 -32.606  16.259  1.00  0.00    -0.000 C 
BRANCH  30  31
ATOM     31  C   UNL     1     -42.940 -33.102  16.664  1.00  0.00    -0.003 C 
ATOM     32  C   UNL     1     -41.901 -31.991  16.536  1.00  0.00     0.004 C 
ENDBRANCH  30  31
ENDBRANCH  29  30
ENDBRANCH  28  29
ENDBRANCH  27  28
ENDBRANCH  26  27
ENDBRANCH  25  26
ENDBRANCH  24  25
ENDBRANCH  23  24
ENDBRANCH  22  23
ENDBRANCH  21  22
ENDBRANCH  20  21
ENDBRANCH  19  20
ENDBRANCH  18  19
ENDBRANCH   1  18
TORSDOF 28
ENDMDL
