MODEL 1
REMARK VINA RESULT:    -5.301      0.000      0.000
REMARK INTER + INTRA:         -11.418
REMARK INTER:                  -9.639
REMARK INTRA:                  -1.779
REMARK UNBOUND:                -1.779
REMARK SMILES CCCCCCCCCCCCCCCC(=O)[O-]
REMARK SMILES IDX 9 1 10 2 11 3 12 4 13 5 14 6 15 7 16 8 17 9 18 10 8 11 7 12
REMARK SMILES IDX 6 13 5 14 4 15 3 16 2 17 1 18
REMARK H PARENT
REMARK Flexibility Score: inf
ROOT
ATOM      1  C   UNL     1     123.352 179.335 126.956  1.00  0.00     0.000 C 
ENDROOT
BRANCH   1   2
ATOM      2  C   UNL     1     122.683 178.147 126.253  1.00  0.00     0.000 C 
BRANCH   2   3
ATOM      3  C   UNL     1     121.460 178.600 125.449  1.00  0.00     0.000 C 
BRANCH   3   4
ATOM      4  C   UNL     1     120.867 179.892 126.030  1.00  0.00     0.000 C 
BRANCH   4   5
ATOM      5  C   UNL     1     119.480 179.685 126.665  1.00  0.00     0.000 C 
BRANCH   5   6
ATOM      6  C   UNL     1     118.292 180.118 125.786  1.00  0.00     0.006 C 
BRANCH   6   7
ATOM      7  C   UNL     1     117.575 178.933 125.126  1.00  0.00     0.053 C 
BRANCH   7   8
ATOM      8  C   UNL     1     117.697 179.013 123.637  1.00  0.00     0.041 C 
ATOM      9  O   UNL     1     118.830 178.952 123.090  1.00  0.00    -0.550 OA
ATOM     10  O   UNL     1     116.557 179.105 122.850  1.00  0.00    -0.550 OA
ENDBRANCH   7   8
ENDBRANCH   6   7
ENDBRANCH   5   6
ENDBRANCH   4   5
ENDBRANCH   3   4
ENDBRANCH   2   3
ENDBRANCH   1   2
BRANCH   1  11
ATOM     11  C   UNL     1     123.694 178.995 128.412  1.00  0.00     0.000 C 
BRANCH  11  12
ATOM     12  C   UNL     1     122.435 179.027 129.293  1.00  0.00    -0.000 C 
BRANCH  12  13
ATOM     13  C   UNL     1     122.417 177.904 130.342  1.00  0.00    -0.000 C 
BRANCH  13  14
ATOM     14  C   UNL     1     122.702 176.520 129.733  1.00  0.00    -0.000 C 
BRANCH  14  15
ATOM     15  C   UNL     1     121.418 175.783 129.318  1.00  0.00    -0.000 C 
BRANCH  15  16
ATOM     16  C   UNL     1     120.517 175.439 130.518  1.00  0.00    -0.000 C 
BRANCH  16  17
ATOM     17  C   UNL     1     119.106 176.030 130.381  1.00  0.00    -0.003 C 
ATOM     18  C   UNL     1     118.861 176.663 129.013  1.00  0.00     0.004 C 
ENDBRANCH  16  17
ENDBRANCH  15  16
ENDBRANCH  14  15
ENDBRANCH  13  14
ENDBRANCH  12  13
ENDBRANCH  11  12
ENDBRANCH   1  11
TORSDOF 14
ENDMDL
MODEL 2
REMARK VINA RESULT:    -5.126      1.405      4.158
REMARK INTER + INTRA:         -11.100
REMARK INTER:                  -8.977
REMARK INTRA:                  -2.122
REMARK UNBOUND:                -1.779
REMARK SMILES CCCCCCCCCCCCCCCC(=O)[O-]
REMARK SMILES IDX 9 1 10 2 11 3 12 4 13 5 14 6 15 7 16 8 17 9 18 10 8 11 7 12
REMARK SMILES IDX 6 13 5 14 4 15 3 16 2 17 1 18
REMARK H PARENT
REMARK Flexibility Score: inf
ROOT
ATOM      1  C   UNL     1     121.362 176.189 130.397  1.00  0.00     0.000 C 
ENDROOT
BRANCH   1   2
ATOM      2  C   UNL     1     119.845 176.008 130.536  1.00  0.00     0.000 C 
BRANCH   2   3
ATOM      3  C   UNL     1     119.117 176.460 129.266  1.00  0.00     0.000 C 
BRANCH   3   4
ATOM      4  C   UNL     1     119.915 176.080 128.009  1.00  0.00     0.000 C 
BRANCH   4   5
ATOM      5  C   UNL     1     120.072 177.249 127.021  1.00  0.00     0.000 C 
BRANCH   5   6
ATOM      6  C   UNL     1     119.200 178.481 127.327  1.00  0.00     0.006 C 
BRANCH   6   7
ATOM      7  C   UNL     1     119.722 179.761 126.662  1.00  0.00     0.053 C 
BRANCH   7   8
ATOM      8  C   UNL     1     119.401 179.757 125.200  1.00  0.00     0.041 C 
ATOM      9  O   UNL     1     120.329 179.783 124.349  1.00  0.00    -0.550 OA
ATOM     10  O   UNL     1     118.081 179.675 124.778  1.00  0.00    -0.550 OA
ENDBRANCH   7   8
ENDBRANCH   6   7
ENDBRANCH   5   6
ENDBRANCH   4   5
ENDBRANCH   3   4
ENDBRANCH   2   3
ENDBRANCH   1   2
BRANCH   1  11
ATOM     11  C   UNL     1     121.824 177.497 131.050  1.00  0.00     0.000 C 
BRANCH  11  12
ATOM     12  C   UNL     1     123.006 178.107 130.282  1.00  0.00    -0.000 C 
BRANCH  12  13
ATOM     13  C   UNL     1     122.560 178.933 129.065  1.00  0.00    -0.000 C 
BRANCH  13  14
ATOM     14  C   UNL     1     123.724 179.259 128.112  1.00  0.00    -0.000 C 
BRANCH  14  15
ATOM     15  C   UNL     1     123.301 179.229 126.634  1.00  0.00    -0.000 C 
BRANCH  15  16
ATOM     16  C   UNL     1     123.964 178.082 125.850  1.00  0.00    -0.000 C 
BRANCH  16  17
ATOM     17  C   UNL     1     123.030 177.478 124.791  1.00  0.00    -0.003 C 
ATOM     18  C   UNL     1     122.861 175.968 124.944  1.00  0.00     0.004 C 
ENDBRANCH  16  17
ENDBRANCH  15  16
ENDBRANCH  14  15
ENDBRANCH  13  14
ENDBRANCH  12  13
ENDBRANCH  11  12
ENDBRANCH   1  11
TORSDOF 14
ENDMDL
MODEL 3
REMARK VINA RESULT:    -5.084      1.686      2.511
REMARK INTER + INTRA:         -11.024
REMARK INTER:                  -9.249
REMARK INTRA:                  -1.774
REMARK UNBOUND:                -1.779
REMARK SMILES CCCCCCCCCCCCCCCC(=O)[O-]
REMARK SMILES IDX 9 1 10 2 11 3 12 4 13 5 14 6 15 7 16 8 17 9 18 10 8 11 7 12
REMARK SMILES IDX 6 13 5 14 4 15 3 16 2 17 1 18
REMARK H PARENT
REMARK Flexibility Score: inf
ROOT
ATOM      1  C   UNL     1     120.713 177.987 127.394  1.00  0.00     0.000 C 
ENDROOT
BRANCH   1   2
ATOM      2  C   UNL     1     121.351 176.764 126.723  1.00  0.00     0.000 C 
BRANCH   2   3
ATOM      3  C   UNL     1     122.666 177.138 126.030  1.00  0.00     0.000 C 
BRANCH   3   4
ATOM      4  C   UNL     1     122.734 176.538 124.618  1.00  0.00     0.000 C 
BRANCH   4   5
ATOM      5  C   UNL     1     122.558 177.590 123.509  1.00  0.00     0.000 C 
BRANCH   5   6
ATOM      6  C   UNL     1     121.551 178.711 123.829  1.00  0.00     0.006 C 
BRANCH   6   7
ATOM      7  C   UNL     1     120.731 179.143 122.608  1.00  0.00     0.053 C 
BRANCH   7   8
ATOM      8  C   UNL     1     119.267 178.990 122.882  1.00  0.00     0.041 C 
ATOM      9  O   UNL     1     118.457 178.842 121.930  1.00  0.00    -0.550 OA
ATOM     10  O   UNL     1     118.805 178.962 124.191  1.00  0.00    -0.550 OA
ENDBRANCH   7   8
ENDBRANCH   6   7
ENDBRANCH   5   6
ENDBRANCH   4   5
ENDBRANCH   3   4
ENDBRANCH   2   3
ENDBRANCH   1   2
BRANCH   1  11
ATOM     11  C   UNL     1     121.773 179.038 127.747  1.00  0.00     0.000 C 
BRANCH  11  12
ATOM     12  C   UNL     1     122.096 179.008 129.249  1.00  0.00    -0.000 C 
BRANCH  12  13
ATOM     13  C   UNL     1     123.351 178.180 129.570  1.00  0.00    -0.000 C 
BRANCH  13  14
ATOM     14  C   UNL     1     123.028 176.896 130.353  1.00  0.00    -0.000 C 
BRANCH  14  15
ATOM     15  C   UNL     1     121.618 176.919 130.967  1.00  0.00    -0.000 C 
BRANCH  15  16
ATOM     16  C   UNL     1     120.733 175.765 130.465  1.00  0.00    -0.000 C 
BRANCH  16  17
ATOM     17  C   UNL     1     119.251 175.968 130.813  1.00  0.00    -0.003 C 
ATOM     18  C   UNL     1     118.350 175.970 129.579  1.00  0.00     0.004 C 
ENDBRANCH  16  17
ENDBRANCH  15  16
ENDBRANCH  14  15
ENDBRANCH  13  14
ENDBRANCH  12  13
ENDBRANCH  11  12
ENDBRANCH   1  11
TORSDOF 14
ENDMDL
MODEL 4
REMARK VINA RESULT:    -5.050      1.808      3.975
REMARK INTER + INTRA:         -10.961
REMARK INTER:                  -8.238
REMARK INTRA:                  -2.724
REMARK UNBOUND:                -1.779
REMARK SMILES CCCCCCCCCCCCCCCC(=O)[O-]
REMARK SMILES IDX 9 1 10 2 11 3 12 4 13 5 14 6 15 7 16 8 17 9 18 10 8 11 7 12
REMARK SMILES IDX 6 13 5 14 4 15 3 16 2 17 1 18
REMARK H PARENT
REMARK Flexibility Score: inf
ROOT
ATOM      1  C   UNL     1     121.206 177.123 130.673  1.00  0.00     0.000 C 
ENDROOT
BRANCH   1   2
ATOM      2  C   UNL     1     122.643 176.720 130.318  1.00  0.00     0.000 C 
BRANCH   2   3
ATOM      3  C   UNL     1     123.382 177.868 129.622  1.00  0.00     0.000 C 
BRANCH   3   4
ATOM      4  C   UNL     1     122.436 178.652 128.701  1.00  0.00     0.000 C 
BRANCH   4   5
ATOM      5  C   UNL     1     122.919 178.697 127.241  1.00  0.00     0.000 C 
BRANCH   5   6
ATOM      6  C   UNL     1     121.933 179.342 126.249  1.00  0.00     0.006 C 
BRANCH   6   7
ATOM      7  C   UNL     1     121.664 178.466 125.019  1.00  0.00     0.053 C 
BRANCH   7   8
ATOM      8  C   UNL     1     120.501 179.000 124.243  1.00  0.00     0.041 C 
ATOM      9  O   UNL     1     119.340 178.945 124.725  1.00  0.00    -0.550 OA
ATOM     10  O   UNL     1     120.708 179.602 123.009  1.00  0.00    -0.550 OA
ENDBRANCH   7   8
ENDBRANCH   6   7
ENDBRANCH   5   6
ENDBRANCH   4   5
ENDBRANCH   3   4
ENDBRANCH   2   3
ENDBRANCH   1   2
BRANCH   1  11
ATOM     11  C   UNL     1     120.317 175.887 130.862  1.00  0.00     0.000 C 
BRANCH  11  12
ATOM     12  C   UNL     1     119.165 175.880 129.845  1.00  0.00    -0.000 C 
BRANCH  12  13
ATOM     13  C   UNL     1     119.256 177.037 128.837  1.00  0.00    -0.000 C 
BRANCH  13  14
ATOM     14  C   UNL     1     119.368 176.547 127.383  1.00  0.00    -0.000 C 
BRANCH  14  15
ATOM     15  C   UNL     1     120.046 175.171 127.276  1.00  0.00    -0.000 C 
BRANCH  15  16
ATOM     16  C   UNL     1     121.565 175.274 127.048  1.00  0.00    -0.000 C 
BRANCH  16  17
ATOM     17  C   UNL     1     122.341 174.150 127.750  1.00  0.00    -0.003 C 
ATOM     18  C   UNL     1     121.433 173.205 128.535  1.00  0.00     0.004 C 
ENDBRANCH  16  17
ENDBRANCH  15  16
ENDBRANCH  14  15
ENDBRANCH  13  14
ENDBRANCH  12  13
ENDBRANCH  11  12
ENDBRANCH   1  11
TORSDOF 14
ENDMDL
MODEL 5
REMARK VINA RESULT:    -5.017      2.774      5.587
REMARK INTER + INTRA:         -10.902
REMARK INTER:                  -8.783
REMARK INTRA:                  -2.119
REMARK UNBOUND:                -1.779
REMARK SMILES CCCCCCCCCCCCCCCC(=O)[O-]
REMARK SMILES IDX 9 1 10 2 11 3 12 4 13 5 14 6 15 7 16 8 17 9 18 10 8 11 7 12
REMARK SMILES IDX 6 13 5 14 4 15 3 16 2 17 1 18
REMARK H PARENT
REMARK Flexibility Score: inf
ROOT
ATOM      1  C   UNL     1     123.197 179.256 126.969  1.00  0.00     0.000 C 
ENDROOT
BRANCH   1   2
ATOM      2  C   UNL     1     123.777 179.044 128.374  1.00  0.00     0.000 C 
BRANCH   2   3
ATOM      3  C   UNL     1     122.669 179.042 129.433  1.00  0.00     0.000 C 
BRANCH   3   4
ATOM      4  C   UNL     1     122.852 177.880 130.419  1.00  0.00     0.000 C 
BRANCH   4   5
ATOM      5  C   UNL     1     122.929 176.508 129.725  1.00  0.00     0.000 C 
BRANCH   5   6
ATOM      6  C   UNL     1     121.569 175.836 129.461  1.00  0.00     0.006 C 
BRANCH   6   7
ATOM      7  C   UNL     1     120.448 176.387 130.352  1.00  0.00     0.053 C 
BRANCH   7   8
ATOM      8  C   UNL     1     119.122 175.852 129.911  1.00  0.00     0.041 C 
ATOM      9  O   UNL     1     118.057 176.350 130.362  1.00  0.00    -0.550 OA
ATOM     10  O   UNL     1     119.061 174.837 128.966  1.00  0.00    -0.550 OA
ENDBRANCH   7   8
ENDBRANCH   6   7
ENDBRANCH   5   6
ENDBRANCH   4   5
ENDBRANCH   3   4
ENDBRANCH   2   3
ENDBRANCH   1   2
BRANCH   1  11
ATOM     11  C   UNL     1     123.774 178.242 125.975  1.00  0.00     0.000 C 
BRANCH  11  12
ATOM     12  C   UNL     1     122.681 177.291 125.463  1.00  0.00    -0.000 C 
BRANCH  12  13
ATOM     13  C   UNL     1     122.342 177.519 123.981  1.00  0.00    -0.000 C 
BRANCH  13  14
ATOM     14  C   UNL     1     121.459 178.760 123.760  1.00  0.00    -0.000 C 
BRANCH  14  15
ATOM     15  C   UNL     1     120.191 178.743 124.630  1.00  0.00    -0.000 C 
BRANCH  15  16
ATOM     16  C   UNL     1     119.974 180.064 125.389  1.00  0.00    -0.000 C 
BRANCH  16  17
ATOM     17  C   UNL     1     119.520 179.841 126.839  1.00  0.00    -0.003 C 
ATOM     18  C   UNL     1     119.567 178.371 127.253  1.00  0.00     0.004 C 
ENDBRANCH  16  17
ENDBRANCH  15  16
ENDBRANCH  14  15
ENDBRANCH  13  14
ENDBRANCH  12  13
ENDBRANCH  11  12
ENDBRANCH   1  11
TORSDOF 14
ENDMDL
MODEL 6
REMARK VINA RESULT:    -4.998      2.528      4.648
REMARK INTER + INTRA:         -10.867
REMARK INTER:                  -8.528
REMARK INTRA:                  -2.339
REMARK UNBOUND:                -1.779
REMARK SMILES CCCCCCCCCCCCCCCC(=O)[O-]
REMARK SMILES IDX 9 1 10 2 11 3 12 4 13 5 14 6 15 7 16 8 17 9 18 10 8 11 7 12
REMARK SMILES IDX 6 13 5 14 4 15 3 16 2 17 1 18
REMARK H PARENT
REMARK Flexibility Score: inf
ROOT
ATOM      1  C   UNL     1     122.839 177.492 130.529  1.00  0.00     0.000 C 
ENDROOT
BRANCH   1   2
ATOM      2  C   UNL     1     122.677 178.819 129.778  1.00  0.00     0.000 C 
BRANCH   2   3
ATOM      3  C   UNL     1     123.805 179.018 128.760  1.00  0.00     0.000 C 
BRANCH   3   4
ATOM      4  C   UNL     1     123.245 179.158 127.337  1.00  0.00     0.000 C 
BRANCH   4   5
ATOM      5  C   UNL     1     123.937 178.229 126.325  1.00  0.00     0.000 C 
BRANCH   5   6
ATOM      6  C   UNL     1     123.125 177.939 125.048  1.00  0.00     0.006 C 
BRANCH   6   7
ATOM      7  C   UNL     1     123.663 176.740 124.258  1.00  0.00     0.053 C 
BRANCH   7   8
ATOM      8  C   UNL     1     124.048 177.159 122.873  1.00  0.00     0.041 C 
ATOM      9  O   UNL     1     123.159 177.384 122.011  1.00  0.00    -0.550 OA
ATOM     10  O   UNL     1     125.385 177.348 122.551  1.00  0.00    -0.550 OA
ENDBRANCH   7   8
ENDBRANCH   6   7
ENDBRANCH   5   6
ENDBRANCH   4   5
ENDBRANCH   3   4
ENDBRANCH   2   3
ENDBRANCH   1   2
BRANCH   1  11
ATOM     11  C   UNL     1     121.478 176.926 130.952  1.00  0.00     0.000 C 
BRANCH  11  12
ATOM     12  C   UNL     1     121.019 175.821 129.988  1.00  0.00    -0.000 C 
BRANCH  12  13
ATOM     13  C   UNL     1     122.110 175.421 128.981  1.00  0.00    -0.000 C 
BRANCH  13  14
ATOM     14  C   UNL     1     121.646 175.559 127.521  1.00  0.00    -0.000 C 
BRANCH  14  15
ATOM     15  C   UNL     1     120.126 175.762 127.402  1.00  0.00    -0.000 C 
BRANCH  15  16
ATOM     16  C   UNL     1     119.756 177.064 126.670  1.00  0.00    -0.000 C 
BRANCH  16  17
ATOM     17  C   UNL     1     119.764 178.285 127.603  1.00  0.00    -0.003 C 
ATOM     18  C   UNL     1     119.551 179.600 126.856  1.00  0.00     0.004 C 
ENDBRANCH  16  17
ENDBRANCH  15  16
ENDBRANCH  14  15
ENDBRANCH  13  14
ENDBRANCH  12  13
ENDBRANCH  11  12
ENDBRANCH   1  11
TORSDOF 14
ENDMDL
MODEL 7
REMARK VINA RESULT:    -4.956      2.436      5.211
REMARK INTER + INTRA:         -10.791
REMARK INTER:                  -8.318
REMARK INTRA:                  -2.473
REMARK UNBOUND:                -1.779
REMARK SMILES CCCCCCCCCCCCCCCC(=O)[O-]
REMARK SMILES IDX 9 1 10 2 11 3 12 4 13 5 14 6 15 7 16 8 17 9 18 10 8 11 7 12
REMARK SMILES IDX 6 13 5 14 4 15 3 16 2 17 1 18
REMARK H PARENT
REMARK Flexibility Score: inf
ROOT
ATOM      1  C   UNL     1     121.835 177.839 129.989  1.00  0.00     0.000 C 
ENDROOT
BRANCH   1   2
ATOM      2  C   UNL     1     122.158 178.982 129.019  1.00  0.00     0.000 C 
BRANCH   2   3
ATOM      3  C   UNL     1     123.614 178.906 128.544  1.00  0.00     0.000 C 
BRANCH   3   4
ATOM      4  C   UNL     1     123.704 179.066 127.019  1.00  0.00     0.000 C 
BRANCH   4   5
ATOM      5  C   UNL     1     122.580 178.329 126.270  1.00  0.00     0.000 C 
BRANCH   5   6
ATOM      6  C   UNL     1     122.823 176.824 126.052  1.00  0.00     0.006 C 
BRANCH   6   7
ATOM      7  C   UNL     1     122.667 176.400 124.586  1.00  0.00     0.053 C 
BRANCH   7   8
ATOM      8  C   UNL     1     123.791 176.948 123.763  1.00  0.00     0.041 C 
ATOM      9  O   UNL     1     123.560 177.454 122.633  1.00  0.00    -0.550 OA
ATOM     10  O   UNL     1     125.086 176.943 124.264  1.00  0.00    -0.550 OA
ENDBRANCH   7   8
ENDBRANCH   6   7
ENDBRANCH   5   6
ENDBRANCH   4   5
ENDBRANCH   3   4
ENDBRANCH   2   3
ENDBRANCH   1   2
BRANCH   1  11
ATOM     11  C   UNL     1     121.125 176.687 129.268  1.00  0.00     0.000 C 
BRANCH  11  12
ATOM     12  C   UNL     1     119.691 177.081 128.883  1.00  0.00    -0.000 C 
BRANCH  12  13
ATOM     13  C   UNL     1     119.205 176.380 127.604  1.00  0.00    -0.000 C 
BRANCH  13  14
ATOM     14  C   UNL     1     119.011 177.357 126.431  1.00  0.00    -0.000 C 
BRANCH  14  15
ATOM     15  C   UNL     1     119.092 178.828 126.871  1.00  0.00    -0.000 C 
BRANCH  15  16
ATOM     16  C   UNL     1     119.210 179.798 125.682  1.00  0.00    -0.000 C 
BRANCH  16  17
ATOM     17  C   UNL     1     119.311 179.066 124.335  1.00  0.00    -0.003 C 
ATOM     18  C   UNL     1     120.535 179.489 123.524  1.00  0.00     0.004 C 
ENDBRANCH  16  17
ENDBRANCH  15  16
ENDBRANCH  14  15
ENDBRANCH  13  14
ENDBRANCH  12  13
ENDBRANCH  11  12
ENDBRANCH   1  11
TORSDOF 14
ENDMDL
MODEL 8
REMARK VINA RESULT:    -4.954      1.469      2.269
REMARK INTER + INTRA:         -10.788
REMARK INTER:                  -8.643
REMARK INTRA:                  -2.145
REMARK UNBOUND:                -1.779
REMARK SMILES CCCCCCCCCCCCCCCC(=O)[O-]
REMARK SMILES IDX 9 1 10 2 11 3 12 4 13 5 14 6 15 7 16 8 17 9 18 10 8 11 7 12
REMARK SMILES IDX 6 13 5 14 4 15 3 16 2 17 1 18
REMARK H PARENT
REMARK Flexibility Score: inf
ROOT
ATOM      1  C   UNL     1     124.073 178.657 128.483  1.00  0.00     0.000 C 
ENDROOT
BRANCH   1   2
ATOM      2  C   UNL     1     123.517 179.405 127.265  1.00  0.00     0.000 C 
BRANCH   2   3
ATOM      3  C   UNL     1     123.010 178.425 126.201  1.00  0.00     0.000 C 
BRANCH   3   4
ATOM      4  C   UNL     1     121.534 178.689 125.869  1.00  0.00     0.000 C 
BRANCH   4   5
ATOM      5  C   UNL     1     120.768 179.357 127.025  1.00  0.00     0.000 C 
BRANCH   5   6
ATOM      6  C   UNL     1     119.247 179.115 127.023  1.00  0.00     0.006 C 
BRANCH   6   7
ATOM      7  C   UNL     1     118.536 179.794 125.846  1.00  0.00     0.053 C 
BRANCH   7   8
ATOM      8  C   UNL     1     117.884 178.770 124.970  1.00  0.00     0.041 C 
ATOM      9  O   UNL     1     117.621 179.040 123.769  1.00  0.00    -0.550 OA
ATOM     10  O   UNL     1     117.613 177.502 125.467  1.00  0.00    -0.550 OA
ENDBRANCH   7   8
ENDBRANCH   6   7
ENDBRANCH   5   6
ENDBRANCH   4   5
ENDBRANCH   3   4
ENDBRANCH   2   3
ENDBRANCH   1   2
BRANCH   1  11
ATOM     11  C   UNL     1     123.287 179.007 129.752  1.00  0.00     0.000 C 
BRANCH  11  12
ATOM     12  C   UNL     1     123.467 177.923 130.827  1.00  0.00    -0.000 C 
BRANCH  12  13
ATOM     13  C   UNL     1     122.201 177.075 131.031  1.00  0.00    -0.000 C 
BRANCH  13  14
ATOM     14  C   UNL     1     121.125 177.352 129.967  1.00  0.00    -0.000 C 
BRANCH  14  15
ATOM     15  C   UNL     1     120.713 176.084 129.201  1.00  0.00    -0.000 C 
BRANCH  15  16
ATOM     16  C   UNL     1     121.809 175.590 128.239  1.00  0.00    -0.000 C 
BRANCH  16  17
ATOM     17  C   UNL     1     121.241 174.756 127.081  1.00  0.00    -0.003 C 
ATOM     18  C   UNL     1     122.054 174.901 125.795  1.00  0.00     0.004 C 
ENDBRANCH  16  17
ENDBRANCH  15  16
ENDBRANCH  14  15
ENDBRANCH  13  14
ENDBRANCH  12  13
ENDBRANCH  11  12
ENDBRANCH   1  11
TORSDOF 14
ENDMDL
MODEL 9
REMARK VINA RESULT:    -4.951      3.056      6.009
REMARK INTER + INTRA:         -10.781
REMARK INTER:                  -8.607
REMARK INTRA:                  -2.174
REMARK UNBOUND:                -1.779
REMARK SMILES CCCCCCCCCCCCCCCC(=O)[O-]
REMARK SMILES IDX 9 1 10 2 11 3 12 4 13 5 14 6 15 7 16 8 17 9 18 10 8 11 7 12
REMARK SMILES IDX 6 13 5 14 4 15 3 16 2 17 1 18
REMARK H PARENT
REMARK Flexibility Score: inf
ROOT
ATOM      1  C   UNL     1     122.005 177.320 125.709  1.00  0.00     0.000 C 
ENDROOT
BRANCH   1   2
ATOM      2  C   UNL     1     123.301 177.625 126.473  1.00  0.00     0.000 C 
BRANCH   2   3
ATOM      3  C   UNL     1     123.213 178.977 127.189  1.00  0.00     0.000 C 
BRANCH   3   4
ATOM      4  C   UNL     1     123.527 178.829 128.685  1.00  0.00     0.000 C 
BRANCH   4   5
ATOM      5  C   UNL     1     122.274 178.909 129.574  1.00  0.00     0.000 C 
BRANCH   5   6
ATOM      6  C   UNL     1     122.121 177.759 130.587  1.00  0.00     0.006 C 
BRANCH   6   7
ATOM      7  C   UNL     1     122.141 176.375 129.927  1.00  0.00     0.053 C 
BRANCH   7   8
ATOM      8  C   UNL     1     120.808 175.710 130.070  1.00  0.00     0.041 C 
ATOM      9  O   UNL     1     120.707 174.461 129.947  1.00  0.00    -0.550 OA
ATOM     10  O   UNL     1     119.686 176.464 130.389  1.00  0.00    -0.550 OA
ENDBRANCH   7   8
ENDBRANCH   6   7
ENDBRANCH   5   6
ENDBRANCH   4   5
ENDBRANCH   3   4
ENDBRANCH   2   3
ENDBRANCH   1   2
BRANCH   1  11
ATOM     11  C   UNL     1     121.126 176.333 126.486  1.00  0.00     0.000 C 
BRANCH  11  12
ATOM     12  C   UNL     1     119.687 176.858 126.609  1.00  0.00    -0.000 C 
BRANCH  12  13
ATOM     13  C   UNL     1     119.622 178.279 127.193  1.00  0.00    -0.000 C 
BRANCH  13  14
ATOM     14  C   UNL     1     118.959 179.283 126.234  1.00  0.00    -0.000 C 
BRANCH  14  15
ATOM     15  C   UNL     1     118.235 178.593 125.067  1.00  0.00    -0.000 C 
BRANCH  15  16
ATOM     16  C   UNL     1     118.697 179.111 123.693  1.00  0.00    -0.000 C 
BRANCH  16  17
ATOM     17  C   UNL     1     120.194 179.451 123.666  1.00  0.00    -0.003 C 
ATOM     18  C   UNL     1     120.768 179.481 122.250  1.00  0.00     0.004 C 
ENDBRANCH  16  17
ENDBRANCH  15  16
ENDBRANCH  14  15
ENDBRANCH  13  14
ENDBRANCH  12  13
ENDBRANCH  11  12
ENDBRANCH   1  11
TORSDOF 14
ENDMDL
