MODEL 1
REMARK VINA RESULT:    -6.740      0.000      0.000
REMARK INTER + INTRA:          -7.331
REMARK INTER:                  -7.331
REMARK INTRA:                   0.000
REMARK UNBOUND:                 0.000
REMARK SMILES Cc1cc(O)c2c(c1)C(=O)c1cc(O)cc(O)c1C2=O
REMARK SMILES IDX 1 1 2 2 8 3 7 4 6 5 4 6 3 7 19 8 20 9 18 10 11 11 9 12 10 13
REMARK SMILES IDX 12 14 13 15 15 16 16 17 5 18 17 20 14 22
REMARK H PARENT 5 19 17 21 14 23
REMARK Flexibility Score: inf
ROOT
ATOM      1  C   UNL     1       2.902   4.877 -11.971  1.00  0.00     0.044 C 
ATOM      2  C   UNL     1       2.641   5.121 -10.513  1.00  0.00    -0.047 A 
ATOM      3  C   UNL     1       2.392   4.045  -9.652  1.00  0.00     0.016 A 
ATOM      4  C   UNL     1       2.109   4.265  -8.293  1.00  0.00     0.038 A 
ATOM      5  C   UNL     1       2.065   5.583  -7.790  1.00  0.00     0.076 A 
ATOM      6  C   UNL     1       2.288   6.667  -8.669  1.00  0.00     0.127 A 
ATOM      7  C   UNL     1       2.568   6.429 -10.020  1.00  0.00     0.050 A 
ATOM      8  C   UNL     1       1.804   5.796  -6.342  1.00  0.00     0.201 C 
ATOM      9  O   UNL     1       2.116   6.896  -5.812  1.00  0.00    -0.288 OA
ATOM     10  C   UNL     1       1.288   4.680  -5.501  1.00  0.00     0.076 A 
ATOM     11  C   UNL     1       1.395   3.359  -5.999  1.00  0.00     0.041 A 
ATOM     12  C   UNL     1       1.856   3.121  -7.388  1.00  0.00     0.194 C 
ATOM     13  O   UNL     1       2.016   1.941  -7.805  1.00  0.00    -0.289 OA
ATOM     14  C   UNL     1       1.054   2.271  -5.176  1.00  0.00     0.059 A 
ATOM     15  C   UNL     1       0.594   2.482  -3.875  1.00  0.00     0.120 A 
ATOM     16  C   UNL     1       0.441   3.782  -3.396  1.00  0.00     0.093 A 
ATOM     17  C   UNL     1       0.748   4.884  -4.202  1.00  0.00     0.131 A 
ENDROOT
BRANCH   6  18
ATOM     18  O   UNL     1       2.221   7.983  -8.207  1.00  0.00    -0.507 OA
ATOM     19  H   UNL     1       1.544   8.269  -7.511  1.00  0.00     0.293 HD
ENDBRANCH   6  18
BRANCH  17  20
ATOM     20  O   UNL     1       0.465   6.149  -3.685  1.00  0.00    -0.507 OA
ATOM     21  H   UNL     1      -0.336   6.701  -3.957  1.00  0.00     0.293 HD
ENDBRANCH  17  20
BRANCH  15  22
ATOM     22  O   UNL     1       0.271   1.406  -3.052  1.00  0.00    -0.508 OA
ATOM     23  H   UNL     1      -0.692   1.137  -2.883  1.00  0.00     0.293 HD
ENDBRANCH  15  22
TORSDOF 3
ENDMDL
MODEL 2
REMARK VINA RESULT:    -6.561      1.150      1.368
REMARK INTER + INTRA:          -7.137
REMARK INTER:                  -7.137
REMARK INTRA:                   0.000
REMARK UNBOUND:                 0.000
REMARK SMILES Cc1cc(O)c2c(c1)C(=O)c1cc(O)cc(O)c1C2=O
REMARK SMILES IDX 1 1 2 2 8 3 7 4 6 5 4 6 3 7 19 8 20 9 18 10 11 11 9 12 10 13
REMARK SMILES IDX 12 14 13 15 15 16 16 17 5 18 17 20 14 22
REMARK H PARENT 5 19 17 21 14 23
REMARK Flexibility Score: inf
ROOT
ATOM      1  C   UNL     1       2.160   2.925 -12.641  1.00  0.00     0.044 C 
ATOM      2  C   UNL     1       2.241   3.527 -11.268  1.00  0.00    -0.047 A 
ATOM      3  C   UNL     1       1.852   2.782 -10.148  1.00  0.00     0.016 A 
ATOM      4  C   UNL     1       1.888   3.350  -8.863  1.00  0.00     0.038 A 
ATOM      5  C   UNL     1       2.311   4.685  -8.697  1.00  0.00     0.076 A 
ATOM      6  C   UNL     1       2.676   5.442  -9.834  1.00  0.00     0.127 A 
ATOM      7  C   UNL     1       2.633   4.860 -11.107  1.00  0.00     0.050 A 
ATOM      8  C   UNL     1       2.382   5.258  -7.327  1.00  0.00     0.201 C 
ATOM      9  O   UNL     1       3.083   6.284  -7.120  1.00  0.00    -0.288 OA
ATOM     10  C   UNL     1       1.726   4.557  -6.187  1.00  0.00     0.076 A 
ATOM     11  C   UNL     1       1.361   3.199  -6.354  1.00  0.00     0.041 A 
ATOM     12  C   UNL     1       1.483   2.553  -7.682  1.00  0.00     0.194 C 
ATOM     13  O   UNL     1       1.223   1.325  -7.812  1.00  0.00    -0.289 OA
ATOM     14  C   UNL     1       0.875   2.465  -5.258  1.00  0.00     0.059 A 
ATOM     15  C   UNL     1       0.732   3.069  -4.007  1.00  0.00     0.120 A 
ATOM     16  C   UNL     1       1.044   4.418  -3.849  1.00  0.00     0.093 A 
ATOM     17  C   UNL     1       1.505   5.179  -4.928  1.00  0.00     0.131 A 
ENDROOT
BRANCH   6  18
ATOM     18  O   UNL     1       3.069   6.775  -9.705  1.00  0.00    -0.507 OA
ATOM     19  H   UNL     1       2.923   7.448 -10.448  1.00  0.00     0.293 HD
ENDBRANCH   6  18
BRANCH  17  20
ATOM     20  O   UNL     1       1.691   6.546  -4.711  1.00  0.00    -0.507 OA
ATOM     21  H   UNL     1       1.943   6.942  -3.817  1.00  0.00     0.293 HD
ENDBRANCH  17  20
BRANCH  15  22
ATOM     22  O   UNL     1       0.266   2.340  -2.915  1.00  0.00    -0.508 OA
ATOM     23  H   UNL     1       0.864   2.125  -2.126  1.00  0.00     0.293 HD
ENDBRANCH  15  22
TORSDOF 3
ENDMDL
MODEL 3
REMARK VINA RESULT:    -6.215      2.587      4.439
REMARK INTER + INTRA:          -6.759
REMARK INTER:                  -6.759
REMARK INTRA:                   0.000
REMARK UNBOUND:                 0.000
REMARK SMILES Cc1cc(O)c2c(c1)C(=O)c1cc(O)cc(O)c1C2=O
REMARK SMILES IDX 1 1 2 2 8 3 7 4 6 5 4 6 3 7 19 8 20 9 18 10 11 11 9 12 10 13
REMARK SMILES IDX 12 14 13 15 15 16 16 17 5 18 17 20 14 22
REMARK H PARENT 5 19 17 21 14 23
REMARK Flexibility Score: inf
ROOT
ATOM      1  C   UNL     1       0.620  -0.876 -11.285  1.00  0.00     0.044 C 
ATOM      2  C   UNL     1       1.104   0.509 -10.967  1.00  0.00    -0.047 A 
ATOM      3  C   UNL     1       1.092   0.973  -9.646  1.00  0.00     0.016 A 
ATOM      4  C   UNL     1       1.508   2.282  -9.343  1.00  0.00     0.038 A 
ATOM      5  C   UNL     1       1.933   3.140 -10.378  1.00  0.00     0.076 A 
ATOM      6  C   UNL     1       1.916   2.676 -11.714  1.00  0.00     0.127 A 
ATOM      7  C   UNL     1       1.498   1.370 -11.997  1.00  0.00     0.050 A 
ATOM      8  C   UNL     1       2.408   4.507 -10.036  1.00  0.00     0.201 C 
ATOM      9  O   UNL     1       3.117   5.141 -10.863  1.00  0.00    -0.288 OA
ATOM     10  C   UNL     1       2.147   5.074  -8.683  1.00  0.00     0.076 A 
ATOM     11  C   UNL     1       1.778   4.187  -7.644  1.00  0.00     0.041 A 
ATOM     12  C   UNL     1       1.500   2.763  -7.942  1.00  0.00     0.194 C 
ATOM     13  O   UNL     1       1.240   1.961  -7.004  1.00  0.00    -0.289 OA
ATOM     14  C   UNL     1       1.666   4.663  -6.325  1.00  0.00     0.059 A 
ATOM     15  C   UNL     1       1.900   6.009  -6.034  1.00  0.00     0.120 A 
ATOM     16  C   UNL     1       2.216   6.895  -7.061  1.00  0.00     0.093 A 
ATOM     17  C   UNL     1       2.309   6.455  -8.385  1.00  0.00     0.131 A 
ENDROOT
BRANCH   6  18
ATOM     18  O   UNL     1       2.302   3.512 -12.763  1.00  0.00    -0.507 OA
ATOM     19  H   UNL     1       1.768   3.570 -13.621  1.00  0.00     0.293 HD
ENDBRANCH   6  18
BRANCH  17  20
ATOM     20  O   UNL     1       2.523   7.425  -9.366  1.00  0.00    -0.507 OA
ATOM     21  H   UNL     1       1.803   7.763  -9.988  1.00  0.00     0.293 HD
ENDBRANCH  17  20
BRANCH  15  22
ATOM     22  O   UNL     1       1.806   6.479  -4.726  1.00  0.00    -0.508 OA
ATOM     23  H   UNL     1       1.059   6.183  -4.108  1.00  0.00     0.293 HD
ENDBRANCH  15  22
TORSDOF 3
ENDMDL
MODEL 4
REMARK VINA RESULT:    -6.098      1.516      5.733
REMARK INTER + INTRA:          -6.633
REMARK INTER:                  -6.633
REMARK INTRA:                   0.000
REMARK UNBOUND:                 0.000
REMARK SMILES Cc1cc(O)c2c(c1)C(=O)c1cc(O)cc(O)c1C2=O
REMARK SMILES IDX 1 1 2 2 8 3 7 4 6 5 4 6 3 7 19 8 20 9 18 10 11 11 9 12 10 13
REMARK SMILES IDX 12 14 13 15 15 16 16 17 5 18 17 20 14 22
REMARK H PARENT 5 19 17 21 14 23
REMARK Flexibility Score: inf
ROOT
ATOM      1  C   UNL     1      -0.366   0.149  -2.011  1.00  0.00     0.044 C 
ATOM      2  C   UNL     1      -0.085   1.420  -2.759  1.00  0.00    -0.047 A 
ATOM      3  C   UNL     1       0.327   1.374  -4.097  1.00  0.00     0.016 A 
ATOM      4  C   UNL     1       0.629   2.556  -4.795  1.00  0.00     0.038 A 
ATOM      5  C   UNL     1       0.526   3.802  -4.142  1.00  0.00     0.076 A 
ATOM      6  C   UNL     1       0.137   3.842  -2.783  1.00  0.00     0.127 A 
ATOM      7  C   UNL     1      -0.159   2.654  -2.104  1.00  0.00     0.050 A 
ATOM      8  C   UNL     1       0.810   5.045  -4.906  1.00  0.00     0.201 C 
ATOM      9  O   UNL     1       0.382   6.149  -4.474  1.00  0.00    -0.288 OA
ATOM     10  C   UNL     1       1.492   4.972  -6.229  1.00  0.00     0.076 A 
ATOM     11  C   UNL     1       1.534   3.724  -6.895  1.00  0.00     0.041 A 
ATOM     12  C   UNL     1       1.057   2.498  -6.211  1.00  0.00     0.194 C 
ATOM     13  O   UNL     1       1.031   1.400  -6.832  1.00  0.00    -0.289 OA
ATOM     14  C   UNL     1       2.038   3.646  -8.205  1.00  0.00     0.059 A 
ATOM     15  C   UNL     1       2.515   4.789  -8.851  1.00  0.00     0.120 A 
ATOM     16  C   UNL     1       2.520   6.011  -8.182  1.00  0.00     0.093 A 
ATOM     17  C   UNL     1       2.049   6.113  -6.869  1.00  0.00     0.131 A 
ENDROOT
BRANCH   6  18
ATOM     18  O   UNL     1       0.056   5.057  -2.102  1.00  0.00    -0.507 OA
ATOM     19  H   UNL     1      -0.622   5.210  -1.365  1.00  0.00     0.293 HD
ENDBRANCH   6  18
BRANCH  17  20
ATOM     20  O   UNL     1       2.189   7.349  -6.236  1.00  0.00    -0.507 OA
ATOM     21  H   UNL     1       3.000   7.614  -5.695  1.00  0.00     0.293 HD
ENDBRANCH  17  20
BRANCH  15  22
ATOM     22  O   UNL     1       3.000   4.718 -10.155  1.00  0.00    -0.508 OA
ATOM     23  H   UNL     1       3.380   3.858 -10.534  1.00  0.00     0.293 HD
ENDBRANCH  15  22
TORSDOF 3
ENDMDL
MODEL 5
REMARK VINA RESULT:    -6.069      1.577      5.539
REMARK INTER + INTRA:          -6.602
REMARK INTER:                  -6.602
REMARK INTRA:                   0.000
REMARK UNBOUND:                 0.000
REMARK SMILES Cc1cc(O)c2c(c1)C(=O)c1cc(O)cc(O)c1C2=O
REMARK SMILES IDX 1 1 2 2 8 3 7 4 6 5 4 6 3 7 19 8 20 9 18 10 11 11 9 12 10 13
REMARK SMILES IDX 12 14 13 15 15 16 16 17 5 18 17 20 14 22
REMARK H PARENT 5 19 17 21 14 23
REMARK Flexibility Score: inf
ROOT
ATOM      1  C   UNL     1       0.401   2.745  -3.033  1.00  0.00     0.044 C 
ATOM      2  C   UNL     1       0.754   3.498  -4.282  1.00  0.00    -0.047 A 
ATOM      3  C   UNL     1       0.758   2.846  -5.522  1.00  0.00     0.016 A 
ATOM      4  C   UNL     1       1.124   3.534  -6.692  1.00  0.00     0.038 A 
ATOM      5  C   UNL     1       1.499   4.892  -6.619  1.00  0.00     0.076 A 
ATOM      6  C   UNL     1       1.520   5.538  -5.362  1.00  0.00     0.127 A 
ATOM      7  C   UNL     1       1.153   4.837  -4.207  1.00  0.00     0.050 A 
ATOM      8  C   UNL     1       1.844   5.615  -7.872  1.00  0.00     0.201 C 
ATOM      9  O   UNL     1       1.822   6.875  -7.885  1.00  0.00    -0.288 OA
ATOM     10  C   UNL     1       2.098   4.857  -9.129  1.00  0.00     0.076 A 
ATOM     11  C   UNL     1       1.662   3.512  -9.202  1.00  0.00     0.041 A 
ATOM     12  C   UNL     1       1.119   2.838  -7.999  1.00  0.00     0.194 C 
ATOM     13  O   UNL     1       0.666   1.663  -8.085  1.00  0.00    -0.289 OA
ATOM     14  C   UNL     1       1.753   2.812 -10.418  1.00  0.00     0.059 A 
ATOM     15  C   UNL     1       2.286   3.427 -11.553  1.00  0.00     0.120 A 
ATOM     16  C   UNL     1       2.761   4.735 -11.474  1.00  0.00     0.093 A 
ATOM     17  C   UNL     1       2.707   5.446 -10.271  1.00  0.00     0.131 A 
ENDROOT
BRANCH   6  18
ATOM     18  O   UNL     1       1.916   6.872  -5.255  1.00  0.00    -0.507 OA
ATOM     19  H   UNL     1       1.419   7.530  -4.667  1.00  0.00     0.293 HD
ENDBRANCH   6  18
BRANCH  17  20
ATOM     20  O   UNL     1       3.302   6.709 -10.250  1.00  0.00    -0.507 OA
ATOM     21  H   UNL     1       2.902   7.525 -10.692  1.00  0.00     0.293 HD
ENDBRANCH  17  20
BRANCH  15  22
ATOM     22  O   UNL     1       2.362   2.742 -12.763  1.00  0.00    -0.508 OA
ATOM     23  H   UNL     1       1.648   2.079 -13.044  1.00  0.00     0.293 HD
ENDBRANCH  15  22
TORSDOF 3
ENDMDL
MODEL 6
REMARK VINA RESULT:    -6.043      1.393      6.208
REMARK INTER + INTRA:          -6.573
REMARK INTER:                  -6.573
REMARK INTRA:                   0.000
REMARK UNBOUND:                 0.000
REMARK SMILES Cc1cc(O)c2c(c1)C(=O)c1cc(O)cc(O)c1C2=O
REMARK SMILES IDX 1 1 2 2 8 3 7 4 6 5 4 6 3 7 19 8 20 9 18 10 11 11 9 12 10 13
REMARK SMILES IDX 12 14 13 15 15 16 16 17 5 18 17 20 14 22
REMARK H PARENT 5 19 17 21 14 23
REMARK Flexibility Score: inf
ROOT
ATOM      1  C   UNL     1       0.381   5.974  -1.748  1.00  0.00     0.044 C 
ATOM      2  C   UNL     1       0.699   5.164  -2.971  1.00  0.00    -0.047 A 
ATOM      3  C   UNL     1       1.202   5.790  -4.119  1.00  0.00     0.016 A 
ATOM      4  C   UNL     1       1.468   5.046  -5.282  1.00  0.00     0.038 A 
ATOM      5  C   UNL     1       1.216   3.658  -5.300  1.00  0.00     0.076 A 
ATOM      6  C   UNL     1       0.682   3.036  -4.149  1.00  0.00     0.127 A 
ATOM      7  C   UNL     1       0.423   3.793  -2.999  1.00  0.00     0.050 A 
ATOM      8  C   UNL     1       1.540   2.880  -6.525  1.00  0.00     0.201 C 
ATOM      9  O   UNL     1       1.673   1.629  -6.447  1.00  0.00    -0.288 OA
ATOM     10  C   UNL     1       1.822   3.585  -7.807  1.00  0.00     0.076 A 
ATOM     11  C   UNL     1       2.129   4.965  -7.762  1.00  0.00     0.041 A 
ATOM     12  C   UNL     1       2.008   5.714  -6.489  1.00  0.00     0.194 C 
ATOM     13  O   UNL     1       2.349   6.928  -6.436  1.00  0.00    -0.289 OA
ATOM     14  C   UNL     1       2.542   5.629  -8.930  1.00  0.00     0.059 A 
ATOM     15  C   UNL     1       2.636   4.942 -10.142  1.00  0.00     0.120 A 
ATOM     16  C   UNL     1       2.289   3.593 -10.202  1.00  0.00     0.093 A 
ATOM     17  C   UNL     1       1.850   2.914  -9.061  1.00  0.00     0.131 A 
ENDROOT
BRANCH   6  18
ATOM     18  O   UNL     1       0.394   1.670  -4.146  1.00  0.00    -0.507 OA
ATOM     19  H   UNL     1       1.125   0.972  -4.199  1.00  0.00     0.293 HD
ENDBRANCH   6  18
BRANCH  17  20
ATOM     20  O   UNL     1       1.420   1.597  -9.230  1.00  0.00    -0.507 OA
ATOM     21  H   UNL     1       2.015   0.791  -9.099  1.00  0.00     0.293 HD
ENDBRANCH  17  20
BRANCH  15  22
ATOM     22  O   UNL     1       3.060   5.593 -11.298  1.00  0.00    -0.508 OA
ATOM     23  H   UNL     1       2.400   5.949 -11.980  1.00  0.00     0.293 HD
ENDBRANCH  15  22
TORSDOF 3
ENDMDL
MODEL 7
REMARK VINA RESULT:    -5.990      1.732      5.324
REMARK INTER + INTRA:          -6.515
REMARK INTER:                  -6.515
REMARK INTRA:                   0.000
REMARK UNBOUND:                 0.000
REMARK SMILES Cc1cc(O)c2c(c1)C(=O)c1cc(O)cc(O)c1C2=O
REMARK SMILES IDX 1 1 2 2 8 3 7 4 6 5 4 6 3 7 19 8 20 9 18 10 11 11 9 12 10 13
REMARK SMILES IDX 12 14 13 15 15 16 16 17 5 18 17 20 14 22
REMARK H PARENT 5 19 17 21 14 23
REMARK Flexibility Score: inf
ROOT
ATOM      1  C   UNL     1       1.318  -1.781  -6.606  1.00  0.00     0.044 C 
ATOM      2  C   UNL     1       1.274  -0.293  -6.421  1.00  0.00    -0.047 A 
ATOM      3  C   UNL     1       1.523   0.560  -7.503  1.00  0.00     0.016 A 
ATOM      4  C   UNL     1       1.521   1.955  -7.332  1.00  0.00     0.038 A 
ATOM      5  C   UNL     1       1.274   2.505  -6.057  1.00  0.00     0.076 A 
ATOM      6  C   UNL     1       1.050   1.640  -4.961  1.00  0.00     0.127 A 
ATOM      7  C   UNL     1       1.057   0.253  -5.150  1.00  0.00     0.050 A 
ATOM      8  C   UNL     1       1.235   3.983  -5.901  1.00  0.00     0.201 C 
ATOM      9  O   UNL     1       0.669   4.485  -4.893  1.00  0.00    -0.288 OA
ATOM     10  C   UNL     1       1.754   4.864  -6.985  1.00  0.00     0.076 A 
ATOM     11  C   UNL     1       1.940   4.307  -8.272  1.00  0.00     0.041 A 
ATOM     12  C   UNL     1       1.777   2.849  -8.484  1.00  0.00     0.194 C 
ATOM     13  O   UNL     1       1.876   2.366  -9.646  1.00  0.00    -0.289 OA
ATOM     14  C   UNL     1       2.288   5.139  -9.351  1.00  0.00     0.059 A 
ATOM     15  C   UNL     1       2.470   6.510  -9.160  1.00  0.00     0.120 A 
ATOM     16  C   UNL     1       2.335   7.056  -7.885  1.00  0.00     0.093 A 
ATOM     17  C   UNL     1       2.015   6.248  -6.789  1.00  0.00     0.131 A 
ENDROOT
BRANCH   6  18
ATOM     18  O   UNL     1       0.834   2.154  -3.681  1.00  0.00    -0.507 OA
ATOM     19  H   UNL     1       1.598   2.327  -3.041  1.00  0.00     0.293 HD
ENDBRANCH   6  18
BRANCH  17  20
ATOM     20  O   UNL     1       2.005   6.855  -5.532  1.00  0.00    -0.507 OA
ATOM     21  H   UNL     1       2.265   7.818  -5.372  1.00  0.00     0.293 HD
ENDBRANCH  17  20
BRANCH  15  22
ATOM     22  O   UNL     1       2.799   7.339 -10.230  1.00  0.00    -0.508 OA
ATOM     23  H   UNL     1       2.199   8.107 -10.511  1.00  0.00     0.293 HD
ENDBRANCH  15  22
TORSDOF 3
ENDMDL
MODEL 8
REMARK VINA RESULT:    -5.777      1.566      2.290
REMARK INTER + INTRA:          -6.284
REMARK INTER:                  -6.284
REMARK INTRA:                   0.000
REMARK UNBOUND:                 0.000
REMARK SMILES Cc1cc(O)c2c(c1)C(=O)c1cc(O)cc(O)c1C2=O
REMARK SMILES IDX 1 1 2 2 8 3 7 4 6 5 4 6 3 7 19 8 20 9 18 10 11 11 9 12 10 13
REMARK SMILES IDX 12 14 13 15 15 16 16 17 5 18 17 20 14 22
REMARK H PARENT 5 19 17 21 14 23
REMARK Flexibility Score: inf
ROOT
ATOM      1  C   UNL     1       1.634   2.618 -10.040  1.00  0.00     0.044 C 
ATOM      2  C   UNL     1       1.595   3.343  -8.726  1.00  0.00    -0.047 A 
ATOM      3  C   UNL     1       1.369   2.638  -7.538  1.00  0.00     0.016 A 
ATOM      4  C   UNL     1       1.293   3.313  -6.308  1.00  0.00     0.038 A 
ATOM      5  C   UNL     1       1.437   4.716  -6.267  1.00  0.00     0.076 A 
ATOM      6  C   UNL     1       1.636   5.427  -7.472  1.00  0.00     0.127 A 
ATOM      7  C   UNL     1       1.708   4.737  -8.689  1.00  0.00     0.050 A 
ATOM      8  C   UNL     1       1.395   5.410  -4.953  1.00  0.00     0.201 C 
ATOM      9  O   UNL     1       1.873   6.571  -4.850  1.00  0.00    -0.288 OA
ATOM     10  C   UNL     1       0.898   4.694  -3.743  1.00  0.00     0.076 A 
ATOM     11  C   UNL     1       0.817   3.282  -3.785  1.00  0.00     0.041 A 
ATOM     12  C   UNL     1       1.062   2.558  -5.054  1.00  0.00     0.194 C 
ATOM     13  O   UNL     1       1.057   1.297  -5.072  1.00  0.00    -0.289 OA
ATOM     14  C   UNL     1       0.493   2.565  -2.619  1.00  0.00     0.059 A 
ATOM     15  C   UNL     1       0.234   3.236  -1.422  1.00  0.00     0.120 A 
ATOM     16  C   UNL     1       0.266   4.629  -1.388  1.00  0.00     0.093 A 
ATOM     17  C   UNL     1       0.559   5.368  -2.538  1.00  0.00     0.131 A 
ENDROOT
BRANCH   6  18
ATOM     18  O   UNL     1       1.751   6.818  -7.467  1.00  0.00    -0.507 OA
ATOM     19  H   UNL     1       1.142   7.405  -8.024  1.00  0.00     0.293 HD
ENDBRANCH   6  18
BRANCH  17  20
ATOM     20  O   UNL     1       0.465   6.758  -2.443  1.00  0.00    -0.507 OA
ATOM     21  H   UNL     1      -0.295   7.297  -2.835  1.00  0.00     0.293 HD
ENDBRANCH  17  20
BRANCH  15  22
ATOM     22  O   UNL     1      -0.070   2.528  -0.262  1.00  0.00    -0.508 OA
ATOM     23  H   UNL     1      -0.390   1.567  -0.295  1.00  0.00     0.293 HD
ENDBRANCH  15  22
TORSDOF 3
ENDMDL
MODEL 9
REMARK VINA RESULT:    -5.704      1.407      6.422
REMARK INTER + INTRA:          -6.204
REMARK INTER:                  -6.204
REMARK INTRA:                   0.000
REMARK UNBOUND:                 0.000
REMARK SMILES Cc1cc(O)c2c(c1)C(=O)c1cc(O)cc(O)c1C2=O
REMARK SMILES IDX 1 1 2 2 8 3 7 4 6 5 4 6 3 7 19 8 20 9 18 10 11 11 9 12 10 13
REMARK SMILES IDX 12 14 13 15 15 16 16 17 5 18 17 20 14 22
REMARK H PARENT 5 19 17 21 14 23
REMARK Flexibility Score: inf
ROOT
ATOM      1  C   UNL     1      -0.897   2.268  -1.109  1.00  0.00     0.044 C 
ATOM      2  C   UNL     1      -0.208   2.407  -2.436  1.00  0.00    -0.047 A 
ATOM      3  C   UNL     1       0.129   3.675  -2.924  1.00  0.00     0.016 A 
ATOM      4  C   UNL     1       0.740   3.819  -4.182  1.00  0.00     0.038 A 
ATOM      5  C   UNL     1       1.008   2.677  -4.966  1.00  0.00     0.076 A 
ATOM      6  C   UNL     1       0.640   1.402  -4.481  1.00  0.00     0.127 A 
ATOM      7  C   UNL     1       0.032   1.278  -3.226  1.00  0.00     0.050 A 
ATOM      8  C   UNL     1       1.691   2.843  -6.277  1.00  0.00     0.201 C 
ATOM      9  O   UNL     1       2.258   1.852  -6.809  1.00  0.00    -0.288 OA
ATOM     10  C   UNL     1       1.806   4.194  -6.896  1.00  0.00     0.076 A 
ATOM     11  C   UNL     1       1.590   5.328  -6.078  1.00  0.00     0.041 A 
ATOM     12  C   UNL     1       1.102   5.163  -4.688  1.00  0.00     0.194 C 
ATOM     13  O   UNL     1       0.977   6.171  -3.940  1.00  0.00    -0.289 OA
ATOM     14  C   UNL     1       1.831   6.616  -6.589  1.00  0.00     0.059 A 
ATOM     15  C   UNL     1       2.267   6.787  -7.904  1.00  0.00     0.120 A 
ATOM     16  C   UNL     1       2.435   5.676  -8.729  1.00  0.00     0.093 A 
ATOM     17  C   UNL     1       2.177   4.386  -8.255  1.00  0.00     0.131 A 
ENDROOT
BRANCH   6  18
ATOM     18  O   UNL     1       0.864   0.257  -5.247  1.00  0.00    -0.507 OA
ATOM     19  H   UNL     1       1.301  -0.569  -4.856  1.00  0.00     0.293 HD
ENDBRANCH   6  18
BRANCH  17  20
ATOM     20  O   UNL     1       2.266   3.340  -9.175  1.00  0.00    -0.507 OA
ATOM     21  H   UNL     1       2.027   2.382  -8.961  1.00  0.00     0.293 HD
ENDBRANCH  17  20
BRANCH  15  22
ATOM     22  O   UNL     1       2.523   8.060  -8.408  1.00  0.00    -0.508 OA
ATOM     23  H   UNL     1       2.422   8.889  -7.833  1.00  0.00     0.293 HD
ENDBRANCH  15  22
TORSDOF 3
ENDMDL
