MODEL 1
REMARK VINA RESULT:    -5.015      0.000      0.000
REMARK INTER + INTRA:         -13.882
REMARK INTER:                 -10.879
REMARK INTRA:                  -3.002
REMARK UNBOUND:                -3.002
REMARK SMILES CCCCCCCCCCCCCCCCCCCCCC(=O)[O-]
REMARK SMILES IDX 12 1 11 2 10 3 9 4 8 5 7 6 6 7 5 8 4 9 3 10 2 11 1 12 13 13
REMARK SMILES IDX 14 14 15 15 16 16 17 17 18 18 19 19 20 20 21 21 22 22 23 23
REMARK SMILES IDX 24 24
REMARK H PARENT
REMARK Flexibility Score: inf
ROOT
ATOM      1  C   UNL     1      11.690  13.142 163.546  1.00  0.00     0.000 C 
ENDROOT
BRANCH   1   2
ATOM      2  C   UNL     1      10.629  12.317 162.808  1.00  0.00     0.000 C 
BRANCH   2   3
ATOM      3  C   UNL     1      10.095  13.075 161.588  1.00  0.00     0.000 C 
BRANCH   3   4
ATOM      4  C   UNL     1       9.537  14.446 161.989  1.00  0.00    -0.000 C 
BRANCH   4   5
ATOM      5  C   UNL     1      10.031  15.540 161.035  1.00  0.00    -0.000 C 
BRANCH   5   6
ATOM      6  C   UNL     1      11.290  15.089 160.279  1.00  0.00    -0.000 C 
BRANCH   6   7
ATOM      7  C   UNL     1      12.576  15.703 160.871  1.00  0.00    -0.000 C 
BRANCH   7   8
ATOM      8  C   UNL     1      13.656  14.664 161.223  1.00  0.00    -0.000 C 
BRANCH   8   9
ATOM      9  C   UNL     1      14.537  15.090 162.405  1.00  0.00    -0.000 C 
BRANCH   9  10
ATOM     10  C   UNL     1      14.994  13.872 163.219  1.00  0.00    -0.000 C 
BRANCH  10  11
ATOM     11  C   UNL     1      16.504  13.881 163.499  1.00  0.00    -0.003 C 
ATOM     12  C   UNL     1      17.339  14.097 162.236  1.00  0.00     0.004 C 
ENDBRANCH  10  11
ENDBRANCH   9  10
ENDBRANCH   8   9
ENDBRANCH   7   8
ENDBRANCH   6   7
ENDBRANCH   5   6
ENDBRANCH   4   5
ENDBRANCH   3   4
ENDBRANCH   2   3
ENDBRANCH   1   2
BRANCH   1  13
ATOM     13  C   UNL     1      11.374  13.236 165.044  1.00  0.00     0.000 C 
BRANCH  13  14
ATOM     14  C   UNL     1      11.141  14.695 165.465  1.00  0.00     0.000 C 
BRANCH  14  15
ATOM     15  C   UNL     1      12.192  15.653 164.882  1.00  0.00     0.000 C 
BRANCH  15  16
ATOM     16  C   UNL     1      11.559  16.821 164.106  1.00  0.00     0.000 C 
BRANCH  16  17
ATOM     17  C   UNL     1      10.065  16.996 164.424  1.00  0.00     0.000 C 
BRANCH  17  18
ATOM     18  C   UNL     1       9.621  18.469 164.375  1.00  0.00     0.000 C 
BRANCH  18  19
ATOM     19  C   UNL     1       8.506  18.787 165.386  1.00  0.00     0.000 C 
BRANCH  19  20
ATOM     20  C   UNL     1       7.735  17.558 165.912  1.00  0.00     0.006 C 
BRANCH  20  21
ATOM     21  C   UNL     1       7.651  17.464 167.443  1.00  0.00     0.053 C 
BRANCH  21  22
ATOM     22  C   UNL     1       6.917  16.237 167.891  1.00  0.00     0.041 C 
ATOM     23  O   UNL     1       5.684  16.115 167.662  1.00  0.00    -0.550 OA
ATOM     24  O   UNL     1       7.588  15.243 168.594  1.00  0.00    -0.550 OA
ENDBRANCH  21  22
ENDBRANCH  20  21
ENDBRANCH  19  20
ENDBRANCH  18  19
ENDBRANCH  17  18
ENDBRANCH  16  17
ENDBRANCH  15  16
ENDBRANCH  14  15
ENDBRANCH  13  14
ENDBRANCH   1  13
TORSDOF 20
ENDMDL
MODEL 2
REMARK VINA RESULT:    -4.894      1.056      2.275
REMARK INTER + INTRA:         -13.618
REMARK INTER:                 -10.483
REMARK INTRA:                  -3.135
REMARK UNBOUND:                -3.002
REMARK SMILES CCCCCCCCCCCCCCCCCCCCCC(=O)[O-]
REMARK SMILES IDX 12 1 11 2 10 3 9 4 8 5 7 6 6 7 5 8 4 9 3 10 2 11 1 12 13 13
REMARK SMILES IDX 14 14 15 15 16 16 17 17 18 18 19 19 20 20 21 21 22 22 23 23
REMARK SMILES IDX 24 24
REMARK H PARENT
REMARK Flexibility Score: inf
ROOT
ATOM      1  C   UNL     1      12.494  17.369 163.296  1.00  0.00     0.000 C 
ENDROOT
BRANCH   1   2
ATOM      2  C   UNL     1      12.187  16.371 162.174  1.00  0.00     0.000 C 
BRANCH   2   3
ATOM      3  C   UNL     1      10.906  16.760 161.427  1.00  0.00     0.000 C 
BRANCH   3   4
ATOM      4  C   UNL     1      10.152  15.517 160.940  1.00  0.00    -0.000 C 
BRANCH   4   5
ATOM      5  C   UNL     1       9.728  14.634 162.120  1.00  0.00    -0.000 C 
BRANCH   5   6
ATOM      6  C   UNL     1       9.880  13.144 161.779  1.00  0.00    -0.000 C 
BRANCH   6   7
ATOM      7  C   UNL     1      11.109  12.511 162.465  1.00  0.00    -0.000 C 
BRANCH   7   8
ATOM      8  C   UNL     1      12.431  12.751 161.714  1.00  0.00    -0.000 C 
BRANCH   8   9
ATOM      9  C   UNL     1      13.637  12.896 162.653  1.00  0.00    -0.000 C 
BRANCH   9  10
ATOM     10  C   UNL     1      14.604  13.975 162.145  1.00  0.00    -0.000 C 
BRANCH  10  11
ATOM     11  C   UNL     1      15.740  14.264 163.137  1.00  0.00    -0.003 C 
ATOM     12  C   UNL     1      17.126  14.070 162.522  1.00  0.00     0.004 C 
ENDBRANCH  10  11
ENDBRANCH   9  10
ENDBRANCH   8   9
ENDBRANCH   7   8
ENDBRANCH   6   7
ENDBRANCH   5   6
ENDBRANCH   4   5
ENDBRANCH   3   4
ENDBRANCH   2   3
ENDBRANCH   1   2
BRANCH   1  13
ATOM     13  C   UNL     1      12.811  16.645 164.609  1.00  0.00     0.000 C 
BRANCH  13  14
ATOM     14  C   UNL     1      12.339  15.184 164.558  1.00  0.00     0.000 C 
BRANCH  14  15
ATOM     15  C   UNL     1      11.221  14.889 165.570  1.00  0.00     0.000 C 
BRANCH  15  16
ATOM     16  C   UNL     1      10.520  16.167 166.064  1.00  0.00     0.000 C 
BRANCH  16  17
ATOM     17  C   UNL     1       9.398  16.625 165.118  1.00  0.00     0.000 C 
BRANCH  17  18
ATOM     18  C   UNL     1       9.222  18.153 165.110  1.00  0.00     0.000 C 
BRANCH  18  19
ATOM     19  C   UNL     1       7.929  18.607 165.810  1.00  0.00     0.000 C 
BRANCH  19  20
ATOM     20  C   UNL     1       7.928  18.438 167.344  1.00  0.00     0.006 C 
BRANCH  20  21
ATOM     21  C   UNL     1       6.693  17.716 167.905  1.00  0.00     0.053 C 
BRANCH  21  22
ATOM     22  C   UNL     1       6.773  16.232 167.709  1.00  0.00     0.041 C 
ATOM     23  O   UNL     1       5.891  15.632 167.040  1.00  0.00    -0.550 OA
ATOM     24  O   UNL     1       7.803  15.509 168.297  1.00  0.00    -0.550 OA
ENDBRANCH  21  22
ENDBRANCH  20  21
ENDBRANCH  19  20
ENDBRANCH  18  19
ENDBRANCH  17  18
ENDBRANCH  16  17
ENDBRANCH  15  16
ENDBRANCH  14  15
ENDBRANCH  13  14
ENDBRANCH   1  13
TORSDOF 20
ENDMDL
MODEL 3
REMARK VINA RESULT:    -4.875      2.990      7.383
REMARK INTER + INTRA:         -13.578
REMARK INTER:                 -10.522
REMARK INTRA:                  -3.056
REMARK UNBOUND:                -3.002
REMARK SMILES CCCCCCCCCCCCCCCCCCCCCC(=O)[O-]
REMARK SMILES IDX 12 1 11 2 10 3 9 4 8 5 7 6 6 7 5 8 4 9 3 10 2 11 1 12 13 13
REMARK SMILES IDX 14 14 15 15 16 16 17 17 18 18 19 19 20 20 21 21 22 22 23 23
REMARK SMILES IDX 24 24
REMARK H PARENT
REMARK Flexibility Score: inf
ROOT
ATOM      1  C   UNL     1      11.363  13.251 165.074  1.00  0.00     0.000 C 
ENDROOT
BRANCH   1   2
ATOM      2  C   UNL     1      11.048  14.654 165.606  1.00  0.00     0.000 C 
BRANCH   2   3
ATOM      3  C   UNL     1      12.028  15.689 165.041  1.00  0.00     0.000 C 
BRANCH   3   4
ATOM      4  C   UNL     1      11.282  16.835 164.348  1.00  0.00    -0.000 C 
BRANCH   4   5
ATOM      5  C   UNL     1       9.857  16.974 164.897  1.00  0.00    -0.000 C 
BRANCH   5   6
ATOM      6  C   UNL     1       9.326  18.404 164.706  1.00  0.00    -0.000 C 
BRANCH   6   7
ATOM      7  C   UNL     1       8.440  18.859 165.884  1.00  0.00    -0.000 C 
BRANCH   7   8
ATOM      8  C   UNL     1       6.953  19.011 165.520  1.00  0.00    -0.000 C 
BRANCH   8   9
ATOM      9  C   UNL     1       6.023  18.221 166.451  1.00  0.00    -0.000 C 
BRANCH   9  10
ATOM     10  C   UNL     1       6.050  16.723 166.116  1.00  0.00    -0.000 C 
BRANCH  10  11
ATOM     11  C   UNL     1       6.251  15.843 167.358  1.00  0.00    -0.003 C 
ATOM     12  C   UNL     1       7.542  16.166 168.110  1.00  0.00     0.004 C 
ENDBRANCH  10  11
ENDBRANCH   9  10
ENDBRANCH   8   9
ENDBRANCH   7   8
ENDBRANCH   6   7
ENDBRANCH   5   6
ENDBRANCH   4   5
ENDBRANCH   3   4
ENDBRANCH   2   3
ENDBRANCH   1   2
BRANCH   1  13
ATOM     13  C   UNL     1      11.686  13.287 163.576  1.00  0.00     0.000 C 
BRANCH  13  14
ATOM     14  C   UNL     1      10.648  12.490 162.772  1.00  0.00     0.000 C 
BRANCH  14  15
ATOM     15  C   UNL     1      10.187  13.231 161.506  1.00  0.00     0.000 C 
BRANCH  15  16
ATOM     16  C   UNL     1       9.698  14.659 161.804  1.00  0.00     0.000 C 
BRANCH  16  17
ATOM     17  C   UNL     1      10.261  15.691 160.814  1.00  0.00     0.000 C 
BRANCH  17  18
ATOM     18  C   UNL     1      11.727  16.053 161.110  1.00  0.00     0.000 C 
BRANCH  18  19
ATOM     19  C   UNL     1      12.718  15.318 160.191  1.00  0.00     0.000 C 
BRANCH  19  20
ATOM     20  C   UNL     1      13.859  14.580 160.923  1.00  0.00     0.006 C 
BRANCH  20  21
ATOM     21  C   UNL     1      14.288  15.226 162.250  1.00  0.00     0.053 C 
BRANCH  21  22
ATOM     22  C   UNL     1      15.351  14.429 162.943  1.00  0.00     0.041 C 
ATOM     23  O   UNL     1      15.076  13.773 163.982  1.00  0.00    -0.550 OA
ATOM     24  O   UNL     1      16.655  14.443 162.463  1.00  0.00    -0.550 OA
ENDBRANCH  21  22
ENDBRANCH  20  21
ENDBRANCH  19  20
ENDBRANCH  18  19
ENDBRANCH  17  18
ENDBRANCH  16  17
ENDBRANCH  15  16
ENDBRANCH  14  15
ENDBRANCH  13  14
ENDBRANCH   1  13
TORSDOF 20
ENDMDL
MODEL 4
REMARK VINA RESULT:    -4.866      1.199      2.804
REMARK INTER + INTRA:         -13.557
REMARK INTER:                 -10.750
REMARK INTRA:                  -2.807
REMARK UNBOUND:                -3.002
REMARK SMILES CCCCCCCCCCCCCCCCCCCCCC(=O)[O-]
REMARK SMILES IDX 12 1 11 2 10 3 9 4 8 5 7 6 6 7 5 8 4 9 3 10 2 11 1 12 13 13
REMARK SMILES IDX 14 14 15 15 16 16 17 17 18 18 19 19 20 20 21 21 22 22 23 23
REMARK SMILES IDX 24 24
REMARK H PARENT
REMARK Flexibility Score: inf
ROOT
ATOM      1  C   UNL     1      10.841  15.419 160.403  1.00  0.00     0.000 C 
ENDROOT
BRANCH   1   2
ATOM      2  C   UNL     1       9.757  15.122 161.446  1.00  0.00     0.000 C 
BRANCH   2   3
ATOM      3  C   UNL     1       9.784  13.646 161.861  1.00  0.00     0.000 C 
BRANCH   3   4
ATOM      4  C   UNL     1      11.032  12.942 161.316  1.00  0.00    -0.000 C 
BRANCH   4   5
ATOM      5  C   UNL     1      11.963  12.515 162.458  1.00  0.00    -0.000 C 
BRANCH   5   6
ATOM      6  C   UNL     1      11.399  12.943 163.822  1.00  0.00    -0.000 C 
BRANCH   6   7
ATOM      7  C   UNL     1      12.134  14.171 164.398  1.00  0.00    -0.000 C 
BRANCH   7   8
ATOM      8  C   UNL     1      13.629  14.226 164.037  1.00  0.00    -0.000 C 
BRANCH   8   9
ATOM      9  C   UNL     1      13.979  15.393 163.105  1.00  0.00    -0.000 C 
BRANCH   9  10
ATOM     10  C   UNL     1      15.195  15.055 162.231  1.00  0.00    -0.000 C 
BRANCH  10  11
ATOM     11  C   UNL     1      16.148  14.056 162.905  1.00  0.00    -0.003 C 
ATOM     12  C   UNL     1      17.588  14.184 162.408  1.00  0.00     0.004 C 
ENDBRANCH  10  11
ENDBRANCH   9  10
ENDBRANCH   8   9
ENDBRANCH   7   8
ENDBRANCH   6   7
ENDBRANCH   5   6
ENDBRANCH   4   5
ENDBRANCH   3   4
ENDBRANCH   2   3
ENDBRANCH   1   2
BRANCH   1  13
ATOM     13  C   UNL     1      11.002  16.928 160.187  1.00  0.00     0.000 C 
BRANCH  13  14
ATOM     14  C   UNL     1      11.615  17.598 161.426  1.00  0.00     0.000 C 
BRANCH  14  15
ATOM     15  C   UNL     1      10.841  18.850 161.865  1.00  0.00     0.000 C 
BRANCH  15  16
ATOM     16  C   UNL     1      10.569  18.874 163.380  1.00  0.00     0.000 C 
BRANCH  16  17
ATOM     17  C   UNL     1      10.812  17.509 164.043  1.00  0.00     0.000 C 
BRANCH  17  18
ATOM     18  C   UNL     1       9.613  17.040 164.884  1.00  0.00     0.000 C 
BRANCH  18  19
ATOM     19  C   UNL     1       8.770  18.209 165.422  1.00  0.00     0.000 C 
BRANCH  19  20
ATOM     20  C   UNL     1       7.479  17.794 166.159  1.00  0.00     0.006 C 
BRANCH  20  21
ATOM     21  C   UNL     1       7.614  17.715 167.688  1.00  0.00     0.053 C 
BRANCH  21  22
ATOM     22  C   UNL     1       7.551  16.302 168.184  1.00  0.00     0.041 C 
ATOM     23  O   UNL     1       6.651  15.953 168.992  1.00  0.00    -0.550 OA
ATOM     24  O   UNL     1       8.511  15.381 167.782  1.00  0.00    -0.550 OA
ENDBRANCH  21  22
ENDBRANCH  20  21
ENDBRANCH  19  20
ENDBRANCH  18  19
ENDBRANCH  17  18
ENDBRANCH  16  17
ENDBRANCH  15  16
ENDBRANCH  14  15
ENDBRANCH  13  14
ENDBRANCH   1  13
TORSDOF 20
ENDMDL
MODEL 5
REMARK VINA RESULT:    -4.855      1.429      4.264
REMARK INTER + INTRA:         -13.533
REMARK INTER:                 -11.139
REMARK INTRA:                  -2.394
REMARK UNBOUND:                -3.002
REMARK SMILES CCCCCCCCCCCCCCCCCCCCCC(=O)[O-]
REMARK SMILES IDX 12 1 11 2 10 3 9 4 8 5 7 6 6 7 5 8 4 9 3 10 2 11 1 12 13 13
REMARK SMILES IDX 14 14 15 15 16 16 17 17 18 18 19 19 20 20 21 21 22 22 23 23
REMARK SMILES IDX 24 24
REMARK H PARENT
REMARK Flexibility Score: inf
ROOT
ATOM      1  C   UNL     1      11.987  16.002 159.863  1.00  0.00     0.000 C 
ENDROOT
BRANCH   1   2
ATOM      2  C   UNL     1      13.112  15.063 160.316  1.00  0.00     0.000 C 
BRANCH   2   3
ATOM      3  C   UNL     1      13.595  15.424 161.725  1.00  0.00     0.000 C 
BRANCH   3   4
ATOM      4  C   UNL     1      14.564  14.365 162.265  1.00  0.00    -0.000 C 
BRANCH   4   5
ATOM      5  C   UNL     1      14.078  13.811 163.610  1.00  0.00    -0.000 C 
BRANCH   5   6
ATOM      6  C   UNL     1      12.634  14.249 163.900  1.00  0.00    -0.000 C 
BRANCH   6   7
ATOM      7  C   UNL     1      11.684  13.046 164.077  1.00  0.00    -0.000 C 
BRANCH   7   8
ATOM      8  C   UNL     1      10.609  12.937 162.982  1.00  0.00    -0.000 C 
BRANCH   8   9
ATOM      9  C   UNL     1      11.195  12.664 161.590  1.00  0.00    -0.000 C 
BRANCH   9  10
ATOM     10  C   UNL     1      10.572  11.406 160.967  1.00  0.00    -0.000 C 
BRANCH  10  11
ATOM     11  C   UNL     1       9.643  10.663 161.939  1.00  0.00    -0.003 C 
ATOM     12  C   UNL     1       9.084   9.368 161.350  1.00  0.00     0.004 C 
ENDBRANCH  10  11
ENDBRANCH   9  10
ENDBRANCH   8   9
ENDBRANCH   7   8
ENDBRANCH   6   7
ENDBRANCH   5   6
ENDBRANCH   4   5
ENDBRANCH   3   4
ENDBRANCH   2   3
ENDBRANCH   1   2
BRANCH   1  13
ATOM     13  C   UNL     1      11.056  16.353 161.029  1.00  0.00     0.000 C 
BRANCH  13  14
ATOM     14  C   UNL     1      11.195  17.834 161.414  1.00  0.00     0.000 C 
BRANCH  14  15
ATOM     15  C   UNL     1      11.071  18.063 162.929  1.00  0.00     0.000 C 
BRANCH  15  16
ATOM     16  C   UNL     1      10.351  16.906 163.644  1.00  0.00     0.000 C 
BRANCH  16  17
ATOM     17  C   UNL     1       9.721  17.340 164.977  1.00  0.00     0.000 C 
BRANCH  17  18
ATOM     18  C   UNL     1       8.962  18.674 164.864  1.00  0.00     0.000 C 
BRANCH  18  19
ATOM     19  C   UNL     1       7.687  18.708 165.723  1.00  0.00     0.000 C 
BRANCH  19  20
ATOM     20  C   UNL     1       7.832  18.081 167.126  1.00  0.00     0.006 C 
BRANCH  20  21
ATOM     21  C   UNL     1       6.875  16.911 167.405  1.00  0.00     0.053 C 
BRANCH  21  22
ATOM     22  C   UNL     1       7.506  15.863 168.268  1.00  0.00     0.041 C 
ATOM     23  O   UNL     1       6.969  15.529 169.358  1.00  0.00    -0.550 OA
ATOM     24  O   UNL     1       8.710  15.281 167.888  1.00  0.00    -0.550 OA
ENDBRANCH  21  22
ENDBRANCH  20  21
ENDBRANCH  19  20
ENDBRANCH  18  19
ENDBRANCH  17  18
ENDBRANCH  16  17
ENDBRANCH  15  16
ENDBRANCH  14  15
ENDBRANCH  13  14
ENDBRANCH   1  13
TORSDOF 20
ENDMDL
MODEL 6
REMARK VINA RESULT:    -4.831      1.375      3.487
REMARK INTER + INTRA:         -13.483
REMARK INTER:                 -10.648
REMARK INTRA:                  -2.834
REMARK UNBOUND:                -3.002
REMARK SMILES CCCCCCCCCCCCCCCCCCCCCC(=O)[O-]
REMARK SMILES IDX 12 1 11 2 10 3 9 4 8 5 7 6 6 7 5 8 4 9 3 10 2 11 1 12 13 13
REMARK SMILES IDX 14 14 15 15 16 16 17 17 18 18 19 19 20 20 21 21 22 22 23 23
REMARK SMILES IDX 24 24
REMARK H PARENT
REMARK Flexibility Score: inf
ROOT
ATOM      1  C   UNL     1      11.946  13.619 164.451  1.00  0.00     0.000 C 
ENDROOT
BRANCH   1   2
ATOM      2  C   UNL     1      13.376  13.934 163.995  1.00  0.00     0.000 C 
BRANCH   2   3
ATOM      3  C   UNL     1      13.596  13.504 162.540  1.00  0.00     0.000 C 
BRANCH   3   4
ATOM      4  C   UNL     1      14.063  14.684 161.680  1.00  0.00    -0.000 C 
BRANCH   4   5
ATOM      5  C   UNL     1      13.086  14.943 160.526  1.00  0.00    -0.000 C 
BRANCH   5   6
ATOM      6  C   UNL     1      11.927  15.846 160.975  1.00  0.00    -0.000 C 
BRANCH   6   7
ATOM      7  C   UNL     1      10.574  15.395 160.383  1.00  0.00    -0.000 C 
BRANCH   7   8
ATOM      8  C   UNL     1       9.537  14.988 161.445  1.00  0.00    -0.000 C 
BRANCH   8   9
ATOM      9  C   UNL     1       9.806  13.603 162.047  1.00  0.00    -0.000 C 
BRANCH   9  10
ATOM     10  C   UNL     1      10.245  12.607 160.965  1.00  0.00    -0.000 C 
BRANCH  10  11
ATOM     11  C   UNL     1      10.709  11.265 161.550  1.00  0.00    -0.003 C 
ATOM     12  C   UNL     1       9.591  10.224 161.604  1.00  0.00     0.004 C 
ENDBRANCH  10  11
ENDBRANCH   9  10
ENDBRANCH   8   9
ENDBRANCH   7   8
ENDBRANCH   6   7
ENDBRANCH   5   6
ENDBRANCH   4   5
ENDBRANCH   3   4
ENDBRANCH   2   3
ENDBRANCH   1   2
BRANCH   1  13
ATOM     13  C   UNL     1      11.286  14.847 165.089  1.00  0.00     0.000 C 
BRANCH  13  14
ATOM     14  C   UNL     1      12.061  16.128 164.745  1.00  0.00     0.000 C 
BRANCH  14  15
ATOM     15  C   UNL     1      11.196  17.158 164.001  1.00  0.00     0.000 C 
BRANCH  15  16
ATOM     16  C   UNL     1       9.754  17.212 164.534  1.00  0.00     0.000 C 
BRANCH  16  17
ATOM     17  C   UNL     1       9.260  18.652 164.749  1.00  0.00     0.000 C 
BRANCH  17  18
ATOM     18  C   UNL     1       8.415  18.800 166.026  1.00  0.00     0.000 C 
BRANCH  18  19
ATOM     19  C   UNL     1       6.973  18.296 165.848  1.00  0.00     0.000 C 
BRANCH  19  20
ATOM     20  C   UNL     1       6.751  16.816 166.224  1.00  0.00     0.006 C 
BRANCH  20  21
ATOM     21  C   UNL     1       6.192  16.594 167.638  1.00  0.00     0.053 C 
BRANCH  21  22
ATOM     22  C   UNL     1       7.143  15.824 168.503  1.00  0.00     0.041 C 
ATOM     23  O   UNL     1       8.217  15.374 168.021  1.00  0.00    -0.550 OA
ATOM     24  O   UNL     1       6.826  15.571 169.832  1.00  0.00    -0.550 OA
ENDBRANCH  21  22
ENDBRANCH  20  21
ENDBRANCH  19  20
ENDBRANCH  18  19
ENDBRANCH  17  18
ENDBRANCH  16  17
ENDBRANCH  15  16
ENDBRANCH  14  15
ENDBRANCH  13  14
ENDBRANCH   1  13
TORSDOF 20
ENDMDL
MODEL 7
REMARK VINA RESULT:    -4.806      3.173      7.559
REMARK INTER + INTRA:         -13.427
REMARK INTER:                 -10.396
REMARK INTRA:                  -3.031
REMARK UNBOUND:                -3.002
REMARK SMILES CCCCCCCCCCCCCCCCCCCCCC(=O)[O-]
REMARK SMILES IDX 12 1 11 2 10 3 9 4 8 5 7 6 6 7 5 8 4 9 3 10 2 11 1 12 13 13
REMARK SMILES IDX 14 14 15 15 16 16 17 17 18 18 19 19 20 20 21 21 22 22 23 23
REMARK SMILES IDX 24 24
REMARK H PARENT
REMARK Flexibility Score: inf
ROOT
ATOM      1  C   UNL     1      13.630  16.726 163.289  1.00  0.00     0.000 C 
ENDROOT
BRANCH   1   2
ATOM      2  C   UNL     1      12.255  16.909 163.942  1.00  0.00     0.000 C 
BRANCH   2   3
ATOM      3  C   UNL     1      11.981  15.802 164.967  1.00  0.00     0.000 C 
BRANCH   3   4
ATOM      4  C   UNL     1      10.654  16.041 165.696  1.00  0.00    -0.000 C 
BRANCH   4   5
ATOM      5  C   UNL     1       9.802  17.082 164.959  1.00  0.00    -0.000 C 
BRANCH   5   6
ATOM      6  C   UNL     1       8.518  17.401 165.741  1.00  0.00    -0.000 C 
BRANCH   6   7
ATOM      7  C   UNL     1       8.401  16.567 167.034  1.00  0.00    -0.000 C 
BRANCH   7   8
ATOM      8  C   UNL     1       7.335  17.088 168.014  1.00  0.00    -0.000 C 
BRANCH   8   9
ATOM      9  C   UNL     1       6.463  18.201 167.418  1.00  0.00    -0.000 C 
BRANCH   9  10
ATOM     10  C   UNL     1       5.121  17.645 166.922  1.00  0.00    -0.000 C 
BRANCH  10  11
ATOM     11  C   UNL     1       5.003  16.126 167.116  1.00  0.00    -0.003 C 
ATOM     12  C   UNL     1       4.958  15.362 165.793  1.00  0.00     0.004 C 
ENDBRANCH  10  11
ENDBRANCH   9  10
ENDBRANCH   8   9
ENDBRANCH   7   8
ENDBRANCH   6   7
ENDBRANCH   5   6
ENDBRANCH   4   5
ENDBRANCH   3   4
ENDBRANCH   2   3
ENDBRANCH   1   2
BRANCH   1  13
ATOM     13  C   UNL     1      14.072  15.258 163.332  1.00  0.00     0.000 C 
BRANCH  13  14
ATOM     14  C   UNL     1      14.074  14.644 161.924  1.00  0.00     0.000 C 
BRANCH  14  15
ATOM     15  C   UNL     1      13.269  13.337 161.849  1.00  0.00     0.000 C 
BRANCH  15  16
ATOM     16  C   UNL     1      12.597  12.981 163.187  1.00  0.00     0.000 C 
BRANCH  16  17
ATOM     17  C   UNL     1      11.092  12.709 163.034  1.00  0.00     0.000 C 
BRANCH  17  18
ATOM     18  C   UNL     1      10.548  13.153 161.666  1.00  0.00     0.000 C 
BRANCH  18  19
ATOM     19  C   UNL     1       9.546  14.316 161.772  1.00  0.00     0.000 C 
BRANCH  19  20
ATOM     20  C   UNL     1      10.147  15.716 161.530  1.00  0.00     0.006 C 
BRANCH  20  21
ATOM     21  C   UNL     1      11.044  15.819 160.286  1.00  0.00     0.053 C 
BRANCH  21  22
ATOM     22  C   UNL     1      11.351  17.242 159.932  1.00  0.00     0.041 C 
ATOM     23  O   UNL     1      11.848  17.524 158.809  1.00  0.00    -0.550 OA
ATOM     24  O   UNL     1      11.123  18.253 160.857  1.00  0.00    -0.550 OA
ENDBRANCH  21  22
ENDBRANCH  20  21
ENDBRANCH  19  20
ENDBRANCH  18  19
ENDBRANCH  17  18
ENDBRANCH  16  17
ENDBRANCH  15  16
ENDBRANCH  14  15
ENDBRANCH  13  14
ENDBRANCH   1  13
TORSDOF 20
ENDMDL
MODEL 8
REMARK VINA RESULT:    -4.687      1.196      2.050
REMARK INTER + INTRA:         -13.170
REMARK INTER:                 -10.092
REMARK INTRA:                  -3.078
REMARK UNBOUND:                -3.002
REMARK SMILES CCCCCCCCCCCCCCCCCCCCCC(=O)[O-]
REMARK SMILES IDX 12 1 11 2 10 3 9 4 8 5 7 6 6 7 5 8 4 9 3 10 2 11 1 12 13 13
REMARK SMILES IDX 14 14 15 15 16 16 17 17 18 18 19 19 20 20 21 21 22 22 23 23
REMARK SMILES IDX 24 24
REMARK H PARENT
REMARK Flexibility Score: inf
ROOT
ATOM      1  C   UNL     1      11.407  12.855 162.055  1.00  0.00     0.000 C 
ENDROOT
BRANCH   1   2
ATOM      2  C   UNL     1      11.578  13.873 160.922  1.00  0.00     0.000 C 
BRANCH   2   3
ATOM      3  C   UNL     1      10.540  14.995 161.029  1.00  0.00     0.000 C 
BRANCH   3   4
ATOM      4  C   UNL     1      10.881  16.155 160.086  1.00  0.00    -0.000 C 
BRANCH   4   5
ATOM      5  C   UNL     1      11.230  17.422 160.877  1.00  0.00    -0.000 C 
BRANCH   5   6
ATOM      6  C   UNL     1      11.279  17.137 162.386  1.00  0.00    -0.000 C 
BRANCH   6   7
ATOM      7  C   UNL     1      12.309  18.025 163.114  1.00  0.00    -0.000 C 
BRANCH   7   8
ATOM      8  C   UNL     1      13.501  17.245 163.695  1.00  0.00    -0.000 C 
BRANCH   8   9
ATOM      9  C   UNL     1      13.876  16.012 162.862  1.00  0.00    -0.000 C 
BRANCH   9  10
ATOM     10  C   UNL     1      14.223  14.821 163.767  1.00  0.00    -0.000 C 
BRANCH  10  11
ATOM     11  C   UNL     1      15.101  13.778 163.059  1.00  0.00    -0.003 C 
ATOM     12  C   UNL     1      16.408  14.366 162.528  1.00  0.00     0.004 C 
ENDBRANCH  10  11
ENDBRANCH   9  10
ENDBRANCH   8   9
ENDBRANCH   7   8
ENDBRANCH   6   7
ENDBRANCH   5   6
ENDBRANCH   4   5
ENDBRANCH   3   4
ENDBRANCH   2   3
ENDBRANCH   1   2
BRANCH   1  13
ATOM     13  C   UNL     1      10.860  13.524 163.322  1.00  0.00     0.000 C 
BRANCH  13  14
ATOM     14  C   UNL     1      11.538  12.958 164.578  1.00  0.00     0.000 C 
BRANCH  14  15
ATOM     15  C   UNL     1      11.230  13.782 165.838  1.00  0.00     0.000 C 
BRANCH  15  16
ATOM     16  C   UNL     1      11.289  15.298 165.579  1.00  0.00     0.000 C 
BRANCH  16  17
ATOM     17  C   UNL     1      10.097  16.047 166.196  1.00  0.00     0.000 C 
BRANCH  17  18
ATOM     18  C   UNL     1       9.277  16.817 165.147  1.00  0.00     0.000 C 
BRANCH  18  19
ATOM     19  C   UNL     1       8.713  18.143 165.687  1.00  0.00     0.000 C 
BRANCH  19  20
ATOM     20  C   UNL     1       7.311  18.040 166.323  1.00  0.00     0.006 C 
BRANCH  20  21
ATOM     21  C   UNL     1       7.310  17.631 167.804  1.00  0.00     0.053 C 
BRANCH  21  22
ATOM     22  C   UNL     1       6.869  16.212 167.994  1.00  0.00     0.041 C 
ATOM     23  O   UNL     1       7.300  15.538 168.967  1.00  0.00    -0.550 OA
ATOM     24  O   UNL     1       6.011  15.622 167.074  1.00  0.00    -0.550 OA
ENDBRANCH  21  22
ENDBRANCH  20  21
ENDBRANCH  19  20
ENDBRANCH  18  19
ENDBRANCH  17  18
ENDBRANCH  16  17
ENDBRANCH  15  16
ENDBRANCH  14  15
ENDBRANCH  13  14
ENDBRANCH   1  13
TORSDOF 20
ENDMDL
MODEL 9
REMARK VINA RESULT:    -4.616      1.314      3.542
REMARK INTER + INTRA:         -13.015
REMARK INTER:                 -10.074
REMARK INTRA:                  -2.941
REMARK UNBOUND:                -3.002
REMARK SMILES CCCCCCCCCCCCCCCCCCCCCC(=O)[O-]
REMARK SMILES IDX 12 1 11 2 10 3 9 4 8 5 7 6 6 7 5 8 4 9 3 10 2 11 1 12 13 13
REMARK SMILES IDX 14 14 15 15 16 16 17 17 18 18 19 19 20 20 21 21 22 22 23 23
REMARK SMILES IDX 24 24
REMARK H PARENT
REMARK Flexibility Score: inf
ROOT
ATOM      1  C   UNL     1      10.715  12.896 162.134  1.00  0.00     0.000 C 
ENDROOT
BRANCH   1   2
ATOM      2  C   UNL     1      12.105  12.401 161.715  1.00  0.00     0.000 C 
BRANCH   2   3
ATOM      3  C   UNL     1      13.084  13.571 161.568  1.00  0.00     0.000 C 
BRANCH   3   4
ATOM      4  C   UNL     1      14.249  13.445 162.557  1.00  0.00    -0.000 C 
BRANCH   4   5
ATOM      5  C   UNL     1      14.727  14.826 163.021  1.00  0.00    -0.000 C 
BRANCH   5   6
ATOM      6  C   UNL     1      13.765  15.930 162.556  1.00  0.00    -0.000 C 
BRANCH   6   7
ATOM      7  C   UNL     1      13.361  16.874 163.708  1.00  0.00    -0.000 C 
BRANCH   7   8
ATOM      8  C   UNL     1      12.479  18.054 163.264  1.00  0.00    -0.000 C 
BRANCH   8   9
ATOM      9  C   UNL     1      11.236  17.614 162.479  1.00  0.00    -0.000 C 
BRANCH   9  10
ATOM     10  C   UNL     1      11.228  18.225 161.071  1.00  0.00    -0.000 C 
BRANCH  10  11
ATOM     11  C   UNL     1      11.224  17.161 159.964  1.00  0.00    -0.003 C 
ATOM     12  C   UNL     1      10.421  15.916 160.343  1.00  0.00     0.004 C 
ENDBRANCH  10  11
ENDBRANCH   9  10
ENDBRANCH   8   9
ENDBRANCH   7   8
ENDBRANCH   6   7
ENDBRANCH   5   6
ENDBRANCH   4   5
ENDBRANCH   3   4
ENDBRANCH   2   3
ENDBRANCH   1   2
BRANCH   1  13
ATOM     13  C   UNL     1      10.799  13.798 163.371  1.00  0.00     0.000 C 
BRANCH  13  14
ATOM     14  C   UNL     1      11.304  13.013 164.590  1.00  0.00     0.000 C 
BRANCH  14  15
ATOM     15  C   UNL     1      11.307  13.855 165.875  1.00  0.00     0.000 C 
BRANCH  15  16
ATOM     16  C   UNL     1      11.331  15.367 165.589  1.00  0.00     0.000 C 
BRANCH  16  17
ATOM     17  C   UNL     1      10.138  16.103 166.218  1.00  0.00     0.000 C 
BRANCH  17  18
ATOM     18  C   UNL     1       9.293  16.856 165.176  1.00  0.00     0.000 C 
BRANCH  18  19
ATOM     19  C   UNL     1       8.699  18.165 165.724  1.00  0.00     0.000 C 
BRANCH  19  20
ATOM     20  C   UNL     1       7.284  18.036 166.325  1.00  0.00     0.006 C 
BRANCH  20  21
ATOM     21  C   UNL     1       7.255  17.636 167.809  1.00  0.00     0.053 C 
BRANCH  21  22
ATOM     22  C   UNL     1       6.864  16.202 167.996  1.00  0.00     0.041 C 
ATOM     23  O   UNL     1       7.577  15.436 168.696  1.00  0.00    -0.550 OA
ATOM     24  O   UNL     1       5.731  15.702 167.365  1.00  0.00    -0.550 OA
ENDBRANCH  21  22
ENDBRANCH  20  21
ENDBRANCH  19  20
ENDBRANCH  18  19
ENDBRANCH  17  18
ENDBRANCH  16  17
ENDBRANCH  15  16
ENDBRANCH  14  15
ENDBRANCH  13  14
ENDBRANCH   1  13
TORSDOF 20
ENDMDL
