MODEL 1
REMARK VINA RESULT:    -8.165      0.000      0.000
REMARK INTER + INTRA:         -13.514
REMARK INTER:                 -11.984
REMARK INTRA:                  -1.530
REMARK UNBOUND:                -1.530
REMARK SMILES O=c1c(O[C@@H]2O[C@H](CO)[C@H](O)[C@H](O)[C@H]2O)c(-c2ccc(O)c(O)c2)oc2cc(O)cc(O)c12
REMARK SMILES IDX 4 1 3 2 16 3 25 4 2 5 26 6 1 7 33 8 27 9 31 10 28 11 30 12
REMARK SMILES IDX 17 13 18 14 19 15 20 16 24 17 22 18 21 19 23 21 32 23 29 25
REMARK SMILES IDX 5 27 14 28 6 29 12 30 7 31 10 32 15 33 13 35 8 37 9 38 11 40
REMARK H PARENT 21 20 23 22 32 24 29 26 15 34 13 36 9 39 11 41
REMARK Flexibility Score: inf
ROOT
ATOM      1  O   UNL     1     -64.491 -42.104 -30.490  1.00  0.00    -0.454 OA
ENDROOT
BRANCH   1   2
ATOM      2  C   UNL     1     -64.368 -42.497 -31.852  1.00  0.00     0.214 A 
ATOM      3  C   UNL     1     -63.108 -42.659 -32.538  1.00  0.00     0.180 A 
ATOM      4  O   UNL     1     -62.990 -43.510 -33.535  1.00  0.00    -0.452 OA
ATOM      5  C   UNL     1     -65.495 -43.088 -32.482  1.00  0.00     0.239 A 
ATOM      6  C   UNL     1     -64.017 -44.122 -34.106  1.00  0.00     0.146 A 
ATOM      7  O   UNL     1     -66.636 -42.887 -31.981  1.00  0.00    -0.285 OA
ATOM      8  C   UNL     1     -65.338 -43.911 -33.639  1.00  0.00     0.111 A 
ATOM      9  C   UNL     1     -63.751 -44.971 -35.192  1.00  0.00     0.094 A 
ATOM     10  C   UNL     1     -66.403 -44.567 -34.321  1.00  0.00     0.134 A 
ATOM     11  C   UNL     1     -64.798 -45.515 -35.924  1.00  0.00     0.123 A 
ATOM     12  C   UNL     1     -66.124 -45.314 -35.476  1.00  0.00     0.093 A 
BRANCH   3  13
ATOM     13  C   UNL     1     -61.893 -41.883 -32.292  1.00  0.00     0.025 A 
ATOM     14  C   UNL     1     -61.508 -40.833 -33.164  1.00  0.00     0.016 A 
ATOM     15  C   UNL     1     -60.393 -40.049 -32.853  1.00  0.00     0.051 A 
ATOM     16  C   UNL     1     -59.698 -40.236 -31.668  1.00  0.00     0.157 A 
ATOM     17  C   UNL     1     -61.298 -41.942 -31.006  1.00  0.00     0.062 A 
ATOM     18  C   UNL     1     -60.170 -41.152 -30.729  1.00  0.00     0.158 A 
BRANCH  16  19
ATOM     19  O   UNL     1     -58.578 -39.458 -31.361  1.00  0.00    -0.504 OA
ATOM     20  H   UNL     1     -57.644 -39.774 -31.572  1.00  0.00     0.293 HD
ENDBRANCH  16  19
BRANCH  18  21
ATOM     21  O   UNL     1     -59.532 -41.256 -29.488  1.00  0.00    -0.504 OA
ATOM     22  H   UNL     1     -59.664 -40.579 -28.746  1.00  0.00     0.293 HD
ENDBRANCH  18  21
ENDBRANCH   3  13
BRANCH  10  23
ATOM     23  O   UNL     1     -67.735 -44.446 -33.889  1.00  0.00    -0.507 OA
ATOM     24  H   UNL     1     -67.992 -43.769 -33.164  1.00  0.00     0.293 HD
ENDBRANCH  10  23
BRANCH  11  25
ATOM     25  O   UNL     1     -64.569 -46.212 -37.112  1.00  0.00    -0.508 OA
ATOM     26  H   UNL     1     -63.960 -45.799 -37.846  1.00  0.00     0.293 HD
ENDBRANCH  11  25
ENDBRANCH   1   2
BRANCH   1  27
ATOM     27  C   UNL     1     -64.694 -40.805 -29.821  1.00  0.00     0.339 C 
ATOM     28  C   UNL     1     -66.189 -40.363 -29.876  1.00  0.00     0.214 C 
ATOM     29  O   UNL     1     -64.113 -40.685 -28.504  1.00  0.00    -0.332 OA
ATOM     30  C   UNL     1     -66.604 -39.595 -28.606  1.00  0.00     0.180 C 
ATOM     31  C   UNL     1     -64.155 -39.322 -27.986  1.00  0.00     0.179 C 
ATOM     32  C   UNL     1     -65.509 -38.575 -28.298  1.00  0.00     0.177 C 
BRANCH  28  33
ATOM     33  O   UNL     1     -66.397 -39.539 -31.000  1.00  0.00    -0.384 OA
ATOM     34  H   UNL     1     -67.150 -38.920 -30.774  1.00  0.00     0.211 HD
ENDBRANCH  28  33
BRANCH  30  35
ATOM     35  O   UNL     1     -66.812 -40.488 -27.518  1.00  0.00    -0.387 OA
ATOM     36  H   UNL     1     -66.029 -40.402 -26.883  1.00  0.00     0.211 HD
ENDBRANCH  30  35
BRANCH  31  37
ATOM     37  C   UNL     1     -63.641 -39.304 -26.501  1.00  0.00     0.191 C 
BRANCH  37  38
ATOM     38  O   UNL     1     -64.618 -39.733 -25.576  1.00  0.00    -0.394 OA
ATOM     39  H   UNL     1     -64.265 -40.534 -25.081  1.00  0.00     0.210 HD
ENDBRANCH  37  38
ENDBRANCH  31  37
BRANCH  32  40
ATOM     40  O   UNL     1     -65.937 -37.683 -27.290  1.00  0.00    -0.387 OA
ATOM     41  H   UNL     1     -65.710 -36.757 -27.573  1.00  0.00     0.211 HD
ENDBRANCH  32  40
ENDBRANCH   1  27
TORSDOF 12
ENDMDL
MODEL 2
REMARK VINA RESULT:    -8.048      3.295      7.683
REMARK INTER + INTRA:         -13.341
REMARK INTER:                 -11.950
REMARK INTRA:                  -1.391
REMARK UNBOUND:                -1.530
REMARK SMILES O=c1c(O[C@@H]2O[C@H](CO)[C@H](O)[C@H](O)[C@H]2O)c(-c2ccc(O)c(O)c2)oc2cc(O)cc(O)c12
REMARK SMILES IDX 4 1 3 2 16 3 25 4 2 5 26 6 1 7 33 8 27 9 31 10 28 11 30 12
REMARK SMILES IDX 17 13 18 14 19 15 20 16 24 17 22 18 21 19 23 21 32 23 29 25
REMARK SMILES IDX 5 27 14 28 6 29 12 30 7 31 10 32 15 33 13 35 8 37 9 38 11 40
REMARK H PARENT 21 20 23 22 32 24 29 26 15 34 13 36 9 39 11 41
REMARK Flexibility Score: inf
ROOT
ATOM      1  O   UNL     1     -63.564 -43.442 -34.538  1.00  0.00    -0.454 OA
ENDROOT
BRANCH   1   2
ATOM      2  C   UNL     1     -63.424 -43.125 -33.158  1.00  0.00     0.214 A 
ATOM      3  C   UNL     1     -62.157 -43.041 -32.471  1.00  0.00     0.180 A 
ATOM      4  O   UNL     1     -62.008 -42.247 -31.431  1.00  0.00    -0.452 OA
ATOM      5  C   UNL     1     -64.529 -42.534 -32.493  1.00  0.00     0.239 A 
ATOM      6  C   UNL     1     -63.014 -41.634 -30.823  1.00  0.00     0.146 A 
ATOM      7  O   UNL     1     -65.678 -42.672 -32.998  1.00  0.00    -0.285 OA
ATOM      8  C   UNL     1     -64.343 -41.779 -31.294  1.00  0.00     0.111 A 
ATOM      9  C   UNL     1     -62.717 -40.853 -29.695  1.00  0.00     0.094 A 
ATOM     10  C   UNL     1     -65.384 -41.127 -30.573  1.00  0.00     0.134 A 
ATOM     11  C   UNL     1     -63.744 -40.316 -28.930  1.00  0.00     0.123 A 
ATOM     12  C   UNL     1     -65.078 -40.451 -29.382  1.00  0.00     0.093 A 
BRANCH   3  13
ATOM     13  C   UNL     1     -60.968 -43.839 -32.763  1.00  0.00     0.025 A 
ATOM     14  C   UNL     1     -59.693 -43.458 -32.272  1.00  0.00     0.016 A 
ATOM     15  C   UNL     1     -58.590 -44.291 -32.489  1.00  0.00     0.051 A 
ATOM     16  C   UNL     1     -58.736 -45.519 -33.116  1.00  0.00     0.157 A 
ATOM     17  C   UNL     1     -61.140 -45.167 -33.230  1.00  0.00     0.062 A 
ATOM     18  C   UNL     1     -60.011 -45.975 -33.451  1.00  0.00     0.158 A 
BRANCH  16  19
ATOM     19  O   UNL     1     -57.633 -46.347 -33.341  1.00  0.00    -0.504 OA
ATOM     20  H   UNL     1     -57.509 -46.832 -34.216  1.00  0.00     0.293 HD
ENDBRANCH  16  19
BRANCH  18  21
ATOM     21  O   UNL     1     -60.165 -47.261 -33.979  1.00  0.00    -0.504 OA
ATOM     22  H   UNL     1     -59.623 -47.599 -34.766  1.00  0.00     0.293 HD
ENDBRANCH  18  21
ENDBRANCH   3  13
BRANCH  10  23
ATOM     23  O   UNL     1     -66.721 -41.183 -31.004  1.00  0.00    -0.507 OA
ATOM     24  H   UNL     1     -66.984 -40.859 -31.940  1.00  0.00     0.293 HD
ENDBRANCH  10  23
BRANCH  11  25
ATOM     25  O   UNL     1     -63.490 -39.690 -27.709  1.00  0.00    -0.508 OA
ATOM     26  H   UNL     1     -63.358 -40.263 -26.851  1.00  0.00     0.293 HD
ENDBRANCH  11  25
ENDBRANCH   1   2
BRANCH   1  27
ATOM     27  C   UNL     1     -63.255 -42.715 -35.785  1.00  0.00     0.339 C 
ATOM     28  C   UNL     1     -61.863 -43.130 -36.356  1.00  0.00     0.214 C 
ATOM     29  O   UNL     1     -64.301 -42.713 -36.780  1.00  0.00    -0.332 OA
ATOM     30  C   UNL     1     -61.853 -43.119 -37.897  1.00  0.00     0.180 C 
ATOM     31  C   UNL     1     -64.029 -41.805 -37.890  1.00  0.00     0.179 C 
ATOM     32  C   UNL     1     -62.523 -41.825 -38.360  1.00  0.00     0.177 C 
BRANCH  28  33
ATOM     33  O   UNL     1     -60.876 -42.243 -35.883  1.00  0.00    -0.384 OA
ATOM     34  H   UNL     1     -60.553 -42.603 -35.008  1.00  0.00     0.211 HD
ENDBRANCH  28  33
BRANCH  30  35
ATOM     35  O   UNL     1     -62.512 -44.267 -38.417  1.00  0.00    -0.387 OA
ATOM     36  H   UNL     1     -62.833 -44.053 -39.352  1.00  0.00     0.211 HD
ENDBRANCH  30  35
BRANCH  31  37
ATOM     37  C   UNL     1     -65.136 -41.970 -38.993  1.00  0.00     0.191 C 
BRANCH  37  38
ATOM     38  O   UNL     1     -65.233 -40.849 -39.847  1.00  0.00    -0.394 OA
ATOM     39  H   UNL     1     -64.407 -40.288 -39.737  1.00  0.00     0.210 HD
ENDBRANCH  37  38
ENDBRANCH  31  37
BRANCH  32  40
ATOM     40  O   UNL     1     -62.335 -41.644 -39.747  1.00  0.00    -0.387 OA
ATOM     41  H   UNL     1     -62.542 -40.697 -39.970  1.00  0.00     0.211 HD
ENDBRANCH  32  40
ENDBRANCH   1  27
TORSDOF 12
ENDMDL
MODEL 3
REMARK VINA RESULT:    -7.930      1.987      6.758
REMARK INTER + INTRA:         -13.169
REMARK INTER:                 -11.463
REMARK INTRA:                  -1.706
REMARK UNBOUND:                -1.530
REMARK SMILES O=c1c(O[C@@H]2O[C@H](CO)[C@H](O)[C@H](O)[C@H]2O)c(-c2ccc(O)c(O)c2)oc2cc(O)cc(O)c12
REMARK SMILES IDX 4 1 3 2 16 3 25 4 2 5 26 6 1 7 33 8 27 9 31 10 28 11 30 12
REMARK SMILES IDX 17 13 18 14 19 15 20 16 24 17 22 18 21 19 23 21 32 23 29 25
REMARK SMILES IDX 5 27 14 28 6 29 12 30 7 31 10 32 15 33 13 35 8 37 9 38 11 40
REMARK H PARENT 21 20 23 22 32 24 29 26 15 34 13 36 9 39 11 41
REMARK Flexibility Score: inf
ROOT
ATOM      1  O   UNL     1     -64.501 -41.725 -32.517  1.00  0.00    -0.454 OA
ENDROOT
BRANCH   1   2
ATOM      2  C   UNL     1     -64.570 -41.388 -31.136  1.00  0.00     0.214 A 
ATOM      3  C   UNL     1     -63.581 -40.593 -30.446  1.00  0.00     0.180 A 
ATOM      4  O   UNL     1     -63.915 -39.859 -29.405  1.00  0.00    -0.452 OA
ATOM      5  C   UNL     1     -65.815 -41.538 -30.472  1.00  0.00     0.239 A 
ATOM      6  C   UNL     1     -65.091 -39.934 -28.799  1.00  0.00     0.146 A 
ATOM      7  O   UNL     1     -66.676 -42.309 -30.979  1.00  0.00    -0.285 OA
ATOM      8  C   UNL     1     -66.096 -40.814 -29.273  1.00  0.00     0.111 A 
ATOM      9  C   UNL     1     -65.297 -39.126 -27.670  1.00  0.00     0.094 A 
ATOM     10  C   UNL     1     -67.324 -40.877 -28.553  1.00  0.00     0.134 A 
ATOM     11  C   UNL     1     -66.447 -39.276 -26.906  1.00  0.00     0.123 A 
ATOM     12  C   UNL     1     -67.461 -40.151 -27.360  1.00  0.00     0.093 A 
BRANCH   3  13
ATOM     13  C   UNL     1     -62.148 -40.565 -30.737  1.00  0.00     0.025 A 
ATOM     14  C   UNL     1     -61.228 -41.295 -29.942  1.00  0.00     0.016 A 
ATOM     15  C   UNL     1     -59.876 -41.325 -30.301  1.00  0.00     0.051 A 
ATOM     16  C   UNL     1     -59.432 -40.710 -31.461  1.00  0.00     0.157 A 
ATOM     17  C   UNL     1     -61.722 -40.105 -32.009  1.00  0.00     0.062 A 
ATOM     18  C   UNL     1     -60.355 -40.135 -32.333  1.00  0.00     0.158 A 
BRANCH  16  19
ATOM     19  O   UNL     1     -58.079 -40.732 -31.814  1.00  0.00    -0.504 OA
ATOM     20  H   UNL     1     -57.767 -40.417 -32.720  1.00  0.00     0.293 HD
ENDBRANCH  16  19
BRANCH  18  21
ATOM     21  O   UNL     1     -59.916 -39.617 -33.557  1.00  0.00    -0.504 OA
ATOM     22  H   UNL     1     -60.218 -39.989 -34.449  1.00  0.00     0.293 HD
ENDBRANCH  18  21
ENDBRANCH   3  13
BRANCH  10  23
ATOM     23  O   UNL     1     -68.386 -41.689 -28.986  1.00  0.00    -0.507 OA
ATOM     24  H   UNL     1     -69.352 -41.348 -28.959  1.00  0.00     0.293 HD
ENDBRANCH  10  23
BRANCH  11  25
ATOM     25  O   UNL     1     -66.598 -38.619 -25.684  1.00  0.00    -0.508 OA
ATOM     26  H   UNL     1     -65.810 -38.599 -25.006  1.00  0.00     0.293 HD
ENDBRANCH  11  25
ENDBRANCH   1   2
BRANCH   1  27
ATOM     27  C   UNL     1     -64.004 -42.904 -33.253  1.00  0.00     0.339 C 
ATOM     28  C   UNL     1     -62.818 -42.528 -34.194  1.00  0.00     0.214 C 
ATOM     29  O   UNL     1     -63.746 -44.075 -32.450  1.00  0.00    -0.332 OA
ATOM     30  C   UNL     1     -61.788 -43.670 -34.295  1.00  0.00     0.180 C 
ATOM     31  C   UNL     1     -63.469 -45.264 -33.249  1.00  0.00     0.179 C 
ATOM     32  C   UNL     1     -62.555 -44.975 -34.503  1.00  0.00     0.177 C 
BRANCH  28  33
ATOM     33  O   UNL     1     -63.311 -42.238 -35.481  1.00  0.00    -0.384 OA
ATOM     34  H   UNL     1     -64.034 -41.556 -35.371  1.00  0.00     0.211 HD
ENDBRANCH  28  33
BRANCH  30  35
ATOM     35  O   UNL     1     -60.970 -43.721 -33.132  1.00  0.00    -0.387 OA
ATOM     36  H   UNL     1     -60.682 -44.679 -32.988  1.00  0.00     0.211 HD
ENDBRANCH  30  35
BRANCH  31  37
ATOM     37  C   UNL     1     -63.056 -46.452 -32.308  1.00  0.00     0.191 C 
BRANCH  37  38
ATOM     38  O   UNL     1     -61.670 -46.485 -32.039  1.00  0.00    -0.394 OA
ATOM     39  H   UNL     1     -61.367 -45.559 -31.793  1.00  0.00     0.210 HD
ENDBRANCH  37  38
ENDBRANCH  31  37
BRANCH  32  40
ATOM     40  O   UNL     1     -61.666 -46.020 -34.838  1.00  0.00    -0.387 OA
ATOM     41  H   UNL     1     -62.167 -46.879 -34.810  1.00  0.00     0.211 HD
ENDBRANCH  32  40
ENDBRANCH   1  27
TORSDOF 12
ENDMDL
MODEL 4
REMARK VINA RESULT:    -7.830      1.874      7.242
REMARK INTER + INTRA:         -13.022
REMARK INTER:                 -11.254
REMARK INTRA:                  -1.768
REMARK UNBOUND:                -1.530
REMARK SMILES O=c1c(O[C@@H]2O[C@H](CO)[C@H](O)[C@H](O)[C@H]2O)c(-c2ccc(O)c(O)c2)oc2cc(O)cc(O)c12
REMARK SMILES IDX 4 1 3 2 16 3 25 4 2 5 26 6 1 7 33 8 27 9 31 10 28 11 30 12
REMARK SMILES IDX 17 13 18 14 19 15 20 16 24 17 22 18 21 19 23 21 32 23 29 25
REMARK SMILES IDX 5 27 14 28 6 29 12 30 7 31 10 32 15 33 13 35 8 37 9 38 11 40
REMARK H PARENT 21 20 23 22 32 24 29 26 15 34 13 36 9 39 11 41
REMARK Flexibility Score: inf
ROOT
ATOM      1  O   UNL     1     -66.145 -42.319 -32.515  1.00  0.00    -0.454 OA
ENDROOT
BRANCH   1   2
ATOM      2  C   UNL     1     -65.573 -41.864 -31.295  1.00  0.00     0.214 A 
ATOM      3  C   UNL     1     -64.227 -41.357 -31.169  1.00  0.00     0.180 A 
ATOM      4  O   UNL     1     -63.924 -40.473 -30.242  1.00  0.00    -0.452 OA
ATOM      5  C   UNL     1     -66.448 -41.568 -30.216  1.00  0.00     0.239 A 
ATOM      6  C   UNL     1     -64.742 -40.132 -29.256  1.00  0.00     0.146 A 
ATOM      7  O   UNL     1     -67.603 -42.076 -30.224  1.00  0.00    -0.285 OA
ATOM      8  C   UNL     1     -66.038 -40.696 -29.161  1.00  0.00     0.111 A 
ATOM      9  C   UNL     1     -64.273 -39.209 -28.308  1.00  0.00     0.094 A 
ATOM     10  C   UNL     1     -66.853 -40.319 -28.055  1.00  0.00     0.134 A 
ATOM     11  C   UNL     1     -65.024 -38.934 -27.172  1.00  0.00     0.123 A 
ATOM     12  C   UNL     1     -66.319 -39.489 -27.058  1.00  0.00     0.093 A 
BRANCH   3  13
ATOM     13  C   UNL     1     -63.070 -41.796 -31.949  1.00  0.00     0.025 A 
ATOM     14  C   UNL     1     -62.640 -43.147 -31.919  1.00  0.00     0.016 A 
ATOM     15  C   UNL     1     -61.589 -43.557 -32.747  1.00  0.00     0.051 A 
ATOM     16  C   UNL     1     -61.006 -42.678 -33.648  1.00  0.00     0.157 A 
ATOM     17  C   UNL     1     -62.602 -40.963 -32.996  1.00  0.00     0.062 A 
ATOM     18  C   UNL     1     -61.535 -41.398 -33.801  1.00  0.00     0.158 A 
BRANCH  16  19
ATOM     19  O   UNL     1     -59.950 -43.085 -34.468  1.00  0.00    -0.504 OA
ATOM     20  H   UNL     1     -59.170 -43.608 -34.101  1.00  0.00     0.293 HD
ENDBRANCH  16  19
BRANCH  18  21
ATOM     21  O   UNL     1     -61.018 -40.554 -34.791  1.00  0.00    -0.504 OA
ATOM     22  H   UNL     1     -61.580 -40.196 -35.554  1.00  0.00     0.293 HD
ENDBRANCH  18  21
ENDBRANCH   3  13
BRANCH  10  23
ATOM     23  O   UNL     1     -68.168 -40.798 -27.916  1.00  0.00    -0.507 OA
ATOM     24  H   UNL     1     -68.969 -40.167 -28.016  1.00  0.00     0.293 HD
ENDBRANCH  10  23
BRANCH  11  25
ATOM     25  O   UNL     1     -64.508 -38.163 -26.129  1.00  0.00    -0.508 OA
ATOM     26  H   UNL     1     -65.142 -37.800 -25.390  1.00  0.00     0.293 HD
ENDBRANCH  11  25
ENDBRANCH   1   2
BRANCH   1  27
ATOM     27  C   UNL     1     -65.820 -43.420 -33.442  1.00  0.00     0.339 C 
ATOM     28  C   UNL     1     -67.101 -44.197 -33.874  1.00  0.00     0.214 C 
ATOM     29  O   UNL     1     -64.966 -43.068 -34.552  1.00  0.00    -0.332 OA
ATOM     30  C   UNL     1     -67.001 -44.698 -35.328  1.00  0.00     0.180 C 
ATOM     31  C   UNL     1     -64.503 -44.229 -35.305  1.00  0.00     0.179 C 
ATOM     32  C   UNL     1     -65.619 -45.325 -35.512  1.00  0.00     0.177 C 
BRANCH  28  33
ATOM     33  O   UNL     1     -67.295 -45.301 -33.020  1.00  0.00    -0.384 OA
ATOM     34  H   UNL     1     -66.689 -46.030 -33.341  1.00  0.00     0.211 HD
ENDBRANCH  28  33
BRANCH  30  35
ATOM     35  O   UNL     1     -67.223 -43.636 -36.248  1.00  0.00    -0.387 OA
ATOM     36  H   UNL     1     -66.944 -42.770 -35.807  1.00  0.00     0.211 HD
ENDBRANCH  30  35
BRANCH  31  37
ATOM     37  C   UNL     1     -63.706 -43.755 -36.573  1.00  0.00     0.191 C 
BRANCH  37  38
ATOM     38  O   UNL     1     -64.548 -43.367 -37.639  1.00  0.00    -0.394 OA
ATOM     39  H   UNL     1     -64.249 -42.469 -37.976  1.00  0.00     0.210 HD
ENDBRANCH  37  38
ENDBRANCH  31  37
BRANCH  32  40
ATOM     40  O   UNL     1     -65.551 -46.011 -36.745  1.00  0.00    -0.387 OA
ATOM     41  H   UNL     1     -66.373 -45.802 -37.265  1.00  0.00     0.211 HD
ENDBRANCH  32  40
ENDBRANCH   1  27
TORSDOF 12
ENDMDL
MODEL 5
REMARK VINA RESULT:    -7.534      3.960      8.320
REMARK INTER + INTRA:         -12.588
REMARK INTER:                 -11.209
REMARK INTRA:                  -1.378
REMARK UNBOUND:                -1.530
REMARK SMILES O=c1c(O[C@@H]2O[C@H](CO)[C@H](O)[C@H](O)[C@H]2O)c(-c2ccc(O)c(O)c2)oc2cc(O)cc(O)c12
REMARK SMILES IDX 4 1 3 2 16 3 25 4 2 5 26 6 1 7 33 8 27 9 31 10 28 11 30 12
REMARK SMILES IDX 17 13 18 14 19 15 20 16 24 17 22 18 21 19 23 21 32 23 29 25
REMARK SMILES IDX 5 27 14 28 6 29 12 30 7 31 10 32 15 33 13 35 8 37 9 38 11 40
REMARK H PARENT 21 20 23 22 32 24 29 26 15 34 13 36 9 39 11 41
REMARK Flexibility Score: inf
ROOT
ATOM      1  O   UNL     1     -61.950 -45.040 -34.778  1.00  0.00    -0.454 OA
ENDROOT
BRANCH   1   2
ATOM      2  C   UNL     1     -61.313 -44.229 -33.799  1.00  0.00     0.214 A 
ATOM      3  C   UNL     1     -59.885 -44.186 -33.585  1.00  0.00     0.180 A 
ATOM      4  O   UNL     1     -59.307 -43.100 -33.118  1.00  0.00    -0.452 OA
ATOM      5  C   UNL     1     -62.055 -43.161 -33.229  1.00  0.00     0.239 A 
ATOM      6  C   UNL     1     -59.973 -42.062 -32.634  1.00  0.00     0.146 A 
ATOM      7  O   UNL     1     -63.315 -43.204 -33.294  1.00  0.00    -0.285 OA
ATOM      8  C   UNL     1     -61.391 -42.052 -32.621  1.00  0.00     0.111 A 
ATOM      9  C   UNL     1     -59.228 -40.986 -32.126  1.00  0.00     0.094 A 
ATOM     10  C   UNL     1     -62.047 -40.924 -32.050  1.00  0.00     0.134 A 
ATOM     11  C   UNL     1     -59.869 -39.944 -31.467  1.00  0.00     0.123 A 
ATOM     12  C   UNL     1     -61.282 -39.917 -31.441  1.00  0.00     0.093 A 
BRANCH   3  13
ATOM     13  C   UNL     1     -58.959 -45.303 -33.764  1.00  0.00     0.025 A 
ATOM     14  C   UNL     1     -58.671 -45.814 -35.055  1.00  0.00     0.016 A 
ATOM     15  C   UNL     1     -57.710 -46.820 -35.203  1.00  0.00     0.051 A 
ATOM     16  C   UNL     1     -56.983 -47.278 -34.115  1.00  0.00     0.157 A 
ATOM     17  C   UNL     1     -58.086 -45.639 -32.697  1.00  0.00     0.062 A 
ATOM     18  C   UNL     1     -57.141 -46.664 -32.873  1.00  0.00     0.158 A 
BRANCH  16  19
ATOM     19  O   UNL     1     -56.030 -48.289 -34.261  1.00  0.00    -0.504 OA
ATOM     20  H   UNL     1     -55.578 -48.463 -35.146  1.00  0.00     0.293 HD
ENDBRANCH  16  19
BRANCH  18  21
ATOM     21  O   UNL     1     -56.325 -47.051 -31.805  1.00  0.00    -0.504 OA
ATOM     22  H   UNL     1     -55.525 -46.508 -31.501  1.00  0.00     0.293 HD
ENDBRANCH  18  21
ENDBRANCH   3  13
BRANCH  10  23
ATOM     23  O   UNL     1     -63.449 -40.818 -32.042  1.00  0.00    -0.507 OA
ATOM     24  H   UNL     1     -63.910 -39.992 -31.648  1.00  0.00     0.293 HD
ENDBRANCH  10  23
BRANCH  11  25
ATOM     25  O   UNL     1     -59.147 -38.956 -30.796  1.00  0.00    -0.508 OA
ATOM     26  H   UNL     1     -58.439 -39.225 -30.083  1.00  0.00     0.293 HD
ENDBRANCH  11  25
ENDBRANCH   1   2
BRANCH   1  27
ATOM     27  C   UNL     1     -62.308 -44.831 -36.195  1.00  0.00     0.339 C 
ATOM     28  C   UNL     1     -63.799 -45.200 -36.465  1.00  0.00     0.214 C 
ATOM     29  O   UNL     1     -61.927 -43.555 -36.752  1.00  0.00    -0.332 OA
ATOM     30  C   UNL     1     -64.427 -44.287 -37.536  1.00  0.00     0.180 C 
ATOM     31  C   UNL     1     -62.107 -43.489 -38.198  1.00  0.00     0.179 C 
ATOM     32  C   UNL     1     -63.437 -44.177 -38.695  1.00  0.00     0.177 C 
BRANCH  28  33
ATOM     33  O   UNL     1     -63.884 -46.539 -36.895  1.00  0.00    -0.384 OA
ATOM     34  H   UNL     1     -63.606 -46.556 -37.856  1.00  0.00     0.211 HD
ENDBRANCH  28  33
BRANCH  30  35
ATOM     35  O   UNL     1     -64.745 -43.012 -36.993  1.00  0.00    -0.387 OA
ATOM     36  H   UNL     1     -65.621 -42.705 -37.394  1.00  0.00     0.211 HD
ENDBRANCH  30  35
BRANCH  31  37
ATOM     37  C   UNL     1     -61.812 -42.030 -38.703  1.00  0.00     0.191 C 
BRANCH  37  38
ATOM     38  O   UNL     1     -61.752 -41.937 -40.111  1.00  0.00    -0.394 OA
ATOM     39  H   UNL     1     -60.837 -42.219 -40.415  1.00  0.00     0.210 HD
ENDBRANCH  37  38
ENDBRANCH  31  37
BRANCH  32  40
ATOM     40  O   UNL     1     -64.047 -43.551 -39.804  1.00  0.00    -0.387 OA
ATOM     41  H   UNL     1     -63.703 -42.620 -39.867  1.00  0.00     0.211 HD
ENDBRANCH  32  40
ENDBRANCH   1  27
TORSDOF 12
ENDMDL
MODEL 6
REMARK VINA RESULT:    -7.463      3.883      8.708
REMARK INTER + INTRA:         -12.484
REMARK INTER:                 -10.690
REMARK INTRA:                  -1.794
REMARK UNBOUND:                -1.530
REMARK SMILES O=c1c(O[C@@H]2O[C@H](CO)[C@H](O)[C@H](O)[C@H]2O)c(-c2ccc(O)c(O)c2)oc2cc(O)cc(O)c12
REMARK SMILES IDX 4 1 3 2 16 3 25 4 2 5 26 6 1 7 33 8 27 9 31 10 28 11 30 12
REMARK SMILES IDX 17 13 18 14 19 15 20 16 24 17 22 18 21 19 23 21 32 23 29 25
REMARK SMILES IDX 5 27 14 28 6 29 12 30 7 31 10 32 15 33 13 35 8 37 9 38 11 40
REMARK H PARENT 21 20 23 22 32 24 29 26 15 34 13 36 9 39 11 41
REMARK Flexibility Score: inf
ROOT
ATOM      1  O   UNL     1     -62.085 -45.123 -34.386  1.00  0.00    -0.454 OA
ENDROOT
BRANCH   1   2
ATOM      2  C   UNL     1     -61.392 -44.266 -33.486  1.00  0.00     0.214 A 
ATOM      3  C   UNL     1     -59.954 -44.178 -33.395  1.00  0.00     0.180 A 
ATOM      4  O   UNL     1     -59.371 -43.062 -33.009  1.00  0.00    -0.452 OA
ATOM      5  C   UNL     1     -62.115 -43.202 -32.886  1.00  0.00     0.239 A 
ATOM      6  C   UNL     1     -60.025 -42.029 -32.500  1.00  0.00     0.146 A 
ATOM      7  O   UNL     1     -63.375 -43.281 -32.843  1.00  0.00    -0.285 OA
ATOM      8  C   UNL     1     -61.436 -42.057 -32.368  1.00  0.00     0.111 A 
ATOM      9  C   UNL     1     -59.273 -40.918 -32.087  1.00  0.00     0.094 A 
ATOM     10  C   UNL     1     -62.076 -40.930 -31.775  1.00  0.00     0.134 A 
ATOM     11  C   UNL     1     -59.886 -39.875 -31.406  1.00  0.00     0.123 A 
ATOM     12  C   UNL     1     -61.293 -39.885 -31.261  1.00  0.00     0.093 A 
BRANCH   3  13
ATOM     13  C   UNL     1     -59.013 -45.274 -33.620  1.00  0.00     0.025 A 
ATOM     14  C   UNL     1     -58.749 -45.754 -34.928  1.00  0.00     0.016 A 
ATOM     15  C   UNL     1     -57.775 -46.739 -35.121  1.00  0.00     0.051 A 
ATOM     16  C   UNL     1     -57.013 -47.206 -34.061  1.00  0.00     0.157 A 
ATOM     17  C   UNL     1     -58.108 -45.616 -32.583  1.00  0.00     0.062 A 
ATOM     18  C   UNL     1     -57.150 -46.620 -32.803  1.00  0.00     0.158 A 
BRANCH  16  19
ATOM     19  O   UNL     1     -56.046 -48.197 -34.252  1.00  0.00    -0.504 OA
ATOM     20  H   UNL     1     -55.629 -48.358 -35.156  1.00  0.00     0.293 HD
ENDBRANCH  16  19
BRANCH  18  21
ATOM     21  O   UNL     1     -56.300 -47.014 -31.764  1.00  0.00    -0.504 OA
ATOM     22  H   UNL     1     -56.353 -47.928 -31.330  1.00  0.00     0.293 HD
ENDBRANCH  18  21
ENDBRANCH   3  13
BRANCH  10  23
ATOM     23  O   UNL     1     -63.475 -40.862 -31.652  1.00  0.00    -0.507 OA
ATOM     24  H   UNL     1     -63.913 -40.182 -31.023  1.00  0.00     0.293 HD
ENDBRANCH  10  23
BRANCH  11  25
ATOM     25  O   UNL     1     -59.140 -38.847 -30.826  1.00  0.00    -0.508 OA
ATOM     26  H   UNL     1     -58.369 -39.075 -30.168  1.00  0.00     0.293 HD
ENDBRANCH  11  25
ENDBRANCH   1   2
BRANCH   1  27
ATOM     27  C   UNL     1     -62.484 -45.004 -35.802  1.00  0.00     0.339 C 
ATOM     28  C   UNL     1     -61.747 -43.821 -36.503  1.00  0.00     0.214 C 
ATOM     29  O   UNL     1     -62.448 -46.229 -36.564  1.00  0.00    -0.332 OA
ATOM     30  C   UNL     1     -61.441 -44.135 -37.980  1.00  0.00     0.180 C 
ATOM     31  C   UNL     1     -63.055 -46.096 -37.884  1.00  0.00     0.179 C 
ATOM     32  C   UNL     1     -62.703 -44.736 -38.601  1.00  0.00     0.177 C 
BRANCH  28  33
ATOM     33  O   UNL     1     -62.544 -42.661 -36.435  1.00  0.00    -0.384 OA
ATOM     34  H   UNL     1     -62.300 -42.091 -37.219  1.00  0.00     0.211 HD
ENDBRANCH  28  33
BRANCH  30  35
ATOM     35  O   UNL     1     -60.330 -45.016 -38.092  1.00  0.00    -0.387 OA
ATOM     36  H   UNL     1     -59.517 -44.470 -38.345  1.00  0.00     0.211 HD
ENDBRANCH  30  35
BRANCH  31  37
ATOM     37  C   UNL     1     -62.846 -47.423 -38.700  1.00  0.00     0.191 C 
BRANCH  37  38
ATOM     38  O   UNL     1     -61.549 -47.530 -39.250  1.00  0.00    -0.394 OA
ATOM     39  H   UNL     1     -61.157 -46.609 -39.335  1.00  0.00     0.210 HD
ENDBRANCH  37  38
ENDBRANCH  31  37
BRANCH  32  40
ATOM     40  O   UNL     1     -62.565 -44.825 -40.003  1.00  0.00    -0.387 OA
ATOM     41  H   UNL     1     -62.627 -43.909 -40.383  1.00  0.00     0.211 HD
ENDBRANCH  32  40
ENDBRANCH   1  27
TORSDOF 12
ENDMDL
MODEL 7
REMARK VINA RESULT:    -7.430      3.504      8.684
REMARK INTER + INTRA:         -12.435
REMARK INTER:                 -11.000
REMARK INTRA:                  -1.435
REMARK UNBOUND:                -1.530
REMARK SMILES O=c1c(O[C@@H]2O[C@H](CO)[C@H](O)[C@H](O)[C@H]2O)c(-c2ccc(O)c(O)c2)oc2cc(O)cc(O)c12
REMARK SMILES IDX 4 1 3 2 16 3 25 4 2 5 26 6 1 7 33 8 27 9 31 10 28 11 30 12
REMARK SMILES IDX 17 13 18 14 19 15 20 16 24 17 22 18 21 19 23 21 32 23 29 25
REMARK SMILES IDX 5 27 14 28 6 29 12 30 7 31 10 32 15 33 13 35 8 37 9 38 11 40
REMARK H PARENT 21 20 23 22 32 24 29 26 15 34 13 36 9 39 11 41
REMARK Flexibility Score: inf
ROOT
ATOM      1  O   UNL     1     -59.910 -43.212 -34.537  1.00  0.00    -0.454 OA
ENDROOT
BRANCH   1   2
ATOM      2  C   UNL     1     -60.904 -42.461 -33.849  1.00  0.00     0.214 A 
ATOM      3  C   UNL     1     -62.287 -42.385 -34.255  1.00  0.00     0.180 A 
ATOM      4  O   UNL     1     -63.238 -42.183 -33.367  1.00  0.00    -0.452 OA
ATOM      5  C   UNL     1     -60.625 -42.042 -32.522  1.00  0.00     0.239 A 
ATOM      6  C   UNL     1     -63.009 -41.847 -32.106  1.00  0.00     0.146 A 
ATOM      7  O   UNL     1     -59.420 -41.987 -32.150  1.00  0.00    -0.285 OA
ATOM      8  C   UNL     1     -61.684 -41.713 -31.621  1.00  0.00     0.111 A 
ATOM      9  C   UNL     1     -64.119 -41.618 -31.278  1.00  0.00     0.094 A 
ATOM     10  C   UNL     1     -61.505 -41.311 -30.266  1.00  0.00     0.134 A 
ATOM     11  C   UNL     1     -63.940 -41.115 -29.996  1.00  0.00     0.123 A 
ATOM     12  C   UNL     1     -62.626 -40.971 -29.494  1.00  0.00     0.093 A 
BRANCH   3  13
ATOM     13  C   UNL     1     -62.780 -42.429 -35.631  1.00  0.00     0.025 A 
ATOM     14  C   UNL     1     -64.146 -42.689 -35.908  1.00  0.00     0.016 A 
ATOM     15  C   UNL     1     -64.607 -42.632 -37.228  1.00  0.00     0.051 A 
ATOM     16  C   UNL     1     -63.764 -42.256 -38.263  1.00  0.00     0.157 A 
ATOM     17  C   UNL     1     -61.980 -41.867 -36.658  1.00  0.00     0.062 A 
ATOM     18  C   UNL     1     -62.465 -41.837 -37.976  1.00  0.00     0.158 A 
BRANCH  16  19
ATOM     19  O   UNL     1     -64.222 -42.209 -39.582  1.00  0.00    -0.504 OA
ATOM     20  H   UNL     1     -63.790 -42.758 -40.310  1.00  0.00     0.293 HD
ENDBRANCH  16  19
BRANCH  18  21
ATOM     21  O   UNL     1     -61.655 -41.351 -39.008  1.00  0.00    -0.504 OA
ATOM     22  H   UNL     1     -61.843 -40.479 -39.487  1.00  0.00     0.293 HD
ENDBRANCH  18  21
ENDBRANCH   3  13
BRANCH  10  23
ATOM     23  O   UNL     1     -60.223 -41.201 -29.698  1.00  0.00    -0.507 OA
ATOM     24  H   UNL     1     -59.387 -41.182 -30.289  1.00  0.00     0.293 HD
ENDBRANCH  10  23
BRANCH  11  25
ATOM     25  O   UNL     1     -65.025 -40.707 -29.218  1.00  0.00    -0.508 OA
ATOM     26  H   UNL     1     -65.316 -39.709 -29.217  1.00  0.00     0.293 HD
ENDBRANCH  11  25
ENDBRANCH   1   2
BRANCH   1  27
ATOM     27  C   UNL     1     -59.618 -44.654 -34.646  1.00  0.00     0.339 C 
ATOM     28  C   UNL     1     -60.146 -45.437 -33.405  1.00  0.00     0.214 C 
ATOM     29  O   UNL     1     -59.978 -45.269 -35.903  1.00  0.00    -0.332 OA
ATOM     30  C   UNL     1     -60.638 -46.847 -33.787  1.00  0.00     0.180 C 
ATOM     31  C   UNL     1     -59.473 -46.631 -36.036  1.00  0.00     0.179 C 
ATOM     32  C   UNL     1     -59.590 -47.474 -34.708  1.00  0.00     0.177 C 
BRANCH  28  33
ATOM     33  O   UNL     1     -59.118 -45.553 -32.448  1.00  0.00    -0.384 OA
ATOM     34  H   UNL     1     -58.543 -46.322 -32.727  1.00  0.00     0.211 HD
ENDBRANCH  28  33
BRANCH  30  35
ATOM     35  O   UNL     1     -61.916 -46.788 -34.409  1.00  0.00    -0.387 OA
ATOM     36  H   UNL     1     -62.483 -47.540 -34.040  1.00  0.00     0.211 HD
ENDBRANCH  30  35
BRANCH  31  37
ATOM     37  C   UNL     1     -60.028 -47.275 -37.357  1.00  0.00     0.191 C 
BRANCH  37  38
ATOM     38  O   UNL     1     -59.304 -48.421 -37.756  1.00  0.00    -0.394 OA
ATOM     39  H   UNL     1     -58.510 -48.128 -38.298  1.00  0.00     0.210 HD
ENDBRANCH  37  38
ENDBRANCH  31  37
BRANCH  32  40
ATOM     40  O   UNL     1     -59.865 -48.845 -34.901  1.00  0.00    -0.387 OA
ATOM     41  H   UNL     1     -59.576 -49.096 -35.819  1.00  0.00     0.211 HD
ENDBRANCH  32  40
ENDBRANCH   1  27
TORSDOF 12
ENDMDL
MODEL 8
REMARK VINA RESULT:    -7.428      3.962      5.426
REMARK INTER + INTRA:         -12.431
REMARK INTER:                 -11.188
REMARK INTRA:                  -1.243
REMARK UNBOUND:                -1.530
REMARK SMILES O=c1c(O[C@@H]2O[C@H](CO)[C@H](O)[C@H](O)[C@H]2O)c(-c2ccc(O)c(O)c2)oc2cc(O)cc(O)c12
REMARK SMILES IDX 4 1 3 2 16 3 25 4 2 5 26 6 1 7 33 8 27 9 31 10 28 11 30 12
REMARK SMILES IDX 17 13 18 14 19 15 20 16 24 17 22 18 21 19 23 21 32 23 29 25
REMARK SMILES IDX 5 27 14 28 6 29 12 30 7 31 10 32 15 33 13 35 8 37 9 38 11 40
REMARK H PARENT 21 20 23 22 32 24 29 26 15 34 13 36 9 39 11 41
REMARK Flexibility Score: inf
ROOT
ATOM      1  O   UNL     1     -61.938 -44.137 -33.342  1.00  0.00    -0.454 OA
ENDROOT
BRANCH   1   2
ATOM      2  C   UNL     1     -61.451 -43.891 -34.656  1.00  0.00     0.214 A 
ATOM      3  C   UNL     1     -60.471 -44.715 -35.324  1.00  0.00     0.180 A 
ATOM      4  O   UNL     1     -60.457 -44.814 -36.637  1.00  0.00    -0.452 OA
ATOM      5  C   UNL     1     -62.189 -43.011 -35.490  1.00  0.00     0.239 A 
ATOM      6  C   UNL     1     -61.179 -44.045 -37.440  1.00  0.00     0.146 A 
ATOM      7  O   UNL     1     -62.982 -42.194 -34.945  1.00  0.00    -0.285 OA
ATOM      8  C   UNL     1     -62.057 -43.066 -36.911  1.00  0.00     0.111 A 
ATOM      9  C   UNL     1     -61.034 -44.228 -38.824  1.00  0.00     0.094 A 
ATOM     10  C   UNL     1     -62.775 -42.245 -37.828  1.00  0.00     0.134 A 
ATOM     11  C   UNL     1     -61.645 -43.351 -39.711  1.00  0.00     0.123 A 
ATOM     12  C   UNL     1     -62.523 -42.365 -39.203  1.00  0.00     0.093 A 
BRANCH   3  13
ATOM     13  C   UNL     1     -59.374 -45.435 -34.680  1.00  0.00     0.025 A 
ATOM     14  C   UNL     1     -58.355 -46.055 -35.448  1.00  0.00     0.016 A 
ATOM     15  C   UNL     1     -57.270 -46.656 -34.802  1.00  0.00     0.051 A 
ATOM     16  C   UNL     1     -57.137 -46.595 -33.424  1.00  0.00     0.157 A 
ATOM     17  C   UNL     1     -59.135 -45.215 -33.299  1.00  0.00     0.062 A 
ATOM     18  C   UNL     1     -58.044 -45.845 -32.677  1.00  0.00     0.158 A 
BRANCH  16  19
ATOM     19  O   UNL     1     -56.057 -47.204 -32.778  1.00  0.00    -0.504 OA
ATOM     20  H   UNL     1     -55.337 -47.684 -33.295  1.00  0.00     0.293 HD
ENDBRANCH  16  19
BRANCH  18  21
ATOM     21  O   UNL     1     -57.841 -45.692 -31.300  1.00  0.00    -0.504 OA
ATOM     22  H   UNL     1     -58.545 -45.304 -30.683  1.00  0.00     0.293 HD
ENDBRANCH  18  21
ENDBRANCH   3  13
BRANCH  10  23
ATOM     23  O   UNL     1     -63.699 -41.284 -37.382  1.00  0.00    -0.507 OA
ATOM     24  H   UNL     1     -63.774 -40.374 -37.848  1.00  0.00     0.293 HD
ENDBRANCH  10  23
BRANCH  11  25
ATOM     25  O   UNL     1     -61.375 -43.395 -41.079  1.00  0.00    -0.508 OA
ATOM     26  H   UNL     1     -60.391 -43.445 -41.412  1.00  0.00     0.293 HD
ENDBRANCH  11  25
ENDBRANCH   1   2
BRANCH   1  27
ATOM     27  C   UNL     1     -62.152 -43.279 -32.160  1.00  0.00     0.339 C 
ATOM     28  C   UNL     1     -61.094 -42.135 -32.088  1.00  0.00     0.214 C 
ATOM     29  O   UNL     1     -63.506 -42.817 -31.964  1.00  0.00    -0.332 OA
ATOM     30  C   UNL     1     -61.692 -40.843 -31.499  1.00  0.00     0.180 C 
ATOM     31  C   UNL     1     -63.702 -42.162 -30.675  1.00  0.00     0.179 C 
ATOM     32  C   UNL     1     -62.503 -41.225 -30.261  1.00  0.00     0.177 C 
BRANCH  28  33
ATOM     33  O   UNL     1     -60.009 -42.545 -31.288  1.00  0.00    -0.384 OA
ATOM     34  H   UNL     1     -60.176 -42.195 -30.366  1.00  0.00     0.211 HD
ENDBRANCH  28  33
BRANCH  30  35
ATOM     35  O   UNL     1     -62.492 -40.168 -32.463  1.00  0.00    -0.387 OA
ATOM     36  H   UNL     1     -63.072 -39.496 -31.979  1.00  0.00     0.211 HD
ENDBRANCH  30  35
BRANCH  31  37
ATOM     37  C   UNL     1     -65.153 -41.562 -30.601  1.00  0.00     0.191 C 
BRANCH  37  38
ATOM     38  O   UNL     1     -65.204 -40.201 -30.973  1.00  0.00    -0.394 OA
ATOM     39  H   UNL     1     -64.528 -39.692 -30.431  1.00  0.00     0.210 HD
ENDBRANCH  37  38
ENDBRANCH  31  37
BRANCH  32  40
ATOM     40  O   UNL     1     -62.879 -40.068 -29.544  1.00  0.00    -0.387 OA
ATOM     41  H   UNL     1     -63.404 -40.349 -28.748  1.00  0.00     0.211 HD
ENDBRANCH  32  40
ENDBRANCH   1  27
TORSDOF 12
ENDMDL
MODEL 9
REMARK VINA RESULT:    -7.320      4.006      8.653
REMARK INTER + INTRA:         -12.273
REMARK INTER:                 -10.799
REMARK INTRA:                  -1.474
REMARK UNBOUND:                -1.530
REMARK SMILES O=c1c(O[C@@H]2O[C@H](CO)[C@H](O)[C@H](O)[C@H]2O)c(-c2ccc(O)c(O)c2)oc2cc(O)cc(O)c12
REMARK SMILES IDX 4 1 3 2 16 3 25 4 2 5 26 6 1 7 33 8 27 9 31 10 28 11 30 12
REMARK SMILES IDX 17 13 18 14 19 15 20 16 24 17 22 18 21 19 23 21 32 23 29 25
REMARK SMILES IDX 5 27 14 28 6 29 12 30 7 31 10 32 15 33 13 35 8 37 9 38 11 40
REMARK H PARENT 21 20 23 22 32 24 29 26 15 34 13 36 9 39 11 41
REMARK Flexibility Score: inf
ROOT
ATOM      1  O   UNL     1     -59.993 -43.545 -34.337  1.00  0.00    -0.454 OA
ENDROOT
BRANCH   1   2
ATOM      2  C   UNL     1     -60.925 -42.658 -33.730  1.00  0.00     0.214 A 
ATOM      3  C   UNL     1     -62.279 -42.464 -34.193  1.00  0.00     0.180 A 
ATOM      4  O   UNL     1     -63.233 -42.115 -33.355  1.00  0.00    -0.452 OA
ATOM      5  C   UNL     1     -60.648 -42.192 -32.418  1.00  0.00     0.239 A 
ATOM      6  C   UNL     1     -63.011 -41.731 -32.106  1.00  0.00     0.146 A 
ATOM      7  O   UNL     1     -59.456 -42.239 -32.004  1.00  0.00    -0.285 OA
ATOM      8  C   UNL     1     -61.696 -41.705 -31.578  1.00  0.00     0.111 A 
ATOM      9  C   UNL     1     -64.118 -41.342 -31.335  1.00  0.00     0.094 A 
ATOM     10  C   UNL     1     -61.520 -41.244 -30.242  1.00  0.00     0.134 A 
ATOM     11  C   UNL     1     -63.930 -40.785 -30.077  1.00  0.00     0.123 A 
ATOM     12  C   UNL     1     -62.625 -40.747 -29.533  1.00  0.00     0.093 A 
BRANCH   3  13
ATOM     13  C   UNL     1     -62.729 -42.538 -35.582  1.00  0.00     0.025 A 
ATOM     14  C   UNL     1     -64.087 -42.801 -35.896  1.00  0.00     0.016 A 
ATOM     15  C   UNL     1     -64.506 -42.773 -37.231  1.00  0.00     0.051 A 
ATOM     16  C   UNL     1     -63.629 -42.424 -38.247  1.00  0.00     0.157 A 
ATOM     17  C   UNL     1     -61.895 -42.003 -36.595  1.00  0.00     0.062 A 
ATOM     18  C   UNL     1     -62.339 -42.002 -37.929  1.00  0.00     0.158 A 
BRANCH  16  19
ATOM     19  O   UNL     1     -64.045 -42.405 -39.581  1.00  0.00    -0.504 OA
ATOM     20  H   UNL     1     -63.427 -42.678 -40.329  1.00  0.00     0.293 HD
ENDBRANCH  16  19
BRANCH  18  21
ATOM     21  O   UNL     1     -61.495 -41.542 -38.946  1.00  0.00    -0.504 OA
ATOM     22  H   UNL     1     -60.487 -41.645 -38.909  1.00  0.00     0.293 HD
ENDBRANCH  18  21
ENDBRANCH   3  13
BRANCH  10  23
ATOM     23  O   UNL     1     -60.254 -41.233 -29.631  1.00  0.00    -0.507 OA
ATOM     24  H   UNL     1     -59.898 -40.386 -29.177  1.00  0.00     0.293 HD
ENDBRANCH  10  23
BRANCH  11  25
ATOM     25  O   UNL     1     -64.991 -40.224 -29.364  1.00  0.00    -0.508 OA
ATOM     26  H   UNL     1     -64.841 -39.884 -28.394  1.00  0.00     0.293 HD
ENDBRANCH  11  25
ENDBRANCH   1   2
BRANCH   1  27
ATOM     27  C   UNL     1     -59.702 -44.982 -34.174  1.00  0.00     0.339 C 
ATOM     28  C   UNL     1     -59.301 -45.640 -35.530  1.00  0.00     0.214 C 
ATOM     29  O   UNL     1     -58.806 -45.317 -33.092  1.00  0.00    -0.332 OA
ATOM     30  C   UNL     1     -58.248 -46.748 -35.337  1.00  0.00     0.180 C 
ATOM     31  C   UNL     1     -58.727 -46.752 -32.841  1.00  0.00     0.179 C 
ATOM     32  C   UNL     1     -58.693 -47.616 -34.160  1.00  0.00     0.177 C 
BRANCH  28  33
ATOM     33  O   UNL     1     -60.443 -46.192 -36.142  1.00  0.00    -0.384 OA
ATOM     34  H   UNL     1     -60.216 -47.135 -36.390  1.00  0.00     0.211 HD
ENDBRANCH  28  33
BRANCH  30  35
ATOM     35  O   UNL     1     -56.958 -46.191 -35.120  1.00  0.00    -0.387 OA
ATOM     36  H   UNL     1     -56.790 -45.492 -35.832  1.00  0.00     0.211 HD
ENDBRANCH  30  35
BRANCH  31  37
ATOM     37  C   UNL     1     -57.628 -47.041 -31.756  1.00  0.00     0.191 C 
BRANCH  37  38
ATOM     38  O   UNL     1     -56.313 -46.874 -32.246  1.00  0.00    -0.394 OA
ATOM     39  H   UNL     1     -56.362 -46.564 -33.201  1.00  0.00     0.210 HD
ENDBRANCH  37  38
ENDBRANCH  31  37
BRANCH  32  40
ATOM     40  O   UNL     1     -57.901 -48.782 -34.082  1.00  0.00    -0.387 OA
ATOM     41  H   UNL     1     -58.424 -49.542 -34.453  1.00  0.00     0.211 HD
ENDBRANCH  32  40
ENDBRANCH   1  27
TORSDOF 12
ENDMDL
