MODEL 1
REMARK VINA RESULT:    32.508      0.000      0.000
REMARK INTER + INTRA:          40.296
REMARK INTER:                  40.110
REMARK INTRA:                   0.186
REMARK UNBOUND:                 0.186
REMARK SMILES Oc1cc(O)c2cc(O)c(-c3cc(O)c(O)c(O)c3)[o+]c2c1
REMARK SMILES IDX 10 1 20 2 21 3 22 4 2 5 3 6 4 7 6 8 7 9 8 10 11 11 12 12
REMARK SMILES IDX 13 13 19 14 15 15 17 16 14 17 16 19 18 21 9 23 1 25 5 27
REMARK H PARENT 14 18 16 20 18 22 9 24 1 26 5 28
REMARK Flexibility Score: inf
ROOT
ATOM      1  C   UNL     1     -37.371  24.498   6.878  1.00  0.00     0.402 A 
ATOM      2  O   UNL     1     -38.198  24.448   5.837  1.00  0.00    -0.202 OA
ATOM      3  C   UNL     1     -39.332  23.755   5.839  1.00  0.00     0.368 A 
ATOM      4  C   UNL     1     -40.138  23.767   4.697  1.00  0.00     0.162 A 
ATOM      5  C   UNL     1     -41.335  23.052   4.671  1.00  0.00     0.128 A 
ATOM      6  C   UNL     1     -41.732  22.318   5.794  1.00  0.00     0.093 A 
ATOM      7  C   UNL     1     -40.943  22.290   6.951  1.00  0.00     0.136 A 
ATOM      8  C   UNL     1     -39.723  23.015   6.980  1.00  0.00     0.125 A 
ATOM      9  C   UNL     1     -38.863  23.034   8.089  1.00  0.00     0.078 A 
ATOM     10  C   UNL     1     -37.674  23.768   8.042  1.00  0.00     0.223 A 
ENDROOT
BRANCH   1  11
ATOM     11  C   UNL     1     -36.140  25.314   6.756  1.00  0.00     0.091 A 
ATOM     12  C   UNL     1     -34.955  24.870   7.362  1.00  0.00     0.068 A 
ATOM     13  C   UNL     1     -33.772  25.613   7.245  1.00  0.00     0.162 A 
ATOM     14  C   UNL     1     -36.120  26.498   5.999  1.00  0.00     0.068 A 
ATOM     15  C   UNL     1     -33.766  26.807   6.504  1.00  0.00     0.200 A 
ATOM     16  C   UNL     1     -34.940  27.244   5.878  1.00  0.00     0.162 A 
BRANCH  13  17
ATOM     17  O   UNL     1     -32.603  25.169   7.863  1.00  0.00    -0.504 OA
ATOM     18  H   UNL     1     -32.382  24.183   7.934  1.00  0.00     0.293 HD
ENDBRANCH  13  17
BRANCH  15  19
ATOM     19  O   UNL     1     -32.602  27.565   6.376  1.00  0.00    -0.502 OA
ATOM     20  H   UNL     1     -32.252  27.867   5.474  1.00  0.00     0.293 HD
ENDBRANCH  15  19
BRANCH  16  21
ATOM     21  O   UNL     1     -34.926  28.421   5.132  1.00  0.00    -0.504 OA
ATOM     22  H   UNL     1     -34.061  28.821   4.787  1.00  0.00     0.293 HD
ENDBRANCH  16  21
ENDBRANCH   1  11
BRANCH  10  23
ATOM     23  O   UNL     1     -36.795  23.747   9.125  1.00  0.00    -0.500 OA
ATOM     24  H   UNL     1     -36.875  23.057   9.863  1.00  0.00     0.294 HD
ENDBRANCH  10  23
BRANCH   5  25
ATOM     25  O   UNL     1     -42.124  23.076   3.523  1.00  0.00    -0.507 OA
ATOM     26  H   UNL     1     -43.126  22.931   3.566  1.00  0.00     0.293 HD
ENDBRANCH   5  25
BRANCH   7  27
ATOM     27  O   UNL     1     -41.412  21.538   8.032  1.00  0.00    -0.507 OA
ATOM     28  H   UNL     1     -41.353  21.829   8.997  1.00  0.00     0.293 HD
ENDBRANCH   7  27
TORSDOF 7
ENDMDL
MODEL 2
REMARK VINA RESULT:    33.666      1.299      3.017
REMARK INTER + INTRA:          41.725
REMARK INTER:                  42.062
REMARK INTRA:                  -0.337
REMARK UNBOUND:                 0.186
REMARK SMILES Oc1cc(O)c2cc(O)c(-c3cc(O)c(O)c(O)c3)[o+]c2c1
REMARK SMILES IDX 10 1 20 2 21 3 22 4 2 5 3 6 4 7 6 8 7 9 8 10 11 11 12 12
REMARK SMILES IDX 13 13 19 14 15 15 17 16 14 17 16 19 18 21 9 23 1 25 5 27
REMARK H PARENT 14 18 16 20 18 22 9 24 1 26 5 28
REMARK Flexibility Score: inf
ROOT
ATOM      1  C   UNL     1     -37.045  24.554   6.142  1.00  0.00     0.402 A 
ATOM      2  O   UNL     1     -37.933  24.525   7.133  1.00  0.00    -0.202 OA
ATOM      3  C   UNL     1     -39.142  23.989   7.013  1.00  0.00     0.368 A 
ATOM      4  C   UNL     1     -40.005  24.004   8.112  1.00  0.00     0.162 A 
ATOM      5  C   UNL     1     -41.279  23.446   8.017  1.00  0.00     0.128 A 
ATOM      6  C   UNL     1     -41.698  22.867   6.814  1.00  0.00     0.093 A 
ATOM      7  C   UNL     1     -40.853  22.839   5.697  1.00  0.00     0.136 A 
ATOM      8  C   UNL     1     -39.556  23.408   5.791  1.00  0.00     0.125 A 
ATOM      9  C   UNL     1     -38.647  23.437   4.720  1.00  0.00     0.078 A 
ATOM     10  C   UNL     1     -37.388  24.021   4.886  1.00  0.00     0.223 A 
ENDROOT
BRANCH   1  11
ATOM     11  C   UNL     1     -35.724  25.172   6.403  1.00  0.00     0.091 A 
ATOM     12  C   UNL     1     -35.476  26.481   5.963  1.00  0.00     0.068 A 
ATOM     13  C   UNL     1     -34.242  27.097   6.215  1.00  0.00     0.162 A 
ATOM     14  C   UNL     1     -34.731  24.495   7.132  1.00  0.00     0.068 A 
ATOM     15  C   UNL     1     -33.247  26.405   6.926  1.00  0.00     0.200 A 
ATOM     16  C   UNL     1     -33.496  25.107   7.388  1.00  0.00     0.162 A 
BRANCH  13  17
ATOM     17  O   UNL     1     -34.001  28.393   5.760  1.00  0.00    -0.504 OA
ATOM     18  H   UNL     1     -33.088  28.675   5.421  1.00  0.00     0.293 HD
ENDBRANCH  13  17
BRANCH  15  19
ATOM     19  O   UNL     1     -32.010  26.995   7.186  1.00  0.00    -0.502 OA
ATOM     20  H   UNL     1     -31.402  27.322   6.445  1.00  0.00     0.293 HD
ENDBRANCH  15  19
BRANCH  16  21
ATOM     21  O   UNL     1     -32.512  24.429   8.106  1.00  0.00    -0.504 OA
ATOM     22  H   UNL     1     -32.745  23.811   8.874  1.00  0.00     0.293 HD
ENDBRANCH  16  21
ENDBRANCH   1  11
BRANCH  10  23
ATOM     23  O   UNL     1     -36.503  24.095   3.810  1.00  0.00    -0.500 OA
ATOM     24  H   UNL     1     -36.821  24.003   2.852  1.00  0.00     0.294 HD
ENDBRANCH  10  23
BRANCH   5  25
ATOM     25  O   UNL     1     -42.125  23.471   9.124  1.00  0.00    -0.507 OA
ATOM     26  H   UNL     1     -43.116  23.278   9.039  1.00  0.00     0.293 HD
ENDBRANCH   5  25
BRANCH   7  27
ATOM     27  O   UNL     1     -41.343  22.239   4.534  1.00  0.00    -0.507 OA
ATOM     28  H   UNL     1     -40.979  21.385   4.136  1.00  0.00     0.293 HD
ENDBRANCH   7  27
TORSDOF 7
ENDMDL
MODEL 3
REMARK VINA RESULT:    34.428      1.287      2.461
REMARK INTER + INTRA:          42.666
REMARK INTER:                  43.005
REMARK INTRA:                  -0.340
REMARK UNBOUND:                 0.186
REMARK SMILES Oc1cc(O)c2cc(O)c(-c3cc(O)c(O)c(O)c3)[o+]c2c1
REMARK SMILES IDX 10 1 20 2 21 3 22 4 2 5 3 6 4 7 6 8 7 9 8 10 11 11 12 12
REMARK SMILES IDX 13 13 19 14 15 15 17 16 14 17 16 19 18 21 9 23 1 25 5 27
REMARK H PARENT 14 18 16 20 18 22 9 24 1 26 5 28
REMARK Flexibility Score: inf
ROOT
ATOM      1  C   UNL     1     -37.089  24.492   6.120  1.00  0.00     0.402 A 
ATOM      2  O   UNL     1     -37.965  24.426   7.118  1.00  0.00    -0.202 OA
ATOM      3  C   UNL     1     -39.171  23.880   6.997  1.00  0.00     0.368 A 
ATOM      4  C   UNL     1     -40.021  23.855   8.105  1.00  0.00     0.162 A 
ATOM      5  C   UNL     1     -41.291  23.286   8.008  1.00  0.00     0.128 A 
ATOM      6  C   UNL     1     -41.716  22.736   6.793  1.00  0.00     0.093 A 
ATOM      7  C   UNL     1     -40.883  22.748   5.668  1.00  0.00     0.136 A 
ATOM      8  C   UNL     1     -39.591  23.328   5.763  1.00  0.00     0.125 A 
ATOM      9  C   UNL     1     -38.694  23.397   4.685  1.00  0.00     0.078 A 
ATOM     10  C   UNL     1     -37.440  23.990   4.853  1.00  0.00     0.223 A 
ENDROOT
BRANCH   1  11
ATOM     11  C   UNL     1     -35.772  25.117   6.383  1.00  0.00     0.091 A 
ATOM     12  C   UNL     1     -34.766  24.368   7.012  1.00  0.00     0.068 A 
ATOM     13  C   UNL     1     -33.504  24.929   7.254  1.00  0.00     0.162 A 
ATOM     14  C   UNL     1     -35.490  26.430   5.968  1.00  0.00     0.068 A 
ATOM     15  C   UNL     1     -33.237  26.249   6.855  1.00  0.00     0.200 A 
ATOM     16  C   UNL     1     -34.229  26.995   6.207  1.00  0.00     0.162 A 
BRANCH  13  17
ATOM     17  O   UNL     1     -32.516  24.180   7.892  1.00  0.00    -0.504 OA
ATOM     18  H   UNL     1     -31.649  24.602   8.205  1.00  0.00     0.293 HD
ENDBRANCH  13  17
BRANCH  15  19
ATOM     19  O   UNL     1     -31.990  26.831   7.088  1.00  0.00    -0.502 OA
ATOM     20  H   UNL     1     -31.127  26.396   6.783  1.00  0.00     0.293 HD
ENDBRANCH  15  19
BRANCH  16  21
ATOM     21  O   UNL     1     -33.955  28.300   5.798  1.00  0.00    -0.504 OA
ATOM     22  H   UNL     1     -33.706  28.515   4.840  1.00  0.00     0.293 HD
ENDBRANCH  16  21
ENDBRANCH   1  11
BRANCH  10  23
ATOM     23  O   UNL     1     -36.567  24.103   3.770  1.00  0.00    -0.500 OA
ATOM     24  H   UNL     1     -35.563  24.159   3.899  1.00  0.00     0.294 HD
ENDBRANCH  10  23
BRANCH   5  25
ATOM     25  O   UNL     1     -42.124  23.271   9.124  1.00  0.00    -0.507 OA
ATOM     26  H   UNL     1     -42.811  23.998   9.283  1.00  0.00     0.293 HD
ENDBRANCH   5  25
BRANCH   7  27
ATOM     27  O   UNL     1     -41.379  22.175   4.494  1.00  0.00    -0.507 OA
ATOM     28  H   UNL     1     -42.245  21.658   4.433  1.00  0.00     0.293 HD
ENDBRANCH   7  27
TORSDOF 7
ENDMDL
