MODEL 1
REMARK VINA RESULT:    -3.417      0.000      0.000
REMARK INTER + INTRA:          -3.717
REMARK INTER:                  -3.717
REMARK INTRA:                   0.000
REMARK UNBOUND:                 0.000
REMARK SMILES Oc1cccc(O)c1O
REMARK SMILES IDX 4 1 5 2 6 3 8 4 2 5 3 6 7 7 1 9 9 11
REMARK H PARENT 7 8 1 10 9 12
REMARK Flexibility Score: inf
ROOT
ATOM      1  C   UNL     1      -8.347  -4.377 -12.817  1.00  0.00     0.008 A 
ATOM      2  C   UNL     1      -8.480  -5.766 -12.839  1.00  0.00     0.050 A 
ATOM      3  C   UNL     1      -7.415  -6.579 -13.248  1.00  0.00     0.161 A 
ATOM      4  C   UNL     1      -6.194  -5.980 -13.644  1.00  0.00     0.200 A 
ATOM      5  C   UNL     1      -6.069  -4.581 -13.619  1.00  0.00     0.161 A 
ATOM      6  C   UNL     1      -7.145  -3.785 -13.206  1.00  0.00     0.050 A 
ENDROOT
BRANCH   3   7
ATOM      7  O   UNL     1      -7.614  -7.961 -13.248  1.00  0.00    -0.504 OA
ATOM      8  H   UNL     1      -7.635  -8.529 -12.414  1.00  0.00     0.293 HD
ENDBRANCH   3   7
BRANCH   5   9
ATOM      9  O   UNL     1      -4.868  -3.990 -14.007  1.00  0.00    -0.504 OA
ATOM     10  H   UNL     1      -4.221  -4.463 -14.628  1.00  0.00     0.293 HD
ENDBRANCH   5   9
BRANCH   4  11
ATOM     11  O   UNL     1      -5.092  -6.730 -14.064  1.00  0.00    -0.502 OA
ATOM     12  H   UNL     1      -5.158  -7.650 -14.473  1.00  0.00     0.293 HD
ENDBRANCH   4  11
TORSDOF 3
ENDMDL
MODEL 2
REMARK VINA RESULT:    -3.396      0.083      2.816
REMARK INTER + INTRA:          -3.694
REMARK INTER:                  -3.694
REMARK INTRA:                   0.000
REMARK UNBOUND:                 0.000
REMARK SMILES Oc1cccc(O)c1O
REMARK SMILES IDX 4 1 5 2 6 3 8 4 2 5 3 6 7 7 1 9 9 11
REMARK H PARENT 7 8 1 10 9 12
REMARK Flexibility Score: inf
ROOT
ATOM      1  C   UNL     1      -8.319  -4.328 -12.876  1.00  0.00     0.008 A 
ATOM      2  C   UNL     1      -7.108  -3.744 -13.251  1.00  0.00     0.050 A 
ATOM      3  C   UNL     1      -6.026  -4.537 -13.651  1.00  0.00     0.161 A 
ATOM      4  C   UNL     1      -6.167  -5.947 -13.673  1.00  0.00     0.200 A 
ATOM      5  C   UNL     1      -7.389  -6.526 -13.294  1.00  0.00     0.161 A 
ATOM      6  C   UNL     1      -8.460  -5.716 -12.897  1.00  0.00     0.050 A 
ENDROOT
BRANCH   3   7
ATOM      7  O   UNL     1      -4.843  -3.891 -14.014  1.00  0.00    -0.504 OA
ATOM      8  H   UNL     1      -4.091  -3.685 -13.372  1.00  0.00     0.293 HD
ENDBRANCH   3   7
BRANCH   5   9
ATOM      9  O   UNL     1      -7.529  -7.913 -13.316  1.00  0.00    -0.504 OA
ATOM     10  H   UNL     1      -7.872  -8.424 -12.510  1.00  0.00     0.293 HD
ENDBRANCH   5   9
BRANCH   4  11
ATOM     11  O   UNL     1      -5.129  -6.798 -14.062  1.00  0.00    -0.502 OA
ATOM     12  H   UNL     1      -4.536  -6.638 -14.862  1.00  0.00     0.293 HD
ENDBRANCH   4  11
TORSDOF 3
ENDMDL
MODEL 3
REMARK VINA RESULT:    -3.252     14.341     15.220
REMARK INTER + INTRA:          -3.537
REMARK INTER:                  -3.537
REMARK INTRA:                   0.000
REMARK UNBOUND:                 0.000
REMARK SMILES Oc1cccc(O)c1O
REMARK SMILES IDX 4 1 5 2 6 3 8 4 2 5 3 6 7 7 1 9 9 11
REMARK H PARENT 7 8 1 10 9 12
REMARK Flexibility Score: inf
ROOT
ATOM      1  C   UNL     1      -9.737   9.069  -9.076  1.00  0.00     0.008 A 
ATOM      2  C   UNL     1      -8.487   8.636  -9.523  1.00  0.00     0.050 A 
ATOM      3  C   UNL     1      -7.564   8.078  -8.631  1.00  0.00     0.161 A 
ATOM      4  C   UNL     1      -7.906   7.954  -7.262  1.00  0.00     0.200 A 
ATOM      5  C   UNL     1      -9.165   8.391  -6.821  1.00  0.00     0.161 A 
ATOM      6  C   UNL     1     -10.076   8.947  -7.729  1.00  0.00     0.050 A 
ENDROOT
BRANCH   3   7
ATOM      7  O   UNL     1      -6.331   7.666  -9.142  1.00  0.00    -0.504 OA
ATOM      8  H   UNL     1      -5.717   8.257  -9.682  1.00  0.00     0.293 HD
ENDBRANCH   3   7
BRANCH   5   9
ATOM      9  O   UNL     1      -9.504   8.270  -5.474  1.00  0.00    -0.504 OA
ATOM     10  H   UNL     1      -9.597   9.082  -4.875  1.00  0.00     0.293 HD
ENDBRANCH   5   9
BRANCH   4  11
ATOM     11  O   UNL     1      -7.033   7.407  -6.317  1.00  0.00    -0.502 OA
ATOM     12  H   UNL     1      -7.318   6.774  -5.585  1.00  0.00     0.293 HD
ENDBRANCH   4  11
TORSDOF 3
ENDMDL
MODEL 4
REMARK VINA RESULT:    -3.214     14.351     15.154
REMARK INTER + INTRA:          -3.496
REMARK INTER:                  -3.496
REMARK INTRA:                   0.000
REMARK UNBOUND:                 0.000
REMARK SMILES Oc1cccc(O)c1O
REMARK SMILES IDX 4 1 5 2 6 3 8 4 2 5 3 6 7 7 1 9 9 11
REMARK H PARENT 7 8 1 10 9 12
REMARK Flexibility Score: inf
ROOT
ATOM      1  C   UNL     1      -9.799   9.168  -9.117  1.00  0.00     0.008 A 
ATOM      2  C   UNL     1     -10.122   9.042  -7.765  1.00  0.00     0.050 A 
ATOM      3  C   UNL     1      -9.220   8.458  -6.867  1.00  0.00     0.161 A 
ATOM      4  C   UNL     1      -7.970   7.991  -7.341  1.00  0.00     0.200 A 
ATOM      5  C   UNL     1      -7.653   8.122  -8.703  1.00  0.00     0.161 A 
ATOM      6  C   UNL     1      -8.568   8.710  -9.586  1.00  0.00     0.050 A 
ENDROOT
BRANCH   3   7
ATOM      7  O   UNL     1      -9.605   8.362  -5.528  1.00  0.00    -0.504 OA
ATOM      8  H   UNL     1      -9.101   8.786  -4.764  1.00  0.00     0.293 HD
ENDBRANCH   3   7
BRANCH   5   9
ATOM      9  O   UNL     1      -6.422   7.664  -9.171  1.00  0.00    -0.504 OA
ATOM     10  H   UNL     1      -5.629   8.286  -9.274  1.00  0.00     0.293 HD
ENDBRANCH   5   9
BRANCH   4  11
ATOM     11  O   UNL     1      -7.023   7.398  -6.501  1.00  0.00    -0.502 OA
ATOM     12  H   UNL     1      -6.647   6.472  -6.638  1.00  0.00     0.293 HD
ENDBRANCH   4  11
TORSDOF 3
ENDMDL
MODEL 5
REMARK VINA RESULT:    -3.189      1.137      2.774
REMARK INTER + INTRA:          -3.469
REMARK INTER:                  -3.469
REMARK INTRA:                   0.000
REMARK UNBOUND:                 0.000
REMARK SMILES Oc1cccc(O)c1O
REMARK SMILES IDX 4 1 5 2 6 3 8 4 2 5 3 6 7 7 1 9 9 11
REMARK H PARENT 7 8 1 10 9 12
REMARK Flexibility Score: inf
ROOT
ATOM      1  C   UNL     1      -8.751  -6.065 -13.309  1.00  0.00     0.008 A 
ATOM      2  C   UNL     1      -8.754  -4.671 -13.250  1.00  0.00     0.050 A 
ATOM      3  C   UNL     1      -7.565  -3.947 -13.403  1.00  0.00     0.161 A 
ATOM      4  C   UNL     1      -6.350  -4.642 -13.620  1.00  0.00     0.200 A 
ATOM      5  C   UNL     1      -6.356  -6.046 -13.678  1.00  0.00     0.161 A 
ATOM      6  C   UNL     1      -7.556  -6.752 -13.522  1.00  0.00     0.050 A 
ENDROOT
BRANCH   3   7
ATOM      7  O   UNL     1      -7.636  -2.555 -13.333  1.00  0.00    -0.504 OA
ATOM      8  H   UNL     1      -7.591  -2.029 -12.473  1.00  0.00     0.293 HD
ENDBRANCH   3   7
BRANCH   5   9
ATOM      9  O   UNL     1      -5.161  -6.731 -13.891  1.00  0.00    -0.504 OA
ATOM     10  H   UNL     1      -4.920  -7.107 -14.801  1.00  0.00     0.293 HD
ENDBRANCH   5   9
BRANCH   4  11
ATOM     11  O   UNL     1      -5.128  -3.984 -13.781  1.00  0.00    -0.502 OA
ATOM     12  H   UNL     1      -4.553  -3.664 -13.016  1.00  0.00     0.293 HD
ENDBRANCH   4  11
TORSDOF 3
ENDMDL
MODEL 6
REMARK VINA RESULT:    -3.149     14.281     15.140
REMARK INTER + INTRA:          -3.425
REMARK INTER:                  -3.425
REMARK INTRA:                   0.000
REMARK UNBOUND:                 0.000
REMARK SMILES Oc1cccc(O)c1O
REMARK SMILES IDX 4 1 5 2 6 3 8 4 2 5 3 6 7 7 1 9 9 11
REMARK H PARENT 7 8 1 10 9 12
REMARK Flexibility Score: inf
ROOT
ATOM      1  C   UNL     1      -8.125   9.694 -10.449  1.00  0.00     0.008 A 
ATOM      2  C   UNL     1      -8.852   8.629  -9.916  1.00  0.00     0.050 A 
ATOM      3  C   UNL     1      -8.421   7.982  -8.751  1.00  0.00     0.161 A 
ATOM      4  C   UNL     1      -7.234   8.417  -8.112  1.00  0.00     0.200 A 
ATOM      5  C   UNL     1      -6.509   9.490  -8.655  1.00  0.00     0.161 A 
ATOM      6  C   UNL     1      -6.956  10.125  -9.821  1.00  0.00     0.050 A 
ENDROOT
BRANCH   3   7
ATOM      7  O   UNL     1      -9.193   6.923  -8.271  1.00  0.00    -0.504 OA
ATOM      8  H   UNL     1      -8.810   6.068  -7.894  1.00  0.00     0.293 HD
ENDBRANCH   3   7
BRANCH   5   9
ATOM      9  O   UNL     1      -5.340   9.919  -8.027  1.00  0.00    -0.504 OA
ATOM     10  H   UNL     1      -4.426   9.614  -8.341  1.00  0.00     0.293 HD
ENDBRANCH   5   9
BRANCH   4  11
ATOM     11  O   UNL     1      -6.746   7.817  -6.948  1.00  0.00    -0.502 OA
ATOM     12  H   UNL     1      -5.807   7.939  -6.601  1.00  0.00     0.293 HD
ENDBRANCH   4  11
TORSDOF 3
ENDMDL
MODEL 7
REMARK VINA RESULT:    -3.111     14.515     15.146
REMARK INTER + INTRA:          -3.383
REMARK INTER:                  -3.383
REMARK INTRA:                   0.000
REMARK UNBOUND:                 0.000
REMARK SMILES Oc1cccc(O)c1O
REMARK SMILES IDX 4 1 5 2 6 3 8 4 2 5 3 6 7 7 1 9 9 11
REMARK H PARENT 7 8 1 10 9 12
REMARK Flexibility Score: inf
ROOT
ATOM      1  C   UNL     1      -8.930   7.486  -6.741  1.00  0.00     0.008 A 
ATOM      2  C   UNL     1      -7.691   8.127  -6.758  1.00  0.00     0.050 A 
ATOM      3  C   UNL     1      -7.228   8.756  -7.920  1.00  0.00     0.161 A 
ATOM      4  C   UNL     1      -8.029   8.738  -9.088  1.00  0.00     0.200 A 
ATOM      5  C   UNL     1      -9.276   8.091  -9.062  1.00  0.00     0.161 A 
ATOM      6  C   UNL     1      -9.722   7.468  -7.890  1.00  0.00     0.050 A 
ENDROOT
BRANCH   3   7
ATOM      7  O   UNL     1      -5.979   9.378  -7.871  1.00  0.00    -0.504 OA
ATOM      8  H   UNL     1      -5.107   8.887  -7.739  1.00  0.00     0.293 HD
ENDBRANCH   3   7
BRANCH   5   9
ATOM      9  O   UNL     1     -10.066   8.073 -10.211  1.00  0.00    -0.504 OA
ATOM     10  H   UNL     1     -10.516   8.912 -10.558  1.00  0.00     0.293 HD
ENDBRANCH   5   9
BRANCH   4  11
ATOM     11  O   UNL     1      -7.629   9.345 -10.282  1.00  0.00    -0.502 OA
ATOM     12  H   UNL     1      -7.434   8.841 -11.134  1.00  0.00     0.293 HD
ENDBRANCH   4  11
TORSDOF 3
ENDMDL
MODEL 8
REMARK VINA RESULT:    -3.104     14.554     14.983
REMARK INTER + INTRA:          -3.376
REMARK INTER:                  -3.376
REMARK INTRA:                   0.000
REMARK UNBOUND:                 0.000
REMARK SMILES Oc1cccc(O)c1O
REMARK SMILES IDX 4 1 5 2 6 3 8 4 2 5 3 6 7 7 1 9 9 11
REMARK H PARENT 7 8 1 10 9 12
REMARK Flexibility Score: inf
ROOT
ATOM      1  C   UNL     1      -9.028   7.500  -6.784  1.00  0.00     0.008 A 
ATOM      2  C   UNL     1      -9.793   7.517  -7.951  1.00  0.00     0.050 A 
ATOM      3  C   UNL     1      -9.309   8.130  -9.113  1.00  0.00     0.161 A 
ATOM      4  C   UNL     1      -8.030   8.738  -9.099  1.00  0.00     0.200 A 
ATOM      5  C   UNL     1      -7.266   8.715  -7.920  1.00  0.00     0.161 A 
ATOM      6  C   UNL     1      -7.767   8.097  -6.768  1.00  0.00     0.050 A 
ENDROOT
BRANCH   3   7
ATOM      7  O   UNL     1     -10.125   8.114 -10.246  1.00  0.00    -0.504 OA
ATOM      8  H   UNL     1     -10.135   7.367 -10.924  1.00  0.00     0.293 HD
ENDBRANCH   3   7
BRANCH   5   9
ATOM      9  O   UNL     1      -6.006   9.313  -7.905  1.00  0.00    -0.504 OA
ATOM     10  H   UNL     1      -5.554   9.575  -7.036  1.00  0.00     0.293 HD
ENDBRANCH   5   9
BRANCH   4  11
ATOM     11  O   UNL     1      -7.485   9.367 -10.222  1.00  0.00    -0.502 OA
ATOM     12  H   UNL     1      -6.890  10.180 -10.180  1.00  0.00     0.293 HD
ENDBRANCH   4  11
TORSDOF 3
ENDMDL
MODEL 9
REMARK VINA RESULT:    -3.009     14.847     15.117
REMARK INTER + INTRA:          -3.273
REMARK INTER:                  -3.273
REMARK INTRA:                   0.000
REMARK UNBOUND:                 0.000
REMARK SMILES Oc1cccc(O)c1O
REMARK SMILES IDX 4 1 5 2 6 3 8 4 2 5 3 6 7 7 1 9 9 11
REMARK H PARENT 7 8 1 10 9 12
REMARK Flexibility Score: inf
ROOT
ATOM      1  C   UNL     1      -9.961   7.835  -8.518  1.00  0.00     0.008 A 
ATOM      2  C   UNL     1      -9.311   7.506  -7.328  1.00  0.00     0.050 A 
ATOM      3  C   UNL     1      -8.003   7.944  -7.084  1.00  0.00     0.161 A 
ATOM      4  C   UNL     1      -7.338   8.728  -8.058  1.00  0.00     0.200 A 
ATOM      5  C   UNL     1      -8.000   9.055  -9.253  1.00  0.00     0.161 A 
ATOM      6  C   UNL     1      -9.308   8.607  -9.479  1.00  0.00     0.050 A 
ENDROOT
BRANCH   3   7
ATOM      7  O   UNL     1      -7.410   7.580  -5.874  1.00  0.00    -0.504 OA
ATOM      8  H   UNL     1      -6.729   8.143  -5.386  1.00  0.00     0.293 HD
ENDBRANCH   3   7
BRANCH   5   9
ATOM      9  O   UNL     1      -7.347   9.827 -10.213  1.00  0.00    -0.504 OA
ATOM     10  H   UNL     1      -6.350   9.743 -10.373  1.00  0.00     0.293 HD
ENDBRANCH   5   9
BRANCH   4  11
ATOM     11  O   UNL     1      -6.035   9.199  -7.880  1.00  0.00    -0.502 OA
ATOM     12  H   UNL     1      -5.582   9.856  -8.498  1.00  0.00     0.293 HD
ENDBRANCH   4  11
TORSDOF 3
ENDMDL
