MODEL 1
REMARK VINA RESULT:    -0.941      0.000      0.000
REMARK INTER + INTRA:          -4.020
REMARK INTER:                  -2.481
REMARK INTRA:                  -1.539
REMARK UNBOUND:                -1.539
REMARK SMILES CCCCCCCCCCCCCCCCCCCCCCCCCCCCCC(=O)[O-]
REMARK SMILES IDX 16 1 17 2 18 3 19 4 20 5 21 6 22 7 23 8 24 9 25 10 26 11
REMARK SMILES IDX 27 12 28 13 29 14 30 15 31 16 32 17 15 18 14 19 13 20 12 21
REMARK SMILES IDX 11 22 10 23 9 24 8 25 7 26 6 27 5 28 4 29 3 30 2 31 1 32
REMARK H PARENT
REMARK Flexibility Score: inf
ROOT
ATOM      1  C   UNL     1      26.096  -3.072  47.373  1.00  0.00     0.000 C 
ENDROOT
BRANCH   1   2
ATOM      2  C   UNL     1      24.822  -3.928  47.503  1.00  0.00     0.000 C 
BRANCH   2   3
ATOM      3  C   UNL     1      23.630  -3.483  46.632  1.00  0.00     0.000 C 
BRANCH   3   4
ATOM      4  C   UNL     1      22.259  -3.979  47.136  1.00  0.00     0.000 C 
BRANCH   4   5
ATOM      5  C   UNL     1      21.087  -3.511  46.252  1.00  0.00     0.000 C 
BRANCH   5   6
ATOM      6  C   UNL     1      21.093  -4.175  44.865  1.00  0.00     0.000 C 
BRANCH   6   7
ATOM      7  C   UNL     1      19.804  -3.899  44.076  1.00  0.00     0.000 C 
BRANCH   7   8
ATOM      8  C   UNL     1      19.563  -4.923  42.953  1.00  0.00     0.000 C 
BRANCH   8   9
ATOM      9  C   UNL     1      20.449  -6.183  43.072  1.00  0.00     0.000 C 
BRANCH   9  10
ATOM     10  C   UNL     1      19.727  -7.447  42.572  1.00  0.00     0.000 C 
BRANCH  10  11
ATOM     11  C   UNL     1      19.865  -8.635  43.536  1.00  0.00     0.000 C 
BRANCH  11  12
ATOM     12  C   UNL     1      21.307  -9.166  43.625  1.00  0.00     0.000 C 
BRANCH  12  13
ATOM     13  C   UNL     1      21.524 -10.095  44.830  1.00  0.00     0.006 C 
BRANCH  13  14
ATOM     14  C   UNL     1      22.472 -11.260  44.519  1.00  0.00     0.053 C 
BRANCH  14  15
ATOM     15  C   UNL     1      21.697 -12.522  44.304  1.00  0.00     0.041 C 
ATOM     16  O   UNL     1      21.492 -13.313  45.262  1.00  0.00    -0.550 OA
ATOM     17  O   UNL     1      21.160 -12.802  43.052  1.00  0.00    -0.550 OA
ENDBRANCH  14  15
ENDBRANCH  13  14
ENDBRANCH  12  13
ENDBRANCH  11  12
ENDBRANCH  10  11
ENDBRANCH   9  10
ENDBRANCH   8   9
ENDBRANCH   7   8
ENDBRANCH   6   7
ENDBRANCH   5   6
ENDBRANCH   4   5
ENDBRANCH   3   4
ENDBRANCH   2   3
ENDBRANCH   1   2
BRANCH   1  18
ATOM     18  C   UNL     1      27.419  -3.861  47.322  1.00  0.00     0.000 C 
BRANCH  18  19
ATOM     19  C   UNL     1      28.299  -3.476  46.121  1.00  0.00     0.000 C 
BRANCH  19  20
ATOM     20  C   UNL     1      28.131  -2.003  45.706  1.00  0.00     0.000 C 
BRANCH  20  21
ATOM     21  C   UNL     1      29.353  -1.100  45.972  1.00  0.00     0.000 C 
BRANCH  21  22
ATOM     22  C   UNL     1      30.702  -1.677  45.505  1.00  0.00     0.000 C 
BRANCH  22  23
ATOM     23  C   UNL     1      30.980  -1.417  44.013  1.00  0.00     0.000 C 
BRANCH  23  24
ATOM     24  C   UNL     1      32.398  -0.867  43.753  1.00  0.00    -0.000 C 
BRANCH  24  25
ATOM     25  C   UNL     1      32.636  -0.400  42.304  1.00  0.00    -0.000 C 
BRANCH  25  26
ATOM     26  C   UNL     1      34.021   0.214  42.027  1.00  0.00    -0.000 C 
BRANCH  26  27
ATOM     27  C   UNL     1      35.195  -0.479  42.743  1.00  0.00    -0.000 C 
BRANCH  27  28
ATOM     28  C   UNL     1      35.606  -1.802  42.074  1.00  0.00    -0.000 C 
BRANCH  28  29
ATOM     29  C   UNL     1      35.381  -3.019  42.986  1.00  0.00    -0.000 C 
BRANCH  29  30
ATOM     30  C   UNL     1      36.646  -3.883  43.141  1.00  0.00    -0.000 C 
BRANCH  30  31
ATOM     31  C   UNL     1      37.890  -3.221  42.527  1.00  0.00    -0.003 C 
ATOM     32  C   UNL     1      39.039  -3.079  43.524  1.00  0.00     0.004 C 
ENDBRANCH  30  31
ENDBRANCH  29  30
ENDBRANCH  28  29
ENDBRANCH  27  28
ENDBRANCH  26  27
ENDBRANCH  25  26
ENDBRANCH  24  25
ENDBRANCH  23  24
ENDBRANCH  22  23
ENDBRANCH  21  22
ENDBRANCH  20  21
ENDBRANCH  19  20
ENDBRANCH  18  19
ENDBRANCH   1  18
TORSDOF 28
ENDMDL
MODEL 2
REMARK VINA RESULT:     0.183      4.493     13.592
REMARK INTER + INTRA:          -1.056
REMARK INTER:                   0.150
REMARK INTRA:                  -1.207
REMARK UNBOUND:                -1.539
REMARK SMILES CCCCCCCCCCCCCCCCCCCCCCCCCCCCCC(=O)[O-]
REMARK SMILES IDX 16 1 17 2 18 3 19 4 20 5 21 6 22 7 23 8 24 9 25 10 26 11
REMARK SMILES IDX 27 12 28 13 29 14 30 15 31 16 32 17 15 18 14 19 13 20 12 21
REMARK SMILES IDX 11 22 10 23 9 24 8 25 7 26 6 27 5 28 4 29 3 30 2 31 1 32
REMARK H PARENT
REMARK Flexibility Score: inf
ROOT
ATOM      1  C   UNL     1      27.003  -3.860  47.701  1.00  0.00     0.000 C 
ENDROOT
BRANCH   1   2
ATOM      2  C   UNL     1      27.957  -4.131  46.521  1.00  0.00     0.000 C 
BRANCH   2   3
ATOM      3  C   UNL     1      28.653  -2.889  45.931  1.00  0.00     0.000 C 
BRANCH   3   4
ATOM      4  C   UNL     1      28.402  -2.681  44.424  1.00  0.00     0.000 C 
BRANCH   4   5
ATOM      5  C   UNL     1      28.686  -1.240  43.959  1.00  0.00     0.000 C 
BRANCH   5   6
ATOM      6  C   UNL     1      28.766  -1.119  42.428  1.00  0.00     0.000 C 
BRANCH   6   7
ATOM      7  C   UNL     1      30.205  -1.241  41.903  1.00  0.00     0.000 C 
BRANCH   7   8
ATOM      8  C   UNL     1      31.191  -0.328  42.651  1.00  0.00     0.000 C 
BRANCH   8   9
ATOM      9  C   UNL     1      32.506  -0.082  41.879  1.00  0.00     0.000 C 
BRANCH   9  10
ATOM     10  C   UNL     1      33.472   0.829  42.658  1.00  0.00     0.000 C 
BRANCH  10  11
ATOM     11  C   UNL     1      34.938   0.642  42.239  1.00  0.00     0.000 C 
BRANCH  11  12
ATOM     12  C   UNL     1      35.300  -0.830  41.975  1.00  0.00     0.000 C 
BRANCH  12  13
ATOM     13  C   UNL     1      36.640  -1.236  42.609  1.00  0.00     0.006 C 
BRANCH  13  14
ATOM     14  C   UNL     1      37.138  -2.603  42.124  1.00  0.00     0.053 C 
BRANCH  14  15
ATOM     15  C   UNL     1      36.504  -3.701  42.919  1.00  0.00     0.041 C 
ATOM     16  O   UNL     1      35.505  -4.320  42.465  1.00  0.00    -0.550 OA
ATOM     17  O   UNL     1      37.047  -4.074  44.145  1.00  0.00    -0.550 OA
ENDBRANCH  14  15
ENDBRANCH  13  14
ENDBRANCH  12  13
ENDBRANCH  11  12
ENDBRANCH  10  11
ENDBRANCH   9  10
ENDBRANCH   8   9
ENDBRANCH   7   8
ENDBRANCH   6   7
ENDBRANCH   5   6
ENDBRANCH   4   5
ENDBRANCH   3   4
ENDBRANCH   2   3
ENDBRANCH   1   2
BRANCH   1  18
ATOM     18  C   UNL     1      25.701  -3.117  47.340  1.00  0.00     0.000 C 
BRANCH  18  19
ATOM     19  C   UNL     1      24.488  -4.056  47.232  1.00  0.00     0.000 C 
BRANCH  19  20
ATOM     20  C   UNL     1      23.275  -3.390  46.557  1.00  0.00     0.000 C 
BRANCH  20  21
ATOM     21  C   UNL     1      21.910  -4.032  46.874  1.00  0.00     0.000 C 
BRANCH  21  22
ATOM     22  C   UNL     1      20.777  -3.670  45.897  1.00  0.00     0.000 C 
BRANCH  22  23
ATOM     23  C   UNL     1      21.165  -3.894  44.423  1.00  0.00     0.000 C 
BRANCH  23  24
ATOM     24  C   UNL     1      20.168  -4.802  43.671  1.00  0.00    -0.000 C 
BRANCH  24  25
ATOM     25  C   UNL     1      20.834  -5.820  42.725  1.00  0.00    -0.000 C 
BRANCH  25  26
ATOM     26  C   UNL     1      20.081  -7.152  42.554  1.00  0.00    -0.000 C 
BRANCH  26  27
ATOM     27  C   UNL     1      20.544  -8.286  43.488  1.00  0.00    -0.000 C 
BRANCH  27  28
ATOM     28  C   UNL     1      19.454  -9.345  43.726  1.00  0.00    -0.000 C 
BRANCH  28  29
ATOM     29  C   UNL     1      19.905 -10.447  44.698  1.00  0.00    -0.000 C 
BRANCH  29  30
ATOM     30  C   UNL     1      20.321 -11.740  43.974  1.00  0.00    -0.000 C 
BRANCH  30  31
ATOM     31  C   UNL     1      21.267 -12.611  44.817  1.00  0.00    -0.003 C 
ATOM     32  C   UNL     1      22.549 -12.983  44.074  1.00  0.00     0.004 C 
ENDBRANCH  30  31
ENDBRANCH  29  30
ENDBRANCH  28  29
ENDBRANCH  27  28
ENDBRANCH  26  27
ENDBRANCH  25  26
ENDBRANCH  24  25
ENDBRANCH  23  24
ENDBRANCH  22  23
ENDBRANCH  21  22
ENDBRANCH  20  21
ENDBRANCH  19  20
ENDBRANCH  18  19
ENDBRANCH   1  18
TORSDOF 28
ENDMDL
MODEL 3
REMARK VINA RESULT:     0.265      1.139      2.298
REMARK INTER + INTRA:          -0.839
REMARK INTER:                   0.535
REMARK INTRA:                  -1.374
REMARK UNBOUND:                -1.539
REMARK SMILES CCCCCCCCCCCCCCCCCCCCCCCCCCCCCC(=O)[O-]
REMARK SMILES IDX 16 1 17 2 18 3 19 4 20 5 21 6 22 7 23 8 24 9 25 10 26 11
REMARK SMILES IDX 27 12 28 13 29 14 30 15 31 16 32 17 15 18 14 19 13 20 12 21
REMARK SMILES IDX 11 22 10 23 9 24 8 25 7 26 6 27 5 28 4 29 3 30 2 31 1 32
REMARK H PARENT
REMARK Flexibility Score: inf
ROOT
ATOM      1  C   UNL     1      28.616  -3.319  46.946  1.00  0.00     0.000 C 
ENDROOT
BRANCH   1   2
ATOM      2  C   UNL     1      27.206  -3.729  46.480  1.00  0.00     0.000 C 
BRANCH   2   3
ATOM      3  C   UNL     1      26.038  -2.995  47.169  1.00  0.00     0.000 C 
BRANCH   3   4
ATOM      4  C   UNL     1      24.781  -3.863  47.377  1.00  0.00     0.000 C 
BRANCH   4   5
ATOM      5  C   UNL     1      23.606  -3.448  46.471  1.00  0.00     0.000 C 
BRANCH   5   6
ATOM      6  C   UNL     1      22.261  -4.018  46.952  1.00  0.00     0.000 C 
BRANCH   6   7
ATOM      7  C   UNL     1      21.113  -3.720  45.975  1.00  0.00     0.000 C 
BRANCH   7   8
ATOM      8  C   UNL     1      21.439  -4.134  44.530  1.00  0.00     0.000 C 
BRANCH   8   9
ATOM      9  C   UNL     1      20.264  -4.836  43.813  1.00  0.00     0.000 C 
BRANCH   9  10
ATOM     10  C   UNL     1      20.726  -6.076  43.027  1.00  0.00     0.000 C 
BRANCH  10  11
ATOM     11  C   UNL     1      19.697  -7.217  43.052  1.00  0.00     0.000 C 
BRANCH  11  12
ATOM     12  C   UNL     1      20.315  -8.584  42.711  1.00  0.00     0.000 C 
BRANCH  12  13
ATOM     13  C   UNL     1      21.337  -9.053  43.758  1.00  0.00     0.006 C 
BRANCH  13  14
ATOM     14  C   UNL     1      20.739 -10.033  44.775  1.00  0.00     0.053 C 
BRANCH  14  15
ATOM     15  C   UNL     1      21.717 -11.121  45.090  1.00  0.00     0.041 C 
ATOM     16  O   UNL     1      21.547 -11.857  46.097  1.00  0.00    -0.550 OA
ATOM     17  O   UNL     1      22.796 -11.351  44.243  1.00  0.00    -0.550 OA
ENDBRANCH  14  15
ENDBRANCH  13  14
ENDBRANCH  12  13
ENDBRANCH  11  12
ENDBRANCH  10  11
ENDBRANCH   9  10
ENDBRANCH   8   9
ENDBRANCH   7   8
ENDBRANCH   6   7
ENDBRANCH   5   6
ENDBRANCH   4   5
ENDBRANCH   3   4
ENDBRANCH   2   3
ENDBRANCH   1   2
BRANCH   1  18
ATOM     18  C   UNL     1      29.184  -2.046  46.287  1.00  0.00     0.000 C 
BRANCH  18  19
ATOM     19  C   UNL     1      28.132  -1.274  45.474  1.00  0.00     0.000 C 
BRANCH  19  20
ATOM     20  C   UNL     1      28.514  -1.130  43.989  1.00  0.00     0.000 C 
BRANCH  20  21
ATOM     21  C   UNL     1      30.006  -1.349  43.667  1.00  0.00     0.000 C 
BRANCH  21  22
ATOM     22  C   UNL     1      30.374  -1.239  42.177  1.00  0.00     0.000 C 
BRANCH  22  23
ATOM     23  C   UNL     1      31.389  -0.116  41.893  1.00  0.00     0.000 C 
BRANCH  23  24
ATOM     24  C   UNL     1      32.849  -0.616  41.875  1.00  0.00    -0.000 C 
BRANCH  24  25
ATOM     25  C   UNL     1      33.766   0.085  42.896  1.00  0.00    -0.000 C 
BRANCH  25  26
ATOM     26  C   UNL     1      35.127   0.552  42.348  1.00  0.00    -0.000 C 
BRANCH  26  27
ATOM     27  C   UNL     1      36.079  -0.580  41.920  1.00  0.00    -0.000 C 
BRANCH  27  28
ATOM     28  C   UNL     1      36.771  -1.262  43.113  1.00  0.00    -0.000 C 
BRANCH  28  29
ATOM     29  C   UNL     1      37.236  -2.690  42.787  1.00  0.00    -0.000 C 
BRANCH  29  30
ATOM     30  C   UNL     1      36.543  -3.751  43.661  1.00  0.00    -0.000 C 
BRANCH  30  31
ATOM     31  C   UNL     1      35.072  -3.967  43.271  1.00  0.00    -0.003 C 
ATOM     32  C   UNL     1      34.226  -4.502  44.425  1.00  0.00     0.004 C 
ENDBRANCH  30  31
ENDBRANCH  29  30
ENDBRANCH  28  29
ENDBRANCH  27  28
ENDBRANCH  26  27
ENDBRANCH  25  26
ENDBRANCH  24  25
ENDBRANCH  23  24
ENDBRANCH  22  23
ENDBRANCH  21  22
ENDBRANCH  20  21
ENDBRANCH  19  20
ENDBRANCH  18  19
ENDBRANCH   1  18
TORSDOF 28
ENDMDL
MODEL 4
REMARK VINA RESULT:     0.531      7.131      9.752
REMARK INTER + INTRA:          -0.140
REMARK INTER:                   0.861
REMARK INTRA:                  -1.001
REMARK UNBOUND:                -1.539
REMARK SMILES CCCCCCCCCCCCCCCCCCCCCCCCCCCCCC(=O)[O-]
REMARK SMILES IDX 16 1 17 2 18 3 19 4 20 5 21 6 22 7 23 8 24 9 25 10 26 11
REMARK SMILES IDX 27 12 28 13 29 14 30 15 31 16 32 17 15 18 14 19 13 20 12 21
REMARK SMILES IDX 11 22 10 23 9 24 8 25 7 26 6 27 5 28 4 29 3 30 2 31 1 32
REMARK H PARENT
REMARK Flexibility Score: inf
ROOT
ATOM      1  C   UNL     1      29.502  -2.174  46.011  1.00  0.00     0.000 C 
ENDROOT
BRANCH   1   2
ATOM      2  C   UNL     1      29.082  -3.609  45.638  1.00  0.00     0.000 C 
BRANCH   2   3
ATOM      3  C   UNL     1      27.885  -4.177  46.427  1.00  0.00     0.000 C 
BRANCH   3   4
ATOM      4  C   UNL     1      27.305  -3.208  47.478  1.00  0.00     0.000 C 
BRANCH   4   5
ATOM      5  C   UNL     1      26.833  -3.921  48.759  1.00  0.00     0.000 C 
BRANCH   5   6
ATOM      6  C   UNL     1      27.440  -3.308  50.032  1.00  0.00     0.000 C 
BRANCH   6   7
ATOM      7  C   UNL     1      26.911  -3.970  51.314  1.00  0.00     0.000 C 
BRANCH   7   8
ATOM      8  C   UNL     1      26.629  -2.955  52.435  1.00  0.00     0.000 C 
BRANCH   8   9
ATOM      9  C   UNL     1      27.009  -3.471  53.840  1.00  0.00     0.000 C 
BRANCH   9  10
ATOM     10  C   UNL     1      27.041  -2.339  54.883  1.00  0.00     0.000 C 
BRANCH  10  11
ATOM     11  C   UNL     1      26.279  -1.085  54.427  1.00  0.00     0.000 C 
BRANCH  11  12
ATOM     12  C   UNL     1      26.160  -0.025  55.536  1.00  0.00     0.000 C 
BRANCH  12  13
ATOM     13  C   UNL     1      25.988   1.398  54.981  1.00  0.00     0.006 C 
BRANCH  13  14
ATOM     14  C   UNL     1      26.467   1.532  53.531  1.00  0.00     0.053 C 
BRANCH  14  15
ATOM     15  C   UNL     1      26.828   2.953  53.229  1.00  0.00     0.041 C 
ATOM     16  O   UNL     1      27.086   3.756  54.165  1.00  0.00    -0.550 OA
ATOM     17  O   UNL     1      26.923   3.381  51.909  1.00  0.00    -0.550 OA
ENDBRANCH  14  15
ENDBRANCH  13  14
ENDBRANCH  12  13
ENDBRANCH  11  12
ENDBRANCH  10  11
ENDBRANCH   9  10
ENDBRANCH   8   9
ENDBRANCH   7   8
ENDBRANCH   6   7
ENDBRANCH   5   6
ENDBRANCH   4   5
ENDBRANCH   3   4
ENDBRANCH   2   3
ENDBRANCH   1   2
BRANCH   1  18
ATOM     18  C   UNL     1      28.829  -1.056  45.190  1.00  0.00     0.000 C 
BRANCH  18  19
ATOM     19  C   UNL     1      27.860  -1.597  44.126  1.00  0.00     0.000 C 
BRANCH  19  20
ATOM     20  C   UNL     1      28.121  -1.009  42.726  1.00  0.00     0.000 C 
BRANCH  20  21
ATOM     21  C   UNL     1      29.501  -1.338  42.121  1.00  0.00     0.000 C 
BRANCH  21  22
ATOM     22  C   UNL     1      30.703  -0.758  42.887  1.00  0.00     0.000 C 
BRANCH  22  23
ATOM     23  C   UNL     1      31.957  -0.607  42.005  1.00  0.00     0.000 C 
BRANCH  23  24
ATOM     24  C   UNL     1      33.228  -0.286  42.819  1.00  0.00    -0.000 C 
BRANCH  24  25
ATOM     25  C   UNL     1      34.425   0.173  41.964  1.00  0.00    -0.000 C 
BRANCH  25  26
ATOM     26  C   UNL     1      35.804   0.054  42.639  1.00  0.00    -0.000 C 
BRANCH  26  27
ATOM     27  C   UNL     1      36.684  -1.098  42.122  1.00  0.00    -0.000 C 
BRANCH  27  28
ATOM     28  C   UNL     1      37.617  -1.669  43.204  1.00  0.00    -0.000 C 
BRANCH  28  29
ATOM     29  C   UNL     1      38.418  -2.884  42.711  1.00  0.00    -0.000 C 
BRANCH  29  30
ATOM     30  C   UNL     1      37.599  -4.187  42.750  1.00  0.00    -0.000 C 
BRANCH  30  31
ATOM     31  C   UNL     1      36.670  -4.263  43.973  1.00  0.00    -0.003 C 
ATOM     32  C   UNL     1      35.202  -4.032  43.616  1.00  0.00     0.004 C 
ENDBRANCH  30  31
ENDBRANCH  29  30
ENDBRANCH  28  29
ENDBRANCH  27  28
ENDBRANCH  26  27
ENDBRANCH  25  26
ENDBRANCH  24  25
ENDBRANCH  23  24
ENDBRANCH  22  23
ENDBRANCH  21  22
ENDBRANCH  20  21
ENDBRANCH  19  20
ENDBRANCH  18  19
ENDBRANCH   1  18
TORSDOF 28
ENDMDL
MODEL 5
REMARK VINA RESULT:     0.736      2.137      4.986
REMARK INTER + INTRA:           0.402
REMARK INTER:                   1.551
REMARK INTRA:                  -1.149
REMARK UNBOUND:                -1.539
REMARK SMILES CCCCCCCCCCCCCCCCCCCCCCCCCCCCCC(=O)[O-]
REMARK SMILES IDX 16 1 17 2 18 3 19 4 20 5 21 6 22 7 23 8 24 9 25 10 26 11
REMARK SMILES IDX 27 12 28 13 29 14 30 15 31 16 32 17 15 18 14 19 13 20 12 21
REMARK SMILES IDX 11 22 10 23 9 24 8 25 7 26 6 27 5 28 4 29 3 30 2 31 1 32
REMARK H PARENT
REMARK Flexibility Score: inf
ROOT
ATOM      1  C   UNL     1      30.048  -2.276  44.463  1.00  0.00     0.000 C 
ENDROOT
BRANCH   1   2
ATOM      2  C   UNL     1      30.050  -1.689  45.888  1.00  0.00     0.000 C 
BRANCH   2   3
ATOM      3  C   UNL     1      28.661  -1.366  46.475  1.00  0.00     0.000 C 
BRANCH   3   4
ATOM      4  C   UNL     1      27.610  -2.472  46.255  1.00  0.00     0.000 C 
BRANCH   4   5
ATOM      5  C   UNL     1      27.530  -3.469  47.427  1.00  0.00     0.000 C 
BRANCH   5   6
ATOM      6  C   UNL     1      26.090  -3.929  47.713  1.00  0.00     0.000 C 
BRANCH   6   7
ATOM      7  C   UNL     1      25.084  -3.386  46.686  1.00  0.00     0.000 C 
BRANCH   7   8
ATOM      8  C   UNL     1      23.640  -3.828  46.978  1.00  0.00     0.000 C 
BRANCH   8   9
ATOM      9  C   UNL     1      22.624  -3.344  45.919  1.00  0.00     0.000 C 
BRANCH   9  10
ATOM     10  C   UNL     1      21.177  -3.705  46.298  1.00  0.00     0.000 C 
BRANCH  10  11
ATOM     11  C   UNL     1      20.211  -3.636  45.106  1.00  0.00     0.000 C 
BRANCH  11  12
ATOM     12  C   UNL     1      20.719  -4.419  43.881  1.00  0.00     0.000 C 
BRANCH  12  13
ATOM     13  C   UNL     1      19.627  -5.286  43.236  1.00  0.00     0.006 C 
BRANCH  13  14
ATOM     14  C   UNL     1      20.187  -6.289  42.220  1.00  0.00     0.053 C 
BRANCH  14  15
ATOM     15  C   UNL     1      21.106  -7.259  42.895  1.00  0.00     0.041 C 
ATOM     16  O   UNL     1      20.668  -8.033  43.787  1.00  0.00    -0.550 OA
ATOM     17  O   UNL     1      22.439  -7.339  42.507  1.00  0.00    -0.550 OA
ENDBRANCH  14  15
ENDBRANCH  13  14
ENDBRANCH  12  13
ENDBRANCH  11  12
ENDBRANCH  10  11
ENDBRANCH   9  10
ENDBRANCH   8   9
ENDBRANCH   7   8
ENDBRANCH   6   7
ENDBRANCH   5   6
ENDBRANCH   4   5
ENDBRANCH   3   4
ENDBRANCH   2   3
ENDBRANCH   1   2
BRANCH   1  18
ATOM     18  C   UNL     1      29.275  -1.454  43.413  1.00  0.00     0.000 C 
BRANCH  18  19
ATOM     19  C   UNL     1      30.101  -1.174  42.147  1.00  0.00     0.000 C 
BRANCH  19  20
ATOM     20  C   UNL     1      31.172  -0.088  42.360  1.00  0.00     0.000 C 
BRANCH  20  21
ATOM     21  C   UNL     1      32.546  -0.602  42.833  1.00  0.00     0.000 C 
BRANCH  21  22
ATOM     22  C   UNL     1      33.715  -0.309  41.875  1.00  0.00     0.000 C 
BRANCH  22  23
ATOM     23  C   UNL     1      34.887   0.415  42.565  1.00  0.00     0.000 C 
BRANCH  23  24
ATOM     24  C   UNL     1      36.244   0.151  41.879  1.00  0.00    -0.000 C 
BRANCH  24  25
ATOM     25  C   UNL     1      36.669  -1.330  41.875  1.00  0.00    -0.000 C 
BRANCH  25  26
ATOM     26  C   UNL     1      38.182  -1.582  42.020  1.00  0.00    -0.000 C 
BRANCH  26  27
ATOM     27  C   UNL     1      38.598  -3.065  42.005  1.00  0.00    -0.000 C 
BRANCH  27  28
ATOM     28  C   UNL     1      38.704  -3.670  43.415  1.00  0.00    -0.000 C 
BRANCH  28  29
ATOM     29  C   UNL     1      37.391  -4.321  43.878  1.00  0.00    -0.000 C 
BRANCH  29  30
ATOM     30  C   UNL     1      36.309  -4.311  42.783  1.00  0.00    -0.000 C 
BRANCH  30  31
ATOM     31  C   UNL     1      34.955  -3.794  43.296  1.00  0.00    -0.003 C 
ATOM     32  C   UNL     1      34.348  -4.692  44.372  1.00  0.00     0.004 C 
ENDBRANCH  30  31
ENDBRANCH  29  30
ENDBRANCH  28  29
ENDBRANCH  27  28
ENDBRANCH  26  27
ENDBRANCH  25  26
ENDBRANCH  24  25
ENDBRANCH  23  24
ENDBRANCH  22  23
ENDBRANCH  21  22
ENDBRANCH  20  21
ENDBRANCH  19  20
ENDBRANCH  18  19
ENDBRANCH   1  18
TORSDOF 28
ENDMDL
MODEL 6
REMARK VINA RESULT:     0.837      7.120      9.772
REMARK INTER + INTRA:           0.668
REMARK INTER:                   1.861
REMARK INTRA:                  -1.193
REMARK UNBOUND:                -1.539
REMARK SMILES CCCCCCCCCCCCCCCCCCCCCCCCCCCCCC(=O)[O-]
REMARK SMILES IDX 16 1 17 2 18 3 19 4 20 5 21 6 22 7 23 8 24 9 25 10 26 11
REMARK SMILES IDX 27 12 28 13 29 14 30 15 31 16 32 17 15 18 14 19 13 20 12 21
REMARK SMILES IDX 11 22 10 23 9 24 8 25 7 26 6 27 5 28 4 29 3 30 2 31 1 32
REMARK H PARENT
REMARK Flexibility Score: inf
ROOT
ATOM      1  C   UNL     1      27.735  -0.770  44.591  1.00  0.00     0.000 C 
ENDROOT
BRANCH   1   2
ATOM      2  C   UNL     1      28.166  -2.012  45.395  1.00  0.00     0.000 C 
BRANCH   2   3
ATOM      3  C   UNL     1      27.259  -2.380  46.586  1.00  0.00     0.000 C 
BRANCH   3   4
ATOM      4  C   UNL     1      27.428  -3.829  47.085  1.00  0.00     0.000 C 
BRANCH   4   5
ATOM      5  C   UNL     1      26.647  -4.115  48.381  1.00  0.00     0.000 C 
BRANCH   5   6
ATOM      6  C   UNL     1      27.084  -3.210  49.545  1.00  0.00     0.000 C 
BRANCH   6   7
ATOM      7  C   UNL     1      27.036  -3.931  50.902  1.00  0.00     0.000 C 
BRANCH   7   8
ATOM      8  C   UNL     1      27.073  -2.959  52.093  1.00  0.00     0.000 C 
BRANCH   8   9
ATOM      9  C   UNL     1      26.768  -3.637  53.448  1.00  0.00     0.000 C 
BRANCH   9  10
ATOM     10  C   UNL     1      26.971  -2.677  54.633  1.00  0.00     0.000 C 
BRANCH  10  11
ATOM     11  C   UNL     1      26.950  -1.199  54.215  1.00  0.00     0.000 C 
BRANCH  11  12
ATOM     12  C   UNL     1      26.271  -0.294  55.259  1.00  0.00     0.000 C 
BRANCH  12  13
ATOM     13  C   UNL     1      25.884   1.080  54.692  1.00  0.00     0.006 C 
BRANCH  13  14
ATOM     14  C   UNL     1      26.580   1.392  53.361  1.00  0.00     0.053 C 
BRANCH  14  15
ATOM     15  C   UNL     1      26.778   2.867  53.208  1.00  0.00     0.041 C 
ATOM     16  O   UNL     1      26.909   3.376  52.063  1.00  0.00    -0.550 OA
ATOM     17  O   UNL     1      26.774   3.689  54.330  1.00  0.00    -0.550 OA
ENDBRANCH  14  15
ENDBRANCH  13  14
ENDBRANCH  12  13
ENDBRANCH  11  12
ENDBRANCH  10  11
ENDBRANCH   9  10
ENDBRANCH   8   9
ENDBRANCH   7   8
ENDBRANCH   6   7
ENDBRANCH   5   6
ENDBRANCH   4   5
ENDBRANCH   3   4
ENDBRANCH   2   3
ENDBRANCH   1   2
BRANCH   1  18
ATOM     18  C   UNL     1      28.017  -0.834  43.077  1.00  0.00     0.000 C 
BRANCH  18  19
ATOM     19  C   UNL     1      29.217  -1.732  42.730  1.00  0.00     0.000 C 
BRANCH  19  20
ATOM     20  C   UNL     1      30.533  -0.944  42.597  1.00  0.00     0.000 C 
BRANCH  20  21
ATOM     21  C   UNL     1      31.558  -1.177  43.726  1.00  0.00     0.000 C 
BRANCH  21  22
ATOM     22  C   UNL     1      31.030  -1.981  44.928  1.00  0.00     0.000 C 
BRANCH  22  23
ATOM     23  C   UNL     1      31.398  -3.475  44.856  1.00  0.00     0.000 C 
BRANCH  23  24
ATOM     24  C   UNL     1      32.799  -3.776  45.428  1.00  0.00    -0.000 C 
BRANCH  24  25
ATOM     25  C   UNL     1      33.725  -4.535  44.459  1.00  0.00    -0.000 C 
BRANCH  25  26
ATOM     26  C   UNL     1      34.767  -3.669  43.726  1.00  0.00    -0.000 C 
BRANCH  26  27
ATOM     27  C   UNL     1      35.926  -4.451  43.081  1.00  0.00    -0.000 C 
BRANCH  27  28
ATOM     28  C   UNL     1      37.283  -4.163  43.746  1.00  0.00    -0.000 C 
BRANCH  28  29
ATOM     29  C   UNL     1      38.406  -3.939  42.721  1.00  0.00    -0.000 C 
BRANCH  29  30
ATOM     30  C   UNL     1      38.881  -2.476  42.675  1.00  0.00    -0.000 C 
BRANCH  30  31
ATOM     31  C   UNL     1      38.063  -1.561  43.601  1.00  0.00    -0.003 C 
ATOM     32  C   UNL     1      36.879  -0.906  42.890  1.00  0.00     0.004 C 
ENDBRANCH  30  31
ENDBRANCH  29  30
ENDBRANCH  28  29
ENDBRANCH  27  28
ENDBRANCH  26  27
ENDBRANCH  25  26
ENDBRANCH  24  25
ENDBRANCH  23  24
ENDBRANCH  22  23
ENDBRANCH  21  22
ENDBRANCH  20  21
ENDBRANCH  19  20
ENDBRANCH  18  19
ENDBRANCH   1  18
TORSDOF 28
ENDMDL
MODEL 7
REMARK VINA RESULT:     0.923      4.719     13.765
REMARK INTER + INTRA:           0.895
REMARK INTER:                   2.190
REMARK INTRA:                  -1.294
REMARK UNBOUND:                -1.539
REMARK SMILES CCCCCCCCCCCCCCCCCCCCCCCCCCCCCC(=O)[O-]
REMARK SMILES IDX 16 1 17 2 18 3 19 4 20 5 21 6 22 7 23 8 24 9 25 10 26 11
REMARK SMILES IDX 27 12 28 13 29 14 30 15 31 16 32 17 15 18 14 19 13 20 12 21
REMARK SMILES IDX 11 22 10 23 9 24 8 25 7 26 6 27 5 28 4 29 3 30 2 31 1 32
REMARK H PARENT
REMARK Flexibility Score: inf
ROOT
ATOM      1  C   UNL     1      27.942  -3.227  46.414  1.00  0.00     0.000 C 
ENDROOT
BRANCH   1   2
ATOM      2  C   UNL     1      28.992  -2.421  47.203  1.00  0.00     0.000 C 
BRANCH   2   3
ATOM      3  C   UNL     1      29.962  -1.579  46.349  1.00  0.00     0.000 C 
BRANCH   3   4
ATOM      4  C   UNL     1      29.380  -1.125  44.995  1.00  0.00     0.000 C 
BRANCH   4   5
ATOM      5  C   UNL     1      30.083  -1.774  43.788  1.00  0.00     0.000 C 
BRANCH   5   6
ATOM      6  C   UNL     1      30.064  -0.875  42.541  1.00  0.00     0.000 C 
BRANCH   6   7
ATOM      7  C   UNL     1      31.445  -0.762  41.875  1.00  0.00     0.000 C 
BRANCH   7   8
ATOM      8  C   UNL     1      32.592  -0.677  42.896  1.00  0.00     0.000 C 
BRANCH   8   9
ATOM      9  C   UNL     1      33.992  -0.810  42.257  1.00  0.00     0.000 C 
BRANCH   9  10
ATOM     10  C   UNL     1      35.057  -0.008  43.027  1.00  0.00     0.000 C 
BRANCH  10  11
ATOM     11  C   UNL     1      36.364  -0.790  43.230  1.00  0.00     0.000 C 
BRANCH  11  12
ATOM     12  C   UNL     1      37.031  -1.191  41.902  1.00  0.00     0.000 C 
BRANCH  12  13
ATOM     13  C   UNL     1      38.180  -2.192  42.094  1.00  0.00     0.006 C 
BRANCH  13  14
ATOM     14  C   UNL     1      37.721  -3.652  41.990  1.00  0.00     0.053 C 
BRANCH  14  15
ATOM     15  C   UNL     1      37.617  -4.265  43.351  1.00  0.00     0.041 C 
ATOM     16  O   UNL     1      36.577  -4.105  44.043  1.00  0.00    -0.550 OA
ATOM     17  O   UNL     1      38.654  -5.053  43.839  1.00  0.00    -0.550 OA
ENDBRANCH  14  15
ENDBRANCH  13  14
ENDBRANCH  12  13
ENDBRANCH  11  12
ENDBRANCH  10  11
ENDBRANCH   9  10
ENDBRANCH   8   9
ENDBRANCH   7   8
ENDBRANCH   6   7
ENDBRANCH   5   6
ENDBRANCH   4   5
ENDBRANCH   3   4
ENDBRANCH   2   3
ENDBRANCH   1   2
BRANCH   1  18
ATOM     18  C   UNL     1      27.054  -4.159  47.261  1.00  0.00     0.000 C 
BRANCH  18  19
ATOM     19  C   UNL     1      25.762  -3.478  47.743  1.00  0.00     0.000 C 
BRANCH  19  20
ATOM     20  C   UNL     1      24.523  -3.909  46.936  1.00  0.00     0.000 C 
BRANCH  20  21
ATOM     21  C   UNL     1      23.165  -3.616  47.605  1.00  0.00     0.000 C 
BRANCH  21  22
ATOM     22  C   UNL     1      21.938  -4.170  46.860  1.00  0.00     0.000 C 
BRANCH  22  23
ATOM     23  C   UNL     1      21.851  -3.678  45.403  1.00  0.00     0.000 C 
BRANCH  23  24
ATOM     24  C   UNL     1      20.399  -3.439  44.936  1.00  0.00    -0.000 C 
BRANCH  24  25
ATOM     25  C   UNL     1      20.263  -3.152  43.428  1.00  0.00    -0.000 C 
BRANCH  25  26
ATOM     26  C   UNL     1      19.102  -3.875  42.721  1.00  0.00    -0.000 C 
BRANCH  26  27
ATOM     27  C   UNL     1      19.014  -5.388  42.996  1.00  0.00    -0.000 C 
BRANCH  27  28
ATOM     28  C   UNL     1      20.361  -6.108  42.807  1.00  0.00    -0.000 C 
BRANCH  28  29
ATOM     29  C   UNL     1      20.193  -7.545  42.287  1.00  0.00    -0.000 C 
BRANCH  29  30
ATOM     30  C   UNL     1      21.278  -8.497  42.822  1.00  0.00    -0.000 C 
BRANCH  30  31
ATOM     31  C   UNL     1      20.698  -9.617  43.701  1.00  0.00    -0.003 C 
ATOM     32  C   UNL     1      20.019 -10.717  42.886  1.00  0.00     0.004 C 
ENDBRANCH  30  31
ENDBRANCH  29  30
ENDBRANCH  28  29
ENDBRANCH  27  28
ENDBRANCH  26  27
ENDBRANCH  25  26
ENDBRANCH  24  25
ENDBRANCH  23  24
ENDBRANCH  22  23
ENDBRANCH  21  22
ENDBRANCH  20  21
ENDBRANCH  19  20
ENDBRANCH  18  19
ENDBRANCH   1  18
TORSDOF 28
ENDMDL
MODEL 8
REMARK VINA RESULT:     1.178      3.447      5.740
REMARK INTER + INTRA:           1.567
REMARK INTER:                   3.787
REMARK INTRA:                  -2.220
REMARK UNBOUND:                -1.539
REMARK SMILES CCCCCCCCCCCCCCCCCCCCCCCCCCCCCC(=O)[O-]
REMARK SMILES IDX 16 1 17 2 18 3 19 4 20 5 21 6 22 7 23 8 24 9 25 10 26 11
REMARK SMILES IDX 27 12 28 13 29 14 30 15 31 16 32 17 15 18 14 19 13 20 12 21
REMARK SMILES IDX 11 22 10 23 9 24 8 25 7 26 6 27 5 28 4 29 3 30 2 31 1 32
REMARK H PARENT
REMARK Flexibility Score: inf
ROOT
ATOM      1  C   UNL     1      27.830  -0.702  45.456  1.00  0.00     0.000 C 
ENDROOT
BRANCH   1   2
ATOM      2  C   UNL     1      29.279  -0.743  45.977  1.00  0.00     0.000 C 
BRANCH   2   3
ATOM      3  C   UNL     1      29.754  -2.110  46.512  1.00  0.00     0.000 C 
BRANCH   3   4
ATOM      4  C   UNL     1      30.291  -3.062  45.424  1.00  0.00     0.000 C 
BRANCH   4   5
ATOM      5  C   UNL     1      29.378  -4.279  45.184  1.00  0.00     0.000 C 
BRANCH   5   6
ATOM      6  C   UNL     1      27.972  -4.087  45.778  1.00  0.00     0.000 C 
BRANCH   6   7
ATOM      7  C   UNL     1      27.823  -4.740  47.161  1.00  0.00     0.000 C 
BRANCH   7   8
ATOM      8  C   UNL     1      26.711  -4.095  48.006  1.00  0.00     0.000 C 
BRANCH   8   9
ATOM      9  C   UNL     1      25.649  -3.357  47.162  1.00  0.00     0.000 C 
BRANCH   9  10
ATOM     10  C   UNL     1      24.221  -3.826  47.492  1.00  0.00     0.000 C 
BRANCH  10  11
ATOM     11  C   UNL     1      23.268  -3.729  46.291  1.00  0.00     0.000 C 
BRANCH  11  12
ATOM     12  C   UNL     1      21.800  -3.533  46.709  1.00  0.00     0.000 C 
BRANCH  12  13
ATOM     13  C   UNL     1      20.815  -4.256  45.777  1.00  0.00     0.006 C 
BRANCH  13  14
ATOM     14  C   UNL     1      20.545  -3.482  44.481  1.00  0.00     0.053 C 
BRANCH  14  15
ATOM     15  C   UNL     1      20.574  -4.407  43.304  1.00  0.00     0.041 C 
ATOM     16  O   UNL     1      21.638  -4.573  42.652  1.00  0.00    -0.550 OA
ATOM     17  O   UNL     1      19.433  -5.122  42.955  1.00  0.00    -0.550 OA
ENDBRANCH  14  15
ENDBRANCH  13  14
ENDBRANCH  12  13
ENDBRANCH  11  12
ENDBRANCH  10  11
ENDBRANCH   9  10
ENDBRANCH   8   9
ENDBRANCH   7   8
ENDBRANCH   6   7
ENDBRANCH   5   6
ENDBRANCH   4   5
ENDBRANCH   3   4
ENDBRANCH   2   3
ENDBRANCH   1   2
BRANCH   1  18
ATOM     18  C   UNL     1      27.681  -0.607  43.925  1.00  0.00     0.000 C 
BRANCH  18  19
ATOM     19  C   UNL     1      27.897  -1.957  43.220  1.00  0.00     0.000 C 
BRANCH  19  20
ATOM     20  C   UNL     1      28.760  -1.837  41.951  1.00  0.00     0.000 C 
BRANCH  20  21
ATOM     21  C   UNL     1      29.673  -0.596  41.890  1.00  0.00     0.000 C 
BRANCH  21  22
ATOM     22  C   UNL     1      31.174  -0.881  42.084  1.00  0.00     0.000 C 
BRANCH  22  23
ATOM     23  C   UNL     1      32.052   0.366  41.875  1.00  0.00     0.000 C 
BRANCH  23  24
ATOM     24  C   UNL     1      33.247   0.430  42.850  1.00  0.00    -0.000 C 
BRANCH  24  25
ATOM     25  C   UNL     1      34.522   1.046  42.243  1.00  0.00    -0.000 C 
BRANCH  25  26
ATOM     26  C   UNL     1      35.746   0.113  42.194  1.00  0.00    -0.000 C 
BRANCH  26  27
ATOM     27  C   UNL     1      35.465  -1.351  42.581  1.00  0.00    -0.000 C 
BRANCH  27  28
ATOM     28  C   UNL     1      36.704  -2.253  42.444  1.00  0.00    -0.000 C 
BRANCH  28  29
ATOM     29  C   UNL     1      38.013  -1.506  42.743  1.00  0.00    -0.000 C 
BRANCH  29  30
ATOM     30  C   UNL     1      39.124  -2.443  43.251  1.00  0.00    -0.000 C 
BRANCH  30  31
ATOM     31  C   UNL     1      38.572  -3.629  44.059  1.00  0.00    -0.003 C 
ATOM     32  C   UNL     1      38.837  -4.976  43.390  1.00  0.00     0.004 C 
ENDBRANCH  30  31
ENDBRANCH  29  30
ENDBRANCH  28  29
ENDBRANCH  27  28
ENDBRANCH  26  27
ENDBRANCH  25  26
ENDBRANCH  24  25
ENDBRANCH  23  24
ENDBRANCH  22  23
ENDBRANCH  21  22
ENDBRANCH  20  21
ENDBRANCH  19  20
ENDBRANCH  18  19
ENDBRANCH   1  18
TORSDOF 28
ENDMDL
MODEL 9
REMARK VINA RESULT:     1.191      6.548      8.197
REMARK INTER + INTRA:           1.602
REMARK INTER:                   3.147
REMARK INTRA:                  -1.545
REMARK UNBOUND:                -1.539
REMARK SMILES CCCCCCCCCCCCCCCCCCCCCCCCCCCCCC(=O)[O-]
REMARK SMILES IDX 16 1 17 2 18 3 19 4 20 5 21 6 22 7 23 8 24 9 25 10 26 11
REMARK SMILES IDX 27 12 28 13 29 14 30 15 31 16 32 17 15 18 14 19 13 20 12 21
REMARK SMILES IDX 11 22 10 23 9 24 8 25 7 26 6 27 5 28 4 29 3 30 2 31 1 32
REMARK H PARENT
REMARK Flexibility Score: inf
ROOT
ATOM      1  C   UNL     1      27.533  -1.690  43.966  1.00  0.00     0.000 C 
ENDROOT
BRANCH   1   2
ATOM      2  C   UNL     1      27.602  -0.445  44.872  1.00  0.00     0.000 C 
BRANCH   2   3
ATOM      3  C   UNL     1      28.672  -0.491  45.982  1.00  0.00     0.000 C 
BRANCH   3   4
ATOM      4  C   UNL     1      30.099  -0.774  45.472  1.00  0.00     0.000 C 
BRANCH   4   5
ATOM      5  C   UNL     1      30.968  -1.526  46.498  1.00  0.00     0.000 C 
BRANCH   5   6
ATOM      6  C   UNL     1      30.453  -2.948  46.776  1.00  0.00     0.000 C 
BRANCH   6   7
ATOM      7  C   UNL     1      29.744  -3.566  45.561  1.00  0.00     0.000 C 
BRANCH   7   8
ATOM      8  C   UNL     1      28.661  -4.583  45.958  1.00  0.00     0.000 C 
BRANCH   8   9
ATOM      9  C   UNL     1      27.349  -3.925  46.441  1.00  0.00     0.000 C 
BRANCH   9  10
ATOM     10  C   UNL     1      26.933  -4.422  47.837  1.00  0.00     0.000 C 
BRANCH  10  11
ATOM     11  C   UNL     1      27.043  -3.334  48.916  1.00  0.00     0.000 C 
BRANCH  11  12
ATOM     12  C   UNL     1      27.160  -3.914  50.337  1.00  0.00     0.000 C 
BRANCH  12  13
ATOM     13  C   UNL     1      26.538  -3.000  51.404  1.00  0.00     0.006 C 
BRANCH  13  14
ATOM     14  C   UNL     1      26.968  -3.372  52.829  1.00  0.00     0.053 C 
BRANCH  14  15
ATOM     15  C   UNL     1      27.190  -2.137  53.646  1.00  0.00     0.041 C 
ATOM     16  O   UNL     1      26.793  -2.086  54.840  1.00  0.00    -0.550 OA
ATOM     17  O   UNL     1      27.877  -1.058  53.102  1.00  0.00    -0.550 OA
ENDBRANCH  14  15
ENDBRANCH  13  14
ENDBRANCH  12  13
ENDBRANCH  11  12
ENDBRANCH  10  11
ENDBRANCH   9  10
ENDBRANCH   8   9
ENDBRANCH   7   8
ENDBRANCH   6   7
ENDBRANCH   5   6
ENDBRANCH   4   5
ENDBRANCH   3   4
ENDBRANCH   2   3
ENDBRANCH   1   2
BRANCH   1  18
ATOM     18  C   UNL     1      28.777  -1.938  43.091  1.00  0.00     0.000 C 
BRANCH  18  19
ATOM     19  C   UNL     1      28.868  -0.974  41.895  1.00  0.00     0.000 C 
BRANCH  19  20
ATOM     20  C   UNL     1      30.096  -0.048  41.967  1.00  0.00     0.000 C 
BRANCH  20  21
ATOM     21  C   UNL     1      31.456  -0.764  42.089  1.00  0.00     0.000 C 
BRANCH  21  22
ATOM     22  C   UNL     1      32.603   0.105  42.635  1.00  0.00     0.000 C 
BRANCH  22  23
ATOM     23  C   UNL     1      33.992  -0.516  42.392  1.00  0.00     0.000 C 
BRANCH  23  24
ATOM     24  C   UNL     1      35.102   0.543  42.221  1.00  0.00    -0.000 C 
BRANCH  24  25
ATOM     25  C   UNL     1      36.530  -0.009  42.398  1.00  0.00    -0.000 C 
BRANCH  25  26
ATOM     26  C   UNL     1      36.754  -1.440  41.875  1.00  0.00    -0.000 C 
BRANCH  26  27
ATOM     27  C   UNL     1      38.031  -2.128  42.391  1.00  0.00    -0.000 C 
BRANCH  27  28
ATOM     28  C   UNL     1      38.094  -3.621  42.025  1.00  0.00    -0.000 C 
BRANCH  28  29
ATOM     29  C   UNL     1      37.949  -4.536  43.252  1.00  0.00    -0.000 C 
BRANCH  29  30
ATOM     30  C   UNL     1      36.767  -4.132  44.153  1.00  0.00    -0.000 C 
BRANCH  30  31
ATOM     31  C   UNL     1      35.430  -4.104  43.394  1.00  0.00    -0.003 C 
ATOM     32  C   UNL     1      34.224  -4.296  44.313  1.00  0.00     0.004 C 
ENDBRANCH  30  31
ENDBRANCH  29  30
ENDBRANCH  28  29
ENDBRANCH  27  28
ENDBRANCH  26  27
ENDBRANCH  25  26
ENDBRANCH  24  25
ENDBRANCH  23  24
ENDBRANCH  22  23
ENDBRANCH  21  22
ENDBRANCH  20  21
ENDBRANCH  19  20
ENDBRANCH  18  19
ENDBRANCH   1  18
TORSDOF 28
ENDMDL
