MODEL 1
REMARK VINA RESULT:    -2.603      0.000      0.000
REMARK INTER + INTRA:          -3.146
REMARK INTER:                  -3.059
REMARK INTRA:                  -0.087
REMARK UNBOUND:                -0.087
REMARK SMILES O=C([O-])CCC(=O)[O-]
REMARK SMILES IDX 4 1 2 2 1 3 3 4 5 5 6 6 7 7 8 8
REMARK H PARENT
REMARK Flexibility Score: inf
ROOT
ATOM      1  C   UNL     1      57.686  18.618  51.494  1.00  0.00     0.059 C 
ENDROOT
BRANCH   1   2
ATOM      2  C   UNL     1      56.230  18.954  51.443  1.00  0.00     0.042 C 
ATOM      3  O   UNL     1      55.586  19.148  52.508  1.00  0.00    -0.550 OA
ATOM      4  O   UNL     1      55.570  19.005  50.222  1.00  0.00    -0.550 OA
ENDBRANCH   1   2
BRANCH   1   5
ATOM      5  C   UNL     1      57.986  17.403  50.614  1.00  0.00     0.059 C 
BRANCH   5   6
ATOM      6  C   UNL     1      58.700  17.822  49.368  1.00  0.00     0.042 C 
ATOM      7  O   UNL     1      59.242  18.956  49.299  1.00  0.00    -0.550 OA
ATOM      8  O   UNL     1      58.724  16.978  48.264  1.00  0.00    -0.550 OA
ENDBRANCH   5   6
ENDBRANCH   1   5
TORSDOF 3
ENDMDL
MODEL 2
REMARK VINA RESULT:    -2.601     21.221     22.151
REMARK INTER + INTRA:          -3.144
REMARK INTER:                  -3.059
REMARK INTRA:                  -0.085
REMARK UNBOUND:                -0.087
REMARK SMILES O=C([O-])CCC(=O)[O-]
REMARK SMILES IDX 4 1 2 2 1 3 3 4 5 5 6 6 7 7 8 8
REMARK H PARENT
REMARK Flexibility Score: inf
ROOT
ATOM      1  C   UNL     1      71.679  31.283  59.510  1.00  0.00     0.059 C 
ENDROOT
BRANCH   1   2
ATOM      2  C   UNL     1      71.376  32.747  59.531  1.00  0.00     0.042 C 
ATOM      3  O   UNL     1      71.059  33.344  58.468  1.00  0.00    -0.550 OA
ATOM      4  O   UNL     1      71.491  33.465  60.715  1.00  0.00    -0.550 OA
ENDBRANCH   1   2
BRANCH   1   5
ATOM      5  C   UNL     1      72.834  30.961  60.460  1.00  0.00     0.059 C 
BRANCH   5   6
ATOM      6  C   UNL     1      72.346  30.168  61.630  1.00  0.00     0.042 C 
ATOM      7  O   UNL     1      73.061  30.054  62.661  1.00  0.00    -0.550 OA
ATOM      8  O   UNL     1      71.122  29.513  61.564  1.00  0.00    -0.550 OA
ENDBRANCH   5   6
ENDBRANCH   1   5
TORSDOF 3
ENDMDL
MODEL 3
REMARK VINA RESULT:    -2.594      0.965      3.905
REMARK INTER + INTRA:          -3.136
REMARK INTER:                  -3.015
REMARK INTRA:                  -0.121
REMARK UNBOUND:                -0.087
REMARK SMILES O=C([O-])CCC(=O)[O-]
REMARK SMILES IDX 4 1 2 2 1 3 3 4 5 5 6 6 7 7 8 8
REMARK H PARENT
REMARK Flexibility Score: inf
ROOT
ATOM      1  C   UNL     1      57.751  17.444  50.469  1.00  0.00     0.059 C 
ENDROOT
BRANCH   1   2
ATOM      2  C   UNL     1      58.683  17.775  49.347  1.00  0.00     0.042 C 
ATOM      3  O   UNL     1      59.272  18.888  49.319  1.00  0.00    -0.550 OA
ATOM      4  O   UNL     1      58.865  16.875  48.305  1.00  0.00    -0.550 OA
ENDBRANCH   1   2
BRANCH   1   5
ATOM      5  C   UNL     1      56.577  18.424  50.498  1.00  0.00     0.059 C 
BRANCH   5   6
ATOM      6  C   UNL     1      56.551  19.174  51.792  1.00  0.00     0.042 C 
ATOM      7  O   UNL     1      55.537  19.119  52.536  1.00  0.00    -0.550 OA
ATOM      8  O   UNL     1      57.628  19.974  52.153  1.00  0.00    -0.550 OA
ENDBRANCH   5   6
ENDBRANCH   1   5
TORSDOF 3
ENDMDL
MODEL 4
REMARK VINA RESULT:    -2.582     17.280     18.324
REMARK INTER + INTRA:          -3.122
REMARK INTER:                  -3.006
REMARK INTRA:                  -0.115
REMARK UNBOUND:                -0.087
REMARK SMILES O=C([O-])CCC(=O)[O-]
REMARK SMILES IDX 4 1 2 2 1 3 3 4 5 5 6 6 7 7 8 8
REMARK H PARENT
REMARK Flexibility Score: inf
ROOT
ATOM      1  C   UNL     1      61.918  31.677  60.215  1.00  0.00     0.059 C 
ENDROOT
BRANCH   1   2
ATOM      2  C   UNL     1      61.594  30.861  61.426  1.00  0.00     0.042 C 
ATOM      3  O   UNL     1      60.534  31.076  62.070  1.00  0.00    -0.550 OA
ATOM      4  O   UNL     1      62.486  29.894  61.872  1.00  0.00    -0.550 OA
ENDBRANCH   1   2
BRANCH   1   5
ATOM      5  C   UNL     1      62.296  33.104  60.616  1.00  0.00     0.059 C 
BRANCH   5   6
ATOM      6  C   UNL     1      63.781  33.237  60.742  1.00  0.00     0.042 C 
ATOM      7  O   UNL     1      64.538  32.348  60.272  1.00  0.00    -0.550 OA
ATOM      8  O   UNL     1      64.326  34.319  61.423  1.00  0.00    -0.550 OA
ENDBRANCH   5   6
ENDBRANCH   1   5
TORSDOF 3
ENDMDL
MODEL 5
REMARK VINA RESULT:    -2.575     21.150     22.057
REMARK INTER + INTRA:          -3.114
REMARK INTER:                  -3.050
REMARK INTRA:                  -0.064
REMARK UNBOUND:                -0.087
REMARK SMILES O=C([O-])CCC(=O)[O-]
REMARK SMILES IDX 4 1 2 2 1 3 3 4 5 5 6 6 7 7 8 8
REMARK H PARENT
REMARK Flexibility Score: inf
ROOT
ATOM      1  C   UNL     1      72.736  30.819  60.304  1.00  0.00     0.059 C 
ENDROOT
BRANCH   1   2
ATOM      2  C   UNL     1      72.262  30.123  61.540  1.00  0.00     0.042 C 
ATOM      3  O   UNL     1      71.088  29.674  61.603  1.00  0.00    -0.550 OA
ATOM      4  O   UNL     1      73.101  30.013  62.642  1.00  0.00    -0.550 OA
ENDBRANCH   1   2
BRANCH   1   5
ATOM      5  C   UNL     1      71.549  31.226  59.430  1.00  0.00     0.059 C 
BRANCH   5   6
ATOM      6  C   UNL     1      71.280  32.693  59.561  1.00  0.00     0.042 C 
ATOM      7  O   UNL     1      71.634  33.311  60.600  1.00  0.00    -0.550 OA
ATOM      8  O   UNL     1      70.595  33.366  58.558  1.00  0.00    -0.550 OA
ENDBRANCH   5   6
ENDBRANCH   1   5
TORSDOF 3
ENDMDL
MODEL 6
REMARK VINA RESULT:    -2.524     17.372     18.517
REMARK INTER + INTRA:          -3.054
REMARK INTER:                  -3.004
REMARK INTRA:                  -0.050
REMARK UNBOUND:                -0.087
REMARK SMILES O=C([O-])CCC(=O)[O-]
REMARK SMILES IDX 4 1 2 2 1 3 3 4 5 5 6 6 7 7 8 8
REMARK H PARENT
REMARK Flexibility Score: inf
ROOT
ATOM      1  C   UNL     1      61.919  32.938  60.620  1.00  0.00     0.059 C 
ENDROOT
BRANCH   1   2
ATOM      2  C   UNL     1      62.973  33.994  60.724  1.00  0.00     0.042 C 
ATOM      3  O   UNL     1      62.657  35.180  61.004  1.00  0.00    -0.550 OA
ATOM      4  O   UNL     1      64.301  33.680  60.462  1.00  0.00    -0.550 OA
ENDBRANCH   1   2
BRANCH   1   5
ATOM      5  C   UNL     1      62.548  31.546  60.687  1.00  0.00     0.059 C 
BRANCH   5   6
ATOM      6  C   UNL     1      61.717  30.635  61.535  1.00  0.00     0.042 C 
ATOM      7  O   UNL     1      60.592  31.013  61.955  1.00  0.00    -0.550 OA
ATOM      8  O   UNL     1      62.207  29.388  61.902  1.00  0.00    -0.550 OA
ENDBRANCH   5   6
ENDBRANCH   1   5
TORSDOF 3
ENDMDL
MODEL 7
REMARK VINA RESULT:    -2.522      9.061     10.174
REMARK INTER + INTRA:          -3.052
REMARK INTER:                  -2.982
REMARK INTRA:                  -0.070
REMARK UNBOUND:                -0.087
REMARK SMILES O=C([O-])CCC(=O)[O-]
REMARK SMILES IDX 4 1 2 2 1 3 3 4 5 5 6 6 7 7 8 8
REMARK H PARENT
REMARK Flexibility Score: inf
ROOT
ATOM      1  C   UNL     1      58.285  27.606  50.380  1.00  0.00     0.059 C 
ENDROOT
BRANCH   1   2
ATOM      2  C   UNL     1      59.196  28.307  49.424  1.00  0.00     0.042 C 
ATOM      3  O   UNL     1      58.873  29.424  48.943  1.00  0.00    -0.550 OA
ATOM      4  O   UNL     1      60.383  27.704  49.025  1.00  0.00    -0.550 OA
ENDBRANCH   1   2
BRANCH   1   5
ATOM      5  C   UNL     1      56.918  28.291  50.417  1.00  0.00     0.059 C 
BRANCH   5   6
ATOM      6  C   UNL     1      55.831  27.308  50.119  1.00  0.00     0.042 C 
ATOM      7  O   UNL     1      56.085  26.076  50.078  1.00  0.00    -0.550 OA
ATOM      8  O   UNL     1      54.546  27.757  49.838  1.00  0.00    -0.550 OA
ENDBRANCH   5   6
ENDBRANCH   1   5
TORSDOF 3
ENDMDL
MODEL 8
REMARK VINA RESULT:    -2.511      9.368     10.072
REMARK INTER + INTRA:          -3.039
REMARK INTER:                  -3.007
REMARK INTRA:                  -0.032
REMARK UNBOUND:                -0.087
REMARK SMILES O=C([O-])CCC(=O)[O-]
REMARK SMILES IDX 4 1 2 2 1 3 3 4 5 5 6 6 7 7 8 8
REMARK H PARENT
REMARK Flexibility Score: inf
ROOT
ATOM      1  C   UNL     1      55.783  28.148  50.549  1.00  0.00     0.059 C 
ENDROOT
BRANCH   1   2
ATOM      2  C   UNL     1      54.814  27.272  49.822  1.00  0.00     0.042 C 
ATOM      3  O   UNL     1      53.657  27.692  49.556  1.00  0.00    -0.550 OA
ATOM      4  O   UNL     1      55.171  25.974  49.479  1.00  0.00    -0.550 OA
ENDBRANCH   1   2
BRANCH   1   5
ATOM      5  C   UNL     1      57.221  27.771  50.189  1.00  0.00     0.059 C 
BRANCH   5   6
ATOM      6  C   UNL     1      58.095  28.986  50.177  1.00  0.00     0.042 C 
ATOM      7  O   UNL     1      58.133  29.748  51.178  1.00  0.00    -0.550 OA
ATOM      8  O   UNL     1      58.828  29.303  49.040  1.00  0.00    -0.550 OA
ENDBRANCH   5   6
ENDBRANCH   1   5
TORSDOF 3
ENDMDL
MODEL 9
REMARK VINA RESULT:    -2.507      1.529      2.180
REMARK INTER + INTRA:          -3.034
REMARK INTER:                  -2.900
REMARK INTRA:                  -0.133
REMARK UNBOUND:                -0.087
REMARK SMILES O=C([O-])CCC(=O)[O-]
REMARK SMILES IDX 4 1 2 2 1 3 3 4 5 5 6 6 7 7 8 8
REMARK H PARENT
REMARK Flexibility Score: inf
ROOT
ATOM      1  C   UNL     1      57.885  17.438  50.458  1.00  0.00     0.059 C 
ENDROOT
BRANCH   1   2
ATOM      2  C   UNL     1      56.925  18.500  50.886  1.00  0.00     0.042 C 
ATOM      3  O   UNL     1      55.865  18.698  50.235  1.00  0.00    -0.550 OA
ATOM      4  O   UNL     1      57.221  19.307  51.978  1.00  0.00    -0.550 OA
ENDBRANCH   1   2
BRANCH   1   5
ATOM      5  C   UNL     1      58.786  17.952  49.333  1.00  0.00     0.059 C 
BRANCH   5   6
ATOM      6  C   UNL     1      59.888  18.797  49.889  1.00  0.00     0.042 C 
ATOM      7  O   UNL     1      60.759  18.287  50.642  1.00  0.00    -0.550 OA
ATOM      8  O   UNL     1      59.925  20.159  49.616  1.00  0.00    -0.550 OA
ENDBRANCH   5   6
ENDBRANCH   1   5
TORSDOF 3
ENDMDL
