MODEL 1
REMARK VINA RESULT:    -2.340      0.000      0.000
REMARK INTER + INTRA:          -2.340
REMARK INTER:                  -2.340
REMARK INTRA:                   0.000
REMARK UNBOUND:                 0.000
REMARK SMILES CC(=O)[O-]
REMARK SMILES IDX 1 1 2 2 3 3 4 4
REMARK H PARENT
REMARK Flexibility Score: inf
ROOT
ATOM      1  C   UNL     1     -29.327 -21.565  17.925  1.00  0.00     0.063 C 
ATOM      2  C   UNL     1     -29.679 -20.116  17.965  1.00  0.00     0.038 C 
ATOM      3  O   UNL     1     -29.266 -19.392  18.908  1.00  0.00    -0.550 OA
ATOM      4  O   UNL     1     -30.418 -19.550  16.935  1.00  0.00    -0.550 OA
ENDROOT
TORSDOF 0
ENDMDL
MODEL 2
REMARK VINA RESULT:    -2.316      0.141      1.621
REMARK INTER + INTRA:          -2.316
REMARK INTER:                  -2.316
REMARK INTRA:                   0.000
REMARK UNBOUND:                 0.000
REMARK SMILES CC(=O)[O-]
REMARK SMILES IDX 1 1 2 2 3 3 4 4
REMARK H PARENT
REMARK Flexibility Score: inf
ROOT
ATOM      1  C   UNL     1     -29.312 -21.660  17.893  1.00  0.00     0.063 C 
ATOM      2  C   UNL     1     -29.700 -20.219  17.891  1.00  0.00     0.038 C 
ATOM      3  O   UNL     1     -30.453 -19.770  16.988  1.00  0.00    -0.550 OA
ATOM      4  O   UNL     1     -29.277 -19.383  18.916  1.00  0.00    -0.550 OA
ENDROOT
TORSDOF 0
ENDMDL
MODEL 3
REMARK VINA RESULT:    -2.302      1.696      2.316
REMARK INTER + INTRA:          -2.302
REMARK INTER:                  -2.302
REMARK INTRA:                   0.000
REMARK UNBOUND:                 0.000
REMARK SMILES CC(=O)[O-]
REMARK SMILES IDX 1 1 2 2 3 3 4 4
REMARK H PARENT
REMARK Flexibility Score: inf
ROOT
ATOM      1  C   UNL     1     -29.611 -19.762  18.527  1.00  0.00     0.063 C 
ATOM      2  C   UNL     1     -29.840 -20.823  17.503  1.00  0.00     0.038 C 
ATOM      3  O   UNL     1     -30.691 -20.648  16.593  1.00  0.00    -0.550 OA
ATOM      4  O   UNL     1     -29.077 -21.983  17.521  1.00  0.00    -0.550 OA
ENDROOT
TORSDOF 0
ENDMDL
MODEL 4
REMARK VINA RESULT:    -2.235     18.520     18.739
REMARK INTER + INTRA:          -2.235
REMARK INTER:                  -2.235
REMARK INTRA:                   0.000
REMARK UNBOUND:                 0.000
REMARK SMILES CC(=O)[O-]
REMARK SMILES IDX 1 1 2 2 3 3 4 4
REMARK H PARENT
REMARK Flexibility Score: inf
ROOT
ATOM      1  C   UNL     1     -15.132 -25.541   7.536  1.00  0.00     0.063 C 
ATOM      2  C   UNL     1     -15.498 -26.948   7.870  1.00  0.00     0.038 C 
ATOM      3  O   UNL     1     -15.416 -27.356   9.057  1.00  0.00    -0.550 OA
ATOM      4  O   UNL     1     -15.983 -27.794   6.881  1.00  0.00    -0.550 OA
ENDROOT
TORSDOF 0
ENDMDL
MODEL 5
REMARK VINA RESULT:    -2.216     12.301     12.781
REMARK INTER + INTRA:          -2.216
REMARK INTER:                  -2.216
REMARK INTRA:                   0.000
REMARK UNBOUND:                 0.000
REMARK SMILES CC(=O)[O-]
REMARK SMILES IDX 1 1 2 2 3 3 4 4
REMARK H PARENT
REMARK Flexibility Score: inf
ROOT
ATOM      1  C   UNL     1     -22.262 -31.023  15.629  1.00  0.00     0.063 C 
ATOM      2  C   UNL     1     -21.929 -30.056  16.716  1.00  0.00     0.038 C 
ATOM      3  O   UNL     1     -22.578 -28.984  16.827  1.00  0.00    -0.550 OA
ATOM      4  O   UNL     1     -20.939 -30.362  17.640  1.00  0.00    -0.550 OA
ENDROOT
TORSDOF 0
ENDMDL
MODEL 6
REMARK VINA RESULT:    -2.210     21.035     21.450
REMARK INTER + INTRA:          -2.210
REMARK INTER:                  -2.210
REMARK INTRA:                   0.000
REMARK UNBOUND:                 0.000
REMARK SMILES CC(=O)[O-]
REMARK SMILES IDX 1 1 2 2 3 3 4 4
REMARK H PARENT
REMARK Flexibility Score: inf
ROOT
ATOM      1  C   UNL     1     -17.034 -26.804   2.447  1.00  0.00     0.063 C 
ATOM      2  C   UNL     1     -18.016 -27.188   1.392  1.00  0.00     0.038 C 
ATOM      3  O   UNL     1     -17.960 -28.328   0.862  1.00  0.00    -0.550 OA
ATOM      4  O   UNL     1     -19.029 -26.310   1.033  1.00  0.00    -0.550 OA
ENDROOT
TORSDOF 0
ENDMDL
MODEL 7
REMARK VINA RESULT:    -2.127     12.464     12.548
REMARK INTER + INTRA:          -2.127
REMARK INTER:                  -2.127
REMARK INTRA:                   0.000
REMARK UNBOUND:                 0.000
REMARK SMILES CC(=O)[O-]
REMARK SMILES IDX 1 1 2 2 3 3 4 4
REMARK H PARENT
REMARK Flexibility Score: inf
ROOT
ATOM      1  C   UNL     1     -19.866 -20.983   9.843  1.00  0.00     0.063 C 
ATOM      2  C   UNL     1     -19.264 -21.055  11.206  1.00  0.00     0.038 C 
ATOM      3  O   UNL     1     -19.170 -20.017  11.911  1.00  0.00    -0.550 OA
ATOM      4  O   UNL     1     -18.856 -22.278  11.722  1.00  0.00    -0.550 OA
ENDROOT
TORSDOF 0
ENDMDL
MODEL 8
REMARK VINA RESULT:    -2.111     12.254     12.417
REMARK INTER + INTRA:          -2.111
REMARK INTER:                  -2.111
REMARK INTRA:                   0.000
REMARK UNBOUND:                 0.000
REMARK SMILES CC(=O)[O-]
REMARK SMILES IDX 1 1 2 2 3 3 4 4
REMARK H PARENT
REMARK Flexibility Score: inf
ROOT
ATOM      1  C   UNL     1     -19.492 -22.361  12.195  1.00  0.00     0.063 C 
ATOM      2  C   UNL     1     -19.272 -21.155  11.346  1.00  0.00     0.038 C 
ATOM      3  O   UNL     1     -19.160 -21.273  10.099  1.00  0.00    -0.550 OA
ATOM      4  O   UNL     1     -19.246 -19.893  11.925  1.00  0.00    -0.550 OA
ENDROOT
TORSDOF 0
ENDMDL
MODEL 9
REMARK VINA RESULT:    -2.057     14.154     14.734
REMARK INTER + INTRA:          -2.057
REMARK INTER:                  -2.057
REMARK INTRA:                   0.000
REMARK UNBOUND:                 0.000
REMARK SMILES CC(=O)[O-]
REMARK SMILES IDX 1 1 2 2 3 3 4 4
REMARK H PARENT
REMARK Flexibility Score: inf
ROOT
ATOM      1  C   UNL     1     -28.130 -29.170   6.077  1.00  0.00     0.063 C 
ATOM      2  C   UNL     1     -26.957 -29.430   6.962  1.00  0.00     0.038 C 
ATOM      3  O   UNL     1     -25.883 -29.868   6.474  1.00  0.00    -0.550 OA
ATOM      4  O   UNL     1     -27.030 -29.138   8.317  1.00  0.00    -0.550 OA
ENDROOT
TORSDOF 0
ENDMDL
