MODEL 1
REMARK VINA RESULT:    -3.298      0.000      0.000
REMARK INTER + INTRA:          -7.675
REMARK INTER:                  -6.094
REMARK INTRA:                  -1.581
REMARK UNBOUND:                -1.581
REMARK SMILES CCCCCCCCCCCCCCCCO
REMARK SMILES IDX 9 1 8 2 7 3 6 4 5 5 4 6 3 7 2 8 1 9 10 10 11 11 12 12 13 13
REMARK SMILES IDX 14 14 15 15 16 16 17 17
REMARK H PARENT 17 18
REMARK Flexibility Score: inf
ROOT
ATOM      1  C   UNL     1      56.014  28.063 -35.012  1.00  0.00     0.000 C 
ENDROOT
BRANCH   1   2
ATOM      2  C   UNL     1      56.857  29.085 -35.801  1.00  0.00    -0.000 C 
BRANCH   2   3
ATOM      3  C   UNL     1      57.125  30.414 -35.066  1.00  0.00    -0.000 C 
BRANCH   3   4
ATOM      4  C   UNL     1      56.142  31.554 -35.400  1.00  0.00    -0.000 C 
BRANCH   4   5
ATOM      5  C   UNL     1      54.937  31.141 -36.264  1.00  0.00    -0.000 C 
BRANCH   5   6
ATOM      6  C   UNL     1      54.941  31.805 -37.650  1.00  0.00    -0.000 C 
BRANCH   6   7
ATOM      7  C   UNL     1      54.922  30.749 -38.763  1.00  0.00    -0.000 C 
BRANCH   7   8
ATOM      8  C   UNL     1      53.984  29.590 -38.406  1.00  0.00    -0.003 C 
ATOM      9  C   UNL     1      54.625  28.244 -38.729  1.00  0.00     0.004 C 
ENDBRANCH   7   8
ENDBRANCH   6   7
ENDBRANCH   5   6
ENDBRANCH   4   5
ENDBRANCH   3   4
ENDBRANCH   2   3
ENDBRANCH   1   2
BRANCH   1  10
ATOM     10  C   UNL     1      56.694  27.499 -33.751  1.00  0.00     0.000 C 
BRANCH  10  11
ATOM     11  C   UNL     1      56.013  27.964 -32.451  1.00  0.00     0.000 C 
BRANCH  11  12
ATOM     12  C   UNL     1      56.991  28.053 -31.268  1.00  0.00     0.000 C 
BRANCH  12  13
ATOM     13  C   UNL     1      56.763  29.308 -30.409  1.00  0.00     0.000 C 
BRANCH  13  14
ATOM     14  C   UNL     1      56.876  30.615 -31.216  1.00  0.00     0.002 C 
BRANCH  14  15
ATOM     15  C   UNL     1      56.010  31.778 -30.698  1.00  0.00     0.028 C 
BRANCH  15  16
ATOM     16  C   UNL     1      54.828  32.104 -31.618  1.00  0.00     0.156 C 
BRANCH  16  17
ATOM     17  O   UNL     1      54.474  30.974 -32.368  1.00  0.00    -0.396 OA
ATOM     18  H   UNL     1      53.703  31.238 -32.935  1.00  0.00     0.210 HD
ENDBRANCH  16  17
ENDBRANCH  15  16
ENDBRANCH  14  15
ENDBRANCH  13  14
ENDBRANCH  12  13
ENDBRANCH  11  12
ENDBRANCH  10  11
ENDBRANCH   1  10
TORSDOF 15
ENDMDL
MODEL 2
REMARK VINA RESULT:    -3.153      1.629      4.091
REMARK INTER + INTRA:          -7.407
REMARK INTER:                  -6.053
REMARK INTRA:                  -1.354
REMARK UNBOUND:                -1.581
REMARK SMILES CCCCCCCCCCCCCCCCO
REMARK SMILES IDX 9 1 8 2 7 3 6 4 5 5 4 6 3 7 2 8 1 9 10 10 11 11 12 12 13 13
REMARK SMILES IDX 14 14 15 15 16 16 17 17
REMARK H PARENT 17 18
REMARK Flexibility Score: inf
ROOT
ATOM      1  C   UNL     1      54.394  32.108 -36.440  1.00  0.00     0.000 C 
ENDROOT
BRANCH   1   2
ATOM      2  C   UNL     1      54.186  31.798 -37.936  1.00  0.00    -0.000 C 
BRANCH   2   3
ATOM      3  C   UNL     1      53.855  30.326 -38.256  1.00  0.00    -0.000 C 
BRANCH   3   4
ATOM      4  C   UNL     1      55.051  29.477 -38.732  1.00  0.00    -0.000 C 
BRANCH   4   5
ATOM      5  C   UNL     1      56.057  29.095 -37.631  1.00  0.00    -0.000 C 
BRANCH   5   6
ATOM      6  C   UNL     1      55.376  28.569 -36.358  1.00  0.00    -0.000 C 
BRANCH   6   7
ATOM      7  C   UNL     1      56.399  27.916 -35.419  1.00  0.00    -0.000 C 
BRANCH   7   8
ATOM      8  C   UNL     1      55.765  26.765 -34.630  1.00  0.00    -0.003 C 
ATOM      9  C   UNL     1      55.189  25.707 -35.567  1.00  0.00     0.004 C 
ENDBRANCH   7   8
ENDBRANCH   6   7
ENDBRANCH   5   6
ENDBRANCH   4   5
ENDBRANCH   3   4
ENDBRANCH   2   3
ENDBRANCH   1   2
BRANCH   1  10
ATOM     10  C   UNL     1      55.863  32.117 -35.979  1.00  0.00     0.000 C 
BRANCH  10  11
ATOM     11  C   UNL     1      56.026  31.704 -34.505  1.00  0.00     0.000 C 
BRANCH  11  12
ATOM     12  C   UNL     1      54.829  32.122 -33.636  1.00  0.00     0.000 C 
BRANCH  12  13
ATOM     13  C   UNL     1      54.973  31.661 -32.175  1.00  0.00     0.000 C 
BRANCH  13  14
ATOM     14  C   UNL     1      55.713  30.317 -32.042  1.00  0.00     0.002 C 
BRANCH  14  15
ATOM     15  C   UNL     1      55.895  29.813 -30.598  1.00  0.00     0.028 C 
BRANCH  15  16
ATOM     16  C   UNL     1      56.809  28.586 -30.500  1.00  0.00     0.156 C 
BRANCH  16  17
ATOM     17  O   UNL     1      56.300  27.541 -31.284  1.00  0.00    -0.396 OA
ATOM     18  H   UNL     1      55.557  27.923 -31.820  1.00  0.00     0.210 HD
ENDBRANCH  16  17
ENDBRANCH  15  16
ENDBRANCH  14  15
ENDBRANCH  13  14
ENDBRANCH  12  13
ENDBRANCH  11  12
ENDBRANCH  10  11
ENDBRANCH   1  10
TORSDOF 15
ENDMDL
MODEL 3
REMARK VINA RESULT:    -3.017     20.394     22.388
REMARK INTER + INTRA:          -7.155
REMARK INTER:                  -6.594
REMARK INTRA:                  -0.561
REMARK UNBOUND:                -1.581
REMARK SMILES CCCCCCCCCCCCCCCCO
REMARK SMILES IDX 9 1 8 2 7 3 6 4 5 5 4 6 3 7 2 8 1 9 10 10 11 11 12 12 13 13
REMARK SMILES IDX 14 14 15 15 16 16 17 17
REMARK H PARENT 17 18
REMARK Flexibility Score: inf
ROOT
ATOM      1  C   UNL     1      45.070  13.117 -32.658  1.00  0.00     0.000 C 
ENDROOT
BRANCH   1   2
ATOM      2  C   UNL     1      46.277  12.167 -32.529  1.00  0.00    -0.000 C 
BRANCH   2   3
ATOM      3  C   UNL     1      46.897  12.088 -31.119  1.00  0.00    -0.000 C 
BRANCH   3   4
ATOM      4  C   UNL     1      46.055  12.731 -29.999  1.00  0.00    -0.000 C 
BRANCH   4   5
ATOM      5  C   UNL     1      45.901  11.875 -28.729  1.00  0.00    -0.000 C 
BRANCH   5   6
ATOM      6  C   UNL     1      47.050  12.077 -27.730  1.00  0.00    -0.000 C 
BRANCH   6   7
ATOM      7  C   UNL     1      46.566  11.875 -26.288  1.00  0.00    -0.000 C 
BRANCH   7   8
ATOM      8  C   UNL     1      45.060  12.136 -26.173  1.00  0.00    -0.003 C 
ATOM      9  C   UNL     1      44.674  12.515 -24.745  1.00  0.00     0.004 C 
ENDBRANCH   7   8
ENDBRANCH   6   7
ENDBRANCH   5   6
ENDBRANCH   4   5
ENDBRANCH   3   4
ENDBRANCH   2   3
ENDBRANCH   1   2
BRANCH   1  10
ATOM     10  C   UNL     1      43.838  12.509 -33.352  1.00  0.00     0.000 C 
BRANCH  10  11
ATOM     11  C   UNL     1      43.938  12.558 -34.888  1.00  0.00     0.000 C 
BRANCH  11  12
ATOM     12  C   UNL     1      42.675  12.020 -35.581  1.00  0.00     0.000 C 
BRANCH  12  13
ATOM     13  C   UNL     1      41.954  13.097 -36.410  1.00  0.00     0.000 C 
BRANCH  13  14
ATOM     14  C   UNL     1      40.426  13.072 -36.225  1.00  0.00     0.002 C 
BRANCH  14  15
ATOM     15  C   UNL     1      39.785  14.436 -35.906  1.00  0.00     0.028 C 
BRANCH  15  16
ATOM     16  C   UNL     1      38.260  14.433 -36.056  1.00  0.00     0.156 C 
BRANCH  16  17
ATOM     17  O   UNL     1      37.723  15.626 -35.552  1.00  0.00    -0.396 OA
ATOM     18  H   UNL     1      37.071  15.953 -36.226  1.00  0.00     0.210 HD
ENDBRANCH  16  17
ENDBRANCH  15  16
ENDBRANCH  14  15
ENDBRANCH  13  14
ENDBRANCH  12  13
ENDBRANCH  11  12
ENDBRANCH  10  11
ENDBRANCH   1  10
TORSDOF 15
ENDMDL
MODEL 4
REMARK VINA RESULT:    -2.958     21.187     22.989
REMARK INTER + INTRA:          -7.047
REMARK INTER:                  -6.314
REMARK INTRA:                  -0.733
REMARK UNBOUND:                -1.581
REMARK SMILES CCCCCCCCCCCCCCCCO
REMARK SMILES IDX 9 1 8 2 7 3 6 4 5 5 4 6 3 7 2 8 1 9 10 10 11 11 12 12 13 13
REMARK SMILES IDX 14 14 15 15 16 16 17 17
REMARK H PARENT 17 18
REMARK Flexibility Score: inf
ROOT
ATOM      1  C   UNL     1      40.780  14.737 -35.657  1.00  0.00     0.000 C 
ENDROOT
BRANCH   1   2
ATOM      2  C   UNL     1      39.488  15.122 -36.404  1.00  0.00    -0.000 C 
BRANCH   2   3
ATOM      3  C   UNL     1      38.179  14.747 -35.680  1.00  0.00    -0.000 C 
BRANCH   3   4
ATOM      4  C   UNL     1      38.174  13.351 -35.024  1.00  0.00    -0.000 C 
BRANCH   4   5
ATOM      5  C   UNL     1      36.912  13.021 -34.207  1.00  0.00    -0.000 C 
BRANCH   5   6
ATOM      6  C   UNL     1      36.923  13.658 -32.809  1.00  0.00    -0.000 C 
BRANCH   6   7
ATOM      7  C   UNL     1      36.875  12.582 -31.716  1.00  0.00    -0.000 C 
BRANCH   7   8
ATOM      8  C   UNL     1      36.949  13.213 -30.321  1.00  0.00    -0.003 C 
ATOM      9  C   UNL     1      37.030  14.734 -30.408  1.00  0.00     0.004 C 
ENDBRANCH   7   8
ENDBRANCH   6   7
ENDBRANCH   5   6
ENDBRANCH   4   5
ENDBRANCH   3   4
ENDBRANCH   2   3
ENDBRANCH   1   2
BRANCH   1  10
ATOM     10  C   UNL     1      41.768  13.882 -36.472  1.00  0.00     0.000 C 
BRANCH  10  11
ATOM     11  C   UNL     1      41.829  12.421 -35.988  1.00  0.00     0.000 C 
BRANCH  11  12
ATOM     12  C   UNL     1      43.254  11.980 -35.614  1.00  0.00     0.000 C 
BRANCH  12  13
ATOM     13  C   UNL     1      43.565  12.201 -34.123  1.00  0.00     0.000 C 
BRANCH  13  14
ATOM     14  C   UNL     1      45.005  12.690 -33.879  1.00  0.00     0.002 C 
BRANCH  14  15
ATOM     15  C   UNL     1      45.554  12.422 -32.465  1.00  0.00     0.028 C 
BRANCH  15  16
ATOM     16  C   UNL     1      45.354  13.602 -31.508  1.00  0.00     0.156 C 
BRANCH  16  17
ATOM     17  O   UNL     1      45.996  13.349 -30.288  1.00  0.00    -0.396 OA
ATOM     18  H   UNL     1      46.878  12.950 -30.507  1.00  0.00     0.210 HD
ENDBRANCH  16  17
ENDBRANCH  15  16
ENDBRANCH  14  15
ENDBRANCH  13  14
ENDBRANCH  12  13
ENDBRANCH  11  12
ENDBRANCH  10  11
ENDBRANCH   1  10
TORSDOF 15
ENDMDL
MODEL 5
REMARK VINA RESULT:    -2.549     20.849     22.793
REMARK INTER + INTRA:          -6.291
REMARK INTER:                  -5.563
REMARK INTRA:                  -0.728
REMARK UNBOUND:                -1.581
REMARK SMILES CCCCCCCCCCCCCCCCO
REMARK SMILES IDX 9 1 8 2 7 3 6 4 5 5 4 6 3 7 2 8 1 9 10 10 11 11 12 12 13 13
REMARK SMILES IDX 14 14 15 15 16 16 17 17
REMARK H PARENT 17 18
REMARK Flexibility Score: inf
ROOT
ATOM      1  C   UNL     1      41.142  13.727 -35.938  1.00  0.00     0.000 C 
ENDROOT
BRANCH   1   2
ATOM      2  C   UNL     1      42.226  13.363 -36.973  1.00  0.00    -0.000 C 
BRANCH   2   3
ATOM      3  C   UNL     1      43.486  12.694 -36.388  1.00  0.00    -0.000 C 
BRANCH   3   4
ATOM      4  C   UNL     1      43.293  12.029 -35.010  1.00  0.00    -0.000 C 
BRANCH   4   5
ATOM      5  C   UNL     1      43.980  12.752 -33.837  1.00  0.00    -0.000 C 
BRANCH   5   6
ATOM      6  C   UNL     1      45.510  12.619 -33.869  1.00  0.00    -0.000 C 
BRANCH   6   7
ATOM      7  C   UNL     1      46.132  13.130 -32.563  1.00  0.00    -0.000 C 
BRANCH   7   8
ATOM      8  C   UNL     1      45.352  12.619 -31.346  1.00  0.00    -0.003 C 
ATOM      9  C   UNL     1      46.296  12.097 -30.266  1.00  0.00     0.004 C 
ENDBRANCH   7   8
ENDBRANCH   6   7
ENDBRANCH   5   6
ENDBRANCH   4   5
ENDBRANCH   3   4
ENDBRANCH   2   3
ENDBRANCH   1   2
BRANCH   1  10
ATOM     10  C   UNL     1      39.721  13.258 -36.299  1.00  0.00     0.000 C 
BRANCH  10  11
ATOM     11  C   UNL     1      38.721  14.424 -36.415  1.00  0.00     0.000 C 
BRANCH  11  12
ATOM     12  C   UNL     1      37.886  14.618 -35.139  1.00  0.00     0.000 C 
BRANCH  12  13
ATOM     13  C   UNL     1      37.239  13.308 -34.655  1.00  0.00     0.000 C 
BRANCH  13  14
ATOM     14  C   UNL     1      36.876  13.337 -33.159  1.00  0.00     0.002 C 
BRANCH  14  15
ATOM     15  C   UNL     1      37.295  14.616 -32.410  1.00  0.00     0.028 C 
BRANCH  15  16
ATOM     16  C   UNL     1      36.883  14.612 -30.934  1.00  0.00     0.156 C 
BRANCH  16  17
ATOM     17  O   UNL     1      37.864  15.245 -30.157  1.00  0.00    -0.396 OA
ATOM     18  H   UNL     1      37.464  15.395 -29.261  1.00  0.00     0.210 HD
ENDBRANCH  16  17
ENDBRANCH  15  16
ENDBRANCH  14  15
ENDBRANCH  13  14
ENDBRANCH  12  13
ENDBRANCH  11  12
ENDBRANCH  10  11
ENDBRANCH   1  10
TORSDOF 15
ENDMDL
MODEL 6
REMARK VINA RESULT:    -2.018      1.639      3.252
REMARK INTER + INTRA:          -5.310
REMARK INTER:                  -4.923
REMARK INTRA:                  -0.387
REMARK UNBOUND:                -1.581
REMARK SMILES CCCCCCCCCCCCCCCCO
REMARK SMILES IDX 9 1 8 2 7 3 6 4 5 5 4 6 3 7 2 8 1 9 10 10 11 11 12 12 13 13
REMARK SMILES IDX 14 14 15 15 16 16 17 17
REMARK H PARENT 17 18
REMARK Flexibility Score: inf
ROOT
ATOM      1  C   UNL     1      57.124  30.055 -35.585  1.00  0.00     0.000 C 
ENDROOT
BRANCH   1   2
ATOM      2  C   UNL     1      55.764  29.821 -36.272  1.00  0.00    -0.000 C 
BRANCH   2   3
ATOM      3  C   UNL     1      55.222  31.023 -37.072  1.00  0.00    -0.000 C 
BRANCH   3   4
ATOM      4  C   UNL     1      54.974  30.752 -38.569  1.00  0.00    -0.000 C 
BRANCH   4   5
ATOM      5  C   UNL     1      55.377  29.347 -39.051  1.00  0.00    -0.000 C 
BRANCH   5   6
ATOM      6  C   UNL     1      54.220  28.339 -38.985  1.00  0.00    -0.000 C 
BRANCH   6   7
ATOM      7  C   UNL     1      54.514  27.233 -37.963  1.00  0.00    -0.000 C 
BRANCH   7   8
ATOM      8  C   UNL     1      54.475  25.850 -38.625  1.00  0.00    -0.003 C 
ATOM      9  C   UNL     1      54.611  24.739 -37.587  1.00  0.00     0.004 C 
ENDBRANCH   7   8
ENDBRANCH   6   7
ENDBRANCH   5   6
ENDBRANCH   4   5
ENDBRANCH   3   4
ENDBRANCH   2   3
ENDBRANCH   1   2
BRANCH   1  10
ATOM     10  C   UNL     1      57.038  30.520 -34.120  1.00  0.00     0.000 C 
BRANCH  10  11
ATOM     11  C   UNL     1      55.603  30.879 -33.694  1.00  0.00     0.000 C 
BRANCH  11  12
ATOM     12  C   UNL     1      55.550  32.098 -32.759  1.00  0.00     0.000 C 
BRANCH  12  13
ATOM     13  C   UNL     1      56.065  31.779 -31.345  1.00  0.00     0.000 C 
BRANCH  13  14
ATOM     14  C   UNL     1      55.618  30.393 -30.844  1.00  0.00     0.002 C 
BRANCH  14  15
ATOM     15  C   UNL     1      56.722  29.319 -30.827  1.00  0.00     0.028 C 
BRANCH  15  16
ATOM     16  C   UNL     1      56.200  27.914 -31.151  1.00  0.00     0.156 C 
BRANCH  16  17
ATOM     17  O   UNL     1      55.394  27.952 -32.298  1.00  0.00    -0.396 OA
ATOM     18  H   UNL     1      54.925  27.078 -32.345  1.00  0.00     0.210 HD
ENDBRANCH  16  17
ENDBRANCH  15  16
ENDBRANCH  14  15
ENDBRANCH  13  14
ENDBRANCH  12  13
ENDBRANCH  11  12
ENDBRANCH  10  11
ENDBRANCH   1  10
TORSDOF 15
ENDMDL
MODEL 7
REMARK VINA RESULT:    -1.956     20.029     22.264
REMARK INTER + INTRA:          -5.196
REMARK INTER:                  -4.561
REMARK INTRA:                  -0.634
REMARK UNBOUND:                -1.581
REMARK SMILES CCCCCCCCCCCCCCCCO
REMARK SMILES IDX 9 1 8 2 7 3 6 4 5 5 4 6 3 7 2 8 1 9 10 10 11 11 12 12 13 13
REMARK SMILES IDX 14 14 15 15 16 16 17 17
REMARK H PARENT 17 18
REMARK Flexibility Score: inf
ROOT
ATOM      1  C   UNL     1      45.025  12.313 -30.402  1.00  0.00     0.000 C 
ENDROOT
BRANCH   1   2
ATOM      2  C   UNL     1      46.509  12.347 -29.986  1.00  0.00    -0.000 C 
BRANCH   2   3
ATOM      3  C   UNL     1      46.793  11.879 -28.544  1.00  0.00    -0.000 C 
BRANCH   3   4
ATOM      4  C   UNL     1      45.602  12.002 -27.572  1.00  0.00    -0.000 C 
BRANCH   4   5
ATOM      5  C   UNL     1      45.965  11.878 -26.081  1.00  0.00    -0.000 C 
BRANCH   5   6
ATOM      6  C   UNL     1      44.733  11.921 -25.163  1.00  0.00    -0.000 C 
BRANCH   6   7
ATOM      7  C   UNL     1      45.078  12.567 -23.814  1.00  0.00    -0.000 C 
BRANCH   7   8
ATOM      8  C   UNL     1      45.938  13.821 -24.009  1.00  0.00    -0.003 C 
ATOM      9  C   UNL     1      46.312  14.446 -22.668  1.00  0.00     0.004 C 
ENDBRANCH   7   8
ENDBRANCH   6   7
ENDBRANCH   5   6
ENDBRANCH   4   5
ENDBRANCH   3   4
ENDBRANCH   2   3
ENDBRANCH   1   2
BRANCH   1  10
ATOM     10  C   UNL     1      44.709  13.021 -31.731  1.00  0.00     0.000 C 
BRANCH  10  11
ATOM     11  C   UNL     1      45.913  13.049 -32.691  1.00  0.00     0.000 C 
BRANCH  11  12
ATOM     12  C   UNL     1      45.554  12.573 -34.107  1.00  0.00     0.000 C 
BRANCH  12  13
ATOM     13  C   UNL     1      44.052  12.277 -34.265  1.00  0.00     0.000 C 
BRANCH  13  14
ATOM     14  C   UNL     1      43.592  12.285 -35.735  1.00  0.00     0.002 C 
BRANCH  14  15
ATOM     15  C   UNL     1      42.068  12.362 -35.940  1.00  0.00     0.028 C 
BRANCH  15  16
ATOM     16  C   UNL     1      41.624  13.628 -36.682  1.00  0.00     0.156 C 
BRANCH  16  17
ATOM     17  O   UNL     1      40.905  14.467 -35.819  1.00  0.00    -0.396 OA
ATOM     18  H   UNL     1      40.114  14.787 -36.326  1.00  0.00     0.210 HD
ENDBRANCH  16  17
ENDBRANCH  15  16
ENDBRANCH  14  15
ENDBRANCH  13  14
ENDBRANCH  12  13
ENDBRANCH  11  12
ENDBRANCH  10  11
ENDBRANCH   1  10
TORSDOF 15
ENDMDL
MODEL 8
REMARK VINA RESULT:    -1.746     20.684     22.849
REMARK INTER + INTRA:          -4.807
REMARK INTER:                  -4.144
REMARK INTRA:                  -0.662
REMARK UNBOUND:                -1.581
REMARK SMILES CCCCCCCCCCCCCCCCO
REMARK SMILES IDX 9 1 8 2 7 3 6 4 5 5 4 6 3 7 2 8 1 9 10 10 11 11 12 12 13 13
REMARK SMILES IDX 14 14 15 15 16 16 17 17
REMARK H PARENT 17 18
REMARK Flexibility Score: inf
ROOT
ATOM      1  C   UNL     1      42.180  12.657 -35.562  1.00  0.00     0.000 C 
ENDROOT
BRANCH   1   2
ATOM      2  C   UNL     1      43.518  11.922 -35.346  1.00  0.00    -0.000 C 
BRANCH   2   3
ATOM      3  C   UNL     1      44.678  12.812 -34.854  1.00  0.00    -0.000 C 
BRANCH   3   4
ATOM      4  C   UNL     1      45.458  12.259 -33.645  1.00  0.00    -0.000 C 
BRANCH   4   5
ATOM      5  C   UNL     1      44.707  12.322 -32.303  1.00  0.00    -0.000 C 
BRANCH   5   6
ATOM      6  C   UNL     1      45.568  12.890 -31.164  1.00  0.00    -0.000 C 
BRANCH   6   7
ATOM      7  C   UNL     1      46.631  11.875 -30.723  1.00  0.00    -0.000 C 
BRANCH   7   8
ATOM      8  C   UNL     1      47.002  12.073 -29.248  1.00  0.00    -0.003 C 
ATOM      9  C   UNL     1      45.764  12.022 -28.358  1.00  0.00     0.004 C 
ENDBRANCH   7   8
ENDBRANCH   6   7
ENDBRANCH   5   6
ENDBRANCH   4   5
ENDBRANCH   3   4
ENDBRANCH   2   3
ENDBRANCH   1   2
BRANCH   1  10
ATOM     10  C   UNL     1      41.168  11.910 -36.451  1.00  0.00     0.000 C 
BRANCH  10  11
ATOM     11  C   UNL     1      39.882  12.720 -36.696  1.00  0.00     0.000 C 
BRANCH  11  12
ATOM     12  C   UNL     1      39.809  13.993 -35.839  1.00  0.00     0.000 C 
BRANCH  12  13
ATOM     13  C   UNL     1      38.377  14.543 -35.722  1.00  0.00     0.000 C 
BRANCH  13  14
ATOM     14  C   UNL     1      37.359  13.475 -35.282  1.00  0.00     0.002 C 
BRANCH  14  15
ATOM     15  C   UNL     1      37.082  13.422 -33.768  1.00  0.00     0.028 C 
BRANCH  15  16
ATOM     16  C   UNL     1      36.886  14.809 -33.144  1.00  0.00     0.156 C 
BRANCH  16  17
ATOM     17  O   UNL     1      37.237  14.781 -31.787  1.00  0.00    -0.396 OA
ATOM     18  H   UNL     1      36.738  14.026 -31.379  1.00  0.00     0.210 HD
ENDBRANCH  16  17
ENDBRANCH  15  16
ENDBRANCH  14  15
ENDBRANCH  13  14
ENDBRANCH  12  13
ENDBRANCH  11  12
ENDBRANCH  10  11
ENDBRANCH   1  10
TORSDOF 15
ENDMDL
