MODEL 1
REMARK VINA RESULT:    -4.022      0.000      0.000
REMARK INTER + INTRA:          -5.324
REMARK INTER:                  -4.845
REMARK INTRA:                  -0.478
REMARK UNBOUND:                -0.478
REMARK SMILES NC(=O)C[C@H]([NH3+])C(=O)[O-]
REMARK SMILES IDX 4 1 5 2 6 3 7 7 8 8 9 9 2 10 3 11 1 12
REMARK H PARENT 6 4 6 5 6 6 1 13 1 14
REMARK Flexibility Score: inf
ROOT
ATOM      1  C   UNL     1      24.469 -25.664  24.699  1.00  0.00     0.171 C 
ENDROOT
BRANCH   1   2
ATOM      2  C   UNL     1      23.168 -24.998  25.199  1.00  0.00     0.237 C 
BRANCH   2   3
ATOM      3  N   UNL     1      21.983 -25.804  24.875  1.00  0.00    -0.350 N 
ATOM      4  H   UNL     1      21.167 -25.482  25.445  1.00  0.00     0.345 HD
ATOM      5  H   UNL     1      21.743 -25.685  23.864  1.00  0.00     0.345 HD
ATOM      6  H   UNL     1      22.152 -26.819  25.064  1.00  0.00     0.345 HD
ENDBRANCH   2   3
BRANCH   2   7
ATOM      7  C   UNL     1      23.030 -23.592  24.672  1.00  0.00     0.100 C 
ATOM      8  O   UNL     1      22.316 -22.757  25.287  1.00  0.00    -0.544 OA
ATOM      9  O   UNL     1      23.727 -23.189  23.538  1.00  0.00    -0.544 OA
ENDBRANCH   2   7
ENDBRANCH   1   2
BRANCH   1  10
ATOM     10  C   UNL     1      24.284 -26.448  23.429  1.00  0.00     0.223 C 
ATOM     11  O   UNL     1      23.841 -27.627  23.479  1.00  0.00    -0.275 OA
ATOM     12  N   UNL     1      24.590 -25.861  22.165  1.00  0.00    -0.369 N 
ATOM     13  H   UNL     1      24.449 -26.405  21.284  1.00  0.00     0.159 HD
ATOM     14  H   UNL     1      24.955 -24.885  22.103  1.00  0.00     0.159 HD
ENDBRANCH   1  10
TORSDOF 4
ENDMDL
MODEL 2
REMARK VINA RESULT:    -3.805      2.207      2.653
REMARK INTER + INTRA:          -5.062
REMARK INTER:                  -4.695
REMARK INTRA:                  -0.366
REMARK UNBOUND:                -0.478
REMARK SMILES NC(=O)C[C@H]([NH3+])C(=O)[O-]
REMARK SMILES IDX 4 1 5 2 6 3 7 7 8 8 9 9 2 10 3 11 1 12
REMARK H PARENT 6 4 6 5 6 6 1 13 1 14
REMARK Flexibility Score: inf
ROOT
ATOM      1  C   UNL     1      24.103 -26.609  24.452  1.00  0.00     0.171 C 
ENDROOT
BRANCH   1   2
ATOM      2  C   UNL     1      23.010 -25.887  25.271  1.00  0.00     0.237 C 
BRANCH   2   3
ATOM      3  N   UNL     1      22.602 -24.625  24.639  1.00  0.00    -0.350 N 
ATOM      4  H   UNL     1      22.612 -24.728  23.599  1.00  0.00     0.345 HD
ATOM      5  H   UNL     1      21.628 -24.384  24.934  1.00  0.00     0.345 HD
ATOM      6  H   UNL     1      23.239 -23.841  24.911  1.00  0.00     0.345 HD
ENDBRANCH   2   3
BRANCH   2   7
ATOM      7  C   UNL     1      23.446 -25.667  26.697  1.00  0.00     0.100 C 
ATOM      8  O   UNL     1      24.250 -24.737  26.972  1.00  0.00    -0.544 OA
ATOM      9  O   UNL     1      22.929 -26.448  27.724  1.00  0.00    -0.544 OA
ENDBRANCH   2   7
ENDBRANCH   1   2
BRANCH   1  10
ATOM     10  C   UNL     1      24.774 -25.719  23.441  1.00  0.00     0.223 C 
ATOM     11  O   UNL     1      25.563 -24.817  23.827  1.00  0.00    -0.275 OA
ATOM     12  N   UNL     1      24.535 -25.901  22.046  1.00  0.00    -0.369 N 
ATOM     13  H   UNL     1      25.012 -25.289  21.347  1.00  0.00     0.159 HD
ATOM     14  H   UNL     1      23.886 -26.645  21.707  1.00  0.00     0.159 HD
ENDBRANCH   1  10
TORSDOF 4
ENDMDL
MODEL 3
REMARK VINA RESULT:    -3.774      2.000      2.317
REMARK INTER + INTRA:          -5.025
REMARK INTER:                  -4.921
REMARK INTRA:                  -0.104
REMARK UNBOUND:                -0.478
REMARK SMILES NC(=O)C[C@H]([NH3+])C(=O)[O-]
REMARK SMILES IDX 4 1 5 2 6 3 7 7 8 8 9 9 2 10 3 11 1 12
REMARK H PARENT 6 4 6 5 6 6 1 13 1 14
REMARK Flexibility Score: inf
ROOT
ATOM      1  C   UNL     1      24.125 -26.556  24.392  1.00  0.00     0.171 C 
ENDROOT
BRANCH   1   2
ATOM      2  C   UNL     1      23.742 -25.807  25.688  1.00  0.00     0.237 C 
BRANCH   2   3
ATOM      3  N   UNL     1      23.916 -26.653  26.877  1.00  0.00    -0.350 N 
ATOM      4  H   UNL     1      24.150 -27.630  26.587  1.00  0.00     0.345 HD
ATOM      5  H   UNL     1      24.706 -26.286  27.456  1.00  0.00     0.345 HD
ATOM      6  H   UNL     1      23.049 -26.669  27.462  1.00  0.00     0.345 HD
ENDBRANCH   2   3
BRANCH   2   7
ATOM      7  C   UNL     1      22.341 -25.256  25.613  1.00  0.00     0.100 C 
ATOM      8  O   UNL     1      21.421 -25.945  25.097  1.00  0.00    -0.544 OA
ATOM      9  O   UNL     1      22.039 -24.011  26.153  1.00  0.00    -0.544 OA
ENDBRANCH   2   7
ENDBRANCH   1   2
BRANCH   1  10
ATOM     10  C   UNL     1      24.849 -25.689  23.399  1.00  0.00     0.223 C 
ATOM     11  O   UNL     1      25.730 -24.881  23.796  1.00  0.00    -0.275 OA
ATOM     12  N   UNL     1      24.558 -25.787  22.005  1.00  0.00    -0.369 N 
ATOM     13  H   UNL     1      25.071 -25.193  21.317  1.00  0.00     0.159 HD
ATOM     14  H   UNL     1      23.833 -26.453  21.656  1.00  0.00     0.159 HD
ENDBRANCH   1  10
TORSDOF 4
ENDMDL
MODEL 4
REMARK VINA RESULT:    -3.750      1.998      3.357
REMARK INTER + INTRA:          -4.996
REMARK INTER:                  -4.866
REMARK INTRA:                  -0.130
REMARK UNBOUND:                -0.478
REMARK SMILES NC(=O)C[C@H]([NH3+])C(=O)[O-]
REMARK SMILES IDX 4 1 5 2 6 3 7 7 8 8 9 9 2 10 3 11 1 12
REMARK H PARENT 6 4 6 5 6 6 1 13 1 14
REMARK Flexibility Score: inf
ROOT
ATOM      1  C   UNL     1      23.727 -26.341  24.631  1.00  0.00     0.171 C 
ENDROOT
BRANCH   1   2
ATOM      2  C   UNL     1      24.326 -25.401  23.561  1.00  0.00     0.237 C 
BRANCH   2   3
ATOM      3  N   UNL     1      24.578 -26.105  22.297  1.00  0.00    -0.350 N 
ATOM      4  H   UNL     1      25.588 -26.367  22.232  1.00  0.00     0.345 HD
ATOM      5  H   UNL     1      24.010 -26.982  22.265  1.00  0.00     0.345 HD
ATOM      6  H   UNL     1      24.326 -25.510  21.474  1.00  0.00     0.345 HD
ENDBRANCH   2   3
BRANCH   2   7
ATOM      7  C   UNL     1      25.574 -24.719  24.064  1.00  0.00     0.100 C 
ATOM      8  O   UNL     1      26.076 -23.768  23.410  1.00  0.00    -0.544 OA
ATOM      9  O   UNL     1      26.150 -25.096  25.272  1.00  0.00    -0.544 OA
ENDBRANCH   2   7
ENDBRANCH   1   2
BRANCH   1  10
ATOM     10  C   UNL     1      22.604 -25.714  25.411  1.00  0.00     0.223 C 
ATOM     11  O   UNL     1      22.864 -24.934  26.365  1.00  0.00    -0.275 OA
ATOM     12  N   UNL     1      21.245 -25.983  25.068  1.00  0.00    -0.369 N 
ATOM     13  H   UNL     1      20.469 -25.536  25.604  1.00  0.00     0.159 HD
ATOM     14  H   UNL     1      21.011 -26.625  24.279  1.00  0.00     0.159 HD
ENDBRANCH   1  10
TORSDOF 4
ENDMDL
MODEL 5
REMARK VINA RESULT:    -3.736      2.002      2.401
REMARK INTER + INTRA:          -4.979
REMARK INTER:                  -4.619
REMARK INTRA:                  -0.359
REMARK UNBOUND:                -0.478
REMARK SMILES NC(=O)C[C@H]([NH3+])C(=O)[O-]
REMARK SMILES IDX 4 1 5 2 6 3 7 7 8 8 9 9 2 10 3 11 1 12
REMARK H PARENT 6 4 6 5 6 6 1 13 1 14
REMARK Flexibility Score: inf
ROOT
ATOM      1  C   UNL     1      23.685 -24.946  24.231  1.00  0.00     0.171 C 
ENDROOT
BRANCH   1   2
ATOM      2  C   UNL     1      23.445 -23.430  24.053  1.00  0.00     0.237 C 
BRANCH   2   3
ATOM      3  N   UNL     1      24.219 -22.884  22.931  1.00  0.00    -0.350 N 
ATOM      4  H   UNL     1      25.226 -22.800  23.201  1.00  0.00     0.345 HD
ATOM      5  H   UNL     1      24.154 -23.531  22.112  1.00  0.00     0.345 HD
ATOM      6  H   UNL     1      23.863 -21.943  22.646  1.00  0.00     0.345 HD
ENDBRANCH   2   3
BRANCH   2   7
ATOM      7  C   UNL     1      23.726 -22.675  25.328  1.00  0.00     0.100 C 
ATOM      8  O   UNL     1      24.915 -22.480  25.693  1.00  0.00    -0.544 OA
ATOM      9  O   UNL     1      22.685 -22.144  26.081  1.00  0.00    -0.544 OA
ENDBRANCH   2   7
ENDBRANCH   1   2
BRANCH   1  10
ATOM     10  C   UNL     1      24.769 -25.484  23.337  1.00  0.00     0.223 C 
ATOM     11  O   UNL     1      25.971 -25.176  23.555  1.00  0.00    -0.275 OA
ATOM     12  N   UNL     1      24.448 -26.355  22.253  1.00  0.00    -0.369 N 
ATOM     13  H   UNL     1      25.204 -26.736  21.642  1.00  0.00     0.159 HD
ATOM     14  H   UNL     1      23.458 -26.623  22.059  1.00  0.00     0.159 HD
ENDBRANCH   1  10
TORSDOF 4
ENDMDL
MODEL 6
REMARK VINA RESULT:    -3.667      1.965      3.050
REMARK INTER + INTRA:          -4.896
REMARK INTER:                  -4.571
REMARK INTRA:                  -0.326
REMARK UNBOUND:                -0.478
REMARK SMILES NC(=O)C[C@H]([NH3+])C(=O)[O-]
REMARK SMILES IDX 4 1 5 2 6 3 7 7 8 8 9 9 2 10 3 11 1 12
REMARK H PARENT 6 4 6 5 6 6 1 13 1 14
REMARK Flexibility Score: inf
ROOT
ATOM      1  C   UNL     1      23.049 -23.745  24.723  1.00  0.00     0.171 C 
ENDROOT
BRANCH   1   2
ATOM      2  C   UNL     1      24.024 -23.494  23.551  1.00  0.00     0.237 C 
BRANCH   2   3
ATOM      3  N   UNL     1      24.264 -24.716  22.771  1.00  0.00    -0.350 N 
ATOM      4  H   UNL     1      23.385 -25.004  22.283  1.00  0.00     0.345 HD
ATOM      5  H   UNL     1      24.995 -24.531  22.046  1.00  0.00     0.345 HD
ATOM      6  H   UNL     1      24.587 -25.500  23.384  1.00  0.00     0.345 HD
ENDBRANCH   2   3
BRANCH   2   7
ATOM      7  C   UNL     1      25.320 -22.891  24.032  1.00  0.00     0.100 C 
ATOM      8  O   UNL     1      26.399 -23.522  23.884  1.00  0.00    -0.544 OA
ATOM      9  O   UNL     1      25.344 -21.619  24.591  1.00  0.00    -0.544 OA
ENDBRANCH   2   7
ENDBRANCH   1   2
BRANCH   1  10
ATOM     10  C   UNL     1      22.872 -25.203  25.046  1.00  0.00     0.223 C 
ATOM     11  O   UNL     1      23.875 -25.907  25.338  1.00  0.00    -0.275 OA
ATOM     12  N   UNL     1      21.572 -25.793  25.040  1.00  0.00    -0.369 N 
ATOM     13  H   UNL     1      21.452 -26.803  25.277  1.00  0.00     0.159 HD
ATOM     14  H   UNL     1      20.729 -25.226  24.803  1.00  0.00     0.159 HD
ENDBRANCH   1  10
TORSDOF 4
ENDMDL
MODEL 7
REMARK VINA RESULT:    -3.594      1.987      3.600
REMARK INTER + INTRA:          -4.807
REMARK INTER:                  -4.311
REMARK INTRA:                  -0.496
REMARK UNBOUND:                -0.478
REMARK SMILES NC(=O)C[C@H]([NH3+])C(=O)[O-]
REMARK SMILES IDX 4 1 5 2 6 3 7 7 8 8 9 9 2 10 3 11 1 12
REMARK H PARENT 6 4 6 5 6 6 1 13 1 14
REMARK Flexibility Score: inf
ROOT
ATOM      1  C   UNL     1      24.364 -25.020  25.972  1.00  0.00     0.171 C 
ENDROOT
BRANCH   1   2
ATOM      2  C   UNL     1      24.298 -24.668  24.469  1.00  0.00     0.237 C 
BRANCH   2   3
ATOM      3  N   UNL     1      23.056 -23.960  24.129  1.00  0.00    -0.350 N 
ATOM      4  H   UNL     1      23.196 -22.929  24.231  1.00  0.00     0.345 HD
ATOM      5  H   UNL     1      22.800 -24.159  23.134  1.00  0.00     0.345 HD
ATOM      6  H   UNL     1      22.267 -24.261  24.746  1.00  0.00     0.345 HD
ENDBRANCH   2   3
BRANCH   2   7
ATOM      7  C   UNL     1      24.481 -25.892  23.607  1.00  0.00     0.100 C 
ATOM      8  O   UNL     1      24.033 -27.004  23.993  1.00  0.00    -0.544 OA
ATOM      9  O   UNL     1      25.096 -25.798  22.364  1.00  0.00    -0.544 OA
ENDBRANCH   2   7
ENDBRANCH   1   2
BRANCH   1  10
ATOM     10  C   UNL     1      23.009 -25.131  26.615  1.00  0.00     0.223 C 
ATOM     11  O   UNL     1      22.494 -24.125  27.170  1.00  0.00    -0.275 OA
ATOM     12  N   UNL     1      22.294 -26.367  26.586  1.00  0.00    -0.369 N 
ATOM     13  H   UNL     1      21.348 -26.437  27.024  1.00  0.00     0.159 HD
ATOM     14  H   UNL     1      22.704 -27.211  26.129  1.00  0.00     0.159 HD
ENDBRANCH   1  10
TORSDOF 4
ENDMDL
MODEL 8
REMARK VINA RESULT:    -3.441      2.336      2.962
REMARK INTER + INTRA:          -4.623
REMARK INTER:                  -4.108
REMARK INTRA:                  -0.515
REMARK UNBOUND:                -0.478
REMARK SMILES NC(=O)C[C@H]([NH3+])C(=O)[O-]
REMARK SMILES IDX 4 1 5 2 6 3 7 7 8 8 9 9 2 10 3 11 1 12
REMARK H PARENT 6 4 6 5 6 6 1 13 1 14
REMARK Flexibility Score: inf
ROOT
ATOM      1  C   UNL     1      23.375 -24.704  26.733  1.00  0.00     0.171 C 
ENDROOT
BRANCH   1   2
ATOM      2  C   UNL     1      22.600 -24.620  25.399  1.00  0.00     0.237 C 
BRANCH   2   3
ATOM      3  N   UNL     1      21.686 -25.757  25.228  1.00  0.00    -0.350 N 
ATOM      4  H   UNL     1      22.156 -26.510  24.675  1.00  0.00     0.345 HD
ATOM      5  H   UNL     1      21.434 -26.148  26.164  1.00  0.00     0.345 HD
ATOM      6  H   UNL     1      20.810 -25.469  24.735  1.00  0.00     0.345 HD
ENDBRANCH   2   3
BRANCH   2   7
ATOM      7  C   UNL     1      23.537 -24.492  24.225  1.00  0.00     0.100 C 
ATOM      8  O   UNL     1      23.613 -23.402  23.598  1.00  0.00    -0.544 OA
ATOM      9  O   UNL     1      24.360 -25.550  23.856  1.00  0.00    -0.544 OA
ENDBRANCH   2   7
ENDBRANCH   1   2
BRANCH   1  10
ATOM     10  C   UNL     1      23.580 -26.115  27.213  1.00  0.00     0.223 C 
ATOM     11  O   UNL     1      22.803 -26.603  28.076  1.00  0.00    -0.275 OA
ATOM     12  N   UNL     1      24.640 -26.912  26.684  1.00  0.00    -0.369 N 
ATOM     13  H   UNL     1      24.772 -27.895  27.011  1.00  0.00     0.159 HD
ATOM     14  H   UNL     1      25.293 -26.526  25.967  1.00  0.00     0.159 HD
ENDBRANCH   1  10
TORSDOF 4
ENDMDL
MODEL 9
REMARK VINA RESULT:    -3.413      2.412      3.452
REMARK INTER + INTRA:          -4.589
REMARK INTER:                  -4.174
REMARK INTRA:                  -0.416
REMARK UNBOUND:                -0.478
REMARK SMILES NC(=O)C[C@H]([NH3+])C(=O)[O-]
REMARK SMILES IDX 4 1 5 2 6 3 7 7 8 8 9 9 2 10 3 11 1 12
REMARK H PARENT 6 4 6 5 6 6 1 13 1 14
REMARK Flexibility Score: inf
ROOT
ATOM      1  C   UNL     1      22.207 -25.482  25.272  1.00  0.00     0.171 C 
ENDROOT
BRANCH   1   2
ATOM      2  C   UNL     1      23.594 -26.071  24.933  1.00  0.00     0.237 C 
BRANCH   2   3
ATOM      3  N   UNL     1      24.199 -26.742  26.092  1.00  0.00    -0.350 N 
ATOM      4  H   UNL     1      23.491 -26.840  26.855  1.00  0.00     0.345 HD
ATOM      5  H   UNL     1      24.517 -27.700  25.816  1.00  0.00     0.345 HD
ATOM      6  H   UNL     1      25.020 -26.206  26.455  1.00  0.00     0.345 HD
ENDBRANCH   2   3
BRANCH   2   7
ATOM      7  C   UNL     1      24.517 -25.020  24.369  1.00  0.00     0.100 C 
ATOM      8  O   UNL     1      25.639 -24.817  24.904  1.00  0.00    -0.544 OA
ATOM      9  O   UNL     1      24.165 -24.306  23.230  1.00  0.00    -0.544 OA
ENDBRANCH   2   7
ENDBRANCH   1   2
BRANCH   1  10
ATOM     10  C   UNL     1      22.271 -24.338  26.247  1.00  0.00     0.223 C 
ATOM     11  O   UNL     1      22.683 -24.536  27.420  1.00  0.00    -0.275 OA
ATOM     12  N   UNL     1      21.883 -23.023  25.846  1.00  0.00    -0.369 N 
ATOM     13  H   UNL     1      21.939 -22.229  26.522  1.00  0.00     0.159 HD
ATOM     14  H   UNL     1      21.540 -22.839  24.877  1.00  0.00     0.159 HD
ENDBRANCH   1  10
TORSDOF 4
ENDMDL
