MODEL 1
REMARK VINA RESULT:    -4.254      0.000      0.000
REMARK INTER + INTRA:          -6.127
REMARK INTER:                  -5.995
REMARK INTRA:                  -0.132
REMARK UNBOUND:                -0.132
REMARK SMILES CC1=CCC(=C(C)C)C(=O)CC(C)=CCC1
REMARK SMILES IDX 12 1 14 2 13 3 15 4 16 5 2 6 1 7 3 8 11 10 9 11 10 12 5 13
REMARK SMILES IDX 6 14 7 15 8 16 4 17
REMARK H PARENT
REMARK Flexibility Score: 60.00
ROOT
ATOM      1  C   UNL     1      99.845 118.050 125.478  1.00  0.00    -0.070 C 
ATOM      2  C   UNL     1      99.866 118.746 124.319  1.00  0.00    -0.027 C 
ATOM      3  C   UNL     1     100.205 118.777 126.750  1.00  0.00     0.039 C 
ENDROOT
BRANCH   2   4
ATOM      4  C   UNL     1      99.396 118.220 122.987  1.00  0.00     0.032 C 
BRANCH   4   5
ATOM      5  C   UNL     1     100.586 117.667 122.195  1.00  0.00     0.034 C 
BRANCH   5   6
ATOM      6  C   UNL     1     100.275 116.341 121.531  1.00  0.00    -0.077 C 
ATOM      7  C   UNL     1      99.411 116.338 120.294  1.00  0.00     0.039 C 
ATOM      8  C   UNL     1     100.672 115.142 122.027  1.00  0.00    -0.023 CG0
ATOM      9  G   UNL     1     101.585 114.892 123.213  1.00  0.00     0.000 G0
ENDBRANCH   5   6
ENDBRANCH   4   5
ENDBRANCH   2   4
BRANCH   1  10
ATOM     10  C   UNL     1      99.499 116.577 125.561  1.00  0.00     0.111 C 
BRANCH  10  11
ATOM     11  C   UNL     1     100.731 115.705 125.522  1.00  0.00     0.163 C 
ATOM     12  O   UNL     1     101.646 115.968 126.349  1.00  0.00    -0.294 OA
BRANCH  11  13
ATOM     13  C   UNL     1     100.925 114.577 124.552  1.00  0.00    -0.002 C 
ATOM     14  C   UNL     1     100.665 113.286 124.925  1.00  0.00    -0.069 C 
ATOM     15  C   UNL     1     101.064 112.108 124.065  1.00  0.00     0.039 C 
ATOM     16  C   UNL     1      99.917 112.968 126.200  1.00  0.00     0.039 C 
BRANCH  13  17
ATOM     17  C   UNL     1     101.585 114.893 123.214  1.00  0.00     0.066 CG0
ATOM     18  G   UNL     1     100.655 115.145 122.042  1.00  0.00     0.000 G0
ENDBRANCH  13  17
ENDBRANCH  11  13
ENDBRANCH  10  11
ENDBRANCH   1  10
TORSDOF 0
ENDMDL
MODEL 2
REMARK VINA RESULT:    -4.232      1.931      4.062
REMARK INTER + INTRA:          -6.096
REMARK INTER:                  -5.954
REMARK INTRA:                  -0.142
REMARK UNBOUND:                -0.132
REMARK SMILES CC1=CCC(=C(C)C)C(=O)CC(C)=CCC1
REMARK SMILES IDX 12 1 14 2 13 3 15 4 16 5 2 6 1 7 3 8 11 10 9 11 10 12 5 13
REMARK SMILES IDX 6 14 7 15 8 16 4 17
REMARK H PARENT
REMARK Flexibility Score: 60.00
ROOT
ATOM      1  C   UNL     1      99.403 119.304 124.711  1.00  0.00    -0.070 C 
ATOM      2  C   UNL     1      99.455 118.738 125.938  1.00  0.00    -0.027 C 
ATOM      3  C   UNL     1      98.343 120.345 124.454  1.00  0.00     0.039 C 
ENDROOT
BRANCH   2   4
ATOM      4  C   UNL     1     100.533 117.796 126.409  1.00  0.00     0.032 C 
BRANCH   4   5
ATOM      5  C   UNL     1     100.085 116.345 126.204  1.00  0.00     0.034 C 
BRANCH   5   6
ATOM      6  C   UNL     1     101.216 115.447 125.747  1.00  0.00    -0.077 C 
ATOM      7  C   UNL     1     102.263 115.035 126.753  1.00  0.00     0.039 C 
ATOM      8  C   UNL     1     101.385 115.047 124.461  1.00  0.00    -0.023 CG0
ATOM      9  G   UNL     1     100.447 115.282 123.292  1.00  0.00     0.000 G0
ENDBRANCH   5   6
ENDBRANCH   4   5
ENDBRANCH   2   4
BRANCH   1  10
ATOM     10  C   UNL     1     100.340 118.932 123.580  1.00  0.00     0.111 C 
BRANCH  10  11
ATOM     11  C   UNL     1      99.826 117.756 122.785  1.00  0.00     0.163 C 
ATOM     12  O   UNL     1      98.627 117.805 122.399  1.00  0.00    -0.294 OA
BRANCH  11  13
ATOM     13  C   UNL     1     100.651 116.546 122.457  1.00  0.00    -0.002 C 
ATOM     14  C   UNL     1     101.450 116.529 121.346  1.00  0.00    -0.069 C 
ATOM     15  C   UNL     1     102.111 115.260 120.854  1.00  0.00     0.039 C 
ATOM     16  C   UNL     1     101.756 117.792 120.574  1.00  0.00     0.039 C 
BRANCH  13  17
ATOM     17  C   UNL     1     100.433 115.288 123.291  1.00  0.00     0.066 CG0
ATOM     18  G   UNL     1     101.391 115.066 124.446  1.00  0.00     0.000 G0
ENDBRANCH  13  17
ENDBRANCH  11  13
ENDBRANCH  10  11
ENDBRANCH   1  10
TORSDOF 0
ENDMDL
MODEL 3
REMARK VINA RESULT:    -3.922      2.146      5.171
REMARK INTER + INTRA:          -5.658
REMARK INTER:                  -6.158
REMARK INTRA:                   0.499
REMARK UNBOUND:                -0.132
REMARK SMILES CC1=CCC(=C(C)C)C(=O)CC(C)=CCC1
REMARK SMILES IDX 12 1 14 2 13 3 15 4 16 5 2 6 1 7 3 8 11 10 9 11 10 12 5 13
REMARK SMILES IDX 6 14 7 15 8 16 4 17
REMARK H PARENT
REMARK Flexibility Score: 60.00
ROOT
ATOM      1  C   UNL     1     101.513 114.769 122.905  1.00  0.00    -0.070 C 
ATOM      2  C   UNL     1     102.201 114.080 123.843  1.00  0.00    -0.027 C 
ATOM      3  C   UNL     1     100.902 113.997 121.762  1.00  0.00     0.039 C 
ENDROOT
BRANCH   2   4
ATOM      4  C   UNL     1     102.746 114.668 125.120  1.00  0.00     0.032 C 
BRANCH   4   5
ATOM      5  C   UNL     1     102.154 113.931 126.327  1.00  0.00     0.034 C 
BRANCH   5   6
ATOM      6  C   UNL     1     100.640 113.964 126.342  1.00  0.00    -0.077 C 
ATOM      7  C   UNL     1      99.889 112.656 126.391  1.00  0.00     0.039 C 
ATOM      8  C   UNL     1      99.912 115.106 126.240  1.00  0.00    -0.023 CG0
ATOM      9  G   UNL     1     100.431 116.531 126.235  1.00  0.00     0.000 G0
ENDBRANCH   5   6
ENDBRANCH   4   5
ENDBRANCH   2   4
BRANCH   1  10
ATOM     10  C   UNL     1     101.342 116.275 122.933  1.00  0.00     0.111 C 
BRANCH  10  11
ATOM     11  C   UNL     1     100.080 116.686 123.652  1.00  0.00     0.163 C 
ATOM     12  O   UNL     1      98.987 116.459 123.067  1.00  0.00    -0.294 OA
BRANCH  11  13
ATOM     13  C   UNL     1     100.066 117.359 124.993  1.00  0.00    -0.002 C 
ATOM     14  C   UNL     1      99.890 118.713 125.090  1.00  0.00    -0.069 C 
ATOM     15  C   UNL     1     100.099 119.457 126.390  1.00  0.00     0.039 C 
ATOM     16  C   UNL     1      99.426 119.535 123.910  1.00  0.00     0.039 C 
BRANCH  13  17
ATOM     17  C   UNL     1     100.430 116.522 126.215  1.00  0.00     0.066 CG0
ATOM     18  G   UNL     1      99.914 115.095 126.237  1.00  0.00     0.000 G0
ENDBRANCH  13  17
ENDBRANCH  11  13
ENDBRANCH  10  11
ENDBRANCH   1  10
TORSDOF 0
ENDMDL
MODEL 4
REMARK VINA RESULT:    -3.878      1.590      2.589
REMARK INTER + INTRA:          -5.597
REMARK INTER:                  -5.621
REMARK INTRA:                   0.024
REMARK UNBOUND:                -0.132
REMARK SMILES CC1=CCC(=C(C)C)C(=O)CC(C)=CCC1
REMARK SMILES IDX 12 1 14 2 13 3 15 4 16 5 2 6 1 7 3 8 11 10 9 11 10 12 5 13
REMARK SMILES IDX 6 14 7 15 8 16 4 17
REMARK H PARENT
REMARK Flexibility Score: 60.00
ROOT
ATOM      1  C   UNL     1     100.995 114.991 126.178  1.00  0.00    -0.070 C 
ATOM      2  C   UNL     1     100.048 115.925 125.934  1.00  0.00    -0.027 C 
ATOM      3  C   UNL     1     100.593 113.754 126.941  1.00  0.00     0.039 C 
ENDROOT
BRANCH   2   4
ATOM      4  C   UNL     1     100.239 117.142 125.065  1.00  0.00     0.032 C 
BRANCH   4   5
ATOM      5  C   UNL     1      99.553 116.928 123.710  1.00  0.00     0.034 C 
BRANCH   5   6
ATOM      6  C   UNL     1     100.544 116.691 122.589  1.00  0.00    -0.077 C 
ATOM      7  C   UNL     1     101.035 117.878 121.796  1.00  0.00     0.039 C 
ATOM      8  C   UNL     1     100.964 115.459 122.206  1.00  0.00    -0.023 CG0
ATOM      9  G   UNL     1     100.659 114.132 122.875  1.00  0.00     0.000 G0
ENDBRANCH   5   6
ENDBRANCH   4   5
ENDBRANCH   2   4
BRANCH   1  10
ATOM     10  C   UNL     1     102.440 115.134 125.741  1.00  0.00     0.111 C 
BRANCH  10  11
ATOM     11  C   UNL     1     102.702 114.444 124.424  1.00  0.00     0.163 C 
ATOM     12  O   UNL     1     103.797 114.696 123.852  1.00  0.00    -0.294 OA
BRANCH  11  13
ATOM     13  C   UNL     1     101.732 113.507 123.766  1.00  0.00    -0.002 C 
ATOM     14  C   UNL     1     101.912 112.152 123.844  1.00  0.00    -0.069 C 
ATOM     15  C   UNL     1     101.100 111.187 123.009  1.00  0.00     0.039 C 
ATOM     16  C   UNL     1     102.901 111.541 124.809  1.00  0.00     0.039 C 
BRANCH  13  17
ATOM     17  C   UNL     1     100.658 114.109 122.867  1.00  0.00     0.066 CG0
ATOM     18  G   UNL     1     100.980 115.448 122.229  1.00  0.00     0.000 G0
ENDBRANCH  13  17
ENDBRANCH  11  13
ENDBRANCH  10  11
ENDBRANCH   1  10
TORSDOF 0
ENDMDL
MODEL 5
REMARK VINA RESULT:    -3.824      8.183     11.210
REMARK INTER + INTRA:          -5.521
REMARK INTER:                  -5.363
REMARK INTRA:                  -0.158
REMARK UNBOUND:                -0.132
REMARK SMILES CC1=CCC(=C(C)C)C(=O)CC(C)=CCC1
REMARK SMILES IDX 12 1 14 2 13 3 15 4 16 5 2 6 1 7 3 8 11 10 9 11 10 12 5 13
REMARK SMILES IDX 6 14 7 15 8 16 4 17
REMARK H PARENT
REMARK Flexibility Score: 60.00
ROOT
ATOM      1  C   UNL     1      99.885 106.937 116.940  1.00  0.00    -0.070 C 
ATOM      2  C   UNL     1     100.167 105.614 116.922  1.00  0.00    -0.027 C 
ATOM      3  C   UNL     1      99.661 107.633 115.622  1.00  0.00     0.039 C 
ENDROOT
BRANCH   2   4
ATOM      4  C   UNL     1     100.272 104.737 118.144  1.00  0.00     0.032 C 
BRANCH   4   5
ATOM      5  C   UNL     1     101.740 104.383 118.407  1.00  0.00     0.034 C 
BRANCH   5   6
ATOM      6  C   UNL     1     102.086 104.400 119.881  1.00  0.00    -0.077 C 
ATOM      7  C   UNL     1     101.862 103.147 120.691  1.00  0.00     0.039 C 
ATOM      8  C   UNL     1     102.521 105.506 120.538  1.00  0.00    -0.023 CG0
ATOM      9  G   UNL     1     102.874 106.854 119.938  1.00  0.00     0.000 G0
ENDBRANCH   5   6
ENDBRANCH   4   5
ENDBRANCH   2   4
BRANCH   1  10
ATOM     10  C   UNL     1      99.802 107.755 118.214  1.00  0.00     0.111 C 
BRANCH  10  11
ATOM     11  C   UNL     1     101.154 108.278 118.637  1.00  0.00     0.163 C 
ATOM     12  O   UNL     1     101.763 109.020 117.820  1.00  0.00    -0.294 OA
BRANCH  11  13
ATOM     13  C   UNL     1     101.804 107.946 119.948  1.00  0.00    -0.002 C 
ATOM     14  C   UNL     1     101.540 108.692 121.064  1.00  0.00    -0.069 C 
ATOM     15  C   UNL     1     102.342 108.541 122.337  1.00  0.00     0.039 C 
ATOM     16  C   UNL     1     100.395 109.679 121.101  1.00  0.00     0.039 C 
BRANCH  13  17
ATOM     17  C   UNL     1     102.893 106.877 119.953  1.00  0.00     0.066 CG0
ATOM     18  G   UNL     1     102.514 105.527 120.531  1.00  0.00     0.000 G0
ENDBRANCH  13  17
ENDBRANCH  11  13
ENDBRANCH  10  11
ENDBRANCH   1  10
TORSDOF 0
ENDMDL
MODEL 6
REMARK VINA RESULT:    -3.812      1.879      5.250
REMARK INTER + INTRA:          -5.504
REMARK INTER:                  -5.834
REMARK INTRA:                   0.331
REMARK UNBOUND:                -0.132
REMARK SMILES CC1=CCC(=C(C)C)C(=O)CC(C)=CCC1
REMARK SMILES IDX 12 1 14 2 13 3 15 4 16 5 2 6 1 7 3 8 11 10 9 11 10 12 5 13
REMARK SMILES IDX 6 14 7 15 8 16 4 17
REMARK H PARENT
REMARK Flexibility Score: 60.00
ROOT
ATOM      1  C   UNL     1     101.901 112.795 123.454  1.00  0.00    -0.070 C 
ATOM      2  C   UNL     1     101.556 112.575 124.743  1.00  0.00    -0.027 C 
ATOM      3  C   UNL     1     103.252 112.313 122.987  1.00  0.00     0.039 C 
ENDROOT
BRANCH   2   4
ATOM      4  C   UNL     1     100.198 112.854 125.334  1.00  0.00     0.032 C 
BRANCH   4   5
ATOM      5  C   UNL     1     100.336 113.801 126.532  1.00  0.00     0.034 C 
BRANCH   5   6
ATOM      6  C   UNL     1     101.286 114.948 126.259  1.00  0.00    -0.077 C 
ATOM      7  C   UNL     1     102.561 115.037 127.061  1.00  0.00     0.039 C 
ATOM      8  C   UNL     1     101.023 115.948 125.380  1.00  0.00    -0.023 CG0
ATOM      9  G   UNL     1      99.848 116.051 124.426  1.00  0.00     0.000 G0
ENDBRANCH   5   6
ENDBRANCH   4   5
ENDBRANCH   2   4
BRANCH   1  10
ATOM     10  C   UNL     1     101.009 113.516 122.463  1.00  0.00     0.111 C 
BRANCH  10  11
ATOM     11  C   UNL     1     101.227 115.010 122.492  1.00  0.00     0.163 C 
ATOM     12  O   UNL     1     102.364 115.430 122.146  1.00  0.00    -0.294 OA
BRANCH  11  13
ATOM     13  C   UNL     1     100.182 115.997 122.924  1.00  0.00    -0.002 C 
ATOM     14  C   UNL     1      99.673 116.904 122.035  1.00  0.00    -0.069 C 
ATOM     15  C   UNL     1      98.800 118.057 122.478  1.00  0.00     0.039 C 
ATOM     16  C   UNL     1      99.915 116.775 120.548  1.00  0.00     0.039 C 
BRANCH  13  17
ATOM     17  C   UNL     1      99.846 116.074 124.409  1.00  0.00     0.066 CG0
ATOM     18  G   UNL     1     101.010 115.960 125.375  1.00  0.00     0.000 G0
ENDBRANCH  13  17
ENDBRANCH  11  13
ENDBRANCH  10  11
ENDBRANCH   1  10
TORSDOF 0
ENDMDL
MODEL 7
REMARK VINA RESULT:    -3.760      2.106      4.359
REMARK INTER + INTRA:          -5.431
REMARK INTER:                  -5.679
REMARK INTRA:                   0.248
REMARK UNBOUND:                -0.132
REMARK SMILES CC1=CCC(=C(C)C)C(=O)CC(C)=CCC1
REMARK SMILES IDX 12 1 14 2 13 3 15 4 16 5 2 6 1 7 3 8 11 10 9 11 10 12 5 13
REMARK SMILES IDX 6 14 7 15 8 16 4 17
REMARK H PARENT
REMARK Flexibility Score: 60.00
ROOT
ATOM      1  C   UNL     1     100.462 116.450 124.830  1.00  0.00    -0.070 C 
ATOM      2  C   UNL     1     100.154 116.013 126.072  1.00  0.00    -0.027 C 
ATOM      3  C   UNL     1      99.803 117.714 124.339  1.00  0.00     0.039 C 
ENDROOT
BRANCH   2   4
ATOM      4  C   UNL     1     100.825 114.859 126.773  1.00  0.00     0.032 C 
BRANCH   4   5
ATOM      5  C   UNL     1     100.280 113.532 126.233  1.00  0.00     0.034 C 
BRANCH   5   6
ATOM      6  C   UNL     1     101.382 112.574 125.829  1.00  0.00    -0.077 C 
ATOM      7  C   UNL     1     102.376 112.134 126.875  1.00  0.00     0.039 C 
ATOM      8  C   UNL     1     101.572 112.140 124.557  1.00  0.00    -0.023 CG0
ATOM      9  G   UNL     1     100.682 112.396 123.355  1.00  0.00     0.000 G0
ENDBRANCH   5   6
ENDBRANCH   4   5
ENDBRANCH   2   4
BRANCH   1  10
ATOM     10  C   UNL     1     101.418 115.726 123.904  1.00  0.00     0.111 C 
BRANCH  10  11
ATOM     11  C   UNL     1     100.687 114.938 122.843  1.00  0.00     0.163 C 
ATOM     12  O   UNL     1      99.690 115.490 122.303  1.00  0.00    -0.294 OA
BRANCH  11  13
ATOM     13  C   UNL     1     101.068 113.548 122.426  1.00  0.00    -0.002 C 
ATOM     14  C   UNL     1     101.593 113.314 121.183  1.00  0.00    -0.069 C 
ATOM     15  C   UNL     1     101.771 111.914 120.639  1.00  0.00     0.039 C 
ATOM     16  C   UNL     1     102.069 114.446 120.302  1.00  0.00     0.039 C 
BRANCH  13  17
ATOM     17  C   UNL     1     100.688 112.396 123.350  1.00  0.00     0.066 CG0
ATOM     18  G   UNL     1     101.594 112.157 124.544  1.00  0.00     0.000 G0
ENDBRANCH  13  17
ENDBRANCH  11  13
ENDBRANCH  10  11
ENDBRANCH   1  10
TORSDOF 0
ENDMDL
MODEL 8
REMARK VINA RESULT:    -3.735      1.586      4.464
REMARK INTER + INTRA:          -5.395
REMARK INTER:                  -5.840
REMARK INTRA:                   0.445
REMARK UNBOUND:                -0.132
REMARK SMILES CC1=CCC(=C(C)C)C(=O)CC(C)=CCC1
REMARK SMILES IDX 12 1 14 2 13 3 15 4 16 5 2 6 1 7 3 8 11 10 9 11 10 12 5 13
REMARK SMILES IDX 6 14 7 15 8 16 4 17
REMARK H PARENT
REMARK Flexibility Score: 60.00
ROOT
ATOM      1  C   UNL     1     101.751 112.344 125.874  1.00  0.00    -0.070 C 
ATOM      2  C   UNL     1     101.701 111.727 124.672  1.00  0.00    -0.027 C 
ATOM      3  C   UNL     1     102.732 111.830 126.897  1.00  0.00     0.039 C 
ENDROOT
BRANCH   2   4
ATOM      4  C   UNL     1     100.891 112.199 123.491  1.00  0.00     0.032 C 
BRANCH   4   5
ATOM      5  C   UNL     1     101.813 112.447 122.292  1.00  0.00     0.034 C 
BRANCH   5   6
ATOM      6  C   UNL     1     102.910 113.445 122.600  1.00  0.00    -0.077 C 
ATOM      7  C   UNL     1     104.345 113.033 122.382  1.00  0.00     0.039 C 
ATOM      8  C   UNL     1     102.680 114.673 123.132  1.00  0.00    -0.023 CG0
ATOM      9  G   UNL     1     101.337 115.330 123.387  1.00  0.00     0.000 G0
ENDBRANCH   5   6
ENDBRANCH   4   5
ENDBRANCH   2   4
BRANCH   1  10
ATOM     10  C   UNL     1     100.858 113.510 126.251  1.00  0.00     0.111 C 
BRANCH  10  11
ATOM     11  C   UNL     1     101.496 114.838 125.922  1.00  0.00     0.163 C 
ATOM     12  O   UNL     1     102.472 115.197 126.634  1.00  0.00    -0.294 OA
BRANCH  11  13
ATOM     13  C   UNL     1     101.020 115.743 124.824  1.00  0.00    -0.002 C 
ATOM     14  C   UNL     1     100.195 116.800 125.103  1.00  0.00    -0.069 C 
ATOM     15  C   UNL     1      99.510 117.590 124.011  1.00  0.00     0.039 C 
ATOM     16  C   UNL     1      99.962 117.267 126.521  1.00  0.00     0.039 C 
BRANCH  13  17
ATOM     17  C   UNL     1     101.333 115.345 123.386  1.00  0.00     0.066 CG0
ATOM     18  G   UNL     1     102.669 114.667 123.146  1.00  0.00     0.000 G0
ENDBRANCH  13  17
ENDBRANCH  11  13
ENDBRANCH  10  11
ENDBRANCH   1  10
TORSDOF 0
ENDMDL
MODEL 9
REMARK VINA RESULT:    -3.520      7.524     10.312
REMARK INTER + INTRA:          -5.093
REMARK INTER:                  -5.021
REMARK INTRA:                  -0.072
REMARK UNBOUND:                -0.132
REMARK SMILES CC1=CCC(=C(C)C)C(=O)CC(C)=CCC1
REMARK SMILES IDX 12 1 14 2 13 3 15 4 16 5 2 6 1 7 3 8 11 10 9 11 10 12 5 13
REMARK SMILES IDX 6 14 7 15 8 16 4 17
REMARK H PARENT
REMARK Flexibility Score: 60.00
ROOT
ATOM      1  C   UNL     1     101.572 105.175 119.116  1.00  0.00    -0.070 C 
ATOM      2  C   UNL     1     100.827 104.956 118.009  1.00  0.00    -0.027 C 
ATOM      3  C   UNL     1     101.694 104.058 120.122  1.00  0.00     0.039 C 
ENDROOT
BRANCH   2   4
ATOM      4  C   UNL     1     100.720 105.902 116.840  1.00  0.00     0.032 C 
BRANCH   4   5
ATOM      5  C   UNL     1      99.577 106.895 117.076  1.00  0.00     0.034 C 
BRANCH   5   6
ATOM      6  C   UNL     1      99.970 108.321 116.750  1.00  0.00    -0.077 C 
ATOM      7  C   UNL     1     100.208 108.693 115.307  1.00  0.00     0.039 C 
ATOM      8  C   UNL     1     100.194 109.273 117.691  1.00  0.00    -0.023 CG0
ATOM      9  G   UNL     1      99.970 109.159 119.187  1.00  0.00     0.000 G0
ENDBRANCH   5   6
ENDBRANCH   4   5
ENDBRANCH   2   4
BRANCH   1  10
ATOM     10  C   UNL     1     102.271 106.489 119.405  1.00  0.00     0.111 C 
BRANCH  10  11
ATOM     11  C   UNL     1     101.462 107.367 120.329  1.00  0.00     0.163 C 
ATOM     12  O   UNL     1     100.996 106.829 121.370  1.00  0.00    -0.294 OA
BRANCH  11  13
ATOM     13  C   UNL     1     101.173 108.815 120.063  1.00  0.00    -0.002 C 
ATOM     14  C   UNL     1     101.877 109.795 120.708  1.00  0.00    -0.069 C 
ATOM     15  C   UNL     1     101.467 111.249 120.647  1.00  0.00     0.039 C 
ATOM     16  C   UNL     1     103.139 109.482 121.480  1.00  0.00     0.039 C 
BRANCH  13  17
ATOM     17  C   UNL     1      99.962 109.153 119.200  1.00  0.00     0.066 CG0
ATOM     18  G   UNL     1     100.208 109.285 117.708  1.00  0.00     0.000 G0
ENDBRANCH  13  17
ENDBRANCH  11  13
ENDBRANCH  10  11
ENDBRANCH   1  10
TORSDOF 0
ENDMDL
