MODEL 1
REMARK VINA RESULT:   -10.880      0.000      0.000
REMARK INTER + INTRA:         -19.169
REMARK INTER:                 -17.877
REMARK INTRA:                  -1.292
REMARK UNBOUND:                -1.292
REMARK SMILES COc1ccc([C@H]2CC(=O)c3c(O)cc(O[C@@H]4O[C@H](CO[C@@H]5O[C@H](C)[C@@H](O)[C@H](O)[C@H]5O)[C@@H](O)[C@@H](O)[C@@H]4O)cc3O2)cc1O
REMARK SMILES IDX 19 1 32 2 34 3 36 4 17 5 18 6 20 7 21 8 22 9 25 10 24 11
REMARK SMILES IDX 26 12 23 13 28 14 30 15 27 16 29 18 31 20 33 22 35 24 16 26
REMARK SMILES IDX 15 27 14 28 38 29 12 30 39 31 11 32 40 33 9 34 7 35 10 36
REMARK SMILES IDX 8 37 13 38 6 40 41 41 5 42 42 43 4 44 3 45 43 46 2 48 1 49
REMARK SMILES IDX 37 50
REMARK H PARENT 27 17 29 19 31 21 33 23 35 25 13 39 43 47 37 51
REMARK Flexibility Score: inf
ROOT
ATOM      1  C   UNL     1      41.756 -10.081 -40.846  1.00  0.00     0.180 C 
ATOM      2  C   UNL     1      41.130  -9.339 -39.619  1.00  0.00     0.177 C 
ATOM      3  C   UNL     1      42.228  -8.696 -38.760  1.00  0.00     0.180 C 
ATOM      4  C   UNL     1      43.359  -9.700 -38.410  1.00  0.00     0.214 C 
ATOM      5  C   UNL     1      43.256 -11.009 -39.234  1.00  0.00     0.339 C 
ATOM      6  O   UNL     1      42.981 -10.775 -40.604  1.00  0.00    -0.332 OA
ENDROOT
BRANCH   1   7
ATOM      7  C   UNL     1      41.996  -9.107 -42.012  1.00  0.00     0.198 C 
BRANCH   7   8
ATOM      8  O   UNL     1      40.780  -8.914 -42.717  1.00  0.00    -0.347 OA
BRANCH   8   9
ATOM      9  C   UNL     1      40.620  -9.797 -43.816  1.00  0.00     0.281 C 
ATOM     10  C   UNL     1      38.602 -12.814 -44.202  1.00  0.00     0.041 C 
ATOM     11  C   UNL     1      39.663 -11.774 -44.560  1.00  0.00     0.150 C 
ATOM     12  C   UNL     1      40.987 -12.455 -45.022  1.00  0.00     0.174 C 
ATOM     13  O   UNL     1      39.885 -10.950 -43.432  1.00  0.00    -0.344 OA
ATOM     14  C   UNL     1      42.236 -11.666 -44.553  1.00  0.00     0.179 C 
ATOM     15  C   UNL     1      41.979 -10.140 -44.510  1.00  0.00     0.202 C 
BRANCH  12  16
ATOM     16  O   UNL     1      41.004 -12.563 -46.423  1.00  0.00    -0.388 OA
ATOM     17  H   UNL     1      41.398 -13.450 -46.638  1.00  0.00     0.211 HD
ENDBRANCH  12  16
BRANCH  14  18
ATOM     18  O   UNL     1      42.615 -12.105 -43.270  1.00  0.00    -0.387 OA
ATOM     19  H   UNL     1      42.859 -13.064 -43.344  1.00  0.00     0.211 HD
ENDBRANCH  14  18
BRANCH  15  20
ATOM     20  O   UNL     1      42.031  -9.589 -45.805  1.00  0.00    -0.385 OA
ATOM     21  H   UNL     1      42.943  -9.226 -45.949  1.00  0.00     0.211 HD
ENDBRANCH  15  20
ENDBRANCH   8   9
ENDBRANCH   7   8
ENDBRANCH   1   7
BRANCH   2  22
ATOM     22  O   UNL     1      40.385 -10.240 -38.835  1.00  0.00    -0.387 OA
ATOM     23  H   UNL     1      39.527  -9.785 -38.616  1.00  0.00     0.211 HD
ENDBRANCH   2  22
BRANCH   3  24
ATOM     24  O   UNL     1      41.656  -8.173 -37.588  1.00  0.00    -0.387 OA
ATOM     25  H   UNL     1      41.057  -8.873 -37.224  1.00  0.00     0.211 HD
ENDBRANCH   3  24
BRANCH   5  26
ATOM     26  O   UNL     1      44.442 -11.803 -39.081  1.00  0.00    -0.462 OA
BRANCH  26  27
ATOM     27  C   UNL     1      44.963 -12.361 -37.895  1.00  0.00     0.130 A 
ATOM     28  C   UNL     1      46.297 -12.775 -37.903  1.00  0.00     0.093 A 
ATOM     29  C   UNL     1      44.219 -12.513 -36.715  1.00  0.00     0.094 A 
ATOM     30  C   UNL     1      46.898 -13.335 -36.765  1.00  0.00     0.133 A 
ATOM     31  C   UNL     1      44.804 -13.036 -35.562  1.00  0.00     0.138 A 
ATOM     32  C   UNL     1      46.157 -13.436 -35.555  1.00  0.00     0.102 A 
ATOM     33  O   UNL     1      44.017 -13.144 -34.408  1.00  0.00    -0.484 OA
ATOM     34  C   UNL     1      46.726 -13.861 -34.242  1.00  0.00     0.174 C 
ATOM     35  C   UNL     1      44.405 -13.928 -33.280  1.00  0.00     0.211 C 
ATOM     36  O   UNL     1      47.914 -14.260 -34.129  1.00  0.00    -0.294 OA
ATOM     37  C   UNL     1      45.901 -13.720 -32.992  1.00  0.00     0.131 C 
BRANCH  30  38
ATOM     38  O   UNL     1      48.217 -13.774 -36.907  1.00  0.00    -0.507 OA
ATOM     39  H   UNL     1      48.523 -14.729 -36.796  1.00  0.00     0.293 HD
ENDBRANCH  30  38
BRANCH  35  40
ATOM     40  C   UNL     1      43.957 -15.368 -33.490  1.00  0.00    -0.003 A 
ATOM     41  C   UNL     1      43.341 -15.833 -34.672  1.00  0.00     0.057 A 
ATOM     42  C   UNL     1      44.188 -16.286 -32.452  1.00  0.00     0.011 A 
ATOM     43  C   UNL     1      42.993 -17.183 -34.818  1.00  0.00     0.158 A 
ATOM     44  C   UNL     1      43.841 -17.630 -32.592  1.00  0.00     0.051 A 
ATOM     45  C   UNL     1      43.248 -18.096 -33.780  1.00  0.00     0.160 A 
BRANCH  43  46
ATOM     46  O   UNL     1      42.401 -17.596 -36.012  1.00  0.00    -0.504 OA
ATOM     47  H   UNL     1      42.223 -18.573 -36.216  1.00  0.00     0.293 HD
ENDBRANCH  43  46
BRANCH  45  48
ATOM     48  O   UNL     1      42.902 -19.445 -33.963  1.00  0.00    -0.493 OA
ATOM     49  C   UNL     1      41.624 -19.995 -33.663  1.00  0.00     0.278 C 
ENDBRANCH  45  48
ENDBRANCH  35  40
ENDBRANCH  26  27
ENDBRANCH   5  26
BRANCH   4  50
ATOM     50  O   UNL     1      44.606  -9.087 -38.611  1.00  0.00    -0.384 OA
ATOM     51  H   UNL     1      44.803  -9.140 -39.582  1.00  0.00     0.211 HD
ENDBRANCH   4  50
TORSDOF 15
ENDMDL
MODEL 2
REMARK VINA RESULT:   -10.480     10.264     14.258
REMARK INTER + INTRA:         -18.511
REMARK INTER:                 -15.942
REMARK INTRA:                  -2.569
REMARK UNBOUND:                -1.292
REMARK SMILES COc1ccc([C@H]2CC(=O)c3c(O)cc(O[C@@H]4O[C@H](CO[C@@H]5O[C@H](C)[C@@H](O)[C@H](O)[C@H]5O)[C@@H](O)[C@@H](O)[C@@H]4O)cc3O2)cc1O
REMARK SMILES IDX 19 1 32 2 34 3 36 4 17 5 18 6 20 7 21 8 22 9 25 10 24 11
REMARK SMILES IDX 26 12 23 13 28 14 30 15 27 16 29 18 31 20 33 22 35 24 16 26
REMARK SMILES IDX 15 27 14 28 38 29 12 30 39 31 11 32 40 33 9 34 7 35 10 36
REMARK SMILES IDX 8 37 13 38 6 40 41 41 5 42 42 43 4 44 3 45 43 46 2 48 1 49
REMARK SMILES IDX 37 50
REMARK H PARENT 27 17 29 19 31 21 33 23 35 25 13 39 43 47 37 51
REMARK Flexibility Score: inf
ROOT
ATOM      1  C   UNL     1      38.826 -22.289 -30.680  1.00  0.00     0.180 C 
ATOM      2  C   UNL     1      39.909 -21.268 -30.198  1.00  0.00     0.177 C 
ATOM      3  C   UNL     1      40.251 -20.275 -31.318  1.00  0.00     0.180 C 
ATOM      4  C   UNL     1      40.577 -20.992 -32.655  1.00  0.00     0.214 C 
ATOM      5  C   UNL     1      40.208 -22.497 -32.618  1.00  0.00     0.339 C 
ATOM      6  O   UNL     1      38.940 -22.737 -32.031  1.00  0.00    -0.332 OA
ENDROOT
BRANCH   1   7
ATOM      7  C   UNL     1      37.411 -21.712 -30.500  1.00  0.00     0.198 C 
BRANCH   7   8
ATOM      8  O   UNL     1      36.601 -22.113 -31.594  1.00  0.00    -0.347 OA
BRANCH   8   9
ATOM      9  C   UNL     1      35.627 -21.148 -31.957  1.00  0.00     0.281 C 
ATOM     10  C   UNL     1      33.806 -20.628 -35.078  1.00  0.00     0.041 C 
ATOM     11  C   UNL     1      34.315 -20.305 -33.673  1.00  0.00     0.150 C 
ATOM     12  C   UNL     1      34.819 -18.832 -33.581  1.00  0.00     0.174 C 
ATOM     13  O   UNL     1      35.349 -21.214 -33.349  1.00  0.00    -0.344 OA
ATOM     14  C   UNL     1      36.050 -18.701 -32.649  1.00  0.00     0.179 C 
ATOM     15  C   UNL     1      36.003 -19.708 -31.475  1.00  0.00     0.202 C 
BRANCH  12  16
ATOM     16  O   UNL     1      33.786 -18.004 -33.108  1.00  0.00    -0.388 OA
ATOM     17  H   UNL     1      33.096 -18.602 -32.716  1.00  0.00     0.211 HD
ENDBRANCH  12  16
BRANCH  14  18
ATOM     18  O   UNL     1      37.226 -18.915 -33.392  1.00  0.00    -0.387 OA
ATOM     19  H   UNL     1      37.041 -19.643 -34.040  1.00  0.00     0.211 HD
ENDBRANCH  14  18
BRANCH  15  20
ATOM     20  O   UNL     1      35.113 -19.268 -30.476  1.00  0.00    -0.385 OA
ATOM     21  H   UNL     1      34.410 -18.720 -30.911  1.00  0.00     0.211 HD
ENDBRANCH  15  20
ENDBRANCH   8   9
ENDBRANCH   7   8
ENDBRANCH   1   7
BRANCH   2  22
ATOM     22  O   UNL     1      41.075 -21.949 -29.800  1.00  0.00    -0.387 OA
ATOM     23  H   UNL     1      41.112 -21.896 -28.807  1.00  0.00     0.211 HD
ENDBRANCH   2  22
BRANCH   3  24
ATOM     24  O   UNL     1      41.332 -19.472 -30.915  1.00  0.00    -0.387 OA
ATOM     25  H   UNL     1      40.948 -18.700 -30.425  1.00  0.00     0.211 HD
ENDBRANCH   3  24
BRANCH   5  26
ATOM     26  O   UNL     1      40.277 -23.072 -33.932  1.00  0.00    -0.462 OA
BRANCH  26  27
ATOM     27  C   UNL     1      39.218 -23.589 -34.707  1.00  0.00     0.130 A 
ATOM     28  C   UNL     1      39.151 -24.973 -34.875  1.00  0.00     0.093 A 
ATOM     29  C   UNL     1      38.232 -22.791 -35.306  1.00  0.00     0.094 A 
ATOM     30  C   UNL     1      38.128 -25.573 -35.625  1.00  0.00     0.133 A 
ATOM     31  C   UNL     1      37.186 -23.366 -36.028  1.00  0.00     0.138 A 
ATOM     32  C   UNL     1      37.099 -24.765 -36.185  1.00  0.00     0.102 A 
ATOM     33  O   UNL     1      36.219 -22.520 -36.586  1.00  0.00    -0.484 OA
ATOM     34  C   UNL     1      35.878 -25.292 -36.862  1.00  0.00     0.174 C 
ATOM     35  C   UNL     1      35.293 -22.955 -37.581  1.00  0.00     0.211 C 
ATOM     36  O   UNL     1      35.712 -26.521 -37.075  1.00  0.00    -0.294 OA
ATOM     37  C   UNL     1      34.760 -24.351 -37.218  1.00  0.00     0.131 C 
BRANCH  30  38
ATOM     38  O   UNL     1      38.199 -26.961 -35.783  1.00  0.00    -0.507 OA
ATOM     39  H   UNL     1      38.354 -27.619 -35.035  1.00  0.00     0.293 HD
ENDBRANCH  30  38
BRANCH  35  40
ATOM     40  C   UNL     1      35.931 -22.819 -38.957  1.00  0.00    -0.003 A 
ATOM     41  C   UNL     1      37.067 -22.023 -39.218  1.00  0.00     0.057 A 
ATOM     42  C   UNL     1      35.363 -23.543 -40.018  1.00  0.00     0.011 A 
ATOM     43  C   UNL     1      37.632 -21.977 -40.500  1.00  0.00     0.158 A 
ATOM     44  C   UNL     1      35.920 -23.497 -41.297  1.00  0.00     0.051 A 
ATOM     45  C   UNL     1      37.067 -22.721 -41.551  1.00  0.00     0.160 A 
BRANCH  43  46
ATOM     46  O   UNL     1      38.764 -21.188 -40.705  1.00  0.00    -0.504 OA
ATOM     47  H   UNL     1      39.224 -21.126 -41.606  1.00  0.00     0.293 HD
ENDBRANCH  43  46
BRANCH  45  48
ATOM     48  O   UNL     1      37.664 -22.665 -42.820  1.00  0.00    -0.493 OA
ATOM     49  C   UNL     1      38.455 -23.706 -43.384  1.00  0.00     0.278 C 
ENDBRANCH  45  48
ENDBRANCH  35  40
ENDBRANCH  26  27
ENDBRANCH   5  26
BRANCH   4  50
ATOM     50  O   UNL     1      39.907 -20.345 -33.707  1.00  0.00    -0.384 OA
ATOM     51  H   UNL     1      38.965 -20.222 -33.419  1.00  0.00     0.211 HD
ENDBRANCH   4  50
TORSDOF 15
ENDMDL
MODEL 3
REMARK VINA RESULT:    -9.984      1.223      2.029
REMARK INTER + INTRA:         -17.696
REMARK INTER:                 -16.259
REMARK INTRA:                  -1.437
REMARK UNBOUND:                -1.292
REMARK SMILES COc1ccc([C@H]2CC(=O)c3c(O)cc(O[C@@H]4O[C@H](CO[C@@H]5O[C@H](C)[C@@H](O)[C@H](O)[C@H]5O)[C@@H](O)[C@@H](O)[C@@H]4O)cc3O2)cc1O
REMARK SMILES IDX 19 1 32 2 34 3 36 4 17 5 18 6 20 7 21 8 22 9 25 10 24 11
REMARK SMILES IDX 26 12 23 13 28 14 30 15 27 16 29 18 31 20 33 22 35 24 16 26
REMARK SMILES IDX 15 27 14 28 38 29 12 30 39 31 11 32 40 33 9 34 7 35 10 36
REMARK SMILES IDX 8 37 13 38 6 40 41 41 5 42 42 43 4 44 3 45 43 46 2 48 1 49
REMARK SMILES IDX 37 50
REMARK H PARENT 27 17 29 19 31 21 33 23 35 25 13 39 43 47 37 51
REMARK Flexibility Score: inf
ROOT
ATOM      1  C   UNL     1      43.485 -11.767 -41.303  1.00  0.00     0.180 C 
ATOM      2  C   UNL     1      42.597 -10.744 -40.520  1.00  0.00     0.177 C 
ATOM      3  C   UNL     1      43.467  -9.658 -39.873  1.00  0.00     0.180 C 
ATOM      4  C   UNL     1      44.644 -10.259 -39.059  1.00  0.00     0.214 C 
ATOM      5  C   UNL     1      44.824 -11.776 -39.323  1.00  0.00     0.339 C 
ATOM      6  O   UNL     1      44.733 -12.108 -40.699  1.00  0.00    -0.332 OA
ENDROOT
BRANCH   1   7
ATOM      7  C   UNL     1      43.780 -11.260 -42.725  1.00  0.00     0.198 C 
BRANCH   7   8
ATOM      8  O   UNL     1      43.082 -12.065 -43.661  1.00  0.00    -0.347 OA
BRANCH   8   9
ATOM      9  C   UNL     1      42.122 -11.345 -44.418  1.00  0.00     0.281 C 
ATOM     10  C   UNL     1      40.868  -7.933 -44.085  1.00  0.00     0.041 C 
ATOM     11  C   UNL     1      40.920  -9.370 -44.601  1.00  0.00     0.150 C 
ATOM     12  C   UNL     1      39.502 -10.019 -44.605  1.00  0.00     0.174 C 
ATOM     13  O   UNL     1      41.812 -10.109 -43.789  1.00  0.00    -0.344 OA
ATOM     14  C   UNL     1      39.556 -11.524 -44.240  1.00  0.00     0.179 C 
ATOM     15  C   UNL     1      40.854 -12.201 -44.744  1.00  0.00     0.202 C 
BRANCH  12  16
ATOM     16  O   UNL     1      38.912  -9.869 -45.872  1.00  0.00    -0.388 OA
ATOM     17  H   UNL     1      38.032  -9.431 -45.728  1.00  0.00     0.211 HD
ENDBRANCH  12  16
BRANCH  14  18
ATOM     18  O   UNL     1      39.473 -11.672 -42.842  1.00  0.00    -0.387 OA
ATOM     19  H   UNL     1      38.528 -11.516 -42.583  1.00  0.00     0.211 HD
ENDBRANCH  14  18
BRANCH  15  20
ATOM     20  O   UNL     1      40.774 -12.467 -46.124  1.00  0.00    -0.385 OA
ATOM     21  H   UNL     1      41.642 -12.222 -46.536  1.00  0.00     0.211 HD
ENDBRANCH  15  20
ENDBRANCH   8   9
ENDBRANCH   7   8
ENDBRANCH   1   7
BRANCH   2  22
ATOM     22  O   UNL     1      41.855 -11.408 -39.525  1.00  0.00    -0.387 OA
ATOM     23  H   UNL     1      42.296 -12.288 -39.379  1.00  0.00     0.211 HD
ENDBRANCH   2  22
BRANCH   3  24
ATOM     24  O   UNL     1      42.666  -8.846 -39.051  1.00  0.00    -0.387 OA
ATOM     25  H   UNL     1      41.836  -9.355 -38.868  1.00  0.00     0.211 HD
ENDBRANCH   3  24
BRANCH   5  26
ATOM     26  O   UNL     1      46.060 -12.248 -38.767  1.00  0.00    -0.462 OA
BRANCH  26  27
ATOM     27  C   UNL     1      46.279 -12.790 -37.483  1.00  0.00     0.130 A 
ATOM     28  C   UNL     1      47.538 -13.329 -37.211  1.00  0.00     0.093 A 
ATOM     29  C   UNL     1      45.308 -12.807 -36.469  1.00  0.00     0.094 A 
ATOM     30  C   UNL     1      47.845 -13.882 -35.958  1.00  0.00     0.133 A 
ATOM     31  C   UNL     1      45.600 -13.321 -35.206  1.00  0.00     0.138 A 
ATOM     32  C   UNL     1      46.876 -13.847 -34.917  1.00  0.00     0.102 A 
ATOM     33  O   UNL     1      44.597 -13.291 -34.229  1.00  0.00    -0.484 OA
ATOM     34  C   UNL     1      47.132 -14.254 -33.504  1.00  0.00     0.174 C 
ATOM     35  C   UNL     1      44.674 -14.048 -33.021  1.00  0.00     0.211 C 
ATOM     36  O   UNL     1      48.227 -14.758 -33.143  1.00  0.00    -0.294 OA
ATOM     37  C   UNL     1      46.099 -13.969 -32.448  1.00  0.00     0.131 C 
BRANCH  30  38
ATOM     38  O   UNL     1      49.114 -14.452 -35.820  1.00  0.00    -0.507 OA
ATOM     39  H   UNL     1      49.407 -15.026 -35.044  1.00  0.00     0.293 HD
ENDBRANCH  30  38
BRANCH  35  40
ATOM     40  C   UNL     1      44.128 -15.448 -33.268  1.00  0.00    -0.003 A 
ATOM     41  C   UNL     1      43.483 -15.838 -34.461  1.00  0.00     0.057 A 
ATOM     42  C   UNL     1      44.293 -16.405 -32.253  1.00  0.00     0.011 A 
ATOM     43  C   UNL     1      43.044 -17.157 -34.642  1.00  0.00     0.158 A 
ATOM     44  C   UNL     1      43.854 -17.718 -32.428  1.00  0.00     0.051 A 
ATOM     45  C   UNL     1      43.232 -18.112 -33.628  1.00  0.00     0.160 A 
BRANCH  43  46
ATOM     46  O   UNL     1      42.427 -17.498 -35.846  1.00  0.00    -0.504 OA
ATOM     47  H   UNL     1      42.513 -18.422 -36.253  1.00  0.00     0.293 HD
ENDBRANCH  43  46
BRANCH  45  48
ATOM     48  O   UNL     1      42.794 -19.428 -33.844  1.00  0.00    -0.493 OA
ATOM     49  C   UNL     1      41.563 -19.956 -33.363  1.00  0.00     0.278 C 
ENDBRANCH  45  48
ENDBRANCH  35  40
ENDBRANCH  26  27
ENDBRANCH   5  26
BRANCH   4  50
ATOM     50  O   UNL     1      45.825  -9.561 -39.361  1.00  0.00    -0.384 OA
ATOM     51  H   UNL     1      45.848  -8.762 -38.774  1.00  0.00     0.211 HD
ENDBRANCH   4  50
TORSDOF 15
ENDMDL
MODEL 4
REMARK VINA RESULT:    -9.771      8.828     12.850
REMARK INTER + INTRA:         -17.346
REMARK INTER:                 -14.348
REMARK INTRA:                  -2.999
REMARK UNBOUND:                -1.292
REMARK SMILES COc1ccc([C@H]2CC(=O)c3c(O)cc(O[C@@H]4O[C@H](CO[C@@H]5O[C@H](C)[C@@H](O)[C@H](O)[C@H]5O)[C@@H](O)[C@@H](O)[C@@H]4O)cc3O2)cc1O
REMARK SMILES IDX 19 1 32 2 34 3 36 4 17 5 18 6 20 7 21 8 22 9 25 10 24 11
REMARK SMILES IDX 26 12 23 13 28 14 30 15 27 16 29 18 31 20 33 22 35 24 16 26
REMARK SMILES IDX 15 27 14 28 38 29 12 30 39 31 11 32 40 33 9 34 7 35 10 36
REMARK SMILES IDX 8 37 13 38 6 40 41 41 5 42 42 43 4 44 3 45 43 46 2 48 1 49
REMARK SMILES IDX 37 50
REMARK H PARENT 27 17 29 19 31 21 33 23 35 25 13 39 43 47 37 51
REMARK Flexibility Score: inf
ROOT
ATOM      1  C   UNL     1      38.625 -20.136 -41.407  1.00  0.00     0.180 C 
ATOM      2  C   UNL     1      39.157 -19.853 -42.851  1.00  0.00     0.177 C 
ATOM      3  C   UNL     1      38.055 -20.099 -43.891  1.00  0.00     0.180 C 
ATOM      4  C   UNL     1      37.374 -21.481 -43.705  1.00  0.00     0.214 C 
ATOM      5  C   UNL     1      37.765 -22.152 -42.363  1.00  0.00     0.339 C 
ATOM      6  O   UNL     1      37.739 -21.249 -41.270  1.00  0.00    -0.332 OA
ENDROOT
BRANCH   1   7
ATOM      7  C   UNL     1      37.910 -18.900 -40.834  1.00  0.00     0.198 C 
BRANCH   7   8
ATOM      8  O   UNL     1      36.590 -19.257 -40.459  1.00  0.00    -0.347 OA
BRANCH   8   9
ATOM      9  C   UNL     1      36.329 -19.075 -39.076  1.00  0.00     0.281 C 
ATOM     10  C   UNL     1      38.357 -17.602 -36.421  1.00  0.00     0.041 C 
ATOM     11  C   UNL     1      37.196 -18.380 -37.040  1.00  0.00     0.150 C 
ATOM     12  C   UNL     1      36.930 -19.707 -36.266  1.00  0.00     0.174 C 
ATOM     13  O   UNL     1      37.499 -18.638 -38.397  1.00  0.00    -0.344 OA
ATOM     14  C   UNL     1      36.500 -20.853 -37.217  1.00  0.00     0.179 C 
ATOM     15  C   UNL     1      35.675 -20.335 -38.420  1.00  0.00     0.202 C 
BRANCH  12  16
ATOM     16  O   UNL     1      35.929 -19.503 -35.301  1.00  0.00    -0.388 OA
ATOM     17  H   UNL     1      35.577 -18.585 -35.441  1.00  0.00     0.211 HD
ENDBRANCH  12  16
BRANCH  14  18
ATOM     18  O   UNL     1      37.644 -21.519 -37.696  1.00  0.00    -0.387 OA
ATOM     19  H   UNL     1      37.335 -22.245 -38.297  1.00  0.00     0.211 HD
ENDBRANCH  14  18
BRANCH  15  20
ATOM     20  O   UNL     1      34.348 -20.064 -38.034  1.00  0.00    -0.385 OA
ATOM     21  H   UNL     1      33.749 -20.668 -38.544  1.00  0.00     0.211 HD
ENDBRANCH  15  20
ENDBRANCH   8   9
ENDBRANCH   7   8
ENDBRANCH   1   7
BRANCH   2  22
ATOM     22  O   UNL     1      40.262 -20.679 -43.132  1.00  0.00    -0.387 OA
ATOM     23  H   UNL     1      39.910 -21.471 -43.620  1.00  0.00     0.211 HD
ENDBRANCH   2  22
BRANCH   3  24
ATOM     24  O   UNL     1      38.600 -19.990 -45.182  1.00  0.00    -0.387 OA
ATOM     25  H   UNL     1      39.114 -19.143 -45.205  1.00  0.00     0.211 HD
ENDBRANCH   3  24
BRANCH   5  26
ATOM     26  O   UNL     1      36.935 -23.292 -42.100  1.00  0.00    -0.462 OA
BRANCH  26  27
ATOM     27  C   UNL     1      36.394 -23.702 -40.864  1.00  0.00     0.130 A 
ATOM     28  C   UNL     1      35.150 -23.186 -40.495  1.00  0.00     0.093 A 
ATOM     29  C   UNL     1      37.032 -24.602 -39.995  1.00  0.00     0.094 A 
ATOM     30  C   UNL     1      34.536 -23.546 -39.286  1.00  0.00     0.133 A 
ATOM     31  C   UNL     1      36.426 -24.999 -38.804  1.00  0.00     0.138 A 
ATOM     32  C   UNL     1      35.160 -24.499 -38.435  1.00  0.00     0.102 A 
ATOM     33  O   UNL     1      37.102 -25.915 -37.988  1.00  0.00    -0.484 OA
ATOM     34  C   UNL     1      34.538 -25.081 -37.209  1.00  0.00     0.174 C 
ATOM     35  C   UNL     1      36.734 -26.158 -36.630  1.00  0.00     0.211 C 
ATOM     36  O   UNL     1      33.423 -24.689 -36.777  1.00  0.00    -0.294 OA
ATOM     37  C   UNL     1      35.203 -26.237 -36.514  1.00  0.00     0.131 C 
BRANCH  30  38
ATOM     38  O   UNL     1      33.322 -22.916 -38.990  1.00  0.00    -0.507 OA
ATOM     39  H   UNL     1      32.423 -23.371 -38.985  1.00  0.00     0.293 HD
ENDBRANCH  30  38
BRANCH  35  40
ATOM     40  C   UNL     1      37.423 -25.140 -35.732  1.00  0.00    -0.003 A 
ATOM     41  C   UNL     1      36.789 -23.984 -35.228  1.00  0.00     0.057 A 
ATOM     42  C   UNL     1      38.760 -25.379 -35.373  1.00  0.00     0.011 A 
ATOM     43  C   UNL     1      37.467 -23.109 -34.368  1.00  0.00     0.158 A 
ATOM     44  C   UNL     1      39.440 -24.510 -34.519  1.00  0.00     0.051 A 
ATOM     45  C   UNL     1      38.799 -23.369 -33.999  1.00  0.00     0.160 A 
BRANCH  43  46
ATOM     46  O   UNL     1      36.792 -21.989 -33.883  1.00  0.00    -0.504 OA
ATOM     47  H   UNL     1      37.252 -21.095 -33.757  1.00  0.00     0.293 HD
ENDBRANCH  43  46
BRANCH  45  48
ATOM     48  O   UNL     1      39.446 -22.483 -33.124  1.00  0.00    -0.493 OA
ATOM     49  C   UNL     1      40.859 -22.340 -33.024  1.00  0.00     0.278 C 
ENDBRANCH  45  48
ENDBRANCH  35  40
ENDBRANCH  26  27
ENDBRANCH   5  26
BRANCH   4  50
ATOM     50  O   UNL     1      35.980 -21.330 -43.793  1.00  0.00    -0.384 OA
ATOM     51  H   UNL     1      35.765 -21.175 -44.749  1.00  0.00     0.211 HD
ENDBRANCH   4  50
TORSDOF 15
ENDMDL
MODEL 5
REMARK VINA RESULT:    -9.756      8.507     11.236
REMARK INTER + INTRA:         -17.321
REMARK INTER:                 -15.733
REMARK INTRA:                  -1.589
REMARK UNBOUND:                -1.292
REMARK SMILES COc1ccc([C@H]2CC(=O)c3c(O)cc(O[C@@H]4O[C@H](CO[C@@H]5O[C@H](C)[C@@H](O)[C@H](O)[C@H]5O)[C@@H](O)[C@@H](O)[C@@H]4O)cc3O2)cc1O
REMARK SMILES IDX 19 1 32 2 34 3 36 4 17 5 18 6 20 7 21 8 22 9 25 10 24 11
REMARK SMILES IDX 26 12 23 13 28 14 30 15 27 16 29 18 31 20 33 22 35 24 16 26
REMARK SMILES IDX 15 27 14 28 38 29 12 30 39 31 11 32 40 33 9 34 7 35 10 36
REMARK SMILES IDX 8 37 13 38 6 40 41 41 5 42 42 43 4 44 3 45 43 46 2 48 1 49
REMARK SMILES IDX 37 50
REMARK H PARENT 27 17 29 19 31 21 33 23 35 25 13 39 43 47 37 51
REMARK Flexibility Score: inf
ROOT
ATOM      1  C   UNL     1      34.524 -18.945 -43.354  1.00  0.00     0.180 C 
ATOM      2  C   UNL     1      34.933 -17.435 -43.328  1.00  0.00     0.177 C 
ATOM      3  C   UNL     1      36.460 -17.288 -43.370  1.00  0.00     0.180 C 
ATOM      4  C   UNL     1      37.161 -18.174 -42.305  1.00  0.00     0.214 C 
ATOM      5  C   UNL     1      36.189 -19.192 -41.657  1.00  0.00     0.339 C 
ATOM      6  O   UNL     1      35.354 -19.834 -42.606  1.00  0.00    -0.332 OA
ENDROOT
BRANCH   1   7
ATOM      7  C   UNL     1      34.461 -19.471 -44.798  1.00  0.00     0.198 C 
BRANCH   7   8
ATOM      8  O   UNL     1      35.745 -19.361 -45.391  1.00  0.00    -0.347 OA
BRANCH   8   9
ATOM      9  C   UNL     1      36.387 -20.611 -45.582  1.00  0.00     0.281 C 
ATOM     10  C   UNL     1      39.573 -21.892 -44.342  1.00  0.00     0.041 C 
ATOM     11  C   UNL     1      38.303 -21.859 -45.191  1.00  0.00     0.150 C 
ATOM     12  C   UNL     1      38.613 -22.189 -46.683  1.00  0.00     0.174 C 
ATOM     13  O   UNL     1      37.712 -20.580 -45.069  1.00  0.00    -0.344 OA
ATOM     14  C   UNL     1      37.725 -21.368 -47.652  1.00  0.00     0.179 C 
ATOM     15  C   UNL     1      36.317 -21.098 -47.067  1.00  0.00     0.202 C 
BRANCH  12  16
ATOM     16  O   UNL     1      38.415 -23.560 -46.919  1.00  0.00    -0.388 OA
ATOM     17  H   UNL     1      39.227 -24.028 -46.591  1.00  0.00     0.211 HD
ENDBRANCH  12  16
BRANCH  14  18
ATOM     18  O   UNL     1      38.349 -20.138 -47.934  1.00  0.00    -0.387 OA
ATOM     19  H   UNL     1      37.827 -19.429 -47.479  1.00  0.00     0.211 HD
ENDBRANCH  14  18
BRANCH  15  20
ATOM     20  O   UNL     1      35.503 -22.242 -47.178  1.00  0.00    -0.385 OA
ATOM     21  H   UNL     1      34.596 -21.949 -47.454  1.00  0.00     0.211 HD
ENDBRANCH  15  20
ENDBRANCH   8   9
ENDBRANCH   7   8
ENDBRANCH   1   7
BRANCH   2  22
ATOM     22  O   UNL     1      34.431 -16.816 -42.168  1.00  0.00    -0.387 OA
ATOM     23  H   UNL     1      33.468 -17.058 -42.109  1.00  0.00     0.211 HD
ENDBRANCH   2  22
BRANCH   3  24
ATOM     24  O   UNL     1      36.804 -15.937 -43.189  1.00  0.00    -0.387 OA
ATOM     25  H   UNL     1      37.589 -15.921 -42.585  1.00  0.00     0.211 HD
ENDBRANCH   3  24
BRANCH   5  26
ATOM     26  O   UNL     1      36.907 -20.158 -40.875  1.00  0.00    -0.462 OA
BRANCH  26  27
ATOM     27  C   UNL     1      36.527 -20.727 -39.641  1.00  0.00     0.130 A 
ATOM     28  C   UNL     1      35.376 -20.233 -39.024  1.00  0.00     0.093 A 
ATOM     29  C   UNL     1      37.235 -21.762 -39.011  1.00  0.00     0.094 A 
ATOM     30  C   UNL     1      34.922 -20.745 -37.800  1.00  0.00     0.133 A 
ATOM     31  C   UNL     1      36.785 -22.310 -37.810  1.00  0.00     0.138 A 
ATOM     32  C   UNL     1      35.611 -21.831 -37.191  1.00  0.00     0.102 A 
ATOM     33  O   UNL     1      37.523 -23.355 -37.239  1.00  0.00    -0.484 OA
ATOM     34  C   UNL     1      35.142 -22.565 -35.980  1.00  0.00     0.174 C 
ATOM     35  C   UNL     1      37.340 -23.781 -35.889  1.00  0.00     0.211 C 
ATOM     36  O   UNL     1      34.121 -22.207 -35.338  1.00  0.00    -0.294 OA
ATOM     37  C   UNL     1      35.838 -23.831 -35.560  1.00  0.00     0.131 C 
BRANCH  30  38
ATOM     38  O   UNL     1      33.797 -20.129 -37.242  1.00  0.00    -0.507 OA
ATOM     39  H   UNL     1      33.571 -19.151 -37.333  1.00  0.00     0.293 HD
ENDBRANCH  30  38
BRANCH  35  40
ATOM     40  C   UNL     1      38.200 -22.926 -34.970  1.00  0.00    -0.003 A 
ATOM     41  C   UNL     1      39.538 -22.575 -35.251  1.00  0.00     0.057 A 
ATOM     42  C   UNL     1      37.618 -22.448 -33.784  1.00  0.00     0.011 A 
ATOM     43  C   UNL     1      40.261 -21.746 -34.382  1.00  0.00     0.158 A 
ATOM     44  C   UNL     1      38.336 -21.624 -32.915  1.00  0.00     0.051 A 
ATOM     45  C   UNL     1      39.662 -21.256 -33.208  1.00  0.00     0.160 A 
BRANCH  43  46
ATOM     46  O   UNL     1      41.575 -21.414 -34.713  1.00  0.00    -0.504 OA
ATOM     47  H   UNL     1      41.800 -20.607 -35.284  1.00  0.00     0.293 HD
ENDBRANCH  43  46
BRANCH  45  48
ATOM     48  O   UNL     1      40.407 -20.416 -32.366  1.00  0.00    -0.493 OA
ATOM     49  C   UNL     1      40.494 -20.565 -30.953  1.00  0.00     0.278 C 
ENDBRANCH  45  48
ENDBRANCH  35  40
ENDBRANCH  26  27
ENDBRANCH   5  26
BRANCH   4  50
ATOM     50  O   UNL     1      38.250 -18.837 -42.894  1.00  0.00    -0.384 OA
ATOM     51  H   UNL     1      38.947 -18.931 -42.194  1.00  0.00     0.211 HD
ENDBRANCH   4  50
TORSDOF 15
ENDMDL
MODEL 6
REMARK VINA RESULT:    -9.697      9.561     12.785
REMARK INTER + INTRA:         -17.225
REMARK INTER:                 -15.745
REMARK INTRA:                  -1.480
REMARK UNBOUND:                -1.292
REMARK SMILES COc1ccc([C@H]2CC(=O)c3c(O)cc(O[C@@H]4O[C@H](CO[C@@H]5O[C@H](C)[C@@H](O)[C@H](O)[C@H]5O)[C@@H](O)[C@@H](O)[C@@H]4O)cc3O2)cc1O
REMARK SMILES IDX 19 1 32 2 34 3 36 4 17 5 18 6 20 7 21 8 22 9 25 10 24 11
REMARK SMILES IDX 26 12 23 13 28 14 30 15 27 16 29 18 31 20 33 22 35 24 16 26
REMARK SMILES IDX 15 27 14 28 38 29 12 30 39 31 11 32 40 33 9 34 7 35 10 36
REMARK SMILES IDX 8 37 13 38 6 40 41 41 5 42 42 43 4 44 3 45 43 46 2 48 1 49
REMARK SMILES IDX 37 50
REMARK H PARENT 27 17 29 19 31 21 33 23 35 25 13 39 43 47 37 51
REMARK Flexibility Score: inf
ROOT
ATOM      1  C   UNL     1      35.257 -19.220 -43.545  1.00  0.00     0.180 C 
ATOM      2  C   UNL     1      35.827 -18.328 -42.394  1.00  0.00     0.177 C 
ATOM      3  C   UNL     1      36.748 -19.148 -41.481  1.00  0.00     0.180 C 
ATOM      4  C   UNL     1      36.082 -20.470 -41.014  1.00  0.00     0.214 C 
ATOM      5  C   UNL     1      34.780 -20.778 -41.797  1.00  0.00     0.339 C 
ATOM      6  O   UNL     1      34.914 -20.561 -43.191  1.00  0.00    -0.332 OA
ENDROOT
BRANCH   1   7
ATOM      7  C   UNL     1      36.242 -19.290 -44.725  1.00  0.00     0.198 C 
BRANCH   7   8
ATOM      8  O   UNL     1      36.686 -20.627 -44.884  1.00  0.00    -0.347 OA
BRANCH   8   9
ATOM      9  C   UNL     1      38.011 -20.840 -44.426  1.00  0.00     0.281 C 
ATOM     10  C   UNL     1      41.148 -19.185 -45.293  1.00  0.00     0.041 C 
ATOM     11  C   UNL     1      40.240 -20.246 -44.673  1.00  0.00     0.150 C 
ATOM     12  C   UNL     1      40.782 -21.682 -44.948  1.00  0.00     0.174 C 
ATOM     13  O   UNL     1      38.937 -20.088 -45.199  1.00  0.00    -0.344 OA
ATOM     14  C   UNL     1      39.634 -22.698 -45.178  1.00  0.00     0.179 C 
ATOM     15  C   UNL     1      38.378 -22.358 -44.339  1.00  0.00     0.202 C 
BRANCH  12  16
ATOM     16  O   UNL     1      41.571 -22.109 -43.867  1.00  0.00    -0.388 OA
ATOM     17  H   UNL     1      42.312 -21.454 -43.776  1.00  0.00     0.211 HD
ENDBRANCH  12  16
BRANCH  14  18
ATOM     18  O   UNL     1      39.286 -22.712 -46.542  1.00  0.00    -0.387 OA
ATOM     19  H   UNL     1      40.078 -22.405 -47.054  1.00  0.00     0.211 HD
ENDBRANCH  14  18
BRANCH  15  20
ATOM     20  O   UNL     1      38.553 -22.752 -42.998  1.00  0.00    -0.385 OA
ATOM     21  H   UNL     1      38.741 -23.726 -42.986  1.00  0.00     0.211 HD
ENDBRANCH  15  20
ENDBRANCH   8   9
ENDBRANCH   7   8
ENDBRANCH   1   7
BRANCH   2  22
ATOM     22  O   UNL     1      34.774 -17.784 -41.635  1.00  0.00    -0.387 OA
ATOM     23  H   UNL     1      33.929 -18.045 -42.091  1.00  0.00     0.211 HD
ENDBRANCH   2  22
BRANCH   3  24
ATOM     24  O   UNL     1      37.121 -18.368 -40.372  1.00  0.00    -0.387 OA
ATOM     25  H   UNL     1      36.457 -17.635 -40.302  1.00  0.00     0.211 HD
ENDBRANCH   3  24
BRANCH   5  26
ATOM     26  O   UNL     1      34.328 -22.114 -41.531  1.00  0.00    -0.462 OA
BRANCH  26  27
ATOM     27  C   UNL     1      34.162 -22.738 -40.276  1.00  0.00     0.130 A 
ATOM     28  C   UNL     1      33.202 -22.210 -39.410  1.00  0.00     0.093 A 
ATOM     29  C   UNL     1      34.899 -23.857 -39.861  1.00  0.00     0.094 A 
ATOM     30  C   UNL     1      32.966 -22.772 -38.147  1.00  0.00     0.133 A 
ATOM     31  C   UNL     1      34.659 -24.453 -38.623  1.00  0.00     0.138 A 
ATOM     32  C   UNL     1      33.676 -23.940 -37.751  1.00  0.00     0.102 A 
ATOM     33  O   UNL     1      35.412 -25.581 -38.271  1.00  0.00    -0.484 OA
ATOM     34  C   UNL     1      33.405 -24.720 -36.509  1.00  0.00     0.174 C 
ATOM     35  C   UNL     1      35.473 -26.084 -36.936  1.00  0.00     0.211 C 
ATOM     36  O   UNL     1      32.566 -24.339 -35.651  1.00  0.00    -0.294 OA
ATOM     37  C   UNL     1      34.070 -26.054 -36.307  1.00  0.00     0.131 C 
BRANCH  30  38
ATOM     38  O   UNL     1      32.029 -22.121 -37.338  1.00  0.00    -0.507 OA
ATOM     39  H   UNL     1      31.836 -21.132 -37.360  1.00  0.00     0.293 HD
ENDBRANCH  30  38
BRANCH  35  40
ATOM     40  C   UNL     1      36.566 -25.351 -36.171  1.00  0.00    -0.003 A 
ATOM     41  C   UNL     1      36.408 -24.060 -35.622  1.00  0.00     0.057 A 
ATOM     42  C   UNL     1      37.794 -26.009 -35.990  1.00  0.00     0.011 A 
ATOM     43  C   UNL     1      37.441 -23.460 -34.889  1.00  0.00     0.158 A 
ATOM     44  C   UNL     1      38.826 -25.414 -35.263  1.00  0.00     0.051 A 
ATOM     45  C   UNL     1      38.659 -24.136 -34.696  1.00  0.00     0.160 A 
BRANCH  43  46
ATOM     46  O   UNL     1      37.231 -22.190 -34.352  1.00  0.00    -0.504 OA
ATOM     47  H   UNL     1      37.870 -21.773 -33.686  1.00  0.00     0.293 HD
ENDBRANCH  43  46
BRANCH  45  48
ATOM     48  O   UNL     1      39.669 -23.515 -33.945  1.00  0.00    -0.493 OA
ATOM     49  C   UNL     1      40.786 -22.834 -34.506  1.00  0.00     0.278 C 
ENDBRANCH  45  48
ENDBRANCH  35  40
ENDBRANCH  26  27
ENDBRANCH   5  26
BRANCH   4  50
ATOM     50  O   UNL     1      36.999 -21.526 -41.146  1.00  0.00    -0.384 OA
ATOM     51  H   UNL     1      37.151 -21.659 -42.117  1.00  0.00     0.211 HD
ENDBRANCH   4  50
TORSDOF 15
ENDMDL
MODEL 7
REMARK VINA RESULT:    -9.690     10.081     12.805
REMARK INTER + INTRA:         -17.214
REMARK INTER:                 -14.669
REMARK INTRA:                  -2.544
REMARK UNBOUND:                -1.292
REMARK SMILES COc1ccc([C@H]2CC(=O)c3c(O)cc(O[C@@H]4O[C@H](CO[C@@H]5O[C@H](C)[C@@H](O)[C@H](O)[C@H]5O)[C@@H](O)[C@@H](O)[C@@H]4O)cc3O2)cc1O
REMARK SMILES IDX 19 1 32 2 34 3 36 4 17 5 18 6 20 7 21 8 22 9 25 10 24 11
REMARK SMILES IDX 26 12 23 13 28 14 30 15 27 16 29 18 31 20 33 22 35 24 16 26
REMARK SMILES IDX 15 27 14 28 38 29 12 30 39 31 11 32 40 33 9 34 7 35 10 36
REMARK SMILES IDX 8 37 13 38 6 40 41 41 5 42 42 43 4 44 3 45 43 46 2 48 1 49
REMARK SMILES IDX 37 50
REMARK H PARENT 27 17 29 19 31 21 33 23 35 25 13 39 43 47 37 51
REMARK Flexibility Score: inf
ROOT
ATOM      1  C   UNL     1      35.208 -19.603 -46.681  1.00  0.00     0.180 C 
ATOM      2  C   UNL     1      35.771 -18.234 -47.188  1.00  0.00     0.177 C 
ATOM      3  C   UNL     1      36.555 -17.527 -46.073  1.00  0.00     0.180 C 
ATOM      4  C   UNL     1      35.749 -17.452 -44.749  1.00  0.00     0.214 C 
ATOM      5  C   UNL     1      34.482 -18.345 -44.782  1.00  0.00     0.339 C 
ATOM      6  O   UNL     1      34.729 -19.627 -45.335  1.00  0.00    -0.332 OA
ENDROOT
BRANCH   1   7
ATOM      7  C   UNL     1      36.263 -20.715 -46.818  1.00  0.00     0.198 C 
BRANCH   7   8
ATOM      8  O   UNL     1      36.439 -21.349 -45.562  1.00  0.00    -0.347 OA
BRANCH   8   9
ATOM      9  C   UNL     1      37.642 -20.981 -44.908  1.00  0.00     0.281 C 
ATOM     10  C   UNL     1      40.501 -19.023 -46.059  1.00  0.00     0.041 C 
ATOM     11  C   UNL     1      39.706 -19.947 -45.137  1.00  0.00     0.150 C 
ATOM     12  C   UNL     1      40.569 -21.159 -44.672  1.00  0.00     0.174 C 
ATOM     13  O   UNL     1      38.550 -20.384 -45.825  1.00  0.00    -0.344 OA
ATOM     14  C   UNL     1      39.728 -22.454 -44.550  1.00  0.00     0.179 C 
ATOM     15  C   UNL     1      38.273 -22.165 -44.105  1.00  0.00     0.202 C 
BRANCH  12  16
ATOM     16  O   UNL     1      41.164 -20.872 -43.431  1.00  0.00    -0.388 OA
ATOM     17  H   UNL     1      41.829 -21.591 -43.259  1.00  0.00     0.211 HD
ENDBRANCH  12  16
BRANCH  14  18
ATOM     18  O   UNL     1      39.705 -23.118 -45.792  1.00  0.00    -0.387 OA
ATOM     19  H   UNL     1      39.039 -23.850 -45.725  1.00  0.00     0.211 HD
ENDBRANCH  14  18
BRANCH  15  20
ATOM     20  O   UNL     1      38.217 -21.915 -42.720  1.00  0.00    -0.385 OA
ATOM     21  H   UNL     1      37.899 -22.740 -42.271  1.00  0.00     0.211 HD
ENDBRANCH  15  20
ENDBRANCH   8   9
ENDBRANCH   7   8
ENDBRANCH   1   7
BRANCH   2  22
ATOM     22  O   UNL     1      34.718 -17.407 -47.621  1.00  0.00    -0.387 OA
ATOM     23  H   UNL     1      34.599 -17.583 -48.593  1.00  0.00     0.211 HD
ENDBRANCH   2  22
BRANCH   3  24
ATOM     24  O   UNL     1      36.914 -16.238 -46.503  1.00  0.00    -0.387 OA
ATOM     25  H   UNL     1      36.903 -15.656 -45.701  1.00  0.00     0.211 HD
ENDBRANCH   3  24
BRANCH   5  26
ATOM     26  O   UNL     1      33.902 -18.458 -43.475  1.00  0.00    -0.462 OA
BRANCH  26  27
ATOM     27  C   UNL     1      33.801 -19.612 -42.670  1.00  0.00     0.130 A 
ATOM     28  C   UNL     1      32.541 -20.196 -42.525  1.00  0.00     0.093 A 
ATOM     29  C   UNL     1      34.894 -20.205 -42.018  1.00  0.00     0.094 A 
ATOM     30  C   UNL     1      32.351 -21.349 -41.749  1.00  0.00     0.133 A 
ATOM     31  C   UNL     1      34.735 -21.370 -41.268  1.00  0.00     0.138 A 
ATOM     32  C   UNL     1      33.470 -21.978 -41.135  1.00  0.00     0.102 A 
ATOM     33  O   UNL     1      35.867 -21.927 -40.659  1.00  0.00    -0.484 OA
ATOM     34  C   UNL     1      33.424 -23.288 -40.422  1.00  0.00     0.174 C 
ATOM     35  C   UNL     1      35.784 -22.920 -39.638  1.00  0.00     0.211 C 
ATOM     36  O   UNL     1      32.344 -23.903 -40.227  1.00  0.00    -0.294 OA
ATOM     37  C   UNL     1      34.707 -23.955 -40.007  1.00  0.00     0.131 C 
BRANCH  30  38
ATOM     38  O   UNL     1      31.036 -21.807 -41.620  1.00  0.00    -0.507 OA
ATOM     39  H   UNL     1      30.311 -21.680 -42.309  1.00  0.00     0.293 HD
ENDBRANCH  30  38
BRANCH  35  40
ATOM     40  C   UNL     1      35.624 -22.241 -38.285  1.00  0.00    -0.003 A 
ATOM     41  C   UNL     1      36.086 -20.937 -38.003  1.00  0.00     0.057 A 
ATOM     42  C   UNL     1      34.963 -22.950 -37.268  1.00  0.00     0.011 A 
ATOM     43  C   UNL     1      35.867 -20.352 -36.748  1.00  0.00     0.158 A 
ATOM     44  C   UNL     1      34.745 -22.372 -36.016  1.00  0.00     0.051 A 
ATOM     45  C   UNL     1      35.186 -21.064 -35.745  1.00  0.00     0.160 A 
BRANCH  43  46
ATOM     46  O   UNL     1      36.329 -19.055 -36.524  1.00  0.00    -0.504 OA
ATOM     47  H   UNL     1      36.307 -18.343 -37.245  1.00  0.00     0.293 HD
ENDBRANCH  43  46
BRANCH  45  48
ATOM     48  O   UNL     1      34.969 -20.445 -34.503  1.00  0.00    -0.493 OA
ATOM     49  C   UNL     1      33.685 -20.131 -33.974  1.00  0.00     0.278 C 
ENDBRANCH  45  48
ENDBRANCH  35  40
ENDBRANCH  26  27
ENDBRANCH   5  26
BRANCH   4  50
ATOM     50  O   UNL     1      36.580 -17.814 -43.676  1.00  0.00    -0.384 OA
ATOM     51  H   UNL     1      37.231 -17.076 -43.551  1.00  0.00     0.211 HD
ENDBRANCH   4  50
TORSDOF 15
ENDMDL
MODEL 8
REMARK VINA RESULT:    -9.653      9.525     12.037
REMARK INTER + INTRA:         -17.153
REMARK INTER:                 -15.287
REMARK INTRA:                  -1.866
REMARK UNBOUND:                -1.292
REMARK SMILES COc1ccc([C@H]2CC(=O)c3c(O)cc(O[C@@H]4O[C@H](CO[C@@H]5O[C@H](C)[C@@H](O)[C@H](O)[C@H]5O)[C@@H](O)[C@@H](O)[C@@H]4O)cc3O2)cc1O
REMARK SMILES IDX 19 1 32 2 34 3 36 4 17 5 18 6 20 7 21 8 22 9 25 10 24 11
REMARK SMILES IDX 26 12 23 13 28 14 30 15 27 16 29 18 31 20 33 22 35 24 16 26
REMARK SMILES IDX 15 27 14 28 38 29 12 30 39 31 11 32 40 33 9 34 7 35 10 36
REMARK SMILES IDX 8 37 13 38 6 40 41 41 5 42 42 43 4 44 3 45 43 46 2 48 1 49
REMARK SMILES IDX 37 50
REMARK H PARENT 27 17 29 19 31 21 33 23 35 25 13 39 43 47 37 51
REMARK Flexibility Score: inf
ROOT
ATOM      1  C   UNL     1      35.087 -20.194 -44.651  1.00  0.00     0.180 C 
ATOM      2  C   UNL     1      34.108 -19.010 -44.356  1.00  0.00     0.177 C 
ATOM      3  C   UNL     1      34.758 -17.997 -43.403  1.00  0.00     0.180 C 
ATOM      4  C   UNL     1      35.357 -18.680 -42.144  1.00  0.00     0.214 C 
ATOM      5  C   UNL     1      35.408 -20.223 -42.282  1.00  0.00     0.339 C 
ATOM      6  O   UNL     1      35.880 -20.645 -43.551  1.00  0.00    -0.332 OA
ENDROOT
BRANCH   1   7
ATOM      7  C   UNL     1      36.046 -19.839 -45.800  1.00  0.00     0.198 C 
BRANCH   7   8
ATOM      8  O   UNL     1      36.740 -21.008 -46.206  1.00  0.00    -0.347 OA
BRANCH   8   9
ATOM      9  C   UNL     1      38.145 -20.918 -46.032  1.00  0.00     0.281 C 
ATOM     10  C   UNL     1      40.557 -23.301 -44.679  1.00  0.00     0.041 C 
ATOM     11  C   UNL     1      40.040 -21.957 -45.189  1.00  0.00     0.150 C 
ATOM     12  C   UNL     1      40.488 -20.790 -44.257  1.00  0.00     0.174 C 
ATOM     13  O   UNL     1      38.629 -22.020 -45.277  1.00  0.00    -0.344 OA
ATOM     14  C   UNL     1      39.399 -19.693 -44.141  1.00  0.00     0.179 C 
ATOM     15  C   UNL     1      38.588 -19.535 -45.450  1.00  0.00     0.202 C 
BRANCH  12  16
ATOM     16  O   UNL     1      41.674 -20.217 -44.747  1.00  0.00    -0.388 OA
ATOM     17  H   UNL     1      41.846 -19.403 -44.204  1.00  0.00     0.211 HD
ENDBRANCH  12  16
BRANCH  14  18
ATOM     18  O   UNL     1      38.518 -20.015 -43.091  1.00  0.00    -0.387 OA
ATOM     19  H   UNL     1      38.833 -20.866 -42.689  1.00  0.00     0.211 HD
ENDBRANCH  14  18
BRANCH  15  20
ATOM     20  O   UNL     1      39.321 -18.804 -46.405  1.00  0.00    -0.385 OA
ATOM     21  H   UNL     1      39.422 -19.369 -47.214  1.00  0.00     0.211 HD
ENDBRANCH  15  20
ENDBRANCH   8   9
ENDBRANCH   7   8
ENDBRANCH   1   7
BRANCH   2  22
ATOM     22  O   UNL     1      32.917 -19.496 -43.785  1.00  0.00    -0.387 OA
ATOM     23  H   UNL     1      32.302 -18.718 -43.702  1.00  0.00     0.211 HD
ENDBRANCH   2  22
BRANCH   3  24
ATOM     24  O   UNL     1      33.808 -17.030 -43.032  1.00  0.00    -0.387 OA
ATOM     25  H   UNL     1      33.060 -17.101 -43.677  1.00  0.00     0.211 HD
ENDBRANCH   3  24
BRANCH   5  26
ATOM     26  O   UNL     1      36.191 -20.805 -41.229  1.00  0.00    -0.462 OA
BRANCH  26  27
ATOM     27  C   UNL     1      35.729 -21.458 -40.067  1.00  0.00     0.130 A 
ATOM     28  C   UNL     1      34.680 -20.864 -39.362  1.00  0.00     0.093 A 
ATOM     29  C   UNL     1      36.259 -22.667 -39.591  1.00  0.00     0.094 A 
ATOM     30  C   UNL     1      34.154 -21.448 -38.200  1.00  0.00     0.133 A 
ATOM     31  C   UNL     1      35.730 -23.283 -38.457  1.00  0.00     0.138 A 
ATOM     32  C   UNL     1      34.657 -22.701 -37.752  1.00  0.00     0.102 A 
ATOM     33  O   UNL     1      36.287 -24.500 -38.042  1.00  0.00    -0.484 OA
ATOM     34  C   UNL     1      34.078 -23.498 -36.630  1.00  0.00     0.174 C 
ATOM     35  C   UNL     1      36.044 -25.060 -36.752  1.00  0.00     0.211 C 
ATOM     36  O   UNL     1      33.135 -23.062 -35.920  1.00  0.00    -0.294 OA
ATOM     37  C   UNL     1      34.557 -24.904 -36.391  1.00  0.00     0.131 C 
BRANCH  30  38
ATOM     38  O   UNL     1      33.151 -20.732 -37.539  1.00  0.00    -0.507 OA
ATOM     39  H   UNL     1      32.558 -21.106 -36.814  1.00  0.00     0.293 HD
ENDBRANCH  30  38
BRANCH  35  40
ATOM     40  C   UNL     1      37.040 -24.483 -35.756  1.00  0.00    -0.003 A 
ATOM     41  C   UNL     1      36.835 -23.277 -35.052  1.00  0.00     0.057 A 
ATOM     42  C   UNL     1      38.220 -25.206 -35.515  1.00  0.00     0.011 A 
ATOM     43  C   UNL     1      37.773 -22.825 -34.114  1.00  0.00     0.158 A 
ATOM     44  C   UNL     1      39.158 -24.757 -34.584  1.00  0.00     0.051 A 
ATOM     45  C   UNL     1      38.942 -23.566 -33.866  1.00  0.00     0.160 A 
BRANCH  43  46
ATOM     46  O   UNL     1      37.517 -21.635 -33.432  1.00  0.00    -0.504 OA
ATOM     47  H   UNL     1      37.189 -20.801 -33.905  1.00  0.00     0.293 HD
ENDBRANCH  43  46
BRANCH  45  48
ATOM     48  O   UNL     1      39.855 -23.094 -32.910  1.00  0.00    -0.493 OA
ATOM     49  C   UNL     1      41.018 -22.332 -33.215  1.00  0.00     0.278 C 
ENDBRANCH  45  48
ENDBRANCH  35  40
ENDBRANCH  26  27
ENDBRANCH   5  26
BRANCH   4  50
ATOM     50  O   UNL     1      36.640 -18.164 -41.898  1.00  0.00    -0.384 OA
ATOM     51  H   UNL     1      37.274 -18.684 -42.457  1.00  0.00     0.211 HD
ENDBRANCH   4  50
TORSDOF 15
ENDMDL
MODEL 9
REMARK VINA RESULT:    -9.558      9.572     12.626
REMARK INTER + INTRA:         -16.996
REMARK INTER:                 -16.063
REMARK INTRA:                  -0.933
REMARK UNBOUND:                -1.292
REMARK SMILES COc1ccc([C@H]2CC(=O)c3c(O)cc(O[C@@H]4O[C@H](CO[C@@H]5O[C@H](C)[C@@H](O)[C@H](O)[C@H]5O)[C@@H](O)[C@@H](O)[C@@H]4O)cc3O2)cc1O
REMARK SMILES IDX 19 1 32 2 34 3 36 4 17 5 18 6 20 7 21 8 22 9 25 10 24 11
REMARK SMILES IDX 26 12 23 13 28 14 30 15 27 16 29 18 31 20 33 22 35 24 16 26
REMARK SMILES IDX 15 27 14 28 38 29 12 30 39 31 11 32 40 33 9 34 7 35 10 36
REMARK SMILES IDX 8 37 13 38 6 40 41 41 5 42 42 43 4 44 3 45 43 46 2 48 1 49
REMARK SMILES IDX 37 50
REMARK H PARENT 27 17 29 19 31 21 33 23 35 25 13 39 43 47 37 51
REMARK Flexibility Score: inf
ROOT
ATOM      1  C   UNL     1      38.607 -20.719 -44.398  1.00  0.00     0.180 C 
ATOM      2  C   UNL     1      40.051 -21.249 -44.685  1.00  0.00     0.177 C 
ATOM      3  C   UNL     1      40.000 -22.673 -45.255  1.00  0.00     0.180 C 
ATOM      4  C   UNL     1      39.117 -23.616 -44.395  1.00  0.00     0.214 C 
ATOM      5  C   UNL     1      38.281 -22.840 -43.345  1.00  0.00     0.339 C 
ATOM      6  O   UNL     1      37.679 -21.672 -43.878  1.00  0.00    -0.332 OA
ENDROOT
BRANCH   1   7
ATOM      7  C   UNL     1      37.984 -20.110 -45.667  1.00  0.00     0.198 C 
BRANCH   7   8
ATOM      8  O   UNL     1      36.574 -20.241 -45.603  1.00  0.00    -0.347 OA
BRANCH   8   9
ATOM      9  C   UNL     1      35.986 -19.502 -44.544  1.00  0.00     0.281 C 
ATOM     10  C   UNL     1      32.629 -19.605 -43.115  1.00  0.00     0.041 C 
ATOM     11  C   UNL     1      34.037 -19.068 -43.364  1.00  0.00     0.150 C 
ATOM     12  C   UNL     1      34.019 -17.527 -43.603  1.00  0.00     0.174 C 
ATOM     13  O   UNL     1      34.588 -19.745 -44.477  1.00  0.00    -0.344 OA
ATOM     14  C   UNL     1      35.072 -17.094 -44.654  1.00  0.00     0.179 C 
ATOM     15  C   UNL     1      36.341 -17.980 -44.610  1.00  0.00     0.202 C 
BRANCH  12  16
ATOM     16  O   UNL     1      34.265 -16.855 -42.394  1.00  0.00    -0.388 OA
ATOM     17  H   UNL     1      35.015 -17.330 -41.948  1.00  0.00     0.211 HD
ENDBRANCH  12  16
BRANCH  14  18
ATOM     18  O   UNL     1      34.506 -17.165 -45.942  1.00  0.00    -0.387 OA
ATOM     19  H   UNL     1      35.139 -17.668 -46.517  1.00  0.00     0.211 HD
ENDBRANCH  14  18
BRANCH  15  20
ATOM     20  O   UNL     1      37.166 -17.614 -43.529  1.00  0.00    -0.385 OA
ATOM     21  H   UNL     1      37.098 -16.632 -43.409  1.00  0.00     0.211 HD
ENDBRANCH  15  20
ENDBRANCH   8   9
ENDBRANCH   7   8
ENDBRANCH   1   7
BRANCH   2  22
ATOM     22  O   UNL     1      40.814 -21.242 -43.502  1.00  0.00    -0.387 OA
ATOM     23  H   UNL     1      41.505 -20.534 -43.612  1.00  0.00     0.211 HD
ENDBRANCH   2  22
BRANCH   3  24
ATOM     24  O   UNL     1      41.307 -23.181 -45.356  1.00  0.00    -0.387 OA
ATOM     25  H   UNL     1      41.911 -22.401 -45.454  1.00  0.00     0.211 HD
ENDBRANCH   3  24
BRANCH   5  26
ATOM     26  O   UNL     1      37.295 -23.693 -42.746  1.00  0.00    -0.462 OA
BRANCH  26  27
ATOM     27  C   UNL     1      36.548 -23.460 -41.572  1.00  0.00     0.130 A 
ATOM     28  C   UNL     1      35.968 -22.201 -41.410  1.00  0.00     0.093 A 
ATOM     29  C   UNL     1      36.352 -24.424 -40.571  1.00  0.00     0.094 A 
ATOM     30  C   UNL     1      35.203 -21.885 -40.277  1.00  0.00     0.133 A 
ATOM     31  C   UNL     1      35.568 -24.145 -39.452  1.00  0.00     0.138 A 
ATOM     32  C   UNL     1      34.960 -22.882 -39.291  1.00  0.00     0.102 A 
ATOM     33  O   UNL     1      35.391 -25.154 -38.496  1.00  0.00    -0.484 OA
ATOM     34  C   UNL     1      34.039 -22.722 -38.128  1.00  0.00     0.174 C 
ATOM     35  C   UNL     1      34.877 -24.898 -37.189  1.00  0.00     0.211 C 
ATOM     36  O   UNL     1      33.464 -21.630 -37.878  1.00  0.00    -0.294 OA
ATOM     37  C   UNL     1      33.697 -23.916 -37.279  1.00  0.00     0.131 C 
BRANCH  30  38
ATOM     38  O   UNL     1      34.727 -20.574 -40.189  1.00  0.00    -0.507 OA
ATOM     39  H   UNL     1      33.822 -20.311 -39.830  1.00  0.00     0.293 HD
ENDBRANCH  30  38
BRANCH  35  40
ATOM     40  C   UNL     1      36.019 -24.490 -36.270  1.00  0.00    -0.003 A 
ATOM     41  C   UNL     1      37.167 -25.281 -36.048  1.00  0.00     0.057 A 
ATOM     42  C   UNL     1      35.929 -23.247 -35.621  1.00  0.00     0.011 A 
ATOM     43  C   UNL     1      38.205 -24.826 -35.222  1.00  0.00     0.158 A 
ATOM     44  C   UNL     1      36.958 -22.792 -34.796  1.00  0.00     0.051 A 
ATOM     45  C   UNL     1      38.112 -23.572 -34.594  1.00  0.00     0.160 A 
BRANCH  43  46
ATOM     46  O   UNL     1      39.326 -25.638 -35.048  1.00  0.00    -0.504 OA
ATOM     47  H   UNL     1      39.860 -25.996 -35.831  1.00  0.00     0.293 HD
ENDBRANCH  43  46
BRANCH  45  48
ATOM     48  O   UNL     1      39.175 -23.138 -33.786  1.00  0.00    -0.493 OA
ATOM     49  C   UNL     1      40.281 -22.373 -34.252  1.00  0.00     0.278 C 
ENDBRANCH  45  48
ENDBRANCH  35  40
ENDBRANCH  26  27
ENDBRANCH   5  26
BRANCH   4  50
ATOM     50  O   UNL     1      38.279 -24.366 -45.237  1.00  0.00    -0.384 OA
ATOM     51  H   UNL     1      37.464 -23.823 -45.395  1.00  0.00     0.211 HD
ENDBRANCH   4  50
TORSDOF 15
ENDMDL
