MODEL 1
REMARK VINA RESULT:    -2.309      0.000      0.000
REMARK INTER + INTRA:          -7.686
REMARK INTER:                  -4.469
REMARK INTRA:                  -3.217
REMARK UNBOUND:                -3.217
REMARK SMILES CCCCCCCCCCCCCCCCCC(=O)[O-]
REMARK SMILES IDX 10 1 11 2 12 3 13 4 14 5 15 6 16 7 17 8 18 9 19 10 20 11
REMARK SMILES IDX 9 12 8 13 7 14 6 15 5 16 4 17 3 18 2 19 1 20
REMARK H PARENT
REMARK Flexibility Score: inf
ROOT
ATOM      1  C   UNL     1     147.389 147.463 142.448  1.00  0.00     0.000 C 
ENDROOT
BRANCH   1   2
ATOM      2  C   UNL     1     146.899 146.331 143.368  1.00  0.00     0.000 C 
BRANCH   2   3
ATOM      3  C   UNL     1     145.416 145.993 143.149  1.00  0.00     0.000 C 
BRANCH   3   4
ATOM      4  C   UNL     1     144.527 146.440 144.324  1.00  0.00     0.000 C 
BRANCH   4   5
ATOM      5  C   UNL     1     143.226 147.119 143.844  1.00  0.00     0.000 C 
BRANCH   5   6
ATOM      6  C   UNL     1     143.121 148.600 144.250  1.00  0.00     0.000 C 
BRANCH   6   7
ATOM      7  C   UNL     1     144.015 148.956 145.445  1.00  0.00     0.006 C 
BRANCH   7   8
ATOM      8  C   UNL     1     144.541 150.391 145.328  1.00  0.00     0.053 C 
BRANCH   8   9
ATOM      9  C   UNL     1     144.636 151.025 146.680  1.00  0.00     0.041 C 
ATOM     10  O   UNL     1     144.379 152.249 146.827  1.00  0.00    -0.550 OA
ATOM     11  O   UNL     1     144.965 150.253 147.788  1.00  0.00    -0.550 OA
ENDBRANCH   8   9
ENDBRANCH   7   8
ENDBRANCH   6   7
ENDBRANCH   5   6
ENDBRANCH   4   5
ENDBRANCH   3   4
ENDBRANCH   2   3
ENDBRANCH   1   2
BRANCH   1  12
ATOM     12  C   UNL     1     147.030 148.867 142.972  1.00  0.00     0.000 C 
BRANCH  12  13
ATOM     13  C   UNL     1     146.604 149.875 141.886  1.00  0.00    -0.000 C 
BRANCH  13  14
ATOM     14  C   UNL     1     145.076 150.003 141.698  1.00  0.00    -0.000 C 
BRANCH  14  15
ATOM     15  C   UNL     1     144.566 149.526 140.323  1.00  0.00    -0.000 C 
BRANCH  15  16
ATOM     16  C   UNL     1     143.848 148.161 140.360  1.00  0.00    -0.000 C 
BRANCH  16  17
ATOM     17  C   UNL     1     144.705 147.033 139.758  1.00  0.00    -0.000 C 
BRANCH  17  18
ATOM     18  C   UNL     1     145.926 147.563 138.992  1.00  0.00    -0.000 C 
BRANCH  18  19
ATOM     19  C   UNL     1     147.029 146.505 138.832  1.00  0.00    -0.003 C 
ATOM     20  C   UNL     1     146.689 145.235 139.608  1.00  0.00     0.004 C 
ENDBRANCH  18  19
ENDBRANCH  17  18
ENDBRANCH  16  17
ENDBRANCH  15  16
ENDBRANCH  14  15
ENDBRANCH  13  14
ENDBRANCH  12  13
ENDBRANCH   1  12
TORSDOF 16
ENDMDL
MODEL 2
REMARK VINA RESULT:    -2.288      1.358      3.461
REMARK INTER + INTRA:          -7.645
REMARK INTER:                  -4.593
REMARK INTRA:                  -3.052
REMARK UNBOUND:                -3.217
REMARK SMILES CCCCCCCCCCCCCCCCCC(=O)[O-]
REMARK SMILES IDX 10 1 11 2 12 3 13 4 14 5 15 6 16 7 17 8 18 9 19 10 20 11
REMARK SMILES IDX 9 12 8 13 7 14 6 15 5 16 4 17 3 18 2 19 1 20
REMARK H PARENT
REMARK Flexibility Score: inf
ROOT
ATOM      1  C   UNL     1     146.646 149.600 141.669  1.00  0.00     0.000 C 
ENDROOT
BRANCH   1   2
ATOM      2  C   UNL     1     145.762 148.630 140.864  1.00  0.00     0.000 C 
BRANCH   2   3
ATOM      3  C   UNL     1     144.263 148.920 141.034  1.00  0.00     0.000 C 
BRANCH   3   4
ATOM      4  C   UNL     1     143.991 150.330 141.590  1.00  0.00     0.000 C 
BRANCH   4   5
ATOM      5  C   UNL     1     143.275 150.289 142.957  1.00  0.00     0.000 C 
BRANCH   5   6
ATOM      6  C   UNL     1     143.287 148.898 143.615  1.00  0.00     0.000 C 
BRANCH   6   7
ATOM      7  C   UNL     1     144.033 148.877 144.956  1.00  0.00     0.006 C 
BRANCH   7   8
ATOM      8  C   UNL     1     144.690 150.232 145.238  1.00  0.00     0.053 C 
BRANCH   8   9
ATOM      9  C   UNL     1     144.586 150.572 146.692  1.00  0.00     0.041 C 
ATOM     10  O   UNL     1     144.499 149.657 147.553  1.00  0.00    -0.550 OA
ATOM     11  O   UNL     1     144.632 151.900 147.100  1.00  0.00    -0.550 OA
ENDBRANCH   8   9
ENDBRANCH   7   8
ENDBRANCH   6   7
ENDBRANCH   5   6
ENDBRANCH   4   5
ENDBRANCH   3   4
ENDBRANCH   2   3
ENDBRANCH   1   2
BRANCH   1  12
ATOM     12  C   UNL     1     147.277 148.950 142.915  1.00  0.00     0.000 C 
BRANCH  12  13
ATOM     13  C   UNL     1     146.990 147.443 143.077  1.00  0.00    -0.000 C 
BRANCH  13  14
ATOM     14  C   UNL     1     148.205 146.529 142.805  1.00  0.00    -0.000 C 
BRANCH  14  15
ATOM     15  C   UNL     1     147.835 145.079 142.435  1.00  0.00    -0.000 C 
BRANCH  15  16
ATOM     16  C   UNL     1     146.922 144.961 141.196  1.00  0.00    -0.000 C 
BRANCH  16  17
ATOM     17  C   UNL     1     145.567 144.312 141.528  1.00  0.00    -0.000 C 
BRANCH  17  18
ATOM     18  C   UNL     1     144.381 145.253 141.269  1.00  0.00    -0.000 C 
BRANCH  18  19
ATOM     19  C   UNL     1     143.437 145.361 142.477  1.00  0.00    -0.003 C 
ATOM     20  C   UNL     1     144.206 145.235 143.789  1.00  0.00     0.004 C 
ENDBRANCH  18  19
ENDBRANCH  17  18
ENDBRANCH  16  17
ENDBRANCH  15  16
ENDBRANCH  14  15
ENDBRANCH  13  14
ENDBRANCH  12  13
ENDBRANCH   1  12
TORSDOF 16
ENDMDL
MODEL 3
REMARK VINA RESULT:    -2.229      3.876      5.717
REMARK INTER + INTRA:          -7.531
REMARK INTER:                  -4.434
REMARK INTRA:                  -3.098
REMARK UNBOUND:                -3.217
REMARK SMILES CCCCCCCCCCCCCCCCCC(=O)[O-]
REMARK SMILES IDX 10 1 11 2 12 3 13 4 14 5 15 6 16 7 17 8 18 9 19 10 20 11
REMARK SMILES IDX 9 12 8 13 7 14 6 15 5 16 4 17 3 18 2 19 1 20
REMARK H PARENT
REMARK Flexibility Score: inf
ROOT
ATOM      1  C   UNL     1     145.829 149.867 143.501  1.00  0.00     0.000 C 
ENDROOT
BRANCH   1   2
ATOM      2  C   UNL     1     144.849 148.759 143.928  1.00  0.00     0.000 C 
BRANCH   2   3
ATOM      3  C   UNL     1     143.424 149.000 143.407  1.00  0.00     0.000 C 
BRANCH   3   4
ATOM      4  C   UNL     1     143.336 150.210 142.460  1.00  0.00     0.000 C 
BRANCH   4   5
ATOM      5  C   UNL     1     143.225 149.785 140.980  1.00  0.00     0.000 C 
BRANCH   5   6
ATOM      6  C   UNL     1     144.098 150.626 140.033  1.00  0.00     0.000 C 
BRANCH   6   7
ATOM      7  C   UNL     1     143.637 150.551 138.570  1.00  0.00     0.006 C 
BRANCH   7   8
ATOM      8  C   UNL     1     143.571 149.097 138.091  1.00  0.00     0.053 C 
BRANCH   8   9
ATOM      9  C   UNL     1     144.485 148.887 136.925  1.00  0.00     0.041 C 
ATOM     10  O   UNL     1     144.544 149.742 136.002  1.00  0.00    -0.550 OA
ATOM     11  O   UNL     1     145.308 147.768 136.881  1.00  0.00    -0.550 OA
ENDBRANCH   8   9
ENDBRANCH   7   8
ENDBRANCH   6   7
ENDBRANCH   5   6
ENDBRANCH   4   5
ENDBRANCH   3   4
ENDBRANCH   2   3
ENDBRANCH   1   2
BRANCH   1  12
ATOM     12  C   UNL     1     146.997 149.344 142.644  1.00  0.00     0.000 C 
BRANCH  12  13
ATOM     13  C   UNL     1     147.320 147.848 142.831  1.00  0.00    -0.000 C 
BRANCH  13  14
ATOM     14  C   UNL     1     147.187 147.001 141.547  1.00  0.00    -0.000 C 
BRANCH  14  15
ATOM     15  C   UNL     1     146.114 147.509 140.563  1.00  0.00    -0.000 C 
BRANCH  15  16
ATOM     16  C   UNL     1     145.000 146.483 140.265  1.00  0.00    -0.000 C 
BRANCH  16  17
ATOM     17  C   UNL     1     144.903 145.394 141.349  1.00  0.00    -0.000 C 
BRANCH  17  18
ATOM     18  C   UNL     1     143.683 145.578 142.263  1.00  0.00    -0.000 C 
BRANCH  18  19
ATOM     19  C   UNL     1     143.973 145.191 143.722  1.00  0.00    -0.003 C 
ATOM     20  C   UNL     1     145.431 144.776 143.900  1.00  0.00     0.004 C 
ENDBRANCH  18  19
ENDBRANCH  17  18
ENDBRANCH  16  17
ENDBRANCH  15  16
ENDBRANCH  14  15
ENDBRANCH  13  14
ENDBRANCH  12  13
ENDBRANCH   1  12
TORSDOF 16
ENDMDL
MODEL 4
REMARK VINA RESULT:    -2.205      1.086      2.627
REMARK INTER + INTRA:          -7.485
REMARK INTER:                  -4.213
REMARK INTRA:                  -3.272
REMARK UNBOUND:                -3.217
REMARK SMILES CCCCCCCCCCCCCCCCCC(=O)[O-]
REMARK SMILES IDX 10 1 11 2 12 3 13 4 14 5 15 6 16 7 17 8 18 9 19 10 20 11
REMARK SMILES IDX 9 12 8 13 7 14 6 15 5 16 4 17 3 18 2 19 1 20
REMARK H PARENT
REMARK Flexibility Score: inf
ROOT
ATOM      1  C   UNL     1     147.294 149.086 142.980  1.00  0.00     0.000 C 
ENDROOT
BRANCH   1   2
ATOM      2  C   UNL     1     146.485 150.125 142.183  1.00  0.00     0.000 C 
BRANCH   2   3
ATOM      3  C   UNL     1     145.586 149.480 141.116  1.00  0.00     0.000 C 
BRANCH   3   4
ATOM      4  C   UNL     1     144.088 149.699 141.394  1.00  0.00     0.000 C 
BRANCH   4   5
ATOM      5  C   UNL     1     143.827 150.167 142.842  1.00  0.00     0.000 C 
BRANCH   5   6
ATOM      6  C   UNL     1     143.322 149.046 143.768  1.00  0.00     0.000 C 
BRANCH   6   7
ATOM      7  C   UNL     1     144.100 148.966 145.089  1.00  0.00     0.006 C 
BRANCH   7   8
ATOM      8  C   UNL     1     144.659 150.338 145.480  1.00  0.00     0.053 C 
BRANCH   8   9
ATOM      9  C   UNL     1     144.663 150.497 146.968  1.00  0.00     0.041 C 
ATOM     10  O   UNL     1     144.883 151.624 147.485  1.00  0.00    -0.550 OA
ATOM     11  O   UNL     1     144.377 149.409 147.783  1.00  0.00    -0.550 OA
ENDBRANCH   8   9
ENDBRANCH   7   8
ENDBRANCH   6   7
ENDBRANCH   5   6
ENDBRANCH   4   5
ENDBRANCH   3   4
ENDBRANCH   2   3
ENDBRANCH   1   2
BRANCH   1  12
ATOM     12  C   UNL     1     147.189 147.663 142.400  1.00  0.00     0.000 C 
BRANCH  12  13
ATOM     13  C   UNL     1     146.511 146.633 143.326  1.00  0.00    -0.000 C 
BRANCH  13  14
ATOM     14  C   UNL     1     145.707 145.541 142.587  1.00  0.00    -0.000 C 
BRANCH  14  15
ATOM     15  C   UNL     1     144.194 145.822 142.497  1.00  0.00    -0.000 C 
BRANCH  15  16
ATOM     16  C   UNL     1     143.684 146.057 141.059  1.00  0.00    -0.000 C 
BRANCH  16  17
ATOM     17  C   UNL     1     144.819 146.005 140.021  1.00  0.00    -0.000 C 
BRANCH  17  18
ATOM     18  C   UNL     1     144.489 146.790 138.743  1.00  0.00    -0.000 C 
BRANCH  18  19
ATOM     19  C   UNL     1     145.734 147.412 138.093  1.00  0.00    -0.003 C 
ATOM     20  C   UNL     1     147.009 146.945 138.789  1.00  0.00     0.004 C 
ENDBRANCH  18  19
ENDBRANCH  17  18
ENDBRANCH  16  17
ENDBRANCH  15  16
ENDBRANCH  14  15
ENDBRANCH  13  14
ENDBRANCH  12  13
ENDBRANCH   1  12
TORSDOF 16
ENDMDL
MODEL 5
REMARK VINA RESULT:    -2.204      3.444      5.952
REMARK INTER + INTRA:          -7.482
REMARK INTER:                  -4.856
REMARK INTRA:                  -2.626
REMARK UNBOUND:                -3.217
REMARK SMILES CCCCCCCCCCCCCCCCCC(=O)[O-]
REMARK SMILES IDX 10 1 11 2 12 3 13 4 14 5 15 6 16 7 17 8 18 9 19 10 20 11
REMARK SMILES IDX 9 12 8 13 7 14 6 15 5 16 4 17 3 18 2 19 1 20
REMARK H PARENT
REMARK Flexibility Score: inf
ROOT
ATOM      1  C   UNL     1     147.404 145.331 142.736  1.00  0.00     0.000 C 
ENDROOT
BRANCH   1   2
ATOM      2  C   UNL     1     147.951 146.770 142.736  1.00  0.00     0.000 C 
BRANCH   2   3
ATOM      3  C   UNL     1     146.865 147.814 143.036  1.00  0.00     0.000 C 
BRANCH   3   4
ATOM      4  C   UNL     1     147.402 149.256 142.994  1.00  0.00     0.000 C 
BRANCH   4   5
ATOM      5  C   UNL     1     146.811 150.063 141.818  1.00  0.00     0.000 C 
BRANCH   5   6
ATOM      6  C   UNL     1     145.574 149.406 141.182  1.00  0.00     0.000 C 
BRANCH   6   7
ATOM      7  C   UNL     1     144.449 150.408 140.888  1.00  0.00     0.006 C 
BRANCH   7   8
ATOM      8  C   UNL     1     143.409 149.802 139.940  1.00  0.00     0.053 C 
BRANCH   8   9
ATOM      9  C   UNL     1     143.781 150.067 138.515  1.00  0.00     0.041 C 
ATOM     10  O   UNL     1     144.165 149.124 137.774  1.00  0.00    -0.550 OA
ATOM     11  O   UNL     1     143.659 151.350 137.993  1.00  0.00    -0.550 OA
ENDBRANCH   8   9
ENDBRANCH   7   8
ENDBRANCH   6   7
ENDBRANCH   5   6
ENDBRANCH   4   5
ENDBRANCH   3   4
ENDBRANCH   2   3
ENDBRANCH   1   2
BRANCH   1  12
ATOM     12  C   UNL     1     145.881 145.263 142.514  1.00  0.00     0.000 C 
BRANCH  12  13
ATOM     13  C   UNL     1     145.070 144.764 143.726  1.00  0.00    -0.000 C 
BRANCH  13  14
ATOM     14  C   UNL     1     143.893 145.681 144.128  1.00  0.00    -0.000 C 
BRANCH  14  15
ATOM     15  C   UNL     1     143.460 146.671 143.029  1.00  0.00    -0.000 C 
BRANCH  15  16
ATOM     16  C   UNL     1     143.148 148.090 143.551  1.00  0.00    -0.000 C 
BRANCH  16  17
ATOM     17  C   UNL     1     143.742 148.341 144.949  1.00  0.00    -0.000 C 
BRANCH  17  18
ATOM     18  C   UNL     1     144.377 149.733 145.080  1.00  0.00    -0.000 C 
BRANCH  18  19
ATOM     19  C   UNL     1     143.531 150.834 144.421  1.00  0.00    -0.003 C 
ATOM     20  C   UNL     1     143.582 152.126 145.232  1.00  0.00     0.004 C 
ENDBRANCH  18  19
ENDBRANCH  17  18
ENDBRANCH  16  17
ENDBRANCH  15  16
ENDBRANCH  14  15
ENDBRANCH  13  14
ENDBRANCH  12  13
ENDBRANCH   1  12
TORSDOF 16
ENDMDL
MODEL 6
REMARK VINA RESULT:    -2.155      3.511      5.967
REMARK INTER + INTRA:          -7.388
REMARK INTER:                  -4.298
REMARK INTRA:                  -3.091
REMARK UNBOUND:                -3.217
REMARK SMILES CCCCCCCCCCCCCCCCCC(=O)[O-]
REMARK SMILES IDX 10 1 11 2 12 3 13 4 14 5 15 6 16 7 17 8 18 9 19 10 20 11
REMARK SMILES IDX 9 12 8 13 7 14 6 15 5 16 4 17 3 18 2 19 1 20
REMARK H PARENT
REMARK Flexibility Score: inf
ROOT
ATOM      1  C   UNL     1     146.170 149.554 143.129  1.00  0.00     0.000 C 
ENDROOT
BRANCH   1   2
ATOM      2  C   UNL     1     145.077 148.842 143.946  1.00  0.00     0.000 C 
BRANCH   2   3
ATOM      3  C   UNL     1     143.698 148.910 143.272  1.00  0.00     0.000 C 
BRANCH   3   4
ATOM      4  C   UNL     1     143.780 148.776 141.740  1.00  0.00     0.000 C 
BRANCH   4   5
ATOM      5  C   UNL     1     143.539 147.326 141.269  1.00  0.00     0.000 C 
BRANCH   5   6
ATOM      6  C   UNL     1     144.641 146.792 140.337  1.00  0.00     0.000 C 
BRANCH   6   7
ATOM      7  C   UNL     1     145.452 147.912 139.669  1.00  0.00     0.006 C 
BRANCH   7   8
ATOM      8  C   UNL     1     145.459 147.751 138.146  1.00  0.00     0.053 C 
BRANCH   8   9
ATOM      9  C   UNL     1     144.525 148.733 137.511  1.00  0.00     0.041 C 
ATOM     10  O   UNL     1     144.326 148.708 136.268  1.00  0.00    -0.550 OA
ATOM     11  O   UNL     1     143.837 149.647 138.301  1.00  0.00    -0.550 OA
ENDBRANCH   8   9
ENDBRANCH   7   8
ENDBRANCH   6   7
ENDBRANCH   5   6
ENDBRANCH   4   5
ENDBRANCH   3   4
ENDBRANCH   2   3
ENDBRANCH   1   2
BRANCH   1  12
ATOM     12  C   UNL     1     147.345 148.629 142.756  1.00  0.00     0.000 C 
BRANCH  12  13
ATOM     13  C   UNL     1     147.144 147.145 143.124  1.00  0.00    -0.000 C 
BRANCH  13  14
ATOM     14  C   UNL     1     148.046 146.165 142.341  1.00  0.00    -0.000 C 
BRANCH  14  15
ATOM     15  C   UNL     1     147.346 144.856 141.927  1.00  0.00    -0.000 C 
BRANCH  15  16
ATOM     16  C   UNL     1     146.553 144.181 143.065  1.00  0.00    -0.000 C 
BRANCH  16  17
ATOM     17  C   UNL     1     145.044 144.120 142.769  1.00  0.00    -0.000 C 
BRANCH  17  18
ATOM     18  C   UNL     1     144.201 144.819 143.845  1.00  0.00    -0.000 C 
BRANCH  18  19
ATOM     19  C   UNL     1     144.988 145.074 145.140  1.00  0.00    -0.003 C 
ATOM     20  C   UNL     1     144.166 145.893 146.131  1.00  0.00     0.004 C 
ENDBRANCH  18  19
ENDBRANCH  17  18
ENDBRANCH  16  17
ENDBRANCH  15  16
ENDBRANCH  14  15
ENDBRANCH  13  14
ENDBRANCH  12  13
ENDBRANCH   1  12
TORSDOF 16
ENDMDL
MODEL 7
REMARK VINA RESULT:    -2.144      1.751      3.386
REMARK INTER + INTRA:          -7.366
REMARK INTER:                  -5.109
REMARK INTRA:                  -2.257
REMARK UNBOUND:                -3.217
REMARK SMILES CCCCCCCCCCCCCCCCCC(=O)[O-]
REMARK SMILES IDX 10 1 11 2 12 3 13 4 14 5 15 6 16 7 17 8 18 9 19 10 20 11
REMARK SMILES IDX 9 12 8 13 7 14 6 15 5 16 4 17 3 18 2 19 1 20
REMARK H PARENT
REMARK Flexibility Score: inf
ROOT
ATOM      1  C   UNL     1     146.563 149.186 141.744  1.00  0.00     0.000 C 
ENDROOT
BRANCH   1   2
ATOM      2  C   UNL     1     146.553 149.509 143.249  1.00  0.00     0.000 C 
BRANCH   2   3
ATOM      3  C   UNL     1     145.171 149.958 143.747  1.00  0.00     0.000 C 
BRANCH   3   4
ATOM      4  C   UNL     1     144.571 148.990 144.782  1.00  0.00     0.000 C 
BRANCH   4   5
ATOM      5  C   UNL     1     143.845 149.734 145.924  1.00  0.00     0.000 C 
BRANCH   5   6
ATOM      6  C   UNL     1     144.219 151.223 146.021  1.00  0.00     0.000 C 
BRANCH   6   7
ATOM      7  C   UNL     1     144.497 151.676 147.461  1.00  0.00     0.006 C 
BRANCH   7   8
ATOM      8  C   UNL     1     145.875 151.199 147.931  1.00  0.00     0.053 C 
BRANCH   8   9
ATOM      9  C   UNL     1     145.790 150.630 149.312  1.00  0.00     0.041 C 
ATOM     10  O   UNL     1     145.307 151.315 150.252  1.00  0.00    -0.550 OA
ATOM     11  O   UNL     1     146.202 149.324 149.552  1.00  0.00    -0.550 OA
ENDBRANCH   8   9
ENDBRANCH   7   8
ENDBRANCH   6   7
ENDBRANCH   5   6
ENDBRANCH   4   5
ENDBRANCH   3   4
ENDBRANCH   2   3
ENDBRANCH   1   2
BRANCH   1  12
ATOM     12  C   UNL     1     145.242 149.551 141.039  1.00  0.00     0.000 C 
BRANCH  12  13
ATOM     13  C   UNL     1     144.612 148.413 140.211  1.00  0.00    -0.000 C 
BRANCH  13  14
ATOM     14  C   UNL     1     144.714 147.016 140.864  1.00  0.00    -0.000 C 
BRANCH  14  15
ATOM     15  C   UNL     1     143.738 146.792 142.035  1.00  0.00    -0.000 C 
BRANCH  15  16
ATOM     16  C   UNL     1     144.158 145.660 142.995  1.00  0.00    -0.000 C 
BRANCH  16  17
ATOM     17  C   UNL     1     145.615 145.808 143.471  1.00  0.00    -0.000 C 
BRANCH  17  18
ATOM     18  C   UNL     1     146.481 144.591 143.110  1.00  0.00    -0.000 C 
BRANCH  18  19
ATOM     19  C   UNL     1     147.696 144.965 142.248  1.00  0.00    -0.003 C 
ATOM     20  C   UNL     1     148.378 146.224 142.775  1.00  0.00     0.004 C 
ENDBRANCH  18  19
ENDBRANCH  17  18
ENDBRANCH  16  17
ENDBRANCH  15  16
ENDBRANCH  14  15
ENDBRANCH  13  14
ENDBRANCH  12  13
ENDBRANCH   1  12
TORSDOF 16
ENDMDL
MODEL 8
REMARK VINA RESULT:    -2.129      1.686      4.177
REMARK INTER + INTRA:          -7.338
REMARK INTER:                  -4.814
REMARK INTRA:                  -2.524
REMARK UNBOUND:                -3.217
REMARK SMILES CCCCCCCCCCCCCCCCCC(=O)[O-]
REMARK SMILES IDX 10 1 11 2 12 3 13 4 14 5 15 6 16 7 17 8 18 9 19 10 20 11
REMARK SMILES IDX 9 12 8 13 7 14 6 15 5 16 4 17 3 18 2 19 1 20
REMARK H PARENT
REMARK Flexibility Score: inf
ROOT
ATOM      1  C   UNL     1     144.177 147.582 144.837  1.00  0.00     0.000 C 
ENDROOT
BRANCH   1   2
ATOM      2  C   UNL     1     143.364 148.880 144.992  1.00  0.00     0.000 C 
BRANCH   2   3
ATOM      3  C   UNL     1     144.188 150.135 144.661  1.00  0.00     0.000 C 
BRANCH   3   4
ATOM      4  C   UNL     1     143.313 151.391 144.500  1.00  0.00     0.000 C 
BRANCH   4   5
ATOM      5  C   UNL     1     143.152 152.163 145.828  1.00  0.00     0.000 C 
BRANCH   5   6
ATOM      6  C   UNL     1     144.395 152.096 146.732  1.00  0.00     0.000 C 
BRANCH   6   7
ATOM      7  C   UNL     1     144.096 151.507 148.117  1.00  0.00     0.006 C 
BRANCH   7   8
ATOM      8  C   UNL     1     144.795 150.155 148.301  1.00  0.00     0.053 C 
BRANCH   8   9
ATOM      9  C   UNL     1     145.609 150.153 149.557  1.00  0.00     0.041 C 
ATOM     10  O   UNL     1     146.356 149.176 149.828  1.00  0.00    -0.550 OA
ATOM     11  O   UNL     1     145.578 151.254 150.406  1.00  0.00    -0.550 OA
ENDBRANCH   8   9
ENDBRANCH   7   8
ENDBRANCH   6   7
ENDBRANCH   5   6
ENDBRANCH   4   5
ENDBRANCH   3   4
ENDBRANCH   2   3
ENDBRANCH   1   2
BRANCH   1  12
ATOM     12  C   UNL     1     143.644 146.664 143.721  1.00  0.00     0.000 C 
BRANCH  12  13
ATOM     13  C   UNL     1     144.714 145.803 143.021  1.00  0.00    -0.000 C 
BRANCH  13  14
ATOM     14  C   UNL     1     146.121 145.894 143.654  1.00  0.00    -0.000 C 
BRANCH  14  15
ATOM     15  C   UNL     1     147.184 146.536 142.741  1.00  0.00    -0.000 C 
BRANCH  15  16
ATOM     16  C   UNL     1     147.372 148.051 142.967  1.00  0.00    -0.000 C 
BRANCH  16  17
ATOM     17  C   UNL     1     146.517 148.896 142.005  1.00  0.00    -0.000 C 
BRANCH  17  18
ATOM     18  C   UNL     1     146.280 148.199 140.657  1.00  0.00    -0.000 C 
BRANCH  18  19
ATOM     19  C   UNL     1     144.876 148.466 140.092  1.00  0.00    -0.003 C 
ATOM     20  C   UNL     1     144.046 149.306 141.059  1.00  0.00     0.004 C 
ENDBRANCH  18  19
ENDBRANCH  17  18
ENDBRANCH  16  17
ENDBRANCH  15  16
ENDBRANCH  14  15
ENDBRANCH  13  14
ENDBRANCH  12  13
ENDBRANCH   1  12
TORSDOF 16
ENDMDL
MODEL 9
REMARK VINA RESULT:    -2.111      1.279      2.948
REMARK INTER + INTRA:          -7.303
REMARK INTER:                  -4.725
REMARK INTRA:                  -2.578
REMARK UNBOUND:                -3.217
REMARK SMILES CCCCCCCCCCCCCCCCCC(=O)[O-]
REMARK SMILES IDX 10 1 11 2 12 3 13 4 14 5 15 6 16 7 17 8 18 9 19 10 20 11
REMARK SMILES IDX 9 12 8 13 7 14 6 15 5 16 4 17 3 18 2 19 1 20
REMARK H PARENT
REMARK Flexibility Score: inf
ROOT
ATOM      1  C   UNL     1     146.357 149.896 141.882  1.00  0.00     0.000 C 
ENDROOT
BRANCH   1   2
ATOM      2  C   UNL     1     145.459 149.028 140.982  1.00  0.00     0.000 C 
BRANCH   2   3
ATOM      3  C   UNL     1     143.965 149.211 141.287  1.00  0.00     0.000 C 
BRANCH   3   4
ATOM      4  C   UNL     1     143.639 150.614 141.832  1.00  0.00     0.000 C 
BRANCH   4   5
ATOM      5  C   UNL     1     143.044 150.561 143.256  1.00  0.00     0.000 C 
BRANCH   5   6
ATOM      6  C   UNL     1     143.068 149.154 143.880  1.00  0.00     0.000 C 
BRANCH   6   7
ATOM      7  C   UNL     1     143.980 149.062 145.111  1.00  0.00     0.006 C 
BRANCH   7   8
ATOM      8  C   UNL     1     144.700 150.391 145.361  1.00  0.00     0.053 C 
BRANCH   8   9
ATOM      9  C   UNL     1     144.423 150.884 146.747  1.00  0.00     0.041 C 
ATOM     10  O   UNL     1     143.256 150.830 147.218  1.00  0.00    -0.550 OA
ATOM     11  O   UNL     1     145.464 151.361 147.535  1.00  0.00    -0.550 OA
ENDBRANCH   8   9
ENDBRANCH   7   8
ENDBRANCH   6   7
ENDBRANCH   5   6
ENDBRANCH   4   5
ENDBRANCH   3   4
ENDBRANCH   2   3
ENDBRANCH   1   2
BRANCH   1  12
ATOM     12  C   UNL     1     147.184 149.071 142.886  1.00  0.00     0.000 C 
BRANCH  12  13
ATOM     13  C   UNL     1     146.787 147.584 142.987  1.00  0.00    -0.000 C 
BRANCH  13  14
ATOM     14  C   UNL     1     147.982 146.605 143.015  1.00  0.00    -0.000 C 
BRANCH  14  15
ATOM     15  C   UNL     1     147.912 145.493 141.949  1.00  0.00    -0.000 C 
BRANCH  15  16
ATOM     16  C   UNL     1     146.554 145.404 141.222  1.00  0.00    -0.000 C 
BRANCH  16  17
ATOM     17  C   UNL     1     146.714 145.306 139.695  1.00  0.00    -0.000 C 
BRANCH  17  18
ATOM     18  C   UNL     1     147.110 146.644 139.053  1.00  0.00    -0.000 C 
BRANCH  18  19
ATOM     19  C   UNL     1     146.215 147.015 137.861  1.00  0.00    -0.003 C 
ATOM     20  C   UNL     1     144.753 146.685 138.147  1.00  0.00     0.004 C 
ENDBRANCH  18  19
ENDBRANCH  17  18
ENDBRANCH  16  17
ENDBRANCH  15  16
ENDBRANCH  14  15
ENDBRANCH  13  14
ENDBRANCH  12  13
ENDBRANCH   1  12
TORSDOF 16
ENDMDL
