MODEL 1
REMARK VINA RESULT:    -4.095      0.000      0.000
REMARK INTER + INTRA:          -6.025
REMARK INTER:                  -5.531
REMARK INTRA:                  -0.494
REMARK UNBOUND:                -0.494
REMARK SMILES O=C[C@H](O)[C@@H](O)[C@@H](O)CO
REMARK SMILES IDX 7 1 9 2 10 3 5 5 3 6 2 7 1 8 4 9 6 11 8 13
REMARK H PARENT 10 4 4 10 6 12 8 14
REMARK Flexibility Score: inf
ROOT
ATOM      1  C   UNL     1     -20.088  22.833  10.763  1.00  0.00     0.171 C 
ENDROOT
BRANCH   1   2
ATOM      2  C   UNL     1     -18.948  23.455   9.931  1.00  0.00     0.190 C 
BRANCH   2   3
ATOM      3  O   UNL     1     -17.731  23.409  10.622  1.00  0.00    -0.394 OA
ATOM      4  H   UNL     1     -17.530  24.344  10.889  1.00  0.00     0.210 HD
ENDBRANCH   2   3
ENDBRANCH   1   2
BRANCH   1   5
ATOM      5  C   UNL     1     -20.030  23.127  12.293  1.00  0.00     0.181 C 
BRANCH   5   6
ATOM      6  C   UNL     1     -20.197  24.622  12.709  1.00  0.00     0.209 C 
BRANCH   6   7
ATOM      7  C   UNL     1     -20.508  24.786  14.176  1.00  0.00     0.258 C 
ATOM      8  O   UNL     1     -19.994  24.042  14.996  1.00  0.00    -0.300 OA
ENDBRANCH   6   7
BRANCH   6   9
ATOM      9  O   UNL     1     -21.216  25.235  11.957  1.00  0.00    -0.383 OA
ATOM     10  H   UNL     1     -20.807  25.567  11.114  1.00  0.00     0.211 HD
ENDBRANCH   6   9
ENDBRANCH   5   6
BRANCH   5  11
ATOM     11  O   UNL     1     -20.984  22.327  12.950  1.00  0.00    -0.387 OA
ATOM     12  H   UNL     1     -20.565  21.444  13.126  1.00  0.00     0.211 HD
ENDBRANCH   5  11
ENDBRANCH   1   5
BRANCH   1  13
ATOM     13  O   UNL     1     -21.350  23.120  10.210  1.00  0.00    -0.388 OA
ATOM     14  H   UNL     1     -21.478  24.102  10.215  1.00  0.00     0.211 HD
ENDBRANCH   1  13
TORSDOF 8
ENDMDL
MODEL 2
REMARK VINA RESULT:    -4.083      0.811      3.524
REMARK INTER + INTRA:          -6.008
REMARK INTER:                  -5.261
REMARK INTRA:                  -0.748
REMARK UNBOUND:                -0.494
REMARK SMILES O=C[C@H](O)[C@@H](O)[C@@H](O)CO
REMARK SMILES IDX 7 1 9 2 10 3 5 5 3 6 2 7 1 8 4 9 6 11 8 13
REMARK H PARENT 10 4 4 10 6 12 8 14
REMARK Flexibility Score: inf
ROOT
ATOM      1  C   UNL     1     -20.141  24.301  12.626  1.00  0.00     0.171 C 
ENDROOT
BRANCH   1   2
ATOM      2  C   UNL     1     -20.119  24.381  14.165  1.00  0.00     0.190 C 
BRANCH   2   3
ATOM      3  O   UNL     1     -18.820  24.221  14.665  1.00  0.00    -0.394 OA
ATOM      4  H   UNL     1     -18.459  23.402  14.236  1.00  0.00     0.210 HD
ENDBRANCH   2   3
ENDBRANCH   1   2
BRANCH   1   5
ATOM      5  C   UNL     1     -20.165  22.858  12.037  1.00  0.00     0.181 C 
BRANCH   5   6
ATOM      6  C   UNL     1     -20.182  22.755  10.479  1.00  0.00     0.209 C 
BRANCH   6   7
ATOM      7  C   UNL     1     -19.010  23.457   9.837  1.00  0.00     0.258 C 
ATOM      8  O   UNL     1     -17.871  23.086  10.076  1.00  0.00    -0.300 OA
ENDBRANCH   6   7
BRANCH   6   9
ATOM      9  O   UNL     1     -21.373  23.293   9.960  1.00  0.00    -0.383 OA
ATOM     10  H   UNL     1     -22.121  22.960  10.523  1.00  0.00     0.211 HD
ENDBRANCH   6   9
ENDBRANCH   5   6
BRANCH   5  11
ATOM     11  O   UNL     1     -19.081  22.130  12.563  1.00  0.00    -0.387 OA
ATOM     12  H   UNL     1     -19.448  21.458  13.195  1.00  0.00     0.211 HD
ENDBRANCH   5  11
ENDBRANCH   1   5
BRANCH   1  13
ATOM     13  O   UNL     1     -21.146  25.120  12.078  1.00  0.00    -0.388 OA
ATOM     14  H   UNL     1     -21.253  25.916  12.660  1.00  0.00     0.211 HD
ENDBRANCH   1  13
TORSDOF 8
ENDMDL
MODEL 3
REMARK VINA RESULT:    -3.971      1.395      2.578
REMARK INTER + INTRA:          -5.857
REMARK INTER:                  -5.010
REMARK INTRA:                  -0.847
REMARK UNBOUND:                -0.494
REMARK SMILES O=C[C@H](O)[C@@H](O)[C@@H](O)CO
REMARK SMILES IDX 7 1 9 2 10 3 5 5 3 6 2 7 1 8 4 9 6 11 8 13
REMARK H PARENT 10 4 4 10 6 12 8 14
REMARK Flexibility Score: inf
ROOT
ATOM      1  C   UNL     1     -20.179  23.736  10.922  1.00  0.00     0.171 C 
ENDROOT
BRANCH   1   2
ATOM      2  C   UNL     1     -20.780  24.950  11.657  1.00  0.00     0.190 C 
BRANCH   2   3
ATOM      3  O   UNL     1     -20.189  25.128  12.914  1.00  0.00    -0.394 OA
ATOM      4  H   UNL     1     -19.937  24.221  13.231  1.00  0.00     0.210 HD
ENDBRANCH   2   3
ENDBRANCH   1   2
BRANCH   1   5
ATOM      5  C   UNL     1     -20.025  22.447  11.786  1.00  0.00     0.181 C 
BRANCH   5   6
ATOM      6  C   UNL     1     -18.578  22.118  12.272  1.00  0.00     0.209 C 
BRANCH   6   7
ATOM      7  C   UNL     1     -18.452  22.136  13.776  1.00  0.00     0.258 C 
ATOM      8  O   UNL     1     -18.528  23.193  14.382  1.00  0.00    -0.300 OA
ENDBRANCH   6   7
BRANCH   6   9
ATOM      9  O   UNL     1     -17.654  23.028  11.729  1.00  0.00    -0.383 OA
ATOM     10  H   UNL     1     -16.788  22.892  12.198  1.00  0.00     0.211 HD
ENDBRANCH   6   9
ENDBRANCH   5   6
BRANCH   5  11
ATOM     11  O   UNL     1     -20.904  22.523  12.883  1.00  0.00    -0.387 OA
ATOM     12  H   UNL     1     -20.518  21.975  13.615  1.00  0.00     0.211 HD
ENDBRANCH   5  11
ENDBRANCH   1   5
BRANCH   1  13
ATOM     13  O   UNL     1     -20.838  23.488   9.704  1.00  0.00    -0.388 OA
ATOM     14  H   UNL     1     -21.778  23.245   9.900  1.00  0.00     0.211 HD
ENDBRANCH   1  13
TORSDOF 8
ENDMDL
MODEL 4
REMARK VINA RESULT:    -3.966      1.202      1.730
REMARK INTER + INTRA:          -5.851
REMARK INTER:                  -5.104
REMARK INTRA:                  -0.746
REMARK UNBOUND:                -0.494
REMARK SMILES O=C[C@H](O)[C@@H](O)[C@@H](O)CO
REMARK SMILES IDX 7 1 9 2 10 3 5 5 3 6 2 7 1 8 4 9 6 11 8 13
REMARK H PARENT 10 4 4 10 6 12 8 14
REMARK Flexibility Score: inf
ROOT
ATOM      1  C   UNL     1     -20.162  22.923  10.464  1.00  0.00     0.171 C 
ENDROOT
BRANCH   1   2
ATOM      2  C   UNL     1     -19.002  23.471   9.610  1.00  0.00     0.190 C 
BRANCH   2   3
ATOM      3  O   UNL     1     -17.807  23.512  10.340  1.00  0.00    -0.394 OA
ATOM      4  H   UNL     1     -17.714  24.446  10.663  1.00  0.00     0.210 HD
ENDBRANCH   2   3
ENDBRANCH   1   2
BRANCH   1   5
ATOM      5  C   UNL     1     -20.422  23.685  11.799  1.00  0.00     0.181 C 
BRANCH   5   6
ATOM      6  C   UNL     1     -19.854  23.017  13.090  1.00  0.00     0.209 C 
BRANCH   6   7
ATOM      7  C   UNL     1     -20.443  23.597  14.352  1.00  0.00     0.258 C 
ATOM      8  O   UNL     1     -20.430  24.804  14.533  1.00  0.00    -0.300 OA
ENDBRANCH   6   7
BRANCH   6   9
ATOM      9  O   UNL     1     -18.454  23.147  13.141  1.00  0.00    -0.383 OA
ATOM     10  H   UNL     1     -18.207  23.938  12.592  1.00  0.00     0.211 HD
ENDBRANCH   6   9
ENDBRANCH   5   6
BRANCH   5  11
ATOM     11  O   UNL     1     -19.938  25.002  11.676  1.00  0.00    -0.387 OA
ATOM     12  H   UNL     1     -20.518  25.588  12.228  1.00  0.00     0.211 HD
ENDBRANCH   5  11
ENDBRANCH   1   5
BRANCH   1  13
ATOM     13  O   UNL     1     -21.334  22.760   9.703  1.00  0.00    -0.388 OA
ATOM     14  H   UNL     1     -21.078  22.646   8.752  1.00  0.00     0.211 HD
ENDBRANCH   1  13
TORSDOF 8
ENDMDL
MODEL 5
REMARK VINA RESULT:    -3.962      1.506      2.562
REMARK INTER + INTRA:          -5.846
REMARK INTER:                  -5.149
REMARK INTRA:                  -0.696
REMARK UNBOUND:                -0.494
REMARK SMILES O=C[C@H](O)[C@@H](O)[C@@H](O)CO
REMARK SMILES IDX 7 1 9 2 10 3 5 5 3 6 2 7 1 8 4 9 6 11 8 13
REMARK H PARENT 10 4 4 10 6 12 8 14
REMARK Flexibility Score: inf
ROOT
ATOM      1  C   UNL     1     -19.267  22.633  11.177  1.00  0.00     0.171 C 
ENDROOT
BRANCH   1   2
ATOM      2  C   UNL     1     -20.183  22.364   9.967  1.00  0.00     0.190 C 
BRANCH   2   3
ATOM      3  O   UNL     1     -21.397  23.051  10.085  1.00  0.00    -0.394 OA
ATOM      4  H   UNL     1     -22.055  22.391  10.428  1.00  0.00     0.210 HD
ENDBRANCH   2   3
ENDBRANCH   1   2
BRANCH   1   5
ATOM      5  C   UNL     1     -20.007  22.905  12.522  1.00  0.00     0.181 C 
BRANCH   5   6
ATOM      6  C   UNL     1     -19.258  22.461  13.818  1.00  0.00     0.209 C 
BRANCH   6   7
ATOM      7  C   UNL     1     -20.066  22.705  15.068  1.00  0.00     0.258 C 
ATOM      8  O   UNL     1     -20.306  23.847  15.427  1.00  0.00    -0.300 OA
ENDBRANCH   6   7
BRANCH   6   9
ATOM      9  O   UNL     1     -18.028  23.132  13.933  1.00  0.00    -0.383 OA
ATOM     10  H   UNL     1     -18.225  24.089  14.113  1.00  0.00     0.211 HD
ENDBRANCH   6   9
ENDBRANCH   5   6
BRANCH   5  11
ATOM     11  O   UNL     1     -20.340  24.272  12.593  1.00  0.00    -0.387 OA
ATOM     12  H   UNL     1     -20.320  24.634  11.669  1.00  0.00     0.211 HD
ENDBRANCH   5  11
ENDBRANCH   1   5
BRANCH   1  13
ATOM     13  O   UNL     1     -18.272  21.646  11.304  1.00  0.00    -0.388 OA
ATOM     14  H   UNL     1     -18.389  20.987  10.573  1.00  0.00     0.211 HD
ENDBRANCH   1  13
TORSDOF 8
ENDMDL
MODEL 6
REMARK VINA RESULT:    -3.907      1.598      3.914
REMARK INTER + INTRA:          -5.771
REMARK INTER:                  -5.276
REMARK INTRA:                  -0.495
REMARK UNBOUND:                -0.494
REMARK SMILES O=C[C@H](O)[C@@H](O)[C@@H](O)CO
REMARK SMILES IDX 7 1 9 2 10 3 5 5 3 6 2 7 1 8 4 9 6 11 8 13
REMARK H PARENT 10 4 4 10 6 12 8 14
REMARK Flexibility Score: inf
ROOT
ATOM      1  C   UNL     1     -20.120  23.445  13.794  1.00  0.00     0.171 C 
ENDROOT
BRANCH   1   2
ATOM      2  C   UNL     1     -20.707  22.398  14.761  1.00  0.00     0.190 C 
BRANCH   2   3
ATOM      3  O   UNL     1     -21.974  21.972  14.341  1.00  0.00    -0.394 OA
ATOM      4  H   UNL     1     -22.054  21.024  14.624  1.00  0.00     0.210 HD
ENDBRANCH   2   3
ENDBRANCH   1   2
BRANCH   1   5
ATOM      5  C   UNL     1     -19.780  22.914  12.368  1.00  0.00     0.181 C 
BRANCH   5   6
ATOM      6  C   UNL     1     -20.433  23.685  11.177  1.00  0.00     0.209 C 
BRANCH   6   7
ATOM      7  C   UNL     1     -20.206  23.004   9.850  1.00  0.00     0.258 C 
ATOM      8  O   UNL     1     -19.901  21.822   9.814  1.00  0.00    -0.300 OA
ENDBRANCH   6   7
BRANCH   6   9
ATOM      9  O   UNL     1     -19.937  24.999  11.105  1.00  0.00    -0.383 OA
ATOM     10  H   UNL     1     -20.573  25.529  10.555  1.00  0.00     0.211 HD
ENDBRANCH   6   9
ENDBRANCH   5   6
BRANCH   5  11
ATOM     11  O   UNL     1     -18.380  22.875  12.215  1.00  0.00    -0.387 OA
ATOM     12  H   UNL     1     -17.976  23.074  13.100  1.00  0.00     0.211 HD
ENDBRANCH   5  11
ENDBRANCH   1   5
BRANCH   1  13
ATOM     13  O   UNL     1     -20.902  24.614  13.758  1.00  0.00    -0.388 OA
ATOM     14  H   UNL     1     -20.328  25.367  13.466  1.00  0.00     0.211 HD
ENDBRANCH   1  13
TORSDOF 8
ENDMDL
MODEL 7
REMARK VINA RESULT:    -3.839     17.796     18.943
REMARK INTER + INTRA:          -5.679
REMARK INTER:                  -5.179
REMARK INTRA:                  -0.500
REMARK UNBOUND:                -0.494
REMARK SMILES O=C[C@H](O)[C@@H](O)[C@@H](O)CO
REMARK SMILES IDX 7 1 9 2 10 3 5 5 3 6 2 7 1 8 4 9 6 11 8 13
REMARK H PARENT 10 4 4 10 6 12 8 14
REMARK Flexibility Score: inf
ROOT
ATOM      1  C   UNL     1     -30.974  38.237  15.433  1.00  0.00     0.171 C 
ENDROOT
BRANCH   1   2
ATOM      2  C   UNL     1     -32.091  38.149  16.492  1.00  0.00     0.190 C 
BRANCH   2   3
ATOM      3  O   UNL     1     -31.764  37.234  17.501  1.00  0.00    -0.394 OA
ATOM      4  H   UNL     1     -31.741  37.754  18.347  1.00  0.00     0.210 HD
ENDBRANCH   2   3
ENDBRANCH   1   2
BRANCH   1   5
ATOM      5  C   UNL     1     -29.563  38.603  15.985  1.00  0.00     0.181 C 
BRANCH   5   6
ATOM      6  C   UNL     1     -29.422  40.025  16.614  1.00  0.00     0.209 C 
BRANCH   6   7
ATOM      7  C   UNL     1     -29.320  39.988  18.119  1.00  0.00     0.258 C 
ATOM      8  O   UNL     1     -30.304  39.721  18.791  1.00  0.00    -0.300 OA
ENDBRANCH   6   7
BRANCH   6   9
ATOM      9  O   UNL     1     -30.513  40.837  16.253  1.00  0.00    -0.383 OA
ATOM     10  H   UNL     1     -30.828  41.297  17.075  1.00  0.00     0.211 HD
ENDBRANCH   6   9
ENDBRANCH   5   6
BRANCH   5  11
ATOM     11  O   UNL     1     -29.162  37.618  16.908  1.00  0.00    -0.387 OA
ATOM     12  H   UNL     1     -29.982  37.247  17.326  1.00  0.00     0.211 HD
ENDBRANCH   5  11
ENDBRANCH   1   5
BRANCH   1  13
ATOM     13  O   UNL     1     -30.948  37.094  14.611  1.00  0.00    -0.388 OA
ATOM     14  H   UNL     1     -30.945  37.389  13.665  1.00  0.00     0.211 HD
ENDBRANCH   1  13
TORSDOF 8
ENDMDL
MODEL 8
REMARK VINA RESULT:    -3.813      2.661      4.432
REMARK INTER + INTRA:          -5.645
REMARK INTER:                  -4.991
REMARK INTRA:                  -0.654
REMARK UNBOUND:                -0.494
REMARK SMILES O=C[C@H](O)[C@@H](O)[C@@H](O)CO
REMARK SMILES IDX 7 1 9 2 10 3 5 5 3 6 2 7 1 8 4 9 6 11 8 13
REMARK H PARENT 10 4 4 10 6 12 8 14
REMARK Flexibility Score: inf
ROOT
ATOM      1  C   UNL     1     -19.655  23.672  14.858  1.00  0.00     0.171 C 
ENDROOT
BRANCH   1   2
ATOM      2  C   UNL     1     -20.786  22.625  14.842  1.00  0.00     0.190 C 
BRANCH   2   3
ATOM      3  O   UNL     1     -21.204  22.347  13.534  1.00  0.00    -0.394 OA
ATOM      4  H   UNL     1     -20.466  22.644  12.940  1.00  0.00     0.210 HD
ENDBRANCH   2   3
ENDBRANCH   1   2
BRANCH   1   5
ATOM      5  C   UNL     1     -18.209  23.088  14.889  1.00  0.00     0.181 C 
BRANCH   5   6
ATOM      6  C   UNL     1     -17.837  22.122  13.720  1.00  0.00     0.209 C 
BRANCH   6   7
ATOM      7  C   UNL     1     -16.365  21.793  13.684  1.00  0.00     0.258 C 
ATOM      8  O   UNL     1     -15.575  22.584  13.193  1.00  0.00    -0.300 OA
ENDBRANCH   6   7
BRANCH   6   9
ATOM      9  O   UNL     1     -18.209  22.675  12.482  1.00  0.00    -0.383 OA
ATOM     10  H   UNL     1     -18.367  21.922  11.853  1.00  0.00     0.211 HD
ENDBRANCH   6   9
ENDBRANCH   5   6
BRANCH   5  11
ATOM     11  O   UNL     1     -17.287  24.149  14.959  1.00  0.00    -0.387 OA
ATOM     12  H   UNL     1     -17.075  24.424  14.029  1.00  0.00     0.211 HD
ENDBRANCH   5  11
ENDBRANCH   1   5
BRANCH   1  13
ATOM     13  O   UNL     1     -19.823  24.632  13.843  1.00  0.00    -0.388 OA
ATOM     14  H   UNL     1     -20.138  24.171  13.025  1.00  0.00     0.211 HD
ENDBRANCH   1  13
TORSDOF 8
ENDMDL
MODEL 9
REMARK VINA RESULT:    -3.778      1.404      3.616
REMARK INTER + INTRA:          -5.597
REMARK INTER:                  -4.814
REMARK INTRA:                  -0.783
REMARK UNBOUND:                -0.494
REMARK SMILES O=C[C@H](O)[C@@H](O)[C@@H](O)CO
REMARK SMILES IDX 7 1 9 2 10 3 5 5 3 6 2 7 1 8 4 9 6 11 8 13
REMARK H PARENT 10 4 4 10 6 12 8 14
REMARK Flexibility Score: inf
ROOT
ATOM      1  C   UNL     1     -20.252  24.405  11.722  1.00  0.00     0.171 C 
ENDROOT
BRANCH   1   2
ATOM      2  C   UNL     1     -20.107  23.311  12.798  1.00  0.00     0.190 C 
BRANCH   2   3
ATOM      3  O   UNL     1     -18.763  22.966  12.995  1.00  0.00    -0.394 OA
ATOM      4  H   UNL     1     -18.703  21.989  12.827  1.00  0.00     0.210 HD
ENDBRANCH   2   3
ENDBRANCH   1   2
BRANCH   1   5
ATOM      5  C   UNL     1     -20.387  23.884  10.259  1.00  0.00     0.181 C 
BRANCH   5   6
ATOM      6  C   UNL     1     -19.062  23.423   9.573  1.00  0.00     0.209 C 
BRANCH   6   7
ATOM      7  C   UNL     1     -18.939  21.921   9.497  1.00  0.00     0.258 C 
ATOM      8  O   UNL     1     -18.704  21.276  10.506  1.00  0.00    -0.300 OA
ENDBRANCH   6   7
BRANCH   6   9
ATOM      9  O   UNL     1     -17.945  23.937  10.256  1.00  0.00    -0.383 OA
ATOM     10  H   UNL     1     -18.004  24.929  10.221  1.00  0.00     0.211 HD
ENDBRANCH   6   9
ENDBRANCH   5   6
BRANCH   5  11
ATOM     11  O   UNL     1     -21.340  22.848  10.228  1.00  0.00    -0.387 OA
ATOM     12  H   UNL     1     -21.803  22.893   9.351  1.00  0.00     0.211 HD
ENDBRANCH   5  11
ENDBRANCH   1   5
BRANCH   1  13
ATOM     13  O   UNL     1     -21.259  25.330  12.056  1.00  0.00    -0.388 OA
ATOM     14  H   UNL     1     -20.953  26.235  11.793  1.00  0.00     0.211 HD
ENDBRANCH   1  13
TORSDOF 8
ENDMDL
