MODEL 1
REMARK VINA RESULT:    -3.210      0.000      0.000
REMARK INTER + INTRA:          -3.840
REMARK INTER:                  -3.773
REMARK INTRA:                  -0.067
REMARK UNBOUND:                -0.067
REMARK SMILES O=C([O-])CCC(=O)[O-]
REMARK SMILES IDX 4 1 2 2 1 3 3 4 5 5 6 6 7 7 8 8
REMARK H PARENT
REMARK Flexibility Score: inf
ROOT
ATOM      1  C   UNL     1     -10.673   1.362  15.675  1.00  0.00     0.059 C 
ENDROOT
BRANCH   1   2
ATOM      2  C   UNL     1     -10.617   0.602  14.386  1.00  0.00     0.042 C 
ATOM      3  O   UNL     1     -11.680   0.236  13.819  1.00  0.00    -0.550 OA
ATOM      4  O   UNL     1      -9.389   0.262  13.831  1.00  0.00    -0.550 OA
ENDBRANCH   1   2
BRANCH   1   5
ATOM      5  C   UNL     1     -12.112   1.732  16.049  1.00  0.00     0.059 C 
BRANCH   5   6
ATOM      6  C   UNL     1     -12.222   3.169  16.460  1.00  0.00     0.042 C 
ATOM      7  O   UNL     1     -11.408   4.021  16.014  1.00  0.00    -0.550 OA
ATOM      8  O   UNL     1     -13.199   3.561  17.366  1.00  0.00    -0.550 OA
ENDBRANCH   5   6
ENDBRANCH   1   5
TORSDOF 3
ENDMDL
MODEL 2
REMARK VINA RESULT:    -3.203      0.068      1.147
REMARK INTER + INTRA:          -3.832
REMARK INTER:                  -3.765
REMARK INTRA:                  -0.067
REMARK UNBOUND:                -0.067
REMARK SMILES O=C([O-])CCC(=O)[O-]
REMARK SMILES IDX 4 1 2 2 1 3 3 4 5 5 6 6 7 7 8 8
REMARK H PARENT
REMARK Flexibility Score: inf
ROOT
ATOM      1  C   UNL     1     -10.612   1.371  15.683  1.00  0.00     0.059 C 
ENDROOT
BRANCH   1   2
ATOM      2  C   UNL     1     -10.566   0.614  14.391  1.00  0.00     0.042 C 
ATOM      3  O   UNL     1      -9.460   0.359  13.845  1.00  0.00    -0.550 OA
ATOM      4  O   UNL     1     -11.747   0.225  13.770  1.00  0.00    -0.550 OA
ENDBRANCH   1   2
BRANCH   1   5
ATOM      5  C   UNL     1     -12.050   1.713  16.085  1.00  0.00     0.059 C 
BRANCH   5   6
ATOM      6  C   UNL     1     -12.190   3.159  16.453  1.00  0.00     0.042 C 
ATOM      7  O   UNL     1     -11.383   4.011  15.997  1.00  0.00    -0.550 OA
ATOM      8  O   UNL     1     -13.189   3.559  17.333  1.00  0.00    -0.550 OA
ENDBRANCH   5   6
ENDBRANCH   1   5
TORSDOF 3
ENDMDL
MODEL 3
REMARK VINA RESULT:    -3.199      0.094      4.143
REMARK INTER + INTRA:          -3.827
REMARK INTER:                  -3.762
REMARK INTRA:                  -0.064
REMARK UNBOUND:                -0.067
REMARK SMILES O=C([O-])CCC(=O)[O-]
REMARK SMILES IDX 4 1 2 2 1 3 3 4 5 5 6 6 7 7 8 8
REMARK H PARENT
REMARK Flexibility Score: inf
ROOT
ATOM      1  C   UNL     1     -11.981   1.729  16.092  1.00  0.00     0.059 C 
ENDROOT
BRANCH   1   2
ATOM      2  C   UNL     1     -12.158   3.172  16.452  1.00  0.00     0.042 C 
ATOM      3  O   UNL     1     -11.370   4.040  15.994  1.00  0.00    -0.550 OA
ATOM      4  O   UNL     1     -13.169   3.552  17.326  1.00  0.00    -0.550 OA
ENDBRANCH   1   2
BRANCH   1   5
ATOM      5  C   UNL     1     -10.544   1.429  15.652  1.00  0.00     0.059 C 
BRANCH   5   6
ATOM      6  C   UNL     1     -10.512   0.590  14.411  1.00  0.00     0.042 C 
ATOM      7  O   UNL     1      -9.410   0.239  13.911  1.00  0.00    -0.550 OA
ATOM      8  O   UNL     1     -11.698   0.230  13.783  1.00  0.00    -0.550 OA
ENDBRANCH   5   6
ENDBRANCH   1   5
TORSDOF 3
ENDMDL
MODEL 4
REMARK VINA RESULT:    -3.140      2.206      3.613
REMARK INTER + INTRA:          -3.757
REMARK INTER:                  -3.680
REMARK INTRA:                  -0.077
REMARK UNBOUND:                -0.067
REMARK SMILES O=C([O-])CCC(=O)[O-]
REMARK SMILES IDX 4 1 2 2 1 3 3 4 5 5 6 6 7 7 8 8
REMARK H PARENT
REMARK Flexibility Score: inf
ROOT
ATOM      1  C   UNL     1      -9.836   0.899  15.431  1.00  0.00     0.059 C 
ENDROOT
BRANCH   1   2
ATOM      2  C   UNL     1      -9.836   2.292  15.981  1.00  0.00     0.042 C 
ATOM      3  O   UNL     1     -10.441   3.214  15.372  1.00  0.00    -0.550 OA
ATOM      4  O   UNL     1      -9.135   2.581  17.145  1.00  0.00    -0.550 OA
ENDBRANCH   1   2
BRANCH   1   5
ATOM      5  C   UNL     1     -10.618   0.813  14.116  1.00  0.00     0.059 C 
BRANCH   5   6
ATOM      6  C   UNL     1     -11.983   0.230  14.323  1.00  0.00     0.042 C 
ATOM      7  O   UNL     1     -12.725   0.665  15.243  1.00  0.00    -0.550 OA
ATOM      8  O   UNL     1     -12.420  -0.820  13.526  1.00  0.00    -0.550 OA
ENDBRANCH   5   6
ENDBRANCH   1   5
TORSDOF 3
ENDMDL
MODEL 5
REMARK VINA RESULT:    -3.128      2.138      2.479
REMARK INTER + INTRA:          -3.743
REMARK INTER:                  -3.666
REMARK INTRA:                  -0.078
REMARK UNBOUND:                -0.067
REMARK SMILES O=C([O-])CCC(=O)[O-]
REMARK SMILES IDX 4 1 2 2 1 3 3 4 5 5 6 6 7 7 8 8
REMARK H PARENT
REMARK Flexibility Score: inf
ROOT
ATOM      1  C   UNL     1     -10.640   0.837  14.132  1.00  0.00     0.059 C 
ENDROOT
BRANCH   1   2
ATOM      2  C   UNL     1     -11.999   0.234  14.313  1.00  0.00     0.042 C 
ATOM      3  O   UNL     1     -12.722   0.581  15.283  1.00  0.00    -0.550 OA
ATOM      4  O   UNL     1     -12.451  -0.741  13.432  1.00  0.00    -0.550 OA
ENDBRANCH   1   2
BRANCH   1   5
ATOM      5  C   UNL     1      -9.879   0.920  15.459  1.00  0.00     0.059 C 
BRANCH   5   6
ATOM      6  C   UNL     1      -9.884   2.313  16.011  1.00  0.00     0.042 C 
ATOM      7  O   UNL     1      -9.202   2.593  17.032  1.00  0.00    -0.550 OA
ATOM      8  O   UNL     1     -10.672   3.292  15.420  1.00  0.00    -0.550 OA
ENDBRANCH   5   6
ENDBRANCH   1   5
TORSDOF 3
ENDMDL
MODEL 6
REMARK VINA RESULT:    -3.114      2.498      3.561
REMARK INTER + INTRA:          -3.728
REMARK INTER:                  -3.616
REMARK INTRA:                  -0.111
REMARK UNBOUND:                -0.067
REMARK SMILES O=C([O-])CCC(=O)[O-]
REMARK SMILES IDX 4 1 2 2 1 3 3 4 5 5 6 6 7 7 8 8
REMARK H PARENT
REMARK Flexibility Score: inf
ROOT
ATOM      1  C   UNL     1     -12.145   0.113  13.488  1.00  0.00     0.059 C 
ENDROOT
BRANCH   1   2
ATOM      2  C   UNL     1     -12.582  -1.313  13.621  1.00  0.00     0.042 C 
ATOM      3  O   UNL     1     -13.706  -1.588  14.118  1.00  0.00    -0.550 OA
ATOM      4  O   UNL     1     -11.732  -2.341  13.231  1.00  0.00    -0.550 OA
ENDBRANCH   1   2
BRANCH   1   5
ATOM      5  C   UNL     1     -11.570   0.651  14.803  1.00  0.00     0.059 C 
BRANCH   5   6
ATOM      6  C   UNL     1     -10.086   0.843  14.718  1.00  0.00     0.042 C 
ATOM      7  O   UNL     1      -9.525   1.754  15.381  1.00  0.00    -0.550 OA
ATOM      8  O   UNL     1      -9.329   0.041  13.873  1.00  0.00    -0.550 OA
ENDBRANCH   5   6
ENDBRANCH   1   5
TORSDOF 3
ENDMDL
MODEL 7
REMARK VINA RESULT:    -3.090      1.217      1.470
REMARK INTER + INTRA:          -3.699
REMARK INTER:                  -3.666
REMARK INTRA:                  -0.033
REMARK UNBOUND:                -0.067
REMARK SMILES O=C([O-])CCC(=O)[O-]
REMARK SMILES IDX 4 1 2 2 1 3 3 4 5 5 6 6 7 7 8 8
REMARK H PARENT
REMARK Flexibility Score: inf
ROOT
ATOM      1  C   UNL     1     -12.518   0.952  15.323  1.00  0.00     0.059 C 
ENDROOT
BRANCH   1   2
ATOM      2  C   UNL     1     -11.870   0.192  14.208  1.00  0.00     0.042 C 
ATOM      3  O   UNL     1     -12.523  -0.677  13.570  1.00  0.00    -0.550 OA
ATOM      4  O   UNL     1     -10.534   0.414  13.898  1.00  0.00    -0.550 OA
ENDBRANCH   1   2
BRANCH   1   5
ATOM      5  C   UNL     1     -11.492   1.760  16.125  1.00  0.00     0.059 C 
BRANCH   5   6
ATOM      6  C   UNL     1     -12.154   2.628  17.151  1.00  0.00     0.042 C 
ATOM      7  O   UNL     1     -12.995   3.498  16.799  1.00  0.00    -0.550 OA
ATOM      8  O   UNL     1     -11.813   2.505  18.492  1.00  0.00    -0.550 OA
ENDBRANCH   5   6
ENDBRANCH   1   5
TORSDOF 3
ENDMDL
MODEL 8
REMARK VINA RESULT:    -3.046      2.855      3.651
REMARK INTER + INTRA:          -3.647
REMARK INTER:                  -3.551
REMARK INTRA:                  -0.095
REMARK UNBOUND:                -0.067
REMARK SMILES O=C([O-])CCC(=O)[O-]
REMARK SMILES IDX 4 1 2 2 1 3 3 4 5 5 6 6 7 7 8 8
REMARK H PARENT
REMARK Flexibility Score: inf
ROOT
ATOM      1  C   UNL     1     -12.931  -1.594  13.823  1.00  0.00     0.059 C 
ENDROOT
BRANCH   1   2
ATOM      2  C   UNL     1     -12.178  -2.613  13.023  1.00  0.00     0.042 C 
ATOM      3  O   UNL     1     -12.720  -3.165  12.030  1.00  0.00    -0.550 OA
ATOM      4  O   UNL     1     -10.892  -2.982  13.400  1.00  0.00    -0.550 OA
ENDBRANCH   1   2
BRANCH   1   5
ATOM      5  C   UNL     1     -12.511  -0.167  13.455  1.00  0.00     0.059 C 
BRANCH   5   6
ATOM      6  C   UNL     1     -11.788   0.503  14.584  1.00  0.00     0.042 C 
ATOM      7  O   UNL     1     -10.530   0.563  14.586  1.00  0.00    -0.550 OA
ATOM      8  O   UNL     1     -12.502   1.025  15.655  1.00  0.00    -0.550 OA
ENDBRANCH   5   6
ENDBRANCH   1   5
TORSDOF 3
ENDMDL
MODEL 9
REMARK VINA RESULT:    -2.980     12.519     13.611
REMARK INTER + INTRA:          -3.570
REMARK INTER:                  -3.462
REMARK INTRA:                  -0.108
REMARK UNBOUND:                -0.067
REMARK SMILES O=C([O-])CCC(=O)[O-]
REMARK SMILES IDX 4 1 2 2 1 3 3 4 5 5 6 6 7 7 8 8
REMARK H PARENT
REMARK Flexibility Score: inf
ROOT
ATOM      1  C   UNL     1      -2.470  -3.289  22.145  1.00  0.00     0.059 C 
ENDROOT
BRANCH   1   2
ATOM      2  C   UNL     1      -3.308  -2.122  22.567  1.00  0.00     0.042 C 
ATOM      3  O   UNL     1      -4.457  -1.956  22.078  1.00  0.00    -0.550 OA
ATOM      4  O   UNL     1      -2.805  -1.194  23.472  1.00  0.00    -0.550 OA
ENDBRANCH   1   2
BRANCH   1   5
ATOM      5  C   UNL     1      -0.990  -3.067  22.473  1.00  0.00     0.059 C 
BRANCH   5   6
ATOM      6  C   UNL     1      -0.564  -3.867  23.666  1.00  0.00     0.042 C 
ATOM      7  O   UNL     1      -0.658  -3.380  24.823  1.00  0.00    -0.550 OA
ATOM      8  O   UNL     1      -0.026  -5.137  23.496  1.00  0.00    -0.550 OA
ENDBRANCH   5   6
ENDBRANCH   1   5
TORSDOF 3
ENDMDL
