MODEL 1
REMARK VINA RESULT:    -4.800      0.000      0.000
REMARK INTER + INTRA:          -6.084
REMARK INTER:                  -5.783
REMARK INTRA:                  -0.302
REMARK UNBOUND:                -0.302
REMARK SMILES O=c1ccn([C@H]2O[C@H](CO)[C@H](O)[C@H]2O)c(=O)[nH]1
REMARK SMILES IDX 6 1 13 2 11 3 8 4 7 5 5 6 3 7 4 8 2 9 17 10 1 11 15 12 16 14
REMARK SMILES IDX 14 15 12 17 9 19 10 20
REMARK H PARENT 17 13 14 16 12 18 10 21
REMARK Flexibility Score: inf
ROOT
ATOM      1  C   UNL     1     -21.672  36.317 -37.759  1.00  0.00     0.255 C 
ATOM      2  C   UNL     1     -20.466  35.625 -37.102  1.00  0.00     0.196 C 
ATOM      3  C   UNL     1     -20.506  34.229 -37.678  1.00  0.00     0.179 C 
ATOM      4  C   UNL     1     -21.957  34.087 -38.136  1.00  0.00     0.178 C 
ATOM      5  O   UNL     1     -22.423  35.369 -38.492  1.00  0.00    -0.347 OA
ENDROOT
BRANCH   1   6
ATOM      6  N   UNL     1     -21.273  37.443 -38.632  1.00  0.00    -0.271 N 
ATOM      7  C   UNL     1     -21.033  38.330 -40.849  1.00  0.00     0.090 A 
ATOM      8  C   UNL     1     -21.377  37.292 -39.987  1.00  0.00     0.099 A 
ATOM      9  C   UNL     1     -20.590  39.530 -40.303  1.00  0.00     0.253 A 
ATOM     10  N   UNL     1     -20.507  39.668 -38.955  1.00  0.00    -0.274 N 
ATOM     11  O   UNL     1     -20.270  40.485 -41.059  1.00  0.00    -0.269 OA
ATOM     12  C   UNL     1     -20.848  38.648 -38.120  1.00  0.00     0.330 A 
ATOM     13  H   UNL     1     -20.180  40.576 -38.551  1.00  0.00     0.175 HD
ATOM     14  O   UNL     1     -20.774  38.827 -36.874  1.00  0.00    -0.248 OA
ENDBRANCH   1   6
BRANCH   2  15
ATOM     15  O   UNL     1     -19.252  36.265 -37.405  1.00  0.00    -0.386 OA
ATOM     16  H   UNL     1     -19.292  37.161 -36.981  1.00  0.00     0.211 HD
ENDBRANCH   2  15
BRANCH   3  17
ATOM     17  O   UNL     1     -20.147  33.262 -36.724  1.00  0.00    -0.387 OA
ATOM     18  H   UNL     1     -19.313  32.837 -37.056  1.00  0.00     0.211 HD
ENDBRANCH   3  17
BRANCH   4  19
ATOM     19  C   UNL     1     -22.889  33.478 -37.070  1.00  0.00     0.191 C 
BRANCH  19  20
ATOM     20  O   UNL     1     -22.896  32.079 -37.168  1.00  0.00    -0.394 OA
ATOM     21  H   UNL     1     -23.541  31.849 -37.887  1.00  0.00     0.210 HD
ENDBRANCH  19  20
ENDBRANCH   4  19
TORSDOF 5
ENDMDL
MODEL 2
REMARK VINA RESULT:    -4.752      2.313      5.874
REMARK INTER + INTRA:          -6.026
REMARK INTER:                  -6.085
REMARK INTRA:                   0.060
REMARK UNBOUND:                -0.302
REMARK SMILES O=c1ccn([C@H]2O[C@H](CO)[C@H](O)[C@H]2O)c(=O)[nH]1
REMARK SMILES IDX 6 1 13 2 11 3 8 4 7 5 5 6 3 7 4 8 2 9 17 10 1 11 15 12 16 14
REMARK SMILES IDX 14 15 12 17 9 19 10 20
REMARK H PARENT 17 13 14 16 12 18 10 21
REMARK Flexibility Score: inf
ROOT
ATOM      1  C   UNL     1     -21.093  35.053 -39.082  1.00  0.00     0.255 C 
ATOM      2  C   UNL     1     -20.148  35.809 -38.132  1.00  0.00     0.196 C 
ATOM      3  C   UNL     1     -20.853  37.128 -37.915  1.00  0.00     0.179 C 
ATOM      4  C   UNL     1     -21.784  37.225 -39.123  1.00  0.00     0.178 C 
ATOM      5  O   UNL     1     -22.134  35.913 -39.502  1.00  0.00    -0.347 OA
ENDROOT
BRANCH   1   6
ATOM      6  N   UNL     1     -21.653  33.829 -38.467  1.00  0.00    -0.271 N 
ATOM      7  C   UNL     1     -23.114  32.840 -36.840  1.00  0.00     0.090 A 
ATOM      8  C   UNL     1     -22.544  33.961 -37.438  1.00  0.00     0.099 A 
ATOM      9  C   UNL     1     -22.765  31.581 -37.318  1.00  0.00     0.253 A 
ATOM     10  N   UNL     1     -21.890  31.469 -38.350  1.00  0.00    -0.274 N 
ATOM     11  O   UNL     1     -23.264  30.549 -36.795  1.00  0.00    -0.269 OA
ATOM     12  C   UNL     1     -21.340  32.571 -38.930  1.00  0.00     0.330 A 
ATOM     13  H   UNL     1     -21.639  30.519 -38.709  1.00  0.00     0.175 HD
ATOM     14  O   UNL     1     -20.547  32.421 -39.899  1.00  0.00    -0.248 OA
ENDBRANCH   1   6
BRANCH   2  15
ATOM     15  O   UNL     1     -19.955  35.131 -36.917  1.00  0.00    -0.386 OA
ATOM     16  H   UNL     1     -19.102  35.468 -36.539  1.00  0.00     0.211 HD
ENDBRANCH   2  15
BRANCH   3  17
ATOM     17  O   UNL     1     -19.946  38.199 -37.850  1.00  0.00    -0.387 OA
ATOM     18  H   UNL     1     -19.050  37.799 -37.694  1.00  0.00     0.211 HD
ENDBRANCH   3  17
BRANCH   4  19
ATOM     19  C   UNL     1     -21.165  37.961 -40.328  1.00  0.00     0.191 C 
BRANCH  19  20
ATOM     20  O   UNL     1     -22.169  38.374 -41.217  1.00  0.00    -0.394 OA
ATOM     21  H   UNL     1     -21.798  38.268 -42.132  1.00  0.00     0.210 HD
ENDBRANCH  19  20
ENDBRANCH   4  19
TORSDOF 5
ENDMDL
MODEL 3
REMARK VINA RESULT:    -4.688      5.301      6.914
REMARK INTER + INTRA:          -5.949
REMARK INTER:                  -5.796
REMARK INTRA:                  -0.153
REMARK UNBOUND:                -0.302
REMARK SMILES O=c1ccn([C@H]2O[C@H](CO)[C@H](O)[C@H]2O)c(=O)[nH]1
REMARK SMILES IDX 6 1 13 2 11 3 8 4 7 5 5 6 3 7 4 8 2 9 17 10 1 11 15 12 16 14
REMARK SMILES IDX 14 15 12 17 9 19 10 20
REMARK H PARENT 17 13 14 16 12 18 10 21
REMARK Flexibility Score: inf
ROOT
ATOM      1  C   UNL     1     -23.033  30.361 -35.906  1.00  0.00     0.255 C 
ATOM      2  C   UNL     1     -21.893  30.449 -34.879  1.00  0.00     0.196 C 
ATOM      3  C   UNL     1     -21.697  29.013 -34.451  1.00  0.00     0.179 C 
ATOM      4  C   UNL     1     -23.028  28.359 -34.818  1.00  0.00     0.178 C 
ATOM      5  O   UNL     1     -23.552  29.046 -35.932  1.00  0.00    -0.347 OA
ENDROOT
BRANCH   1   6
ATOM      6  N   UNL     1     -22.606  30.772 -37.263  1.00  0.00    -0.271 N 
ATOM      7  C   UNL     1     -22.028  30.142 -39.506  1.00  0.00     0.090 A 
ATOM      8  C   UNL     1     -22.411  29.805 -38.210  1.00  0.00     0.099 A 
ATOM      9  C   UNL     1     -21.859  31.486 -39.821  1.00  0.00     0.253 A 
ATOM     10  N   UNL     1     -22.072  32.434 -38.873  1.00  0.00    -0.274 N 
ATOM     11  O   UNL     1     -21.512  31.820 -40.985  1.00  0.00    -0.269 OA
ATOM     12  C   UNL     1     -22.448  32.095 -37.609  1.00  0.00     0.330 A 
ATOM     13  H   UNL     1     -21.950  33.443 -39.119  1.00  0.00     0.175 HD
ATOM     14  O   UNL     1     -22.654  33.009 -36.765  1.00  0.00    -0.248 OA
ENDBRANCH   1   6
BRANCH   2  15
ATOM     15  O   UNL     1     -20.714  30.980 -35.431  1.00  0.00    -0.386 OA
ATOM     16  H   UNL     1     -20.689  30.686 -36.378  1.00  0.00     0.211 HD
ENDBRANCH   2  15
BRANCH   3  17
ATOM     17  O   UNL     1     -21.409  28.913 -33.079  1.00  0.00    -0.387 OA
ATOM     18  H   UNL     1     -21.010  28.015 -32.940  1.00  0.00     0.211 HD
ENDBRANCH   3  17
BRANCH   4  19
ATOM     19  C   UNL     1     -24.061  28.368 -33.674  1.00  0.00     0.191 C 
BRANCH  19  20
ATOM     20  O   UNL     1     -24.770  27.158 -33.644  1.00  0.00    -0.394 OA
ATOM     21  H   UNL     1     -24.094  26.433 -33.697  1.00  0.00     0.210 HD
ENDBRANCH  19  20
ENDBRANCH   4  19
TORSDOF 5
ENDMDL
MODEL 4
REMARK VINA RESULT:    -4.642      3.503      6.347
REMARK INTER + INTRA:          -5.893
REMARK INTER:                  -5.773
REMARK INTRA:                  -0.120
REMARK UNBOUND:                -0.302
REMARK SMILES O=c1ccn([C@H]2O[C@H](CO)[C@H](O)[C@H]2O)c(=O)[nH]1
REMARK SMILES IDX 6 1 13 2 11 3 8 4 7 5 5 6 3 7 4 8 2 9 17 10 1 11 15 12 16 14
REMARK SMILES IDX 14 15 12 17 9 19 10 20
REMARK H PARENT 17 13 14 16 12 18 10 21
REMARK Flexibility Score: inf
ROOT
ATOM      1  C   UNL     1     -19.467  40.243 -35.866  1.00  0.00     0.255 C 
ATOM      2  C   UNL     1     -20.615  40.185 -34.845  1.00  0.00     0.196 C 
ATOM      3  C   UNL     1     -20.786  41.627 -34.429  1.00  0.00     0.179 C 
ATOM      4  C   UNL     1     -19.441  42.254 -34.793  1.00  0.00     0.178 C 
ATOM      5  O   UNL     1     -18.923  41.548 -35.899  1.00  0.00    -0.347 OA
ENDROOT
BRANCH   1   6
ATOM      6  N   UNL     1     -19.894  39.830 -37.222  1.00  0.00    -0.271 N 
ATOM      7  C   UNL     1     -20.407  40.447 -39.484  1.00  0.00     0.090 A 
ATOM      8  C   UNL     1     -20.027  40.788 -38.189  1.00  0.00     0.099 A 
ATOM      9  C   UNL     1     -20.639  39.107 -39.778  1.00  0.00     0.253 A 
ATOM     10  N   UNL     1     -20.487  38.167 -38.811  1.00  0.00    -0.274 N 
ATOM     11  O   UNL     1     -20.986  38.770 -40.941  1.00  0.00    -0.269 OA
ATOM     12  C   UNL     1     -20.113  38.510 -37.547  1.00  0.00     0.330 A 
ATOM     13  H   UNL     1     -20.656  37.161 -39.042  1.00  0.00     0.175 HD
ATOM     14  O   UNL     1     -19.965  37.602 -36.685  1.00  0.00    -0.248 OA
ENDBRANCH   1   6
BRANCH   2  15
ATOM     15  O   UNL     1     -21.800  39.672 -35.399  1.00  0.00    -0.386 OA
ATOM     16  H   UNL     1     -22.202  40.405 -35.932  1.00  0.00     0.211 HD
ENDBRANCH   2  15
BRANCH   3  17
ATOM     17  O   UNL     1     -21.079  41.744 -33.060  1.00  0.00    -0.387 OA
ATOM     18  H   UNL     1     -20.460  41.128 -32.587  1.00  0.00     0.211 HD
ENDBRANCH   3  17
BRANCH   4  19
ATOM     19  C   UNL     1     -18.414  42.234 -33.644  1.00  0.00     0.191 C 
BRANCH  19  20
ATOM     20  O   UNL     1     -17.688  43.433 -33.616  1.00  0.00    -0.394 OA
ATOM     21  H   UNL     1     -18.100  43.999 -32.912  1.00  0.00     0.210 HD
ENDBRANCH  19  20
ENDBRANCH   4  19
TORSDOF 5
ENDMDL
MODEL 5
REMARK VINA RESULT:    -4.510      2.056      3.100
REMARK INTER + INTRA:          -5.734
REMARK INTER:                  -5.771
REMARK INTRA:                   0.037
REMARK UNBOUND:                -0.302
REMARK SMILES O=c1ccn([C@H]2O[C@H](CO)[C@H](O)[C@H]2O)c(=O)[nH]1
REMARK SMILES IDX 6 1 13 2 11 3 8 4 7 5 5 6 3 7 4 8 2 9 17 10 1 11 15 12 16 14
REMARK SMILES IDX 14 15 12 17 9 19 10 20
REMARK H PARENT 17 13 14 16 12 18 10 21
REMARK Flexibility Score: inf
ROOT
ATOM      1  C   UNL     1     -21.286  35.184 -38.777  1.00  0.00     0.255 C 
ATOM      2  C   UNL     1     -22.206  34.390 -37.834  1.00  0.00     0.196 C 
ATOM      3  C   UNL     1     -21.515  33.052 -37.715  1.00  0.00     0.179 C 
ATOM      4  C   UNL     1     -20.632  33.008 -38.961  1.00  0.00     0.178 C 
ATOM      5  O   UNL     1     -20.275  34.334 -39.282  1.00  0.00    -0.347 OA
ENDROOT
BRANCH   1   6
ATOM      6  N   UNL     1     -20.684  36.365 -38.118  1.00  0.00    -0.271 N 
ATOM      7  C   UNL     1     -19.129  37.244 -36.515  1.00  0.00     0.090 A 
ATOM      8  C   UNL     1     -19.740  36.165 -37.149  1.00  0.00     0.099 A 
ATOM      9  C   UNL     1     -19.493  38.532 -36.895  1.00  0.00     0.253 A 
ATOM     10  N   UNL     1     -20.421  38.712 -37.869  1.00  0.00    -0.274 N 
ATOM     11  O   UNL     1     -18.958  39.526 -36.337  1.00  0.00    -0.269 OA
ATOM     12  C   UNL     1     -21.011  37.650 -38.485  1.00  0.00     0.330 A 
ATOM     13  H   UNL     1     -20.684  39.683 -38.154  1.00  0.00     0.175 HD
ATOM     14  O   UNL     1     -21.853  37.864 -39.399  1.00  0.00    -0.248 OA
ENDBRANCH   1   6
BRANCH   2  15
ATOM     15  O   UNL     1     -22.343  35.004 -36.577  1.00  0.00    -0.386 OA
ATOM     16  H   UNL     1     -21.441  35.330 -36.323  1.00  0.00     0.211 HD
ENDBRANCH   2  15
BRANCH   3  17
ATOM     17  O   UNL     1     -22.437  31.992 -37.673  1.00  0.00    -0.387 OA
ATOM     18  H   UNL     1     -23.210  32.313 -37.139  1.00  0.00     0.211 HD
ENDBRANCH   3  17
BRANCH   4  19
ATOM     19  C   UNL     1     -21.307  32.347 -40.179  1.00  0.00     0.191 C 
BRANCH  19  20
ATOM     20  O   UNL     1     -20.364  32.102 -41.188  1.00  0.00    -0.394 OA
ATOM     21  H   UNL     1     -20.874  31.812 -41.989  1.00  0.00     0.210 HD
ENDBRANCH  19  20
ENDBRANCH   4  19
TORSDOF 5
ENDMDL
MODEL 6
REMARK VINA RESULT:    -4.481      4.460      6.578
REMARK INTER + INTRA:          -5.699
REMARK INTER:                  -5.311
REMARK INTRA:                  -0.388
REMARK UNBOUND:                -0.302
REMARK SMILES O=c1ccn([C@H]2O[C@H](CO)[C@H](O)[C@H]2O)c(=O)[nH]1
REMARK SMILES IDX 6 1 13 2 11 3 8 4 7 5 5 6 3 7 4 8 2 9 17 10 1 11 15 12 16 14
REMARK SMILES IDX 14 15 12 17 9 19 10 20
REMARK H PARENT 17 13 14 16 12 18 10 21
REMARK Flexibility Score: inf
ROOT
ATOM      1  C   UNL     1     -21.319  32.382 -36.509  1.00  0.00     0.255 C 
ATOM      2  C   UNL     1     -22.512  33.156 -35.923  1.00  0.00     0.196 C 
ATOM      3  C   UNL     1     -22.108  34.602 -36.094  1.00  0.00     0.179 C 
ATOM      4  C   UNL     1     -20.588  34.523 -36.229  1.00  0.00     0.178 C 
ATOM      5  O   UNL     1     -20.273  33.282 -36.819  1.00  0.00    -0.347 OA
ENDROOT
BRANCH   1   6
ATOM      6  N   UNL     1     -21.690  31.592 -37.705  1.00  0.00    -0.271 N 
ATOM      7  C   UNL     1     -21.698  31.379 -40.096  1.00  0.00     0.090 A 
ATOM      8  C   UNL     1     -21.388  32.093 -38.941  1.00  0.00     0.099 A 
ATOM      9  C   UNL     1     -22.313  30.138 -39.965  1.00  0.00     0.253 A 
ATOM     10  N   UNL     1     -22.591  29.649 -38.730  1.00  0.00    -0.274 N 
ATOM     11  O   UNL     1     -22.606  29.471 -40.993  1.00  0.00    -0.269 OA
ATOM     12  C   UNL     1     -22.282  30.354 -37.607  1.00  0.00     0.330 A 
ATOM     13  H   UNL     1     -23.047  28.712 -38.640  1.00  0.00     0.175 HD
ATOM     14  O   UNL     1     -22.541  29.853 -36.479  1.00  0.00    -0.248 OA
ENDBRANCH   1   6
BRANCH   2  15
ATOM     15  O   UNL     1     -23.713  32.880 -36.598  1.00  0.00    -0.386 OA
ATOM     16  H   UNL     1     -23.813  33.582 -37.292  1.00  0.00     0.211 HD
ENDBRANCH   2  15
BRANCH   3  17
ATOM     17  O   UNL     1     -22.510  35.388 -35.001  1.00  0.00    -0.387 OA
ATOM     18  H   UNL     1     -22.975  36.179 -35.380  1.00  0.00     0.211 HD
ENDBRANCH   3  17
BRANCH   4  19
ATOM     19  C   UNL     1     -19.838  34.661 -34.889  1.00  0.00     0.191 C 
BRANCH  19  20
ATOM     20  O   UNL     1     -19.591  36.012 -34.604  1.00  0.00    -0.394 OA
ATOM     21  H   UNL     1     -20.450  36.397 -34.289  1.00  0.00     0.210 HD
ENDBRANCH  19  20
ENDBRANCH   4  19
TORSDOF 5
ENDMDL
MODEL 7
REMARK VINA RESULT:    -4.448      4.224      6.022
REMARK INTER + INTRA:          -5.660
REMARK INTER:                  -5.315
REMARK INTRA:                  -0.345
REMARK UNBOUND:                -0.302
REMARK SMILES O=c1ccn([C@H]2O[C@H](CO)[C@H](O)[C@H]2O)c(=O)[nH]1
REMARK SMILES IDX 6 1 13 2 11 3 8 4 7 5 5 6 3 7 4 8 2 9 17 10 1 11 15 12 16 14
REMARK SMILES IDX 14 15 12 17 9 19 10 20
REMARK H PARENT 17 13 14 16 12 18 10 21
REMARK Flexibility Score: inf
ROOT
ATOM      1  C   UNL     1     -21.506  33.614 -37.533  1.00  0.00     0.255 C 
ATOM      2  C   UNL     1     -20.293  33.554 -36.589  1.00  0.00     0.196 C 
ATOM      3  C   UNL     1     -20.917  33.610 -35.214  1.00  0.00     0.179 C 
ATOM      4  C   UNL     1     -22.289  34.228 -35.482  1.00  0.00     0.178 C 
ATOM      5  O   UNL     1     -22.681  33.856 -36.784  1.00  0.00    -0.347 OA
ENDROOT
BRANCH   1   6
ATOM      6  N   UNL     1     -21.655  32.383 -38.341  1.00  0.00    -0.271 N 
ATOM      7  C   UNL     1     -22.469  30.132 -38.511  1.00  0.00     0.090 A 
ATOM      8  C   UNL     1     -22.286  31.305 -37.784  1.00  0.00     0.099 A 
ATOM      9  C   UNL     1     -22.005  30.082 -39.822  1.00  0.00     0.253 A 
ATOM     10  N   UNL     1     -21.395  31.167 -40.364  1.00  0.00    -0.274 N 
ATOM     11  O   UNL     1     -22.155  29.032 -40.502  1.00  0.00    -0.269 OA
ATOM     12  C   UNL     1     -21.223  32.310 -39.646  1.00  0.00     0.330 A 
ATOM     13  H   UNL     1     -21.056  31.124 -41.353  1.00  0.00     0.175 HD
ATOM     14  O   UNL     1     -20.668  33.301 -40.196  1.00  0.00    -0.248 OA
ENDBRANCH   1   6
BRANCH   2  15
ATOM     15  O   UNL     1     -19.540  32.380 -36.759  1.00  0.00    -0.386 OA
ATOM     16  H   UNL     1     -19.626  32.126 -37.714  1.00  0.00     0.211 HD
ENDBRANCH   2  15
BRANCH   3  17
ATOM     17  O   UNL     1     -20.147  34.377 -34.323  1.00  0.00    -0.387 OA
ATOM     18  H   UNL     1     -20.765  35.037 -33.915  1.00  0.00     0.211 HD
ENDBRANCH   3  17
BRANCH   4  19
ATOM     19  C   UNL     1     -22.313  35.764 -35.356  1.00  0.00     0.191 C 
BRANCH  19  20
ATOM     20  O   UNL     1     -22.545  36.142 -34.025  1.00  0.00    -0.394 OA
ATOM     21  H   UNL     1     -23.513  36.002 -33.855  1.00  0.00     0.210 HD
ENDBRANCH  19  20
ENDBRANCH   4  19
TORSDOF 5
ENDMDL
MODEL 8
REMARK VINA RESULT:    -4.441      4.159      7.923
REMARK INTER + INTRA:          -5.651
REMARK INTER:                  -5.262
REMARK INTRA:                  -0.389
REMARK UNBOUND:                -0.302
REMARK SMILES O=c1ccn([C@H]2O[C@H](CO)[C@H](O)[C@H]2O)c(=O)[nH]1
REMARK SMILES IDX 6 1 13 2 11 3 8 4 7 5 5 6 3 7 4 8 2 9 17 10 1 11 15 12 16 14
REMARK SMILES IDX 14 15 12 17 9 19 10 20
REMARK H PARENT 17 13 14 16 12 18 10 21
REMARK Flexibility Score: inf
ROOT
ATOM      1  C   UNL     1     -22.363  32.073 -36.990  1.00  0.00     0.255 C 
ATOM      2  C   UNL     1     -22.125  31.818 -38.488  1.00  0.00     0.196 C 
ATOM      3  C   UNL     1     -20.764  32.426 -38.734  1.00  0.00     0.179 C 
ATOM      4  C   UNL     1     -20.608  33.407 -37.572  1.00  0.00     0.178 C 
ATOM      5  O   UNL     1     -21.331  32.893 -36.476  1.00  0.00    -0.347 OA
ENDROOT
BRANCH   1   6
ATOM      6  N   UNL     1     -22.460  30.818 -36.211  1.00  0.00    -0.271 N 
ATOM      7  C   UNL     1     -21.414  29.236 -34.740  1.00  0.00     0.090 A 
ATOM      8  C   UNL     1     -21.367  30.399 -35.504  1.00  0.00     0.099 A 
ATOM      9  C   UNL     1     -22.602  28.513 -34.702  1.00  0.00     0.253 A 
ATOM     10  N   UNL     1     -23.683  28.953 -35.397  1.00  0.00    -0.274 N 
ATOM     11  O   UNL     1     -22.674  27.457 -34.020  1.00  0.00    -0.269 OA
ATOM     12  C   UNL     1     -23.627  30.092 -36.140  1.00  0.00     0.330 A 
ATOM     13  H   UNL     1     -24.575  28.408 -35.357  1.00  0.00     0.175 HD
ATOM     14  O   UNL     1     -24.660  30.473 -36.754  1.00  0.00    -0.248 OA
ENDBRANCH   1   6
BRANCH   2  15
ATOM     15  O   UNL     1     -22.135  30.450 -38.807  1.00  0.00    -0.386 OA
ATOM     16  H   UNL     1     -21.486  30.013 -38.197  1.00  0.00     0.211 HD
ENDBRANCH   2  15
BRANCH   3  17
ATOM     17  O   UNL     1     -20.695  33.062 -39.985  1.00  0.00    -0.387 OA
ATOM     18  H   UNL     1     -21.407  32.655 -40.546  1.00  0.00     0.211 HD
ENDBRANCH   3  17
BRANCH   4  19
ATOM     19  C   UNL     1     -21.102  34.832 -37.891  1.00  0.00     0.191 C 
BRANCH  19  20
ATOM     20  O   UNL     1     -20.124  35.539 -38.607  1.00  0.00    -0.394 OA
ATOM     21  H   UNL     1     -19.244  35.206 -38.290  1.00  0.00     0.210 HD
ENDBRANCH  19  20
ENDBRANCH   4  19
TORSDOF 5
ENDMDL
MODEL 9
REMARK VINA RESULT:    -4.392      2.955      6.478
REMARK INTER + INTRA:          -5.592
REMARK INTER:                  -5.209
REMARK INTRA:                  -0.383
REMARK UNBOUND:                -0.302
REMARK SMILES O=c1ccn([C@H]2O[C@H](CO)[C@H](O)[C@H]2O)c(=O)[nH]1
REMARK SMILES IDX 6 1 13 2 11 3 8 4 7 5 5 6 3 7 4 8 2 9 17 10 1 11 15 12 16 14
REMARK SMILES IDX 14 15 12 17 9 19 10 20
REMARK H PARENT 17 13 14 16 12 18 10 21
REMARK Flexibility Score: inf
ROOT
ATOM      1  C   UNL     1     -21.718  34.614 -36.830  1.00  0.00     0.255 C 
ATOM      2  C   UNL     1     -21.912  34.593 -38.355  1.00  0.00     0.196 C 
ATOM      3  C   UNL     1     -20.716  35.359 -38.870  1.00  0.00     0.179 C 
ATOM      4  C   UNL     1     -20.283  36.179 -37.656  1.00  0.00     0.178 C 
ATOM      5  O   UNL     1     -20.627  35.451 -36.499  1.00  0.00    -0.347 OA
ENDROOT
BRANCH   1   6
ATOM      6  N   UNL     1     -21.517  33.259 -36.266  1.00  0.00    -0.271 N 
ATOM      7  C   UNL     1     -20.011  31.616 -35.376  1.00  0.00     0.090 A 
ATOM      8  C   UNL     1     -20.249  32.872 -35.928  1.00  0.00     0.099 A 
ATOM      9  C   UNL     1     -21.092  30.766 -35.166  1.00  0.00     0.253 A 
ATOM     10  N   UNL     1     -22.345  31.173 -35.492  1.00  0.00    -0.274 N 
ATOM     11  O   UNL     1     -20.906  29.623 -34.669  1.00  0.00    -0.269 OA
ATOM     12  C   UNL     1     -22.568  32.404 -36.030  1.00  0.00     0.330 A 
ATOM     13  H   UNL     1     -23.154  30.531 -35.324  1.00  0.00     0.175 HD
ATOM     14  O   UNL     1     -23.751  32.748 -36.301  1.00  0.00    -0.248 OA
ENDBRANCH   1   6
BRANCH   2  15
ATOM     15  O   UNL     1     -21.941  33.287 -38.873  1.00  0.00    -0.386 OA
ATOM     16  H   UNL     1     -22.139  33.373 -39.842  1.00  0.00     0.211 HD
ENDBRANCH   2  15
BRANCH   3  17
ATOM     17  O   UNL     1     -21.049  36.165 -39.972  1.00  0.00    -0.387 OA
ATOM     18  H   UNL     1     -21.978  36.482 -39.818  1.00  0.00     0.211 HD
ENDBRANCH   3  17
BRANCH   4  19
ATOM     19  C   UNL     1     -20.923  37.580 -37.592  1.00  0.00     0.191 C 
BRANCH  19  20
ATOM     20  O   UNL     1     -20.280  38.454 -38.481  1.00  0.00    -0.394 OA
ATOM     21  H   UNL     1     -20.940  39.157 -38.715  1.00  0.00     0.210 HD
ENDBRANCH  19  20
ENDBRANCH   4  19
TORSDOF 5
ENDMDL
