MODEL 1
REMARK VINA RESULT:    -5.378      0.000      0.000
REMARK INTER + INTRA:          -6.160
REMARK INTER:                  -6.007
REMARK INTRA:                  -0.153
REMARK UNBOUND:                -0.153
REMARK SMILES COc1cc2ccc(=O)oc2cc1OC
REMARK SMILES IDX 3 1 13 2 12 3 11 4 5 5 4 6 6 7 7 8 8 9 9 10 10 11 2 12 1 13
REMARK SMILES IDX 14 14 15 15
REMARK H PARENT
REMARK Flexibility Score: inf
ROOT
ATOM      1  C   UNL     1     -13.843  -1.105 -10.371  1.00  0.00     0.161 A 
ATOM      2  C   UNL     1     -12.462  -1.056 -10.114  1.00  0.00     0.164 A 
ATOM      3  C   UNL     1     -11.885   0.125  -9.610  1.00  0.00     0.098 A 
ATOM      4  C   UNL     1     -12.677   1.249  -9.364  1.00  0.00     0.142 A 
ATOM      5  C   UNL     1     -14.062   1.202  -9.621  1.00  0.00     0.022 A 
ATOM      6  C   UNL     1     -14.641   0.030 -10.123  1.00  0.00     0.062 A 
ATOM      7  C   UNL     1     -14.827   2.345  -9.365  1.00  0.00     0.019 A 
ATOM      8  C   UNL     1     -14.205   3.488  -8.866  1.00  0.00     0.094 A 
ATOM      9  C   UNL     1     -12.825   3.462  -8.634  1.00  0.00     0.336 A 
ATOM     10  O   UNL     1     -12.244   4.484  -8.184  1.00  0.00    -0.246 OA
ATOM     11  O   UNL     1     -12.121   2.361  -8.887  1.00  0.00    -0.423 OA
ENDROOT
BRANCH   1  12
ATOM     12  O   UNL     1     -14.384  -2.299 -10.874  1.00  0.00    -0.493 OA
ATOM     13  C   UNL     1     -15.125  -3.238 -10.102  1.00  0.00     0.278 C 
ENDBRANCH   1  12
BRANCH   2  14
ATOM     14  O   UNL     1     -11.697  -2.205 -10.374  1.00  0.00    -0.493 OA
ATOM     15  C   UNL     1     -11.013  -2.960  -9.380  1.00  0.00     0.278 C 
ENDBRANCH   2  14
TORSDOF 2
ENDMDL
MODEL 2
REMARK VINA RESULT:    -4.710      5.676      7.118
REMARK INTER + INTRA:          -5.414
REMARK INTER:                  -5.280
REMARK INTRA:                  -0.133
REMARK UNBOUND:                -0.153
REMARK SMILES COc1cc2ccc(=O)oc2cc1OC
REMARK SMILES IDX 3 1 13 2 12 3 11 4 5 5 4 6 6 7 7 8 8 9 9 10 10 11 2 12 1 13
REMARK SMILES IDX 14 14 15 15
REMARK H PARENT
REMARK Flexibility Score: inf
ROOT
ATOM      1  C   UNL     1     -13.070  -6.585  -7.447  1.00  0.00     0.161 A 
ATOM      2  C   UNL     1     -12.005  -7.044  -6.655  1.00  0.00     0.164 A 
ATOM      3  C   UNL     1     -10.745  -6.421  -6.745  1.00  0.00     0.098 A 
ATOM      4  C   UNL     1     -10.549  -5.348  -7.618  1.00  0.00     0.142 A 
ATOM      5  C   UNL     1     -11.617  -4.886  -8.414  1.00  0.00     0.022 A 
ATOM      6  C   UNL     1     -12.871  -5.503  -8.328  1.00  0.00     0.062 A 
ATOM      7  C   UNL     1     -11.388  -3.810  -9.279  1.00  0.00     0.019 A 
ATOM      8  C   UNL     1     -10.121  -3.229  -9.328  1.00  0.00     0.094 A 
ATOM      9  C   UNL     1      -9.109  -3.740  -8.510  1.00  0.00     0.336 A 
ATOM     10  O   UNL     1      -7.959  -3.230  -8.540  1.00  0.00    -0.246 OA
ATOM     11  O   UNL     1      -9.354  -4.765  -7.697  1.00  0.00    -0.423 OA
ENDROOT
BRANCH   1  12
ATOM     12  O   UNL     1     -14.312  -7.230  -7.331  1.00  0.00    -0.493 OA
ATOM     13  C   UNL     1     -14.858  -8.111  -8.307  1.00  0.00     0.278 C 
ENDBRANCH   1  12
BRANCH   2  14
ATOM     14  O   UNL     1     -12.238  -8.125  -5.788  1.00  0.00    -0.493 OA
ATOM     15  C   UNL     1     -12.093  -8.070  -4.373  1.00  0.00     0.278 C 
ENDBRANCH   2  14
TORSDOF 2
ENDMDL
MODEL 3
REMARK VINA RESULT:    -4.588      4.713      8.371
REMARK INTER + INTRA:          -5.277
REMARK INTER:                  -5.216
REMARK INTRA:                  -0.061
REMARK UNBOUND:                -0.153
REMARK SMILES COc1cc2ccc(=O)oc2cc1OC
REMARK SMILES IDX 3 1 13 2 12 3 11 4 5 5 4 6 6 7 7 8 8 9 9 10 10 11 2 12 1 13
REMARK SMILES IDX 14 14 15 15
REMARK H PARENT
REMARK Flexibility Score: inf
ROOT
ATOM      1  C   UNL     1     -10.258  -5.312  -8.189  1.00  0.00     0.161 A 
ATOM      2  C   UNL     1     -11.475  -4.837  -8.705  1.00  0.00     0.164 A 
ATOM      3  C   UNL     1     -12.692  -5.304  -8.171  1.00  0.00     0.098 A 
ATOM      4  C   UNL     1     -12.695  -6.238  -7.132  1.00  0.00     0.142 A 
ATOM      5  C   UNL     1     -11.475  -6.716  -6.614  1.00  0.00     0.022 A 
ATOM      6  C   UNL     1     -10.262  -6.255  -7.141  1.00  0.00     0.062 A 
ATOM      7  C   UNL     1     -11.512  -7.651  -5.574  1.00  0.00     0.019 A 
ATOM      8  C   UNL     1     -12.745  -8.080  -5.083  1.00  0.00     0.094 A 
ATOM      9  C   UNL     1     -13.916  -7.562  -5.646  1.00  0.00     0.336 A 
ATOM     10  O   UNL     1     -15.038  -7.936  -5.216  1.00  0.00    -0.246 OA
ATOM     11  O   UNL     1     -13.851  -6.674  -6.635  1.00  0.00    -0.423 OA
ENDROOT
BRANCH   1  12
ATOM     12  O   UNL     1      -9.064  -4.825  -8.746  1.00  0.00    -0.493 OA
ATOM     13  C   UNL     1      -8.412  -3.627  -8.336  1.00  0.00     0.278 C 
ENDBRANCH   1  12
BRANCH   2  14
ATOM     14  O   UNL     1     -11.434  -3.899  -9.749  1.00  0.00    -0.493 OA
ATOM     15  C   UNL     1     -11.586  -2.494  -9.579  1.00  0.00     0.278 C 
ENDBRANCH   2  14
TORSDOF 2
ENDMDL
MODEL 4
REMARK VINA RESULT:    -4.459     17.522     18.460
REMARK INTER + INTRA:          -5.133
REMARK INTER:                  -5.023
REMARK INTRA:                  -0.110
REMARK UNBOUND:                -0.153
REMARK SMILES COc1cc2ccc(=O)oc2cc1OC
REMARK SMILES IDX 3 1 13 2 12 3 11 4 5 5 4 6 6 7 7 8 8 9 9 10 10 11 2 12 1 13
REMARK SMILES IDX 14 14 15 15
REMARK H PARENT
REMARK Flexibility Score: inf
ROOT
ATOM      1  C   UNL     1      -9.044   8.976   5.743  1.00  0.00     0.161 A 
ATOM      2  C   UNL     1     -10.372   9.434   5.764  1.00  0.00     0.164 A 
ATOM      3  C   UNL     1     -11.412   8.552   6.119  1.00  0.00     0.098 A 
ATOM      4  C   UNL     1     -11.130   7.224   6.449  1.00  0.00     0.142 A 
ATOM      5  C   UNL     1      -9.798   6.763   6.428  1.00  0.00     0.022 A 
ATOM      6  C   UNL     1      -8.761   7.636   6.076  1.00  0.00     0.062 A 
ATOM      7  C   UNL     1      -9.549   5.427   6.763  1.00  0.00     0.019 A 
ATOM      8  C   UNL     1     -10.615   4.598   7.107  1.00  0.00     0.094 A 
ATOM      9  C   UNL     1     -11.911   5.124   7.107  1.00  0.00     0.336 A 
ATOM     10  O   UNL     1     -12.887   4.391   7.414  1.00  0.00    -0.246 OA
ATOM     11  O   UNL     1     -12.119   6.398   6.783  1.00  0.00    -0.423 OA
ENDROOT
BRANCH   1  12
ATOM     12  O   UNL     1      -8.034   9.882   5.384  1.00  0.00    -0.493 OA
ATOM     13  C   UNL     1      -6.708   9.861   5.903  1.00  0.00     0.278 C 
ENDBRANCH   1  12
BRANCH   2  14
ATOM     14  O   UNL     1     -10.618  10.775   5.427  1.00  0.00    -0.493 OA
ATOM     15  C   UNL     1     -11.712  11.219   4.631  1.00  0.00     0.278 C 
ENDBRANCH   2  14
TORSDOF 2
ENDMDL
MODEL 5
REMARK VINA RESULT:    -4.360     16.818     17.933
REMARK INTER + INTRA:          -5.023
REMARK INTER:                  -4.887
REMARK INTRA:                  -0.136
REMARK UNBOUND:                -0.153
REMARK SMILES COc1cc2ccc(=O)oc2cc1OC
REMARK SMILES IDX 3 1 13 2 12 3 11 4 5 5 4 6 6 7 7 8 8 9 9 10 10 11 2 12 1 13
REMARK SMILES IDX 14 14 15 15
REMARK H PARENT
REMARK Flexibility Score: inf
ROOT
ATOM      1  C   UNL     1     -11.506   7.715   6.261  1.00  0.00     0.161 A 
ATOM      2  C   UNL     1     -10.452   6.796   6.127  1.00  0.00     0.164 A 
ATOM      3  C   UNL     1      -9.146   7.259   5.872  1.00  0.00     0.098 A 
ATOM      4  C   UNL     1      -8.893   8.628   5.752  1.00  0.00     0.142 A 
ATOM      5  C   UNL     1      -9.950   9.551   5.886  1.00  0.00     0.022 A 
ATOM      6  C   UNL     1     -11.250   9.096   6.139  1.00  0.00     0.062 A 
ATOM      7  C   UNL     1      -9.664  10.915   5.760  1.00  0.00     0.019 A 
ATOM      8  C   UNL     1      -8.353  11.319   5.508  1.00  0.00     0.094 A 
ATOM      9  C   UNL     1      -7.356  10.347   5.387  1.00  0.00     0.336 A 
ATOM     10  O   UNL     1      -6.167  10.691   5.159  1.00  0.00    -0.246 OA
ATOM     11  O   UNL     1      -7.656   9.056   5.511  1.00  0.00    -0.423 OA
ENDROOT
BRANCH   1  12
ATOM     12  O   UNL     1     -12.794   7.217   6.514  1.00  0.00    -0.493 OA
ATOM     13  C   UNL     1     -13.805   7.053   5.525  1.00  0.00     0.278 C 
ENDBRANCH   1  12
BRANCH   2  14
ATOM     14  O   UNL     1     -10.743   5.428   6.254  1.00  0.00    -0.493 OA
ATOM     15  C   UNL     1     -10.483   4.652   7.419  1.00  0.00     0.278 C 
ENDBRANCH   2  14
TORSDOF 2
ENDMDL
MODEL 6
REMARK VINA RESULT:    -4.322     17.514     18.272
REMARK INTER + INTRA:          -4.980
REMARK INTER:                  -4.856
REMARK INTRA:                  -0.124
REMARK UNBOUND:                -0.153
REMARK SMILES COc1cc2ccc(=O)oc2cc1OC
REMARK SMILES IDX 3 1 13 2 12 3 11 4 5 5 4 6 6 7 7 8 8 9 9 10 10 11 2 12 1 13
REMARK SMILES IDX 14 14 15 15
REMARK H PARENT
REMARK Flexibility Score: inf
ROOT
ATOM      1  C   UNL     1     -10.282   9.354   5.761  1.00  0.00     0.161 A 
ATOM      2  C   UNL     1      -9.038   8.703   5.709  1.00  0.00     0.164 A 
ATOM      3  C   UNL     1      -8.945   7.341   6.055  1.00  0.00     0.098 A 
ATOM      4  C   UNL     1     -10.083   6.633   6.450  1.00  0.00     0.142 A 
ATOM      5  C   UNL     1     -11.331   7.285   6.503  1.00  0.00     0.022 A 
ATOM      6  C   UNL     1     -11.429   8.639   6.160  1.00  0.00     0.062 A 
ATOM      7  C   UNL     1     -12.452   6.548   6.903  1.00  0.00     0.019 A 
ATOM      8  C   UNL     1     -12.304   5.202   7.235  1.00  0.00     0.094 A 
ATOM      9  C   UNL     1     -11.034   4.622   7.159  1.00  0.00     0.336 A 
ATOM     10  O   UNL     1     -10.879   3.408   7.454  1.00  0.00    -0.246 OA
ATOM     11  O   UNL     1      -9.985   5.346   6.776  1.00  0.00    -0.423 OA
ENDROOT
BRANCH   1  12
ATOM     12  O   UNL     1     -10.337  10.712   5.409  1.00  0.00    -0.493 OA
ATOM     13  C   UNL     1     -11.342  11.293   4.585  1.00  0.00     0.278 C 
ENDBRANCH   1  12
BRANCH   2  14
ATOM     14  O   UNL     1      -7.915   9.445   5.307  1.00  0.00    -0.493 OA
ATOM     15  C   UNL     1      -6.813   9.762   6.151  1.00  0.00     0.278 C 
ENDBRANCH   2  14
TORSDOF 2
ENDMDL
MODEL 7
REMARK VINA RESULT:    -4.280     16.352     17.811
REMARK INTER + INTRA:          -4.933
REMARK INTER:                  -4.800
REMARK INTRA:                  -0.132
REMARK UNBOUND:                -0.153
REMARK SMILES COc1cc2ccc(=O)oc2cc1OC
REMARK SMILES IDX 3 1 13 2 12 3 11 4 5 5 4 6 6 7 7 8 8 9 9 10 10 11 2 12 1 13
REMARK SMILES IDX 14 14 15 15
REMARK H PARENT
REMARK Flexibility Score: inf
ROOT
ATOM      1  C   UNL     1     -10.765   6.035   6.202  1.00  0.00     0.161 A 
ATOM      2  C   UNL     1     -11.896   6.868   6.251  1.00  0.00     0.164 A 
ATOM      3  C   UNL     1     -11.739   8.266   6.178  1.00  0.00     0.098 A 
ATOM      4  C   UNL     1     -10.466   8.829   6.057  1.00  0.00     0.142 A 
ATOM      5  C   UNL     1      -9.332   7.995   6.008  1.00  0.00     0.022 A 
ATOM      6  C   UNL     1      -9.481   6.604   6.080  1.00  0.00     0.062 A 
ATOM      7  C   UNL     1      -8.070   8.589   5.887  1.00  0.00     0.019 A 
ATOM      8  C   UNL     1      -7.972   9.978   5.819  1.00  0.00     0.094 A 
ATOM      9  C   UNL     1      -9.142  10.744   5.873  1.00  0.00     0.336 A 
ATOM     10  O   UNL     1      -9.075  11.999   5.813  1.00  0.00    -0.246 OA
ATOM     11  O   UNL     1     -10.328  10.151   5.989  1.00  0.00    -0.423 OA
ENDROOT
BRANCH   1  12
ATOM     12  O   UNL     1     -10.959   4.646   6.278  1.00  0.00    -0.493 OA
ATOM     13  C   UNL     1     -10.830   3.877   7.468  1.00  0.00     0.278 C 
ENDBRANCH   1  12
BRANCH   2  14
ATOM     14  O   UNL     1     -13.159   6.268   6.373  1.00  0.00    -0.493 OA
ATOM     15  C   UNL     1     -14.076   6.091   5.298  1.00  0.00     0.278 C 
ENDBRANCH   2  14
TORSDOF 2
ENDMDL
MODEL 8
REMARK VINA RESULT:    -4.004      4.341      7.617
REMARK INTER + INTRA:          -4.625
REMARK INTER:                  -4.612
REMARK INTRA:                  -0.013
REMARK UNBOUND:                -0.153
REMARK SMILES COc1cc2ccc(=O)oc2cc1OC
REMARK SMILES IDX 3 1 13 2 12 3 11 4 5 5 4 6 6 7 7 8 8 9 9 10 10 11 2 12 1 13
REMARK SMILES IDX 14 14 15 15
REMARK H PARENT
REMARK Flexibility Score: inf
ROOT
ATOM      1  C   UNL     1     -11.338  -4.001  -8.887  1.00  0.00     0.161 A 
ATOM      2  C   UNL     1     -10.331  -3.897  -7.912  1.00  0.00     0.164 A 
ATOM      3  C   UNL     1     -10.356  -4.745  -6.787  1.00  0.00     0.098 A 
ATOM      4  C   UNL     1     -11.375  -5.688  -6.636  1.00  0.00     0.142 A 
ATOM      5  C   UNL     1     -12.385  -5.792  -7.613  1.00  0.00     0.022 A 
ATOM      6  C   UNL     1     -12.366  -4.952  -8.733  1.00  0.00     0.062 A 
ATOM      7  C   UNL     1     -13.393  -6.747  -7.432  1.00  0.00     0.019 A 
ATOM      8  C   UNL     1     -13.369  -7.560  -6.299  1.00  0.00     0.094 A 
ATOM      9  C   UNL     1     -12.335  -7.400  -5.371  1.00  0.00     0.336 A 
ATOM     10  O   UNL     1     -12.296  -8.125  -4.343  1.00  0.00    -0.246 OA
ATOM     11  O   UNL     1     -11.390  -6.484  -5.569  1.00  0.00    -0.423 OA
ENDROOT
BRANCH   1  12
ATOM     12  O   UNL     1     -11.282  -3.139  -9.995  1.00  0.00    -0.493 OA
ATOM     13  C   UNL     1     -11.659  -1.767  -9.970  1.00  0.00     0.278 C 
ENDBRANCH   1  12
BRANCH   2  14
ATOM     14  O   UNL     1      -9.322  -2.938  -8.097  1.00  0.00    -0.493 OA
ATOM     15  C   UNL     1      -7.990  -3.236  -8.502  1.00  0.00     0.278 C 
ENDBRANCH   2  14
TORSDOF 2
ENDMDL
