MODEL 1
REMARK VINA RESULT:    -3.805      0.000      0.000
REMARK INTER + INTRA:          -8.272
REMARK INTER:                  -6.696
REMARK INTRA:                  -1.575
REMARK UNBOUND:                -1.575
REMARK SMILES CCCCCCCCCCCCCCC(=O)[O-]
REMARK SMILES IDX 9 1 10 2 11 3 12 4 13 5 14 6 15 7 16 8 17 9 8 10 7 11 6 12
REMARK SMILES IDX 5 13 4 14 3 15 2 16 1 17
REMARK H PARENT
REMARK Flexibility Score: inf
ROOT
ATOM      1  C   UNL     1      41.293  23.454 223.460  1.00  0.00     0.000 C 
ENDROOT
BRANCH   1   2
ATOM      2  C   UNL     1      39.995  23.665 222.666  1.00  0.00     0.000 C 
BRANCH   2   3
ATOM      3  C   UNL     1      38.887  24.317 223.508  1.00  0.00     0.000 C 
BRANCH   3   4
ATOM      4  C   UNL     1      38.118  23.294 224.363  1.00  0.00     0.000 C 
BRANCH   4   5
ATOM      5  C   UNL     1      36.760  22.916 223.752  1.00  0.00     0.006 C 
BRANCH   5   6
ATOM      6  C   UNL     1      36.000  24.131 223.207  1.00  0.00     0.053 C 
BRANCH   6   7
ATOM      7  C   UNL     1      35.619  23.910 221.777  1.00  0.00     0.041 C 
ATOM      8  O   UNL     1      34.404  23.867 221.444  1.00  0.00    -0.550 OA
ATOM      9  O   UNL     1      36.604  23.802 220.803  1.00  0.00    -0.550 OA
ENDBRANCH   6   7
ENDBRANCH   5   6
ENDBRANCH   4   5
ENDBRANCH   3   4
ENDBRANCH   2   3
ENDBRANCH   1   2
BRANCH   1  10
ATOM     10  C   UNL     1      41.891  22.072 223.175  1.00  0.00     0.000 C 
BRANCH  10  11
ATOM     11  C   UNL     1      41.185  20.985 223.996  1.00  0.00    -0.000 C 
BRANCH  11  12
ATOM     12  C   UNL     1      41.487  21.080 225.502  1.00  0.00    -0.000 C 
BRANCH  12  13
ATOM     13  C   UNL     1      40.230  20.967 226.392  1.00  0.00    -0.000 C 
BRANCH  13  14
ATOM     14  C   UNL     1      39.182  20.012 225.794  1.00  0.00    -0.000 C 
BRANCH  14  15
ATOM     15  C   UNL     1      37.764  20.293 226.315  1.00  0.00    -0.000 C 
BRANCH  15  16
ATOM     16  C   UNL     1      36.700  19.433 225.616  1.00  0.00    -0.003 C 
ATOM     17  C   UNL     1      35.651  18.942 226.610  1.00  0.00     0.004 C 
ENDBRANCH  15  16
ENDBRANCH  14  15
ENDBRANCH  13  14
ENDBRANCH  12  13
ENDBRANCH  11  12
ENDBRANCH  10  11
ENDBRANCH   1  10
TORSDOF 13
ENDMDL
MODEL 2
REMARK VINA RESULT:    -3.790      1.928      3.854
REMARK INTER + INTRA:          -8.246
REMARK INTER:                  -5.868
REMARK INTRA:                  -2.378
REMARK UNBOUND:                -1.575
REMARK SMILES CCCCCCCCCCCCCCC(=O)[O-]
REMARK SMILES IDX 9 1 10 2 11 3 12 4 13 5 14 6 15 7 16 8 17 9 8 10 7 11 6 12
REMARK SMILES IDX 5 13 4 14 3 15 2 16 1 17
REMARK H PARENT
REMARK Flexibility Score: inf
ROOT
ATOM      1  C   UNL     1      39.421  25.523 226.600  1.00  0.00     0.000 C 
ENDROOT
BRANCH   1   2
ATOM      2  C   UNL     1      38.716  26.010 225.324  1.00  0.00     0.000 C 
BRANCH   2   3
ATOM      3  C   UNL     1      37.393  25.274 225.064  1.00  0.00     0.000 C 
BRANCH   3   4
ATOM      4  C   UNL     1      36.921  25.407 223.605  1.00  0.00     0.000 C 
BRANCH   4   5
ATOM      5  C   UNL     1      35.791  24.425 223.258  1.00  0.00     0.006 C 
BRANCH   5   6
ATOM      6  C   UNL     1      36.284  23.223 222.442  1.00  0.00     0.053 C 
BRANCH   6   7
ATOM      7  C   UNL     1      36.576  23.634 221.033  1.00  0.00     0.041 C 
ATOM      8  O   UNL     1      35.686  24.195 220.339  1.00  0.00    -0.550 OA
ATOM      9  O   UNL     1      37.845  23.444 220.501  1.00  0.00    -0.550 OA
ENDBRANCH   6   7
ENDBRANCH   5   6
ENDBRANCH   4   5
ENDBRANCH   3   4
ENDBRANCH   2   3
ENDBRANCH   1   2
BRANCH   1  10
ATOM     10  C   UNL     1      38.595  24.442 227.304  1.00  0.00     0.000 C 
BRANCH  10  11
ATOM     11  C   UNL     1      39.364  23.114 227.368  1.00  0.00    -0.000 C 
BRANCH  11  12
ATOM     12  C   UNL     1      38.519  21.910 226.916  1.00  0.00    -0.000 C 
BRANCH  12  13
ATOM     13  C   UNL     1      38.329  21.829 225.386  1.00  0.00    -0.000 C 
BRANCH  13  14
ATOM     14  C   UNL     1      39.673  21.840 224.635  1.00  0.00    -0.000 C 
BRANCH  14  15
ATOM     15  C   UNL     1      39.719  22.904 223.528  1.00  0.00    -0.000 C 
BRANCH  15  16
ATOM     16  C   UNL     1      41.110  23.540 223.384  1.00  0.00    -0.003 C 
ATOM     17  C   UNL     1      41.857  23.537 224.714  1.00  0.00     0.004 C 
ENDBRANCH  15  16
ENDBRANCH  14  15
ENDBRANCH  13  14
ENDBRANCH  12  13
ENDBRANCH  11  12
ENDBRANCH  10  11
ENDBRANCH   1  10
TORSDOF 13
ENDMDL
MODEL 3
REMARK VINA RESULT:    -3.772      1.824      2.766
REMARK INTER + INTRA:          -8.214
REMARK INTER:                  -5.988
REMARK INTRA:                  -2.227
REMARK UNBOUND:                -1.575
REMARK SMILES CCCCCCCCCCCCCCC(=O)[O-]
REMARK SMILES IDX 9 1 10 2 11 3 12 4 13 5 14 6 15 7 16 8 17 9 8 10 7 11 6 12
REMARK SMILES IDX 5 13 4 14 3 15 2 16 1 17
REMARK H PARENT
REMARK Flexibility Score: inf
ROOT
ATOM      1  C   UNL     1      39.824  25.408 225.293  1.00  0.00     0.000 C 
ENDROOT
BRANCH   1   2
ATOM      2  C   UNL     1      38.742  25.480 224.204  1.00  0.00     0.000 C 
BRANCH   2   3
ATOM      3  C   UNL     1      37.332  25.214 224.754  1.00  0.00     0.000 C 
BRANCH   3   4
ATOM      4  C   UNL     1      36.512  24.281 223.847  1.00  0.00     0.000 C 
BRANCH   4   5
ATOM      5  C   UNL     1      37.187  24.034 222.489  1.00  0.00     0.006 C 
BRANCH   5   6
ATOM      6  C   UNL     1      36.184  23.658 221.391  1.00  0.00     0.053 C 
BRANCH   6   7
ATOM      7  C   UNL     1      36.801  23.831 220.039  1.00  0.00     0.041 C 
ATOM      8  O   UNL     1      36.412  24.758 219.279  1.00  0.00    -0.550 OA
ATOM      9  O   UNL     1      37.840  23.002 219.637  1.00  0.00    -0.550 OA
ENDBRANCH   6   7
ENDBRANCH   5   6
ENDBRANCH   4   5
ENDBRANCH   3   4
ENDBRANCH   2   3
ENDBRANCH   1   2
BRANCH   1  10
ATOM     10  C   UNL     1      40.970  24.485 224.867  1.00  0.00     0.000 C 
BRANCH  10  11
ATOM     11  C   UNL     1      40.798  24.026 223.413  1.00  0.00    -0.000 C 
BRANCH  11  12
ATOM     12  C   UNL     1      40.695  22.497 223.275  1.00  0.00    -0.000 C 
BRANCH  12  13
ATOM     13  C   UNL     1      40.374  21.778 224.603  1.00  0.00    -0.000 C 
BRANCH  13  14
ATOM     14  C   UNL     1      38.859  21.626 224.826  1.00  0.00    -0.000 C 
BRANCH  14  15
ATOM     15  C   UNL     1      38.512  21.261 226.278  1.00  0.00    -0.000 C 
BRANCH  15  16
ATOM     16  C   UNL     1      38.135  22.490 227.118  1.00  0.00    -0.003 C 
ATOM     17  C   UNL     1      39.310  22.952 227.974  1.00  0.00     0.004 C 
ENDBRANCH  15  16
ENDBRANCH  14  15
ENDBRANCH  13  14
ENDBRANCH  12  13
ENDBRANCH  11  12
ENDBRANCH  10  11
ENDBRANCH   1  10
TORSDOF 13
ENDMDL
MODEL 4
REMARK VINA RESULT:    -3.754      2.977      5.867
REMARK INTER + INTRA:          -8.182
REMARK INTER:                  -7.187
REMARK INTRA:                  -0.995
REMARK UNBOUND:                -1.575
REMARK SMILES CCCCCCCCCCCCCCC(=O)[O-]
REMARK SMILES IDX 9 1 10 2 11 3 12 4 13 5 14 6 15 7 16 8 17 9 8 10 7 11 6 12
REMARK SMILES IDX 5 13 4 14 3 15 2 16 1 17
REMARK H PARENT
REMARK Flexibility Score: inf
ROOT
ATOM      1  C   UNL     1      40.764  23.925 224.066  1.00  0.00     0.000 C 
ENDROOT
BRANCH   1   2
ATOM      2  C   UNL     1      41.079  22.463 224.418  1.00  0.00     0.000 C 
BRANCH   2   3
ATOM      3  C   UNL     1      40.285  21.965 225.636  1.00  0.00     0.000 C 
BRANCH   3   4
ATOM      4  C   UNL     1      39.144  21.009 225.246  1.00  0.00     0.000 C 
BRANCH   4   5
ATOM      5  C   UNL     1      38.740  20.071 226.394  1.00  0.00     0.006 C 
BRANCH   5   6
ATOM      6  C   UNL     1      38.457  18.642 225.916  1.00  0.00     0.053 C 
BRANCH   6   7
ATOM      7  C   UNL     1      37.007  18.312 226.085  1.00  0.00     0.041 C 
ATOM      8  O   UNL     1      36.609  17.724 227.126  1.00  0.00    -0.550 OA
ATOM      9  O   UNL     1      36.088  18.700 225.119  1.00  0.00    -0.550 OA
ENDBRANCH   6   7
ENDBRANCH   5   6
ENDBRANCH   4   5
ENDBRANCH   3   4
ENDBRANCH   2   3
ENDBRANCH   1   2
BRANCH   1  10
ATOM     10  C   UNL     1      39.984  24.016 222.750  1.00  0.00     0.000 C 
BRANCH  10  11
ATOM     11  C   UNL     1      38.535  23.545 222.932  1.00  0.00    -0.000 C 
BRANCH  11  12
ATOM     12  C   UNL     1      37.577  24.686 223.313  1.00  0.00    -0.000 C 
BRANCH  12  13
ATOM     13  C   UNL     1      36.112  24.425 222.904  1.00  0.00    -0.000 C 
BRANCH  13  14
ATOM     14  C   UNL     1      36.011  23.527 221.658  1.00  0.00    -0.000 C 
BRANCH  14  15
ATOM     15  C   UNL     1      35.535  24.295 220.415  1.00  0.00    -0.000 C 
BRANCH  15  16
ATOM     16  C   UNL     1      36.427  24.042 219.191  1.00  0.00    -0.003 C 
ATOM     17  C   UNL     1      37.571  23.093 219.532  1.00  0.00     0.004 C 
ENDBRANCH  15  16
ENDBRANCH  14  15
ENDBRANCH  13  14
ENDBRANCH  12  13
ENDBRANCH  11  12
ENDBRANCH  10  11
ENDBRANCH   1  10
TORSDOF 13
ENDMDL
MODEL 5
REMARK VINA RESULT:    -3.714      2.922      5.704
REMARK INTER + INTRA:          -8.113
REMARK INTER:                  -6.805
REMARK INTRA:                  -1.307
REMARK UNBOUND:                -1.575
REMARK SMILES CCCCCCCCCCCCCCC(=O)[O-]
REMARK SMILES IDX 9 1 10 2 11 3 12 4 13 5 14 6 15 7 16 8 17 9 8 10 7 11 6 12
REMARK SMILES IDX 5 13 4 14 3 15 2 16 1 17
REMARK H PARENT
REMARK Flexibility Score: inf
ROOT
ATOM      1  C   UNL     1      41.050  22.936 223.436  1.00  0.00     0.000 C 
ENDROOT
BRANCH   1   2
ATOM      2  C   UNL     1      41.660  23.739 224.596  1.00  0.00     0.000 C 
BRANCH   2   3
ATOM      3  C   UNL     1      41.723  22.933 225.903  1.00  0.00     0.000 C 
BRANCH   3   4
ATOM      4  C   UNL     1      41.705  21.414 225.660  1.00  0.00     0.000 C 
BRANCH   4   5
ATOM      5  C   UNL     1      40.610  20.700 226.468  1.00  0.00     0.006 C 
BRANCH   5   6
ATOM      6  C   UNL     1      39.377  20.364 225.619  1.00  0.00     0.053 C 
BRANCH   6   7
ATOM      7  C   UNL     1      39.090  18.896 225.673  1.00  0.00     0.041 C 
ATOM      8  O   UNL     1      37.900  18.484 225.720  1.00  0.00    -0.550 OA
ATOM      9  O   UNL     1      40.134  17.982 225.621  1.00  0.00    -0.550 OA
ENDBRANCH   6   7
ENDBRANCH   5   6
ENDBRANCH   4   5
ENDBRANCH   3   4
ENDBRANCH   2   3
ENDBRANCH   1   2
BRANCH   1  10
ATOM     10  C   UNL     1      39.967  23.748 222.718  1.00  0.00     0.000 C 
BRANCH  10  11
ATOM     11  C   UNL     1      39.276  24.722 223.682  1.00  0.00    -0.000 C 
BRANCH  11  12
ATOM     12  C   UNL     1      37.931  24.191 224.208  1.00  0.00    -0.000 C 
BRANCH  12  13
ATOM     13  C   UNL     1      37.355  23.030 223.369  1.00  0.00    -0.000 C 
BRANCH  13  14
ATOM     14  C   UNL     1      36.356  23.524 222.307  1.00  0.00    -0.000 C 
BRANCH  14  15
ATOM     15  C   UNL     1      36.945  23.498 220.888  1.00  0.00    -0.000 C 
BRANCH  15  16
ATOM     16  C   UNL     1      36.179  24.410 219.918  1.00  0.00    -0.003 C 
ATOM     17  C   UNL     1      34.684  24.106 219.942  1.00  0.00     0.004 C 
ENDBRANCH  15  16
ENDBRANCH  14  15
ENDBRANCH  13  14
ENDBRANCH  12  13
ENDBRANCH  11  12
ENDBRANCH  10  11
ENDBRANCH   1  10
TORSDOF 13
ENDMDL
MODEL 6
REMARK VINA RESULT:    -3.643      1.234      3.796
REMARK INTER + INTRA:          -7.987
REMARK INTER:                  -6.447
REMARK INTRA:                  -1.540
REMARK UNBOUND:                -1.575
REMARK SMILES CCCCCCCCCCCCCCC(=O)[O-]
REMARK SMILES IDX 9 1 10 2 11 3 12 4 13 5 14 6 15 7 16 8 17 9 8 10 7 11 6 12
REMARK SMILES IDX 5 13 4 14 3 15 2 16 1 17
REMARK H PARENT
REMARK Flexibility Score: inf
ROOT
ATOM      1  C   UNL     1      37.862  21.784 226.569  1.00  0.00     0.000 C 
ENDROOT
BRANCH   1   2
ATOM      2  C   UNL     1      37.918  23.054 225.707  1.00  0.00     0.000 C 
BRANCH   2   3
ATOM      3  C   UNL     1      37.117  22.918 224.402  1.00  0.00     0.000 C 
BRANCH   3   4
ATOM      4  C   UNL     1      36.438  24.235 223.987  1.00  0.00     0.000 C 
BRANCH   4   5
ATOM      5  C   UNL     1      35.643  24.102 222.679  1.00  0.00     0.006 C 
BRANCH   5   6
ATOM      6  C   UNL     1      36.528  23.711 221.488  1.00  0.00     0.053 C 
BRANCH   6   7
ATOM      7  C   UNL     1      35.901  24.152 220.204  1.00  0.00     0.041 C 
ATOM      8  O   UNL     1      36.621  24.557 219.253  1.00  0.00    -0.550 OA
ATOM      9  O   UNL     1      34.524  24.069 220.038  1.00  0.00    -0.550 OA
ENDBRANCH   6   7
ENDBRANCH   5   6
ENDBRANCH   4   5
ENDBRANCH   3   4
ENDBRANCH   2   3
ENDBRANCH   1   2
BRANCH   1  10
ATOM     10  C   UNL     1      37.695  20.536 225.696  1.00  0.00     0.000 C 
BRANCH  10  11
ATOM     11  C   UNL     1      38.695  19.443 226.097  1.00  0.00    -0.000 C 
BRANCH  11  12
ATOM     12  C   UNL     1      39.967  19.447 225.231  1.00  0.00    -0.000 C 
BRANCH  12  13
ATOM     13  C   UNL     1      41.178  20.116 225.916  1.00  0.00    -0.000 C 
BRANCH  13  14
ATOM     14  C   UNL     1      41.753  21.270 225.076  1.00  0.00    -0.000 C 
BRANCH  14  15
ATOM     15  C   UNL     1      40.765  21.774 224.013  1.00  0.00    -0.000 C 
BRANCH  15  16
ATOM     16  C   UNL     1      41.345  22.915 223.165  1.00  0.00    -0.003 C 
ATOM     17  C   UNL     1      40.308  24.009 222.932  1.00  0.00     0.004 C 
ENDBRANCH  15  16
ENDBRANCH  14  15
ENDBRANCH  13  14
ENDBRANCH  12  13
ENDBRANCH  11  12
ENDBRANCH  10  11
ENDBRANCH   1  10
TORSDOF 13
ENDMDL
MODEL 7
REMARK VINA RESULT:    -3.642      2.052      2.970
REMARK INTER + INTRA:          -7.985
REMARK INTER:                  -5.769
REMARK INTRA:                  -2.216
REMARK UNBOUND:                -1.575
REMARK SMILES CCCCCCCCCCCCCCC(=O)[O-]
REMARK SMILES IDX 9 1 10 2 11 3 12 4 13 5 14 6 15 7 16 8 17 9 8 10 7 11 6 12
REMARK SMILES IDX 5 13 4 14 3 15 2 16 1 17
REMARK H PARENT
REMARK Flexibility Score: inf
ROOT
ATOM      1  C   UNL     1      40.364  25.530 226.531  1.00  0.00     0.000 C 
ENDROOT
BRANCH   1   2
ATOM      2  C   UNL     1      39.522  26.683 225.963  1.00  0.00     0.000 C 
BRANCH   2   3
ATOM      3  C   UNL     1      38.522  26.213 224.894  1.00  0.00     0.000 C 
BRANCH   3   4
ATOM      4  C   UNL     1      37.568  25.125 225.417  1.00  0.00     0.000 C 
BRANCH   4   5
ATOM      5  C   UNL     1      36.381  24.878 224.473  1.00  0.00     0.006 C 
BRANCH   5   6
ATOM      6  C   UNL     1      36.728  25.154 223.005  1.00  0.00     0.053 C 
BRANCH   6   7
ATOM      7  C   UNL     1      36.571  23.910 222.189  1.00  0.00     0.041 C 
ATOM      8  O   UNL     1      36.304  22.813 222.749  1.00  0.00    -0.550 OA
ATOM      9  O   UNL     1      36.668  23.970 220.804  1.00  0.00    -0.550 OA
ENDBRANCH   6   7
ENDBRANCH   5   6
ENDBRANCH   4   5
ENDBRANCH   3   4
ENDBRANCH   2   3
ENDBRANCH   1   2
BRANCH   1  10
ATOM     10  C   UNL     1      41.663  25.358 225.737  1.00  0.00     0.000 C 
BRANCH  10  11
ATOM     11  C   UNL     1      41.715  23.984 225.054  1.00  0.00    -0.000 C 
BRANCH  11  12
ATOM     12  C   UNL     1      41.055  23.981 223.664  1.00  0.00    -0.000 C 
BRANCH  12  13
ATOM     13  C   UNL     1      40.043  22.833 223.464  1.00  0.00    -0.000 C 
BRANCH  13  14
ATOM     14  C   UNL     1      39.981  21.898 224.685  1.00  0.00    -0.000 C 
BRANCH  14  15
ATOM     15  C   UNL     1      38.543  21.668 225.177  1.00  0.00    -0.000 C 
BRANCH  15  16
ATOM     16  C   UNL     1      38.492  21.188 226.635  1.00  0.00    -0.003 C 
ATOM     17  C   UNL     1      38.867  22.312 227.597  1.00  0.00     0.004 C 
ENDBRANCH  15  16
ENDBRANCH  14  15
ENDBRANCH  13  14
ENDBRANCH  12  13
ENDBRANCH  11  12
ENDBRANCH  10  11
ENDBRANCH   1  10
TORSDOF 13
ENDMDL
MODEL 8
REMARK VINA RESULT:    -3.594      3.568      5.629
REMARK INTER + INTRA:          -7.901
REMARK INTER:                  -5.756
REMARK INTRA:                  -2.145
REMARK UNBOUND:                -1.575
REMARK SMILES CCCCCCCCCCCCCCC(=O)[O-]
REMARK SMILES IDX 9 1 10 2 11 3 12 4 13 5 14 6 15 7 16 8 17 9 8 10 7 11 6 12
REMARK SMILES IDX 5 13 4 14 3 15 2 16 1 17
REMARK H PARENT
REMARK Flexibility Score: inf
ROOT
ATOM      1  C   UNL     1      39.842  22.876 226.714  1.00  0.00     0.000 C 
ENDROOT
BRANCH   1   2
ATOM      2  C   UNL     1      38.319  22.734 226.562  1.00  0.00     0.000 C 
BRANCH   2   3
ATOM      3  C   UNL     1      37.918  21.445 225.826  1.00  0.00     0.000 C 
BRANCH   3   4
ATOM      4  C   UNL     1      39.134  20.657 225.311  1.00  0.00     0.000 C 
BRANCH   4   5
ATOM      5  C   UNL     1      39.320  19.316 226.040  1.00  0.00     0.006 C 
BRANCH   5   6
ATOM      6  C   UNL     1      38.051  18.455 226.022  1.00  0.00     0.053 C 
BRANCH   6   7
ATOM      7  C   UNL     1      37.624  18.127 227.418  1.00  0.00     0.041 C 
ATOM      8  O   UNL     1      36.744  17.248 227.621  1.00  0.00    -0.550 OA
ATOM      9  O   UNL     1      38.232  18.755 228.497  1.00  0.00    -0.550 OA
ENDBRANCH   6   7
ENDBRANCH   5   6
ENDBRANCH   4   5
ENDBRANCH   3   4
ENDBRANCH   2   3
ENDBRANCH   1   2
BRANCH   1  10
ATOM     10  C   UNL     1      40.265  24.347 226.632  1.00  0.00     0.000 C 
BRANCH  10  11
ATOM     11  C   UNL     1      41.214  24.583 225.449  1.00  0.00    -0.000 C 
BRANCH  11  12
ATOM     12  C   UNL     1      41.747  23.276 224.838  1.00  0.00    -0.000 C 
BRANCH  12  13
ATOM     13  C   UNL     1      41.265  23.028 223.393  1.00  0.00    -0.000 C 
BRANCH  13  14
ATOM     14  C   UNL     1      40.253  24.091 222.931  1.00  0.00    -0.000 C 
BRANCH  14  15
ATOM     15  C   UNL     1      38.839  23.517 222.748  1.00  0.00    -0.000 C 
BRANCH  15  16
ATOM     16  C   UNL     1      37.755  24.422 223.352  1.00  0.00    -0.003 C 
ATOM     17  C   UNL     1      36.392  23.737 223.330  1.00  0.00     0.004 C 
ENDBRANCH  15  16
ENDBRANCH  14  15
ENDBRANCH  13  14
ENDBRANCH  12  13
ENDBRANCH  11  12
ENDBRANCH  10  11
ENDBRANCH   1  10
TORSDOF 13
ENDMDL
MODEL 9
REMARK VINA RESULT:    -3.576      1.206      1.687
REMARK INTER + INTRA:          -7.868
REMARK INTER:                  -5.963
REMARK INTRA:                  -1.906
REMARK UNBOUND:                -1.575
REMARK SMILES CCCCCCCCCCCCCCC(=O)[O-]
REMARK SMILES IDX 9 1 10 2 11 3 12 4 13 5 14 6 15 7 16 8 17 9 8 10 7 11 6 12
REMARK SMILES IDX 5 13 4 14 3 15 2 16 1 17
REMARK H PARENT
REMARK Flexibility Score: inf
ROOT
ATOM      1  C   UNL     1      41.701  22.768 223.739  1.00  0.00     0.000 C 
ENDROOT
BRANCH   1   2
ATOM      2  C   UNL     1      40.722  23.808 223.172  1.00  0.00     0.000 C 
BRANCH   2   3
ATOM      3  C   UNL     1      39.802  24.403 224.250  1.00  0.00     0.000 C 
BRANCH   3   4
ATOM      4  C   UNL     1      39.209  23.327 225.178  1.00  0.00     0.000 C 
BRANCH   4   5
ATOM      5  C   UNL     1      37.673  23.297 225.141  1.00  0.00     0.006 C 
BRANCH   5   6
ATOM      6  C   UNL     1      37.128  22.476 223.965  1.00  0.00     0.053 C 
BRANCH   6   7
ATOM      7  C   UNL     1      36.600  23.380 222.897  1.00  0.00     0.041 C 
ATOM      8  O   UNL     1      37.111  23.368 221.746  1.00  0.00    -0.550 OA
ATOM      9  O   UNL     1      35.510  24.201 223.157  1.00  0.00    -0.550 OA
ENDBRANCH   6   7
ENDBRANCH   5   6
ENDBRANCH   4   5
ENDBRANCH   3   4
ENDBRANCH   2   3
ENDBRANCH   1   2
BRANCH   1  10
ATOM     10  C   UNL     1      41.829  21.566 222.797  1.00  0.00     0.000 C 
BRANCH  10  11
ATOM     11  C   UNL     1      42.022  20.264 223.587  1.00  0.00    -0.000 C 
BRANCH  11  12
ATOM     12  C   UNL     1      42.066  20.487 225.108  1.00  0.00    -0.000 C 
BRANCH  12  13
ATOM     13  C   UNL     1      41.039  19.636 225.886  1.00  0.00    -0.000 C 
BRANCH  13  14
ATOM     14  C   UNL     1      39.657  19.633 225.208  1.00  0.00    -0.000 C 
BRANCH  14  15
ATOM     15  C   UNL     1      38.618  18.820 225.995  1.00  0.00    -0.000 C 
BRANCH  15  16
ATOM     16  C   UNL     1      37.448  19.683 226.488  1.00  0.00    -0.003 C 
ATOM     17  C   UNL     1      37.867  20.550 227.673  1.00  0.00     0.004 C 
ENDBRANCH  15  16
ENDBRANCH  14  15
ENDBRANCH  13  14
ENDBRANCH  12  13
ENDBRANCH  11  12
ENDBRANCH  10  11
ENDBRANCH   1  10
TORSDOF 13
ENDMDL
