MODEL 1
REMARK VINA RESULT:    -3.421      0.000      0.000
REMARK INTER + INTRA:         -11.385
REMARK INTER:                  -7.820
REMARK INTRA:                  -3.565
REMARK UNBOUND:                -3.565
REMARK SMILES CCCCCCCCCCCCCCCCCCCCCCCC(=O)[O-]
REMARK SMILES IDX 13 1 14 2 15 3 16 4 17 5 18 6 19 7 20 8 21 9 22 10 23 11
REMARK SMILES IDX 24 12 25 13 26 14 12 15 11 16 10 17 9 18 8 19 7 20 6 21 5 22
REMARK SMILES IDX 4 23 3 24 2 25 1 26
REMARK H PARENT
REMARK Flexibility Score: inf
ROOT
ATOM      1  C   UNL     1       1.621   7.475  -8.686  1.00  0.00     0.000 C 
ENDROOT
BRANCH   1   2
ATOM      2  C   UNL     1       2.461   8.171  -9.774  1.00  0.00     0.000 C 
BRANCH   2   3
ATOM      3  C   UNL     1       2.190   7.651 -11.198  1.00  0.00     0.000 C 
BRANCH   3   4
ATOM      4  C   UNL     1       1.572   8.730 -12.107  1.00  0.00     0.000 C 
BRANCH   4   5
ATOM      5  C   UNL     1       1.581  10.126 -11.464  1.00  0.00     0.000 C 
BRANCH   5   6
ATOM      6  C   UNL     1       0.166  10.645 -11.155  1.00  0.00     0.000 C 
BRANCH   6   7
ATOM      7  C   UNL     1      -0.197  11.893 -11.978  1.00  0.00     0.000 C 
BRANCH   7   8
ATOM      8  C   UNL     1      -0.015  13.198 -11.183  1.00  0.00     0.000 C 
BRANCH   8   9
ATOM      9  C   UNL     1       1.170  14.038 -11.688  1.00  0.00     0.000 C 
BRANCH   9  10
ATOM     10  C   UNL     1       2.402  13.930 -10.772  1.00  0.00     0.006 C 
BRANCH  10  11
ATOM     11  C   UNL     1       2.021  13.573  -9.329  1.00  0.00     0.053 C 
BRANCH  11  12
ATOM     12  C   UNL     1       2.825  12.420  -8.812  1.00  0.00     0.041 C 
ATOM     13  O   UNL     1       2.253  11.452  -8.245  1.00  0.00    -0.550 OA
ATOM     14  O   UNL     1       4.203  12.397  -8.990  1.00  0.00    -0.550 OA
ENDBRANCH  11  12
ENDBRANCH  10  11
ENDBRANCH   9  10
ENDBRANCH   8   9
ENDBRANCH   7   8
ENDBRANCH   6   7
ENDBRANCH   5   6
ENDBRANCH   4   5
ENDBRANCH   3   4
ENDBRANCH   2   3
ENDBRANCH   1   2
BRANCH   1  15
ATOM     15  C   UNL     1       0.556   8.406  -8.081  1.00  0.00     0.000 C 
BRANCH  15  16
ATOM     16  C   UNL     1      -0.880   7.960  -8.432  1.00  0.00     0.000 C 
BRANCH  16  17
ATOM     17  C   UNL     1      -0.946   6.680  -9.288  1.00  0.00     0.000 C 
BRANCH  17  18
ATOM     18  C   UNL     1      -1.420   6.883 -10.738  1.00  0.00    -0.000 C 
BRANCH  18  19
ATOM     19  C   UNL     1      -2.088   8.250 -10.963  1.00  0.00    -0.000 C 
BRANCH  19  20
ATOM     20  C   UNL     1      -3.622   8.182 -10.879  1.00  0.00    -0.000 C 
BRANCH  20  21
ATOM     21  C   UNL     1      -4.335   8.802 -12.100  1.00  0.00    -0.000 C 
BRANCH  21  22
ATOM     22  C   UNL     1      -5.033  10.126 -11.755  1.00  0.00    -0.000 C 
BRANCH  22  23
ATOM     23  C   UNL     1      -4.105  11.320 -12.014  1.00  0.00    -0.000 C 
BRANCH  23  24
ATOM     24  C   UNL     1      -3.689  11.992 -10.697  1.00  0.00    -0.000 C 
BRANCH  24  25
ATOM     25  C   UNL     1      -4.705  13.043 -10.227  1.00  0.00    -0.003 C 
ATOM     26  C   UNL     1      -4.530  13.415  -8.755  1.00  0.00     0.004 C 
ENDBRANCH  24  25
ENDBRANCH  23  24
ENDBRANCH  22  23
ENDBRANCH  21  22
ENDBRANCH  20  21
ENDBRANCH  19  20
ENDBRANCH  18  19
ENDBRANCH  17  18
ENDBRANCH  16  17
ENDBRANCH  15  16
ENDBRANCH   1  15
TORSDOF 22
ENDMDL
MODEL 2
REMARK VINA RESULT:    -3.416      2.317      6.351
REMARK INTER + INTRA:         -11.374
REMARK INTER:                  -7.656
REMARK INTRA:                  -3.718
REMARK UNBOUND:                -3.565
REMARK SMILES CCCCCCCCCCCCCCCCCCCCCCCC(=O)[O-]
REMARK SMILES IDX 13 1 14 2 15 3 16 4 17 5 18 6 19 7 20 8 21 9 22 10 23 11
REMARK SMILES IDX 24 12 25 13 26 14 12 15 11 16 10 17 9 18 8 19 7 20 6 21 5 22
REMARK SMILES IDX 4 23 3 24 2 25 1 26
REMARK H PARENT
REMARK Flexibility Score: inf
ROOT
ATOM      1  C   UNL     1       2.395   8.570  -9.755  1.00  0.00     0.000 C 
ENDROOT
BRANCH   1   2
ATOM      2  C   UNL     1       1.866   7.589  -8.691  1.00  0.00     0.000 C 
BRANCH   2   3
ATOM      3  C   UNL     1       0.759   8.179  -7.796  1.00  0.00     0.000 C 
BRANCH   3   4
ATOM      4  C   UNL     1      -0.643   8.004  -8.408  1.00  0.00     0.000 C 
BRANCH   4   5
ATOM      5  C   UNL     1      -0.815   6.657  -9.130  1.00  0.00     0.000 C 
BRANCH   5   6
ATOM      6  C   UNL     1      -1.979   6.668 -10.135  1.00  0.00     0.000 C 
BRANCH   6   7
ATOM      7  C   UNL     1      -2.203   8.055 -10.762  1.00  0.00     0.000 C 
BRANCH   7   8
ATOM      8  C   UNL     1      -3.695   8.378 -10.963  1.00  0.00     0.000 C 
BRANCH   8   9
ATOM      9  C   UNL     1      -4.114   9.687 -10.274  1.00  0.00     0.000 C 
BRANCH   9  10
ATOM     10  C   UNL     1      -5.245  10.413 -11.024  1.00  0.00     0.006 C 
BRANCH  10  11
ATOM     11  C   UNL     1      -4.885  11.869 -11.347  1.00  0.00     0.053 C 
BRANCH  11  12
ATOM     12  C   UNL     1      -4.825  12.713 -10.111  1.00  0.00     0.041 C 
ATOM     13  O   UNL     1      -3.721  13.158  -9.700  1.00  0.00    -0.550 OA
ATOM     14  O   UNL     1      -5.993  13.038  -9.433  1.00  0.00    -0.550 OA
ENDBRANCH  11  12
ENDBRANCH  10  11
ENDBRANCH   9  10
ENDBRANCH   8   9
ENDBRANCH   7   8
ENDBRANCH   6   7
ENDBRANCH   5   6
ENDBRANCH   4   5
ENDBRANCH   3   4
ENDBRANCH   2   3
ENDBRANCH   1   2
BRANCH   1  15
ATOM     15  C   UNL     1       2.053   8.123 -11.187  1.00  0.00     0.000 C 
BRANCH  15  16
ATOM     16  C   UNL     1       1.174   9.154 -11.927  1.00  0.00     0.000 C 
BRANCH  16  17
ATOM     17  C   UNL     1       0.684  10.313 -11.038  1.00  0.00     0.000 C 
BRANCH  17  18
ATOM     18  C   UNL     1      -0.665  10.930 -11.448  1.00  0.00    -0.000 C 
BRANCH  18  19
ATOM     19  C   UNL     1      -0.652  12.467 -11.423  1.00  0.00    -0.000 C 
BRANCH  19  20
ATOM     20  C   UNL     1       0.628  13.060 -12.035  1.00  0.00    -0.000 C 
BRANCH  20  21
ATOM     21  C   UNL     1       1.309  14.118 -11.140  1.00  0.00    -0.000 C 
BRANCH  21  22
ATOM     22  C   UNL     1       1.251  13.744  -9.651  1.00  0.00    -0.000 C 
BRANCH  22  23
ATOM     23  C   UNL     1       2.661  13.551  -9.078  1.00  0.00    -0.000 C 
BRANCH  23  24
ATOM     24  C   UNL     1       3.266  12.217  -9.538  1.00  0.00    -0.000 C 
BRANCH  24  25
ATOM     25  C   UNL     1       4.188  12.379 -10.756  1.00  0.00    -0.003 C 
ATOM     26  C   UNL     1       4.379  11.073 -11.528  1.00  0.00     0.004 C 
ENDBRANCH  24  25
ENDBRANCH  23  24
ENDBRANCH  22  23
ENDBRANCH  21  22
ENDBRANCH  20  21
ENDBRANCH  19  20
ENDBRANCH  18  19
ENDBRANCH  17  18
ENDBRANCH  16  17
ENDBRANCH  15  16
ENDBRANCH   1  15
TORSDOF 22
ENDMDL
MODEL 3
REMARK VINA RESULT:    -3.286      4.701      6.977
REMARK INTER + INTRA:         -11.078
REMARK INTER:                  -9.030
REMARK INTRA:                  -2.048
REMARK UNBOUND:                -3.565
REMARK SMILES CCCCCCCCCCCCCCCCCCCCCCCC(=O)[O-]
REMARK SMILES IDX 13 1 14 2 15 3 16 4 17 5 18 6 19 7 20 8 21 9 22 10 23 11
REMARK SMILES IDX 24 12 25 13 26 14 12 15 11 16 10 17 9 18 8 19 7 20 6 21 5 22
REMARK SMILES IDX 4 23 3 24 2 25 1 26
REMARK H PARENT
REMARK Flexibility Score: inf
ROOT
ATOM      1  C   UNL     1       2.250  11.336  -9.471  1.00  0.00     0.000 C 
ENDROOT
BRANCH   1   2
ATOM      2  C   UNL     1       3.099  12.256  -8.573  1.00  0.00     0.000 C 
BRANCH   2   3
ATOM      3  C   UNL     1       4.036  13.197  -9.354  1.00  0.00     0.000 C 
BRANCH   3   4
ATOM      4  C   UNL     1       5.143  13.790  -8.464  1.00  0.00     0.000 C 
BRANCH   4   5
ATOM      5  C   UNL     1       6.447  12.978  -8.512  1.00  0.00     0.000 C 
BRANCH   5   6
ATOM      6  C   UNL     1       7.334  13.206  -7.276  1.00  0.00     0.000 C 
BRANCH   6   7
ATOM      7  C   UNL     1       6.730  12.598  -5.998  1.00  0.00     0.000 C 
BRANCH   7   8
ATOM      8  C   UNL     1       7.805  12.175  -4.981  1.00  0.00     0.000 C 
BRANCH   8   9
ATOM      9  C   UNL     1       9.145  11.825  -5.648  1.00  0.00     0.000 C 
BRANCH   9  10
ATOM     10  C   UNL     1       9.560  10.362  -5.408  1.00  0.00     0.006 C 
BRANCH  10  11
ATOM     11  C   UNL     1      10.950  10.053  -5.979  1.00  0.00     0.053 C 
BRANCH  11  12
ATOM     12  C   UNL     1      11.257   8.587  -5.929  1.00  0.00     0.041 C 
ATOM     13  O   UNL     1      11.593   7.974  -6.976  1.00  0.00    -0.550 OA
ATOM     14  O   UNL     1      11.209   7.908  -4.718  1.00  0.00    -0.550 OA
ENDBRANCH  11  12
ENDBRANCH  10  11
ENDBRANCH   9  10
ENDBRANCH   8   9
ENDBRANCH   7   8
ENDBRANCH   6   7
ENDBRANCH   5   6
ENDBRANCH   4   5
ENDBRANCH   3   4
ENDBRANCH   2   3
ENDBRANCH   1   2
BRANCH   1  15
ATOM     15  C   UNL     1       2.735  11.330 -10.930  1.00  0.00     0.000 C 
BRANCH  15  16
ATOM     16  C   UNL     1       1.794  10.532 -11.858  1.00  0.00     0.000 C 
BRANCH  16  17
ATOM     17  C   UNL     1       2.236   9.075 -12.095  1.00  0.00     0.000 C 
BRANCH  17  18
ATOM     18  C   UNL     1       1.381   8.007 -11.391  1.00  0.00    -0.000 C 
BRANCH  18  19
ATOM     19  C   UNL     1       1.847   7.720  -9.954  1.00  0.00    -0.000 C 
BRANCH  19  20
ATOM     20  C   UNL     1       0.704   7.817  -8.929  1.00  0.00    -0.000 C 
BRANCH  20  21
ATOM     21  C   UNL     1      -0.275   6.625  -8.981  1.00  0.00    -0.000 C 
BRANCH  21  22
ATOM     22  C   UNL     1      -1.729   7.076  -9.191  1.00  0.00    -0.000 C 
BRANCH  22  23
ATOM     23  C   UNL     1      -2.141   6.937 -10.662  1.00  0.00    -0.000 C 
BRANCH  23  24
ATOM     24  C   UNL     1      -3.231   7.954 -11.029  1.00  0.00    -0.000 C 
BRANCH  24  25
ATOM     25  C   UNL     1      -2.946   9.352 -10.461  1.00  0.00    -0.003 C 
ATOM     26  C   UNL     1      -1.848  10.088 -11.229  1.00  0.00     0.004 C 
ENDBRANCH  24  25
ENDBRANCH  23  24
ENDBRANCH  22  23
ENDBRANCH  21  22
ENDBRANCH  20  21
ENDBRANCH  19  20
ENDBRANCH  18  19
ENDBRANCH  17  18
ENDBRANCH  16  17
ENDBRANCH  15  16
ENDBRANCH   1  15
TORSDOF 22
ENDMDL
MODEL 4
REMARK VINA RESULT:    -3.275     14.881     16.404
REMARK INTER + INTRA:         -11.054
REMARK INTER:                  -8.597
REMARK INTRA:                  -2.456
REMARK UNBOUND:                -3.565
REMARK SMILES CCCCCCCCCCCCCCCCCCCCCCCC(=O)[O-]
REMARK SMILES IDX 13 1 14 2 15 3 16 4 17 5 18 6 19 7 20 8 21 9 22 10 23 11
REMARK SMILES IDX 24 12 25 13 26 14 12 15 11 16 10 17 9 18 8 19 7 20 6 21 5 22
REMARK SMILES IDX 4 23 3 24 2 25 1 26
REMARK H PARENT
REMARK Flexibility Score: inf
ROOT
ATOM      1  C   UNL     1      -2.485   8.546   6.249  1.00  0.00     0.000 C 
ENDROOT
BRANCH   1   2
ATOM      2  C   UNL     1      -2.158  10.049   6.341  1.00  0.00     0.000 C 
BRANCH   2   3
ATOM      3  C   UNL     1      -1.426  10.605   5.105  1.00  0.00     0.000 C 
BRANCH   3   4
ATOM      4  C   UNL     1      -0.458  11.747   5.462  1.00  0.00     0.000 C 
BRANCH   4   5
ATOM      5  C   UNL     1      -0.352  12.808   4.356  1.00  0.00     0.000 C 
BRANCH   5   6
ATOM      6  C   UNL     1       1.067  13.386   4.221  1.00  0.00     0.000 C 
BRANCH   6   7
ATOM      7  C   UNL     1       1.768  13.547   5.581  1.00  0.00     0.000 C 
BRANCH   7   8
ATOM      8  C   UNL     1       3.277  13.816   5.440  1.00  0.00     0.000 C 
BRANCH   8   9
ATOM      9  C   UNL     1       4.078  13.350   6.667  1.00  0.00     0.000 C 
BRANCH   9  10
ATOM     10  C   UNL     1       4.100  11.818   6.811  1.00  0.00     0.006 C 
BRANCH  10  11
ATOM     11  C   UNL     1       5.514  11.281   7.072  1.00  0.00     0.053 C 
BRANCH  11  12
ATOM     12  C   UNL     1       5.970  10.365   5.978  1.00  0.00     0.041 C 
ATOM     13  O   UNL     1       7.102  10.524   5.449  1.00  0.00    -0.550 OA
ATOM     14  O   UNL     1       5.161   9.313   5.569  1.00  0.00    -0.550 OA
ENDBRANCH  11  12
ENDBRANCH  10  11
ENDBRANCH   9  10
ENDBRANCH   8   9
ENDBRANCH   7   8
ENDBRANCH   6   7
ENDBRANCH   5   6
ENDBRANCH   4   5
ENDBRANCH   3   4
ENDBRANCH   2   3
ENDBRANCH   1   2
BRANCH   1  15
ATOM     15  C   UNL     1      -3.406   8.075   7.388  1.00  0.00     0.000 C 
BRANCH  15  16
ATOM     16  C   UNL     1      -4.281   6.873   6.974  1.00  0.00     0.000 C 
BRANCH  16  17
ATOM     17  C   UNL     1      -5.785   7.196   6.880  1.00  0.00     0.000 C 
BRANCH  17  18
ATOM     18  C   UNL     1      -6.250   7.770   5.531  1.00  0.00    -0.000 C 
BRANCH  18  19
ATOM     19  C   UNL     1      -6.650   9.252   5.617  1.00  0.00    -0.000 C 
BRANCH  19  20
ATOM     20  C   UNL     1      -5.615  10.186   4.969  1.00  0.00    -0.000 C 
BRANCH  20  21
ATOM     21  C   UNL     1      -5.954  10.567   3.512  1.00  0.00    -0.000 C 
BRANCH  21  22
ATOM     22  C   UNL     1      -6.099  12.086   3.327  1.00  0.00    -0.000 C 
BRANCH  22  23
ATOM     23  C   UNL     1      -5.868  12.825   4.652  1.00  0.00    -0.000 C 
BRANCH  23  24
ATOM     24  C   UNL     1      -4.687  13.799   4.541  1.00  0.00    -0.000 C 
BRANCH  24  25
ATOM     25  C   UNL     1      -3.662  13.611   5.670  1.00  0.00    -0.003 C 
ATOM     26  C   UNL     1      -4.287  13.040   6.944  1.00  0.00     0.004 C 
ENDBRANCH  24  25
ENDBRANCH  23  24
ENDBRANCH  22  23
ENDBRANCH  21  22
ENDBRANCH  20  21
ENDBRANCH  19  20
ENDBRANCH  18  19
ENDBRANCH  17  18
ENDBRANCH  16  17
ENDBRANCH  15  16
ENDBRANCH   1  15
TORSDOF 22
ENDMDL
MODEL 5
REMARK VINA RESULT:    -3.243      3.098      4.949
REMARK INTER + INTRA:         -10.979
REMARK INTER:                  -8.900
REMARK INTRA:                  -2.078
REMARK UNBOUND:                -3.565
REMARK SMILES CCCCCCCCCCCCCCCCCCCCCCCC(=O)[O-]
REMARK SMILES IDX 13 1 14 2 15 3 16 4 17 5 18 6 19 7 20 8 21 9 22 10 23 11
REMARK SMILES IDX 24 12 25 13 26 14 12 15 11 16 10 17 9 18 8 19 7 20 6 21 5 22
REMARK SMILES IDX 4 23 3 24 2 25 1 26
REMARK H PARENT
REMARK Flexibility Score: inf
ROOT
ATOM      1  C   UNL     1       1.265  10.268 -10.922  1.00  0.00     0.000 C 
ENDROOT
BRANCH   1   2
ATOM      2  C   UNL     1       2.222  10.935 -11.928  1.00  0.00     0.000 C 
BRANCH   2   3
ATOM      3  C   UNL     1       3.573  11.357 -11.318  1.00  0.00     0.000 C 
BRANCH   3   4
ATOM      4  C   UNL     1       3.673  12.879 -11.116  1.00  0.00     0.000 C 
BRANCH   4   5
ATOM      5  C   UNL     1       3.058  13.347  -9.788  1.00  0.00     0.000 C 
BRANCH   5   6
ATOM      6  C   UNL     1       3.957  13.040  -8.577  1.00  0.00     0.000 C 
BRANCH   6   7
ATOM      7  C   UNL     1       5.109  14.048  -8.428  1.00  0.00     0.000 C 
BRANCH   7   8
ATOM      8  C   UNL     1       6.417  13.386  -7.960  1.00  0.00     0.000 C 
BRANCH   8   9
ATOM      9  C   UNL     1       6.806  13.793  -6.529  1.00  0.00     0.000 C 
BRANCH   9  10
ATOM     10  C   UNL     1       6.661  12.635  -5.526  1.00  0.00     0.006 C 
BRANCH  10  11
ATOM     11  C   UNL     1       8.016  12.177  -4.971  1.00  0.00     0.053 C 
BRANCH  11  12
ATOM     12  C   UNL     1       8.607  11.072  -5.792  1.00  0.00     0.041 C 
ATOM     13  O   UNL     1       9.138  11.324  -6.906  1.00  0.00    -0.550 OA
ATOM     14  O   UNL     1       8.605   9.769  -5.310  1.00  0.00    -0.550 OA
ENDBRANCH  11  12
ENDBRANCH  10  11
ENDBRANCH   9  10
ENDBRANCH   8   9
ENDBRANCH   7   8
ENDBRANCH   6   7
ENDBRANCH   5   6
ENDBRANCH   4   5
ENDBRANCH   3   4
ENDBRANCH   2   3
ENDBRANCH   1   2
BRANCH   1  15
ATOM     15  C   UNL     1       1.984   9.820  -9.637  1.00  0.00     0.000 C 
BRANCH  15  16
ATOM     16  C   UNL     1       2.443   8.347  -9.706  1.00  0.00     0.000 C 
BRANCH  16  17
ATOM     17  C   UNL     1       1.806   7.442  -8.635  1.00  0.00     0.000 C 
BRANCH  17  18
ATOM     18  C   UNL     1       0.751   8.121  -7.743  1.00  0.00    -0.000 C 
BRANCH  18  19
ATOM     19  C   UNL     1      -0.683   7.933  -8.265  1.00  0.00    -0.000 C 
BRANCH  19  20
ATOM     20  C   UNL     1      -0.798   6.792  -9.289  1.00  0.00    -0.000 C 
BRANCH  20  21
ATOM     21  C   UNL     1      -1.221   7.265 -10.696  1.00  0.00    -0.000 C 
BRANCH  21  22
ATOM     22  C   UNL     1      -2.632   6.785 -11.072  1.00  0.00    -0.000 C 
BRANCH  22  23
ATOM     23  C   UNL     1      -3.525   7.966 -11.472  1.00  0.00    -0.000 C 
BRANCH  23  24
ATOM     24  C   UNL     1      -3.467   9.084 -10.421  1.00  0.00    -0.000 C 
BRANCH  24  25
ATOM     25  C   UNL     1      -3.887  10.448 -10.989  1.00  0.00    -0.003 C 
ATOM     26  C   UNL     1      -5.400  10.666 -10.940  1.00  0.00     0.004 C 
ENDBRANCH  24  25
ENDBRANCH  23  24
ENDBRANCH  22  23
ENDBRANCH  21  22
ENDBRANCH  20  21
ENDBRANCH  19  20
ENDBRANCH  18  19
ENDBRANCH  17  18
ENDBRANCH  16  17
ENDBRANCH  15  16
ENDBRANCH   1  15
TORSDOF 22
ENDMDL
MODEL 6
REMARK VINA RESULT:    -3.179      4.294      9.326
REMARK INTER + INTRA:         -10.834
REMARK INTER:                  -8.811
REMARK INTRA:                  -2.022
REMARK UNBOUND:                -3.565
REMARK SMILES CCCCCCCCCCCCCCCCCCCCCCCC(=O)[O-]
REMARK SMILES IDX 13 1 14 2 15 3 16 4 17 5 18 6 19 7 20 8 21 9 22 10 23 11
REMARK SMILES IDX 24 12 25 13 26 14 12 15 11 16 10 17 9 18 8 19 7 20 6 21 5 22
REMARK SMILES IDX 4 23 3 24 2 25 1 26
REMARK H PARENT
REMARK Flexibility Score: inf
ROOT
ATOM      1  C   UNL     1       2.608  10.880 -10.279  1.00  0.00     0.000 C 
ENDROOT
BRANCH   1   2
ATOM      2  C   UNL     1       1.464  10.784 -11.307  1.00  0.00     0.000 C 
BRANCH   2   3
ATOM      3  C   UNL     1       0.699  12.105 -11.513  1.00  0.00     0.000 C 
BRANCH   3   4
ATOM      4  C   UNL     1      -0.821  11.889 -11.626  1.00  0.00     0.000 C 
BRANCH   4   5
ATOM      5  C   UNL     1      -1.234  10.425 -11.404  1.00  0.00     0.000 C 
BRANCH   5   6
ATOM      6  C   UNL     1      -2.760  10.244 -11.329  1.00  0.00     0.000 C 
BRANCH   6   7
ATOM      7  C   UNL     1      -3.170   9.094 -10.394  1.00  0.00     0.000 C 
BRANCH   7   8
ATOM      8  C   UNL     1      -2.511   7.757 -10.778  1.00  0.00     0.000 C 
BRANCH   8   9
ATOM      9  C   UNL     1      -1.973   6.992  -9.557  1.00  0.00     0.000 C 
BRANCH   9  10
ATOM     10  C   UNL     1      -1.198   7.902  -8.586  1.00  0.00     0.006 C 
BRANCH  10  11
ATOM     11  C   UNL     1       0.231   8.180  -9.069  1.00  0.00     0.053 C 
BRANCH  11  12
ATOM     12  C   UNL     1       1.250   7.481  -8.222  1.00  0.00     0.041 C 
ATOM     13  O   UNL     1       2.303   7.027  -8.742  1.00  0.00    -0.550 OA
ATOM     14  O   UNL     1       1.053   7.363  -6.852  1.00  0.00    -0.550 OA
ENDBRANCH  11  12
ENDBRANCH  10  11
ENDBRANCH   9  10
ENDBRANCH   8   9
ENDBRANCH   7   8
ENDBRANCH   6   7
ENDBRANCH   5   6
ENDBRANCH   4   5
ENDBRANCH   3   4
ENDBRANCH   2   3
ENDBRANCH   1   2
BRANCH   1  15
ATOM     15  C   UNL     1       2.235  11.750  -9.066  1.00  0.00     0.000 C 
BRANCH  15  16
ATOM     16  C   UNL     1       3.425  12.598  -8.566  1.00  0.00     0.000 C 
BRANCH  16  17
ATOM     17  C   UNL     1       4.515  12.837  -9.629  1.00  0.00     0.000 C 
BRANCH  17  18
ATOM     18  C   UNL     1       5.816  13.469  -9.105  1.00  0.00    -0.000 C 
BRANCH  18  19
ATOM     19  C   UNL     1       5.994  13.299  -7.586  1.00  0.00    -0.000 C 
BRANCH  19  20
ATOM     20  C   UNL     1       7.394  12.790  -7.206  1.00  0.00    -0.000 C 
BRANCH  20  21
ATOM     21  C   UNL     1       7.644  12.747  -5.684  1.00  0.00    -0.000 C 
BRANCH  21  22
ATOM     22  C   UNL     1       8.523  11.556  -5.272  1.00  0.00    -0.000 C 
BRANCH  22  23
ATOM     23  C   UNL     1       8.988  10.765  -6.503  1.00  0.00    -0.000 C 
BRANCH  23  24
ATOM     24  C   UNL     1      10.515  10.605  -6.511  1.00  0.00    -0.000 C 
BRANCH  24  25
ATOM     25  C   UNL     1      11.063  10.124  -5.158  1.00  0.00    -0.003 C 
ATOM     26  C   UNL     1      10.877   8.621  -4.948  1.00  0.00     0.004 C 
ENDBRANCH  24  25
ENDBRANCH  23  24
ENDBRANCH  22  23
ENDBRANCH  21  22
ENDBRANCH  20  21
ENDBRANCH  19  20
ENDBRANCH  18  19
ENDBRANCH  17  18
ENDBRANCH  16  17
ENDBRANCH  15  16
ENDBRANCH   1  15
TORSDOF 22
ENDMDL
MODEL 7
REMARK VINA RESULT:    -3.169      6.405     10.994
REMARK INTER + INTRA:         -10.810
REMARK INTER:                  -8.322
REMARK INTRA:                  -2.488
REMARK UNBOUND:                -3.565
REMARK SMILES CCCCCCCCCCCCCCCCCCCCCCCC(=O)[O-]
REMARK SMILES IDX 13 1 14 2 15 3 16 4 17 5 18 6 19 7 20 8 21 9 22 10 23 11
REMARK SMILES IDX 24 12 25 13 26 14 12 15 11 16 10 17 9 18 8 19 7 20 6 21 5 22
REMARK SMILES IDX 4 23 3 24 2 25 1 26
REMARK H PARENT
REMARK Flexibility Score: inf
ROOT
ATOM      1  C   UNL     1       7.838  12.356  -5.639  1.00  0.00     0.000 C 
ENDROOT
BRANCH   1   2
ATOM      2  C   UNL     1       6.470  12.904  -6.090  1.00  0.00     0.000 C 
BRANCH   2   3
ATOM      3  C   UNL     1       6.424  13.320  -7.572  1.00  0.00     0.000 C 
BRANCH   3   4
ATOM      4  C   UNL     1       4.990  13.325  -8.133  1.00  0.00     0.000 C 
BRANCH   4   5
ATOM      5  C   UNL     1       4.936  13.004  -9.635  1.00  0.00     0.000 C 
BRANCH   5   6
ATOM      6  C   UNL     1       3.681  12.204 -10.026  1.00  0.00     0.000 C 
BRANCH   6   7
ATOM      7  C   UNL     1       2.789  11.881  -8.815  1.00  0.00     0.000 C 
BRANCH   7   8
ATOM      8  C   UNL     1       1.821  10.715  -9.089  1.00  0.00     0.000 C 
BRANCH   8   9
ATOM      9  C   UNL     1       2.499   9.545  -9.820  1.00  0.00     0.000 C 
BRANCH   9  10
ATOM     10  C   UNL     1       1.903   8.180  -9.429  1.00  0.00     0.006 C 
BRANCH  10  11
ATOM     11  C   UNL     1       0.876   8.300  -8.295  1.00  0.00     0.053 C 
BRANCH  11  12
ATOM     12  C   UNL     1      -0.360   7.502  -8.580  1.00  0.00     0.041 C 
ATOM     13  O   UNL     1      -0.269   6.341  -9.057  1.00  0.00    -0.550 OA
ATOM     14  O   UNL     1      -1.611   8.029  -8.283  1.00  0.00    -0.550 OA
ENDBRANCH  11  12
ENDBRANCH  10  11
ENDBRANCH   9  10
ENDBRANCH   8   9
ENDBRANCH   7   8
ENDBRANCH   6   7
ENDBRANCH   5   6
ENDBRANCH   4   5
ENDBRANCH   3   4
ENDBRANCH   2   3
ENDBRANCH   1   2
BRANCH   1  15
ATOM     15  C   UNL     1       8.521  13.264  -4.602  1.00  0.00     0.000 C 
BRANCH  15  16
ATOM     16  C   UNL     1      10.030  12.968  -4.468  1.00  0.00     0.000 C 
BRANCH  16  17
ATOM     17  C   UNL     1      10.680  12.432  -5.757  1.00  0.00     0.000 C 
BRANCH  17  18
ATOM     18  C   UNL     1      11.547  11.172  -5.581  1.00  0.00    -0.000 C 
BRANCH  18  19
ATOM     19  C   UNL     1      10.753   9.972  -5.040  1.00  0.00    -0.000 C 
BRANCH  19  20
ATOM     20  C   UNL     1      11.224   8.633  -5.633  1.00  0.00    -0.000 C 
BRANCH  20  21
ATOM     21  C   UNL     1      12.278   8.788  -6.750  1.00  0.00    -0.000 C 
BRANCH  21  22
ATOM     22  C   UNL     1      11.970   7.903  -7.967  1.00  0.00    -0.000 C 
BRANCH  22  23
ATOM     23  C   UNL     1      10.865   8.523  -8.833  1.00  0.00    -0.000 C 
BRANCH  23  24
ATOM     24  C   UNL     1      11.368   9.787  -9.546  1.00  0.00    -0.000 C 
BRANCH  24  25
ATOM     25  C   UNL     1      10.545  11.033  -9.183  1.00  0.00    -0.003 C 
ATOM     26  C   UNL     1       9.133  10.689  -8.708  1.00  0.00     0.004 C 
ENDBRANCH  24  25
ENDBRANCH  23  24
ENDBRANCH  22  23
ENDBRANCH  21  22
ENDBRANCH  20  21
ENDBRANCH  19  20
ENDBRANCH  18  19
ENDBRANCH  17  18
ENDBRANCH  16  17
ENDBRANCH  15  16
ENDBRANCH   1  15
TORSDOF 22
ENDMDL
MODEL 8
REMARK VINA RESULT:    -3.162      4.823      9.888
REMARK INTER + INTRA:         -10.795
REMARK INTER:                  -9.173
REMARK INTRA:                  -1.622
REMARK UNBOUND:                -3.565
REMARK SMILES CCCCCCCCCCCCCCCCCCCCCCCC(=O)[O-]
REMARK SMILES IDX 13 1 14 2 15 3 16 4 17 5 18 6 19 7 20 8 21 9 22 10 23 11
REMARK SMILES IDX 24 12 25 13 26 14 12 15 11 16 10 17 9 18 8 19 7 20 6 21 5 22
REMARK SMILES IDX 4 23 3 24 2 25 1 26
REMARK H PARENT
REMARK Flexibility Score: inf
ROOT
ATOM      1  C   UNL     1       2.575  11.257  -9.382  1.00  0.00     0.000 C 
ENDROOT
BRANCH   1   2
ATOM      2  C   UNL     1       1.731  10.071  -9.889  1.00  0.00     0.000 C 
BRANCH   2   3
ATOM      3  C   UNL     1       2.469   8.719  -9.847  1.00  0.00     0.000 C 
BRANCH   3   4
ATOM      4  C   UNL     1       1.911   7.783  -8.759  1.00  0.00     0.000 C 
BRANCH   4   5
ATOM      5  C   UNL     1       0.728   8.396  -7.993  1.00  0.00     0.000 C 
BRANCH   5   6
ATOM      6  C   UNL     1      -0.622   7.774  -8.389  1.00  0.00     0.000 C 
BRANCH   6   7
ATOM      7  C   UNL     1      -0.471   6.659  -9.438  1.00  0.00     0.000 C 
BRANCH   7   8
ATOM      8  C   UNL     1      -1.190   6.990 -10.759  1.00  0.00     0.000 C 
BRANCH   8   9
ATOM      9  C   UNL     1      -2.713   7.111 -10.588  1.00  0.00     0.000 C 
BRANCH   9  10
ATOM     10  C   UNL     1      -3.292   8.342 -11.308  1.00  0.00     0.006 C 
BRANCH  10  11
ATOM     11  C   UNL     1      -3.558   9.505 -10.343  1.00  0.00     0.053 C 
BRANCH  11  12
ATOM     12  C   UNL     1      -4.824  10.230 -10.685  1.00  0.00     0.041 C 
ATOM     13  O   UNL     1      -5.675   9.697 -11.443  1.00  0.00    -0.550 OA
ATOM     14  O   UNL     1      -5.079  11.481 -10.135  1.00  0.00    -0.550 OA
ENDBRANCH  11  12
ENDBRANCH  10  11
ENDBRANCH   9  10
ENDBRANCH   8   9
ENDBRANCH   7   8
ENDBRANCH   6   7
ENDBRANCH   5   6
ENDBRANCH   4   5
ENDBRANCH   3   4
ENDBRANCH   2   3
ENDBRANCH   1   2
BRANCH   1  15
ATOM     15  C   UNL     1       3.166  12.090 -10.532  1.00  0.00     0.000 C 
BRANCH  15  16
ATOM     16  C   UNL     1       4.483  12.789 -10.132  1.00  0.00     0.000 C 
BRANCH  16  17
ATOM     17  C   UNL     1       4.497  13.319  -8.685  1.00  0.00     0.000 C 
BRANCH  17  18
ATOM     18  C   UNL     1       5.890  13.641  -8.117  1.00  0.00    -0.000 C 
BRANCH  18  19
ATOM     19  C   UNL     1       7.033  13.162  -9.028  1.00  0.00    -0.000 C 
BRANCH  19  20
ATOM     20  C   UNL     1       8.045  12.269  -8.290  1.00  0.00    -0.000 C 
BRANCH  20  21
ATOM     21  C   UNL     1       8.055  12.479  -6.761  1.00  0.00    -0.000 C 
BRANCH  21  22
ATOM     22  C   UNL     1       9.432  12.923  -6.243  1.00  0.00    -0.000 C 
BRANCH  22  23
ATOM     23  C   UNL     1       9.819  12.148  -4.977  1.00  0.00    -0.000 C 
BRANCH  23  24
ATOM     24  C   UNL     1      10.774  10.992  -5.308  1.00  0.00    -0.000 C 
BRANCH  24  25
ATOM     25  C   UNL     1      10.066   9.629  -5.318  1.00  0.00    -0.003 C 
ATOM     26  C   UNL     1      10.992   8.481  -4.914  1.00  0.00     0.004 C 
ENDBRANCH  24  25
ENDBRANCH  23  24
ENDBRANCH  22  23
ENDBRANCH  21  22
ENDBRANCH  20  21
ENDBRANCH  19  20
ENDBRANCH  18  19
ENDBRANCH  17  18
ENDBRANCH  16  17
ENDBRANCH  15  16
ENDBRANCH   1  15
TORSDOF 22
ENDMDL
MODEL 9
REMARK VINA RESULT:    -3.156      6.489      9.588
REMARK INTER + INTRA:         -10.780
REMARK INTER:                  -9.148
REMARK INTRA:                  -1.632
REMARK UNBOUND:                -3.565
REMARK SMILES CCCCCCCCCCCCCCCCCCCCCCCC(=O)[O-]
REMARK SMILES IDX 13 1 14 2 15 3 16 4 17 5 18 6 19 7 20 8 21 9 22 10 23 11
REMARK SMILES IDX 24 12 25 13 26 14 12 15 11 16 10 17 9 18 8 19 7 20 6 21 5 22
REMARK SMILES IDX 4 23 3 24 2 25 1 26
REMARK H PARENT
REMARK Flexibility Score: inf
ROOT
ATOM      1  C   UNL     1       6.632  13.001  -6.977  1.00  0.00     0.000 C 
ENDROOT
BRANCH   1   2
ATOM      2  C   UNL     1       6.433  13.085  -5.452  1.00  0.00     0.000 C 
BRANCH   2   3
ATOM      3  C   UNL     1       7.640  12.580  -4.637  1.00  0.00     0.000 C 
BRANCH   3   4
ATOM      4  C   UNL     1       8.672  13.691  -4.373  1.00  0.00     0.000 C 
BRANCH   4   5
ATOM      5  C   UNL     1       9.023  13.839  -2.884  1.00  0.00     0.000 C 
BRANCH   5   6
ATOM      6  C   UNL     1      10.538  13.781  -2.623  1.00  0.00     0.000 C 
BRANCH   6   7
ATOM      7  C   UNL     1      11.317  13.184  -3.807  1.00  0.00     0.000 C 
BRANCH   7   8
ATOM      8  C   UNL     1      12.225  12.015  -3.387  1.00  0.00     0.000 C 
BRANCH   8   9
ATOM      9  C   UNL     1      12.176  10.842  -4.380  1.00  0.00     0.000 C 
BRANCH   9  10
ATOM     10  C   UNL     1      10.951  10.907  -5.310  1.00  0.00     0.006 C 
BRANCH  10  11
ATOM     11  C   UNL     1      10.098   9.634  -5.234  1.00  0.00     0.053 C 
BRANCH  11  12
ATOM     12  C   UNL     1      10.940   8.397  -5.310  1.00  0.00     0.041 C 
ATOM     13  O   UNL     1      11.002   7.611  -4.329  1.00  0.00    -0.550 OA
ATOM     14  O   UNL     1      11.626   8.094  -6.479  1.00  0.00    -0.550 OA
ENDBRANCH  11  12
ENDBRANCH  10  11
ENDBRANCH   9  10
ENDBRANCH   8   9
ENDBRANCH   7   8
ENDBRANCH   6   7
ENDBRANCH   5   6
ENDBRANCH   4   5
ENDBRANCH   3   4
ENDBRANCH   2   3
ENDBRANCH   1   2
BRANCH   1  15
ATOM     15  C   UNL     1       5.643  13.892  -7.748  1.00  0.00     0.000 C 
BRANCH  15  16
ATOM     16  C   UNL     1       5.434  13.415  -9.201  1.00  0.00     0.000 C 
BRANCH  16  17
ATOM     17  C   UNL     1       4.181  12.539  -9.398  1.00  0.00     0.000 C 
BRANCH  17  18
ATOM     18  C   UNL     1       3.852  12.183 -10.858  1.00  0.00    -0.000 C 
BRANCH  18  19
ATOM     19  C   UNL     1       3.071  10.865 -10.992  1.00  0.00    -0.000 C 
BRANCH  19  20
ATOM     20  C   UNL     1       1.792  10.844 -10.137  1.00  0.00    -0.000 C 
BRANCH  20  21
ATOM     21  C   UNL     1       1.838   9.820  -8.982  1.00  0.00    -0.000 C 
BRANCH  21  22
ATOM     22  C   UNL     1       2.115   8.393  -9.481  1.00  0.00    -0.000 C 
BRANCH  22  23
ATOM     23  C   UNL     1       1.470   7.353  -8.556  1.00  0.00    -0.000 C 
BRANCH  23  24
ATOM     24  C   UNL     1      -0.062   7.449  -8.601  1.00  0.00    -0.000 C 
BRANCH  24  25
ATOM     25  C   UNL     1      -0.642   6.959  -9.937  1.00  0.00    -0.003 C 
ATOM     26  C   UNL     1      -2.170   7.005  -9.969  1.00  0.00     0.004 C 
ENDBRANCH  24  25
ENDBRANCH  23  24
ENDBRANCH  22  23
ENDBRANCH  21  22
ENDBRANCH  20  21
ENDBRANCH  19  20
ENDBRANCH  18  19
ENDBRANCH  17  18
ENDBRANCH  16  17
ENDBRANCH  15  16
ENDBRANCH   1  15
TORSDOF 22
ENDMDL
