MODEL 1
REMARK VINA RESULT:    -3.368      0.000      0.000
REMARK INTER + INTRA:          -4.344
REMARK INTER:                  -3.958
REMARK INTRA:                  -0.386
REMARK UNBOUND:                -0.386
REMARK SMILES [NH3+][C@@H](CO)C(=O)[O-]
REMARK SMILES IDX 3 1 2 2 1 3 5 7 6 8 7 9 4 10
REMARK H PARENT 1 4 1 5 1 6 4 11
REMARK Flexibility Score: inf
ROOT
ATOM      1  C   UNL     1       3.307  -1.871  14.473  1.00  0.00     0.227 C 
ENDROOT
BRANCH   1   2
ATOM      2  C   UNL     1       2.316  -0.777  14.903  1.00  0.00     0.253 C 
BRANCH   2   3
ATOM      3  N   UNL     1       2.381  -0.539  16.350  1.00  0.00    -0.348 N 
ATOM      4  H   UNL     1       3.230   0.027  16.577  1.00  0.00     0.345 HD
ATOM      5  H   UNL     1       1.538  -0.001  16.658  1.00  0.00     0.345 HD
ATOM      6  H   UNL     1       2.422  -1.441  16.879  1.00  0.00     0.345 HD
ENDBRANCH   2   3
BRANCH   2   7
ATOM      7  C   UNL     1       0.913  -1.135  14.482  1.00  0.00     0.102 C 
ATOM      8  O   UNL     1       0.158  -1.760  15.273  1.00  0.00    -0.544 OA
ATOM      9  O   UNL     1       0.430  -0.743  13.240  1.00  0.00    -0.544 OA
ENDBRANCH   2   7
ENDBRANCH   1   2
BRANCH   1  10
ATOM     10  O   UNL     1       2.651  -2.885  13.763  1.00  0.00    -0.390 OA
ATOM     11  H   UNL     1       3.281  -3.175  13.052  1.00  0.00     0.210 HD
ENDBRANCH   1  10
TORSDOF 4
ENDMDL
MODEL 2
REMARK VINA RESULT:    -3.242      1.899      2.349
REMARK INTER + INTRA:          -4.196
REMARK INTER:                  -3.840
REMARK INTRA:                  -0.356
REMARK UNBOUND:                -0.386
REMARK SMILES [NH3+][C@@H](CO)C(=O)[O-]
REMARK SMILES IDX 3 1 2 2 1 3 5 7 6 8 7 9 4 10
REMARK H PARENT 1 4 1 5 1 6 4 11
REMARK Flexibility Score: inf
ROOT
ATOM      1  C   UNL     1       2.086  -3.909  15.566  1.00  0.00     0.227 C 
ENDROOT
BRANCH   1   2
ATOM      2  C   UNL     1       1.778  -2.404  15.611  1.00  0.00     0.253 C 
BRANCH   2   3
ATOM      3  N   UNL     1       0.344  -2.159  15.804  1.00  0.00    -0.348 N 
ATOM      4  H   UNL     1       0.186  -1.695  16.727  1.00  0.00     0.345 HD
ATOM      5  H   UNL     1      -0.011  -1.523  15.053  1.00  0.00     0.345 HD
ATOM      6  H   UNL     1      -0.197  -3.055  15.776  1.00  0.00     0.345 HD
ENDBRANCH   2   3
BRANCH   2   7
ATOM      7  C   UNL     1       2.275  -1.721  14.362  1.00  0.00     0.102 C 
ATOM      8  O   UNL     1       1.453  -1.309  13.501  1.00  0.00    -0.544 OA
ATOM      9  O   UNL     1       3.634  -1.504  14.170  1.00  0.00    -0.544 OA
ENDBRANCH   2   7
ENDBRANCH   1   2
BRANCH   1  10
ATOM     10  O   UNL     1       2.426  -4.309  14.266  1.00  0.00    -0.390 OA
ATOM     11  H   UNL     1       2.063  -5.226  14.155  1.00  0.00     0.210 HD
ENDBRANCH   1  10
TORSDOF 4
ENDMDL
MODEL 3
REMARK VINA RESULT:    -3.216      1.979      2.177
REMARK INTER + INTRA:          -4.167
REMARK INTER:                  -3.764
REMARK INTRA:                  -0.403
REMARK UNBOUND:                -0.386
REMARK SMILES [NH3+][C@@H](CO)C(=O)[O-]
REMARK SMILES IDX 3 1 2 2 1 3 5 7 6 8 7 9 4 10
REMARK H PARENT 1 4 1 5 1 6 4 11
REMARK Flexibility Score: inf
ROOT
ATOM      1  C   UNL     1       2.717  -1.692  16.336  1.00  0.00     0.227 C 
ENDROOT
BRANCH   1   2
ATOM      2  C   UNL     1       1.689  -2.491  15.519  1.00  0.00     0.253 C 
BRANCH   2   3
ATOM      3  N   UNL     1       2.342  -3.276  14.463  1.00  0.00    -0.348 N 
ATOM      4  H   UNL     1       3.376  -3.125  14.500  1.00  0.00     0.345 HD
ATOM      5  H   UNL     1       2.155  -4.294  14.614  1.00  0.00     0.345 HD
ATOM      6  H   UNL     1       1.990  -3.000  13.517  1.00  0.00     0.345 HD
ENDBRANCH   2   3
BRANCH   2   7
ATOM      7  C   UNL     1       0.644  -1.575  14.936  1.00  0.00     0.102 C 
ATOM      8  O   UNL     1      -0.394  -1.303  15.596  1.00  0.00    -0.544 OA
ATOM      9  O   UNL     1       0.834  -0.991  13.690  1.00  0.00    -0.544 OA
ENDBRANCH   2   7
ENDBRANCH   1   2
BRANCH   1  10
ATOM     10  O   UNL     1       2.428  -0.321  16.294  1.00  0.00    -0.390 OA
ATOM     11  H   UNL     1       2.417  -0.013  17.238  1.00  0.00     0.210 HD
ENDBRANCH   1  10
TORSDOF 4
ENDMDL
MODEL 4
REMARK VINA RESULT:    -3.194      7.253      7.911
REMARK INTER + INTRA:          -4.140
REMARK INTER:                  -3.739
REMARK INTRA:                  -0.402
REMARK UNBOUND:                -0.386
REMARK SMILES [NH3+][C@@H](CO)C(=O)[O-]
REMARK SMILES IDX 3 1 2 2 1 3 5 7 6 8 7 9 4 10
REMARK H PARENT 1 4 1 5 1 6 4 11
REMARK Flexibility Score: inf
ROOT
ATOM      1  C   UNL     1       2.979   6.023  11.538  1.00  0.00     0.227 C 
ENDROOT
BRANCH   1   2
ATOM      2  C   UNL     1       2.244   4.782  11.005  1.00  0.00     0.253 C 
BRANCH   2   3
ATOM      3  N   UNL     1       2.672   4.455   9.640  1.00  0.00    -0.348 N 
ATOM      4  H   UNL     1       3.120   3.511   9.626  1.00  0.00     0.345 HD
ATOM      5  H   UNL     1       1.840   4.431   9.005  1.00  0.00     0.345 HD
ATOM      6  H   UNL     1       3.355   5.162   9.280  1.00  0.00     0.345 HD
ENDBRANCH   2   3
BRANCH   2   7
ATOM      7  C   UNL     1       0.751   4.982  11.066  1.00  0.00     0.102 C 
ATOM      8  O   UNL     1       0.104   4.593  12.074  1.00  0.00    -0.544 OA
ATOM      9  O   UNL     1       0.085   5.631  10.034  1.00  0.00    -0.544 OA
ENDBRANCH   2   7
ENDBRANCH   1   2
BRANCH   1  10
ATOM     10  O   UNL     1       2.070   6.958  12.051  1.00  0.00    -0.390 OA
ATOM     11  H   UNL     1       1.192   6.497  12.086  1.00  0.00     0.210 HD
ENDBRANCH   1  10
TORSDOF 4
ENDMDL
MODEL 5
REMARK VINA RESULT:    -3.160      1.108      2.531
REMARK INTER + INTRA:          -4.100
REMARK INTER:                  -3.721
REMARK INTRA:                  -0.379
REMARK UNBOUND:                -0.386
REMARK SMILES [NH3+][C@@H](CO)C(=O)[O-]
REMARK SMILES IDX 3 1 2 2 1 3 5 7 6 8 7 9 4 10
REMARK H PARENT 1 4 1 5 1 6 4 11
REMARK Flexibility Score: inf
ROOT
ATOM      1  C   UNL     1       0.465  -1.357  15.018  1.00  0.00     0.227 C 
ENDROOT
BRANCH   1   2
ATOM      2  C   UNL     1       1.739  -1.742  15.787  1.00  0.00     0.253 C 
BRANCH   2   3
ATOM      3  N   UNL     1       2.357  -0.566  16.413  1.00  0.00    -0.348 N 
ATOM      4  H   UNL     1       3.304  -0.817  16.778  1.00  0.00     0.345 HD
ATOM      5  H   UNL     1       2.471   0.194  15.703  1.00  0.00     0.345 HD
ATOM      6  H   UNL     1       1.771  -0.209  17.203  1.00  0.00     0.345 HD
ENDBRANCH   2   3
BRANCH   2   7
ATOM      7  C   UNL     1       2.717  -2.442  14.880  1.00  0.00     0.102 C 
ATOM      8  O   UNL     1       2.597  -3.676  14.656  1.00  0.00    -0.544 OA
ATOM      9  O   UNL     1       3.731  -1.729  14.251  1.00  0.00    -0.544 OA
ENDBRANCH   2   7
ENDBRANCH   1   2
BRANCH   1  10
ATOM     10  O   UNL     1       0.695  -1.373  13.635  1.00  0.00    -0.390 OA
ATOM     11  H   UNL     1       1.655  -1.156  13.513  1.00  0.00     0.210 HD
ENDBRANCH   1  10
TORSDOF 4
ENDMDL
MODEL 6
REMARK VINA RESULT:    -3.153      8.377      9.086
REMARK INTER + INTRA:          -4.092
REMARK INTER:                  -3.714
REMARK INTRA:                  -0.378
REMARK UNBOUND:                -0.386
REMARK SMILES [NH3+][C@@H](CO)C(=O)[O-]
REMARK SMILES IDX 3 1 2 2 1 3 5 7 6 8 7 9 4 10
REMARK H PARENT 1 4 1 5 1 6 4 11
REMARK Flexibility Score: inf
ROOT
ATOM      1  C   UNL     1       1.729   7.933  10.324  1.00  0.00     0.227 C 
ENDROOT
BRANCH   1   2
ATOM      2  C   UNL     1       1.553   6.437  10.016  1.00  0.00     0.253 C 
BRANCH   2   3
ATOM      3  N   UNL     1       0.196   6.150   9.533  1.00  0.00    -0.348 N 
ATOM      4  H   UNL     1      -0.307   5.553  10.228  1.00  0.00     0.345 HD
ATOM      5  H   UNL     1      -0.337   7.044   9.424  1.00  0.00     0.345 HD
ATOM      6  H   UNL     1       0.222   5.653   8.612  1.00  0.00     0.345 HD
ENDBRANCH   2   3
BRANCH   2   7
ATOM      7  C   UNL     1       1.879   5.602  11.227  1.00  0.00     0.102 C 
ATOM      8  O   UNL     1       0.951   5.154  11.951  1.00  0.00    -0.544 OA
ATOM      9  O   UNL     1       3.197   5.284  11.529  1.00  0.00    -0.544 OA
ENDBRANCH   2   7
ENDBRANCH   1   2
BRANCH   1  10
ATOM     10  O   UNL     1       1.913   8.139  11.698  1.00  0.00    -0.390 OA
ATOM     11  H   UNL     1       1.284   7.523  12.156  1.00  0.00     0.210 HD
ENDBRANCH   1  10
TORSDOF 4
ENDMDL
MODEL 7
REMARK VINA RESULT:    -3.152      2.159      3.171
REMARK INTER + INTRA:          -4.091
REMARK INTER:                  -3.728
REMARK INTRA:                  -0.363
REMARK UNBOUND:                -0.386
REMARK SMILES [NH3+][C@@H](CO)C(=O)[O-]
REMARK SMILES IDX 3 1 2 2 1 3 5 7 6 8 7 9 4 10
REMARK H PARENT 1 4 1 5 1 6 4 11
REMARK Flexibility Score: inf
ROOT
ATOM      1  C   UNL     1       0.768  -1.330  14.730  1.00  0.00     0.227 C 
ENDROOT
BRANCH   1   2
ATOM      2  C   UNL     1       2.265  -1.679  14.759  1.00  0.00     0.253 C 
BRANCH   2   3
ATOM      3  N   UNL     1       2.626  -2.566  13.646  1.00  0.00    -0.348 N 
ATOM      4  H   UNL     1       2.141  -2.253  12.774  1.00  0.00     0.345 HD
ATOM      5  H   UNL     1       3.658  -2.522  13.480  1.00  0.00     0.345 HD
ATOM      6  H   UNL     1       2.355  -3.556  13.850  1.00  0.00     0.345 HD
ENDBRANCH   2   3
BRANCH   2   7
ATOM      7  C   UNL     1       2.641  -2.298  16.081  1.00  0.00     0.102 C 
ATOM      8  O   UNL     1       2.759  -1.574  17.104  1.00  0.00    -0.544 OA
ATOM      9  O   UNL     1       2.817  -3.672  16.191  1.00  0.00    -0.544 OA
ENDBRANCH   2   7
ENDBRANCH   1   2
BRANCH   1  10
ATOM     10  O   UNL     1       0.074  -2.030  15.726  1.00  0.00    -0.390 OA
ATOM     11  H   UNL     1       0.176  -1.499  16.558  1.00  0.00     0.210 HD
ENDBRANCH   1  10
TORSDOF 4
ENDMDL
MODEL 8
REMARK VINA RESULT:    -3.060      7.676      8.068
REMARK INTER + INTRA:          -3.983
REMARK INTER:                  -3.590
REMARK INTRA:                  -0.392
REMARK UNBOUND:                -0.386
REMARK SMILES [NH3+][C@@H](CO)C(=O)[O-]
REMARK SMILES IDX 3 1 2 2 1 3 5 7 6 8 7 9 4 10
REMARK H PARENT 1 4 1 5 1 6 4 11
REMARK Flexibility Score: inf
ROOT
ATOM      1  C   UNL     1       2.965   5.522  10.120  1.00  0.00     0.227 C 
ENDROOT
BRANCH   1   2
ATOM      2  C   UNL     1       1.738   6.307  10.610  1.00  0.00     0.253 C 
BRANCH   2   3
ATOM      3  N   UNL     1       2.010   6.976  11.888  1.00  0.00    -0.348 N 
ATOM      4  H   UNL     1       2.156   6.262  12.637  1.00  0.00     0.345 HD
ATOM      5  H   UNL     1       2.882   7.549  11.808  1.00  0.00     0.345 HD
ATOM      6  H   UNL     1       1.216   7.600  12.163  1.00  0.00     0.345 HD
ENDBRANCH   2   3
BRANCH   2   7
ATOM      7  C   UNL     1       0.538   5.402  10.724  1.00  0.00     0.102 C 
ATOM      8  O   UNL     1      -0.321   5.377   9.803  1.00  0.00    -0.544 OA
ATOM      9  O   UNL     1       0.392   4.560  11.819  1.00  0.00    -0.544 OA
ENDBRANCH   2   7
ENDBRANCH   1   2
BRANCH   1  10
ATOM     10  O   UNL     1       2.588   4.265   9.627  1.00  0.00    -0.390 OA
ATOM     11  H   UNL     1       2.356   3.716  10.421  1.00  0.00     0.210 HD
ENDBRANCH   1  10
TORSDOF 4
ENDMDL
MODEL 9
REMARK VINA RESULT:    -2.996      7.615      8.405
REMARK INTER + INTRA:          -3.907
REMARK INTER:                  -3.541
REMARK INTRA:                  -0.366
REMARK UNBOUND:                -0.386
REMARK SMILES [NH3+][C@@H](CO)C(=O)[O-]
REMARK SMILES IDX 3 1 2 2 1 3 5 7 6 8 7 9 4 10
REMARK H PARENT 1 4 1 5 1 6 4 11
REMARK Flexibility Score: inf
ROOT
ATOM      1  C   UNL     1       0.309   4.982  10.824  1.00  0.00     0.227 C 
ENDROOT
BRANCH   1   2
ATOM      2  C   UNL     1       1.608   5.433  10.136  1.00  0.00     0.253 C 
BRANCH   2   3
ATOM      3  N   UNL     1       2.354   4.285   9.605  1.00  0.00    -0.348 N 
ATOM      4  H   UNL     1       2.283   3.480  10.268  1.00  0.00     0.345 HD
ATOM      5  H   UNL     1       1.943   3.991   8.688  1.00  0.00     0.345 HD
ATOM      6  H   UNL     1       3.363   4.525   9.465  1.00  0.00     0.345 HD
ENDBRANCH   2   3
BRANCH   2   7
ATOM      7  C   UNL     1       2.462   6.235  11.084  1.00  0.00     0.102 C 
ATOM      8  O   UNL     1       2.189   7.444  11.307  1.00  0.00    -0.544 OA
ATOM      9  O   UNL     1       3.526   5.639  11.749  1.00  0.00    -0.544 OA
ENDBRANCH   2   7
ENDBRANCH   1   2
BRANCH   1  10
ATOM     10  O   UNL     1       0.455   4.994  12.218  1.00  0.00    -0.390 OA
ATOM     11  H   UNL     1       1.296   4.503  12.411  1.00  0.00     0.210 HD
ENDBRANCH   1  10
TORSDOF 4
ENDMDL
