MODEL 1
REMARK VINA RESULT:    -5.356      0.000      0.000
REMARK INTER + INTRA:          -5.513
REMARK INTER:                  -5.513
REMARK INTRA:                   0.000
REMARK UNBOUND:                 0.000
REMARK SMILES O=c1ccc2ccc(O)cc2o1
REMARK SMILES IDX 6 1 7 2 8 3 10 4 11 5 5 6 4 7 3 8 2 9 1 10 12 11 9 12
REMARK H PARENT 9 13
REMARK Flexibility Score: inf
ROOT
ATOM      1  C   UNL     1      28.269  11.879 -32.178  1.00  0.00     0.016 A 
ATOM      2  C   UNL     1      27.157  11.310 -31.548  1.00  0.00     0.047 A 
ATOM      3  C   UNL     1      26.816   9.970 -31.791  1.00  0.00     0.119 A 
ATOM      4  C   UNL     1      27.589   9.200 -32.667  1.00  0.00     0.094 A 
ATOM      5  C   UNL     1      28.703   9.761 -33.302  1.00  0.00     0.142 A 
ATOM      6  C   UNL     1      29.046  11.109 -33.056  1.00  0.00     0.018 A 
ATOM      7  C   UNL     1      30.164  11.642 -33.703  1.00  0.00     0.019 A 
ATOM      8  C   UNL     1      30.903  10.835 -34.567  1.00  0.00     0.094 A 
ATOM      9  C   UNL     1      30.505   9.508 -34.763  1.00  0.00     0.336 A 
ATOM     10  O   UNL     1      31.160   8.764 -35.539  1.00  0.00    -0.246 OA
ATOM     11  O   UNL     1      29.436   9.026 -34.134  1.00  0.00    -0.423 OA
ENDROOT
BRANCH   3  12
ATOM     12  O   UNL     1      25.710   9.397 -31.168  1.00  0.00    -0.508 OA
ATOM     13  H   UNL     1      25.482   9.600 -30.200  1.00  0.00     0.293 HD
ENDBRANCH   3  12
TORSDOF 1
ENDMDL
MODEL 2
REMARK VINA RESULT:    -5.236      1.317      4.076
REMARK INTER + INTRA:          -5.390
REMARK INTER:                  -5.390
REMARK INTRA:                   0.000
REMARK UNBOUND:                 0.000
REMARK SMILES O=c1ccc2ccc(O)cc2o1
REMARK SMILES IDX 6 1 7 2 8 3 10 4 11 5 5 6 4 7 3 8 2 9 1 10 12 11 9 12
REMARK H PARENT 9 13
REMARK Flexibility Score: inf
ROOT
ATOM      1  C   UNL     1      28.946  12.034 -32.604  1.00  0.00     0.016 A 
ATOM      2  C   UNL     1      30.143  12.017 -33.327  1.00  0.00     0.047 A 
ATOM      3  C   UNL     1      30.511  10.877 -34.059  1.00  0.00     0.119 A 
ATOM      4  C   UNL     1      29.679   9.752 -34.066  1.00  0.00     0.094 A 
ATOM      5  C   UNL     1      28.478   9.760 -33.346  1.00  0.00     0.142 A 
ATOM      6  C   UNL     1      28.109  10.908 -32.611  1.00  0.00     0.018 A 
ATOM      7  C   UNL     1      26.905  10.887 -31.902  1.00  0.00     0.019 A 
ATOM      8  C   UNL     1      26.108   9.743 -31.940  1.00  0.00     0.094 A 
ATOM      9  C   UNL     1      26.538   8.642 -32.690  1.00  0.00     0.336 A 
ATOM     10  O   UNL     1      25.832   7.601 -32.737  1.00  0.00    -0.246 OA
ATOM     11  O   UNL     1      27.689   8.689 -33.356  1.00  0.00    -0.423 OA
ENDROOT
BRANCH   3  12
ATOM     12  O   UNL     1      31.703  10.852 -34.780  1.00  0.00    -0.508 OA
ATOM     13  H   UNL     1      31.835  11.426 -35.606  1.00  0.00     0.293 HD
ENDBRANCH   3  12
TORSDOF 1
ENDMDL
MODEL 3
REMARK VINA RESULT:    -5.137      0.989      4.244
REMARK INTER + INTRA:          -5.287
REMARK INTER:                  -5.287
REMARK INTRA:                   0.000
REMARK UNBOUND:                 0.000
REMARK SMILES O=c1ccc2ccc(O)cc2o1
REMARK SMILES IDX 6 1 7 2 8 3 10 4 11 5 5 6 4 7 3 8 2 9 1 10 12 11 9 12
REMARK H PARENT 9 13
REMARK Flexibility Score: inf
ROOT
ATOM      1  C   UNL     1      30.096  11.850 -33.349  1.00  0.00     0.016 A 
ATOM      2  C   UNL     1      30.897  11.181 -34.280  1.00  0.00     0.047 A 
ATOM      3  C   UNL     1      30.453   9.984 -34.864  1.00  0.00     0.119 A 
ATOM      4  C   UNL     1      29.206   9.456 -34.513  1.00  0.00     0.094 A 
ATOM      5  C   UNL     1      28.398  10.118 -33.582  1.00  0.00     0.142 A 
ATOM      6  C   UNL     1      28.845  11.323 -32.996  1.00  0.00     0.018 A 
ATOM      7  C   UNL     1      28.016  11.962 -32.070  1.00  0.00     0.019 A 
ATOM      8  C   UNL     1      26.781  11.396 -31.753  1.00  0.00     0.094 A 
ATOM      9  C   UNL     1      26.403  10.200 -32.373  1.00  0.00     0.336 A 
ATOM     10  O   UNL     1      25.293   9.675 -32.100  1.00  0.00    -0.246 OA
ATOM     11  O   UNL     1      27.212   9.613 -33.252  1.00  0.00    -0.423 OA
ENDROOT
BRANCH   3  12
ATOM     12  O   UNL     1      31.247   9.312 -35.792  1.00  0.00    -0.508 OA
ATOM     13  H   UNL     1      32.079   8.806 -35.510  1.00  0.00     0.293 HD
ENDBRANCH   3  12
TORSDOF 1
ENDMDL
MODEL 4
REMARK VINA RESULT:    -4.990     10.761     11.648
REMARK INTER + INTRA:          -5.136
REMARK INTER:                  -5.136
REMARK INTRA:                   0.000
REMARK UNBOUND:                 0.000
REMARK SMILES O=c1ccc2ccc(O)cc2o1
REMARK SMILES IDX 6 1 7 2 8 3 10 4 11 5 5 6 4 7 3 8 2 9 1 10 12 11 9 12
REMARK H PARENT 9 13
REMARK Flexibility Score: inf
ROOT
ATOM      1  C   UNL     1      32.931   7.656 -22.810  1.00  0.00     0.016 A 
ATOM      2  C   UNL     1      32.743   8.190 -21.530  1.00  0.00     0.047 A 
ATOM      3  C   UNL     1      31.617   7.832 -20.773  1.00  0.00     0.119 A 
ATOM      4  C   UNL     1      30.677   6.939 -21.298  1.00  0.00     0.094 A 
ATOM      5  C   UNL     1      30.856   6.399 -22.577  1.00  0.00     0.142 A 
ATOM      6  C   UNL     1      31.990   6.760 -23.337  1.00  0.00     0.018 A 
ATOM      7  C   UNL     1      32.143   6.204 -24.611  1.00  0.00     0.019 A 
ATOM      8  C   UNL     1      31.179   5.317 -25.091  1.00  0.00     0.094 A 
ATOM      9  C   UNL     1      30.081   5.006 -24.281  1.00  0.00     0.336 A 
ATOM     10  O   UNL     1      29.202   4.207 -24.696  1.00  0.00    -0.246 OA
ATOM     11  O   UNL     1      29.961   5.549 -23.072  1.00  0.00    -0.423 OA
ENDROOT
BRANCH   3  12
ATOM     12  O   UNL     1      31.424   8.361 -19.498  1.00  0.00    -0.508 OA
ATOM     13  H   UNL     1      30.512   8.680 -19.189  1.00  0.00     0.293 HD
ENDBRANCH   3  12
TORSDOF 1
ENDMDL
MODEL 5
REMARK VINA RESULT:    -4.940     10.767     11.506
REMARK INTER + INTRA:          -5.084
REMARK INTER:                  -5.084
REMARK INTRA:                   0.000
REMARK UNBOUND:                 0.000
REMARK SMILES O=c1ccc2ccc(O)cc2o1
REMARK SMILES IDX 6 1 7 2 8 3 10 4 11 5 5 6 4 7 3 8 2 9 1 10 12 11 9 12
REMARK H PARENT 9 13
REMARK Flexibility Score: inf
ROOT
ATOM      1  C   UNL     1      30.164   5.885 -21.434  1.00  0.00     0.016 A 
ATOM      2  C   UNL     1      30.594   6.769 -20.438  1.00  0.00     0.047 A 
ATOM      3  C   UNL     1      31.547   7.757 -20.733  1.00  0.00     0.119 A 
ATOM      4  C   UNL     1      32.071   7.859 -22.026  1.00  0.00     0.094 A 
ATOM      5  C   UNL     1      31.646   6.980 -23.029  1.00  0.00     0.142 A 
ATOM      6  C   UNL     1      30.687   5.987 -22.732  1.00  0.00     0.018 A 
ATOM      7  C   UNL     1      30.282   5.123 -23.753  1.00  0.00     0.019 A 
ATOM      8  C   UNL     1      30.832   5.266 -25.027  1.00  0.00     0.094 A 
ATOM      9  C   UNL     1      31.778   6.272 -25.249  1.00  0.00     0.336 A 
ATOM     10  O   UNL     1      32.286   6.416 -26.392  1.00  0.00    -0.246 OA
ATOM     11  O   UNL     1      32.146   7.081 -24.258  1.00  0.00    -0.423 OA
ENDROOT
BRANCH   3  12
ATOM     12  O   UNL     1      31.981   8.639 -19.745  1.00  0.00    -0.508 OA
ATOM     13  H   UNL     1      32.945   8.950 -19.698  1.00  0.00     0.293 HD
ENDBRANCH   3  12
TORSDOF 1
ENDMDL
MODEL 6
REMARK VINA RESULT:    -4.905     11.638     12.191
REMARK INTER + INTRA:          -5.049
REMARK INTER:                  -5.049
REMARK INTRA:                   0.000
REMARK UNBOUND:                 0.000
REMARK SMILES O=c1ccc2ccc(O)cc2o1
REMARK SMILES IDX 6 1 7 2 8 3 10 4 11 5 5 6 4 7 3 8 2 9 1 10 12 11 9 12
REMARK H PARENT 9 13
REMARK Flexibility Score: inf
ROOT
ATOM      1  C   UNL     1      30.513   7.728 -21.024  1.00  0.00     0.016 A 
ATOM      2  C   UNL     1      29.536   7.065 -21.775  1.00  0.00     0.047 A 
ATOM      3  C   UNL     1      29.908   6.250 -22.856  1.00  0.00     0.119 A 
ATOM      4  C   UNL     1      31.259   6.101 -23.187  1.00  0.00     0.094 A 
ATOM      5  C   UNL     1      32.243   6.760 -22.441  1.00  0.00     0.142 A 
ATOM      6  C   UNL     1      31.868   7.579 -21.353  1.00  0.00     0.018 A 
ATOM      7  C   UNL     1      32.873   8.224 -20.626  1.00  0.00     0.019 A 
ATOM      8  C   UNL     1      34.206   8.043 -20.993  1.00  0.00     0.094 A 
ATOM      9  C   UNL     1      34.503   7.218 -22.083  1.00  0.00     0.336 A 
ATOM     10  O   UNL     1      35.701   7.042 -22.429  1.00  0.00    -0.246 OA
ATOM     11  O   UNL     1      33.527   6.615 -22.758  1.00  0.00    -0.423 OA
ENDROOT
BRANCH   3  12
ATOM     12  O   UNL     1      28.940   5.588 -23.609  1.00  0.00    -0.508 OA
ATOM     13  H   UNL     1      28.750   4.600 -23.477  1.00  0.00     0.293 HD
ENDBRANCH   3  12
TORSDOF 1
ENDMDL
MODEL 7
REMARK VINA RESULT:    -4.689     11.824     12.310
REMARK INTER + INTRA:          -4.826
REMARK INTER:                  -4.826
REMARK INTRA:                   0.000
REMARK UNBOUND:                 0.000
REMARK SMILES O=c1ccc2ccc(O)cc2o1
REMARK SMILES IDX 6 1 7 2 8 3 10 4 11 5 5 6 4 7 3 8 2 9 1 10 12 11 9 12
REMARK H PARENT 9 13
REMARK Flexibility Score: inf
ROOT
ATOM      1  C   UNL     1      31.115   6.369 -23.723  1.00  0.00     0.016 A 
ATOM      2  C   UNL     1      29.987   6.285 -22.900  1.00  0.00     0.047 A 
ATOM      3  C   UNL     1      30.117   6.400 -21.507  1.00  0.00     0.119 A 
ATOM      4  C   UNL     1      31.380   6.597 -20.937  1.00  0.00     0.094 A 
ATOM      5  C   UNL     1      32.515   6.682 -21.752  1.00  0.00     0.142 A 
ATOM      6  C   UNL     1      32.381   6.567 -23.154  1.00  0.00     0.018 A 
ATOM      7  C   UNL     1      33.532   6.657 -23.943  1.00  0.00     0.019 A 
ATOM      8  C   UNL     1      34.768   6.855 -23.328  1.00  0.00     0.094 A 
ATOM      9  C   UNL     1      34.824   6.959 -21.934  1.00  0.00     0.336 A 
ATOM     10  O   UNL     1      35.931   7.138 -21.362  1.00  0.00    -0.246 OA
ATOM     11  O   UNL     1      33.713   6.871 -21.207  1.00  0.00    -0.423 OA
ENDROOT
BRANCH   3  12
ATOM     12  O   UNL     1      28.997   6.317 -20.682  1.00  0.00    -0.508 OA
ATOM     13  H   UNL     1      28.375   7.107 -20.552  1.00  0.00     0.293 HD
ENDBRANCH   3  12
TORSDOF 1
ENDMDL
MODEL 8
REMARK VINA RESULT:    -4.679     13.219     13.426
REMARK INTER + INTRA:          -4.815
REMARK INTER:                  -4.815
REMARK INTRA:                   0.000
REMARK UNBOUND:                 0.000
REMARK SMILES O=c1ccc2ccc(O)cc2o1
REMARK SMILES IDX 6 1 7 2 8 3 10 4 11 5 5 6 4 7 3 8 2 9 1 10 12 11 9 12
REMARK H PARENT 9 13
REMARK Flexibility Score: inf
ROOT
ATOM      1  C   UNL     1      32.996   7.381 -22.874  1.00  0.00     0.016 A 
ATOM      2  C   UNL     1      32.116   7.876 -21.905  1.00  0.00     0.047 A 
ATOM      3  C   UNL     1      32.565   8.110 -20.596  1.00  0.00     0.119 A 
ATOM      4  C   UNL     1      33.897   7.847 -20.257  1.00  0.00     0.094 A 
ATOM      5  C   UNL     1      34.785   7.352 -21.219  1.00  0.00     0.142 A 
ATOM      6  C   UNL     1      34.331   7.118 -22.536  1.00  0.00     0.018 A 
ATOM      7  C   UNL     1      35.240   6.624 -23.476  1.00  0.00     0.019 A 
ATOM      8  C   UNL     1      36.558   6.379 -23.091  1.00  0.00     0.094 A 
ATOM      9  C   UNL     1      36.936   6.634 -21.768  1.00  0.00     0.336 A 
ATOM     10  O   UNL     1      38.120   6.419 -21.401  1.00  0.00    -0.246 OA
ATOM     11  O   UNL     1      36.050   7.105 -20.893  1.00  0.00    -0.423 OA
ENDROOT
BRANCH   3  12
ATOM     12  O   UNL     1      31.694   8.601 -19.626  1.00  0.00    -0.508 OA
ATOM     13  H   UNL     1      31.358   9.558 -19.651  1.00  0.00     0.293 HD
ENDBRANCH   3  12
TORSDOF 1
ENDMDL
MODEL 9
REMARK VINA RESULT:    -4.441     11.913     12.843
REMARK INTER + INTRA:          -4.571
REMARK INTER:                  -4.571
REMARK INTRA:                   0.000
REMARK UNBOUND:                 0.000
REMARK SMILES O=c1ccc2ccc(O)cc2o1
REMARK SMILES IDX 6 1 7 2 8 3 10 4 11 5 5 6 4 7 3 8 2 9 1 10 12 11 9 12
REMARK H PARENT 9 13
REMARK Flexibility Score: inf
ROOT
ATOM      1  C   UNL     1      32.755   8.490 -20.545  1.00  0.00     0.016 A 
ATOM      2  C   UNL     1      34.142   8.309 -20.584  1.00  0.00     0.047 A 
ATOM      3  C   UNL     1      34.704   7.320 -21.406  1.00  0.00     0.119 A 
ATOM      4  C   UNL     1      33.875   6.510 -22.191  1.00  0.00     0.094 A 
ATOM      5  C   UNL     1      32.486   6.683 -22.159  1.00  0.00     0.142 A 
ATOM      6  C   UNL     1      31.923   7.679 -21.331  1.00  0.00     0.018 A 
ATOM      7  C   UNL     1      30.533   7.829 -21.320  1.00  0.00     0.019 A 
ATOM      8  C   UNL     1      29.749   6.998 -22.120  1.00  0.00     0.094 A 
ATOM      9  C   UNL     1      30.377   6.033 -22.915  1.00  0.00     0.336 A 
ATOM     10  O   UNL     1      29.686   5.274 -23.643  1.00  0.00    -0.246 OA
ATOM     11  O   UNL     1      31.702   5.912 -22.906  1.00  0.00    -0.423 OA
ENDROOT
BRANCH   3  12
ATOM     12  O   UNL     1      36.084   7.135 -21.449  1.00  0.00    -0.508 OA
ATOM     13  H   UNL     1      36.510   6.470 -22.085  1.00  0.00     0.293 HD
ENDBRANCH   3  12
TORSDOF 1
ENDMDL
