MODEL 1
REMARK VINA RESULT:    -3.549      0.000      0.000
REMARK INTER + INTRA:          -4.133
REMARK INTER:                  -4.068
REMARK INTRA:                  -0.065
REMARK UNBOUND:                -0.065
REMARK SMILES CC(C)[C@H]([NH3+])C(=O)[O-]
REMARK SMILES IDX 4 1 5 2 6 6 7 7 8 8 2 9 1 10 3 11
REMARK H PARENT 5 3 5 4 5 5
REMARK Flexibility Score: inf
ROOT
ATOM      1  C   UNL     1      -2.020  -3.580   7.493  1.00  0.00     0.230 C 
ENDROOT
BRANCH   1   2
ATOM      2  N   UNL     1      -3.248  -4.262   7.930  1.00  0.00    -0.350 N 
ATOM      3  H   UNL     1      -4.038  -3.577   7.953  1.00  0.00     0.345 HD
ATOM      4  H   UNL     1      -3.122  -4.643   8.896  1.00  0.00     0.345 HD
ATOM      5  H   UNL     1      -3.503  -5.042   7.283  1.00  0.00     0.345 HD
ENDBRANCH   1   2
BRANCH   1   6
ATOM      6  C   UNL     1      -2.344  -2.229   6.901  1.00  0.00     0.099 C 
ATOM      7  O   UNL     1      -1.911  -1.181   7.448  1.00  0.00    -0.544 OA
ATOM      8  O   UNL     1      -3.094  -2.129   5.734  1.00  0.00    -0.544 OA
ENDBRANCH   1   6
BRANCH   1   9
ATOM      9  C   UNL     1      -1.176  -4.472   6.534  1.00  0.00     0.047 C 
ATOM     10  C   UNL     1       0.282  -4.007   6.382  1.00  0.00     0.014 C 
ATOM     11  C   UNL     1      -1.216  -5.947   6.964  1.00  0.00     0.014 C 
ENDBRANCH   1   9
TORSDOF 3
ENDMDL
MODEL 2
REMARK VINA RESULT:    -3.515      1.837      2.264
REMARK INTER + INTRA:          -4.094
REMARK INTER:                  -4.034
REMARK INTRA:                  -0.060
REMARK UNBOUND:                -0.065
REMARK SMILES CC(C)[C@H]([NH3+])C(=O)[O-]
REMARK SMILES IDX 4 1 5 2 6 6 7 7 8 8 2 9 1 10 3 11
REMARK H PARENT 5 3 5 4 5 5
REMARK Flexibility Score: inf
ROOT
ATOM      1  C   UNL     1      -1.763  -3.255   6.832  1.00  0.00     0.230 C 
ENDROOT
BRANCH   1   2
ATOM      2  N   UNL     1      -1.340  -1.925   7.295  1.00  0.00    -0.350 N 
ATOM      3  H   UNL     1      -1.787  -1.190   6.700  1.00  0.00     0.345 HD
ATOM      4  H   UNL     1      -0.302  -1.828   7.204  1.00  0.00     0.345 HD
ATOM      5  H   UNL     1      -1.615  -1.761   8.290  1.00  0.00     0.345 HD
ENDBRANCH   1   2
BRANCH   1   6
ATOM      6  C   UNL     1      -3.083  -3.640   7.457  1.00  0.00     0.099 C 
ATOM      7  O   UNL     1      -3.213  -3.634   8.710  1.00  0.00    -0.544 OA
ATOM      8  O   UNL     1      -4.173  -3.974   6.660  1.00  0.00    -0.544 OA
ENDBRANCH   1   6
BRANCH   1   9
ATOM      9  C   UNL     1      -0.654  -4.325   7.061  1.00  0.00     0.047 C 
ATOM     10  C   UNL     1      -1.146  -5.772   6.886  1.00  0.00     0.014 C 
ATOM     11  C   UNL     1       0.562  -4.071   6.156  1.00  0.00     0.014 C 
ENDBRANCH   1   9
TORSDOF 3
ENDMDL
MODEL 3
REMARK VINA RESULT:    -3.481      1.595      1.874
REMARK INTER + INTRA:          -4.054
REMARK INTER:                  -4.042
REMARK INTRA:                  -0.013
REMARK UNBOUND:                -0.065
REMARK SMILES CC(C)[C@H]([NH3+])C(=O)[O-]
REMARK SMILES IDX 4 1 5 2 6 6 7 7 8 8 2 9 1 10 3 11
REMARK H PARENT 5 3 5 4 5 5
REMARK Flexibility Score: inf
ROOT
ATOM      1  C   UNL     1      -1.231  -3.120   6.462  1.00  0.00     0.230 C 
ENDROOT
BRANCH   1   2
ATOM      2  N   UNL     1      -0.025  -3.062   7.302  1.00  0.00    -0.350 N 
ATOM      3  H   UNL     1      -0.303  -2.954   8.305  1.00  0.00     0.345 HD
ATOM      4  H   UNL     1       0.557  -2.235   7.036  1.00  0.00     0.345 HD
ATOM      5  H   UNL     1       0.549  -3.931   7.208  1.00  0.00     0.345 HD
ENDBRANCH   1   2
BRANCH   1   6
ATOM      6  C   UNL     1      -2.066  -1.874   6.646  1.00  0.00     0.099 C 
ATOM      7  O   UNL     1      -2.047  -1.259   7.745  1.00  0.00    -0.544 OA
ATOM      8  O   UNL     1      -2.837  -1.379   5.601  1.00  0.00    -0.544 OA
ENDBRANCH   1   6
BRANCH   1   9
ATOM      9  C   UNL     1      -2.040  -4.429   6.705  1.00  0.00     0.047 C 
ATOM     10  C   UNL     1      -2.998  -4.784   5.555  1.00  0.00     0.014 C 
ATOM     11  C   UNL     1      -1.108  -5.615   6.999  1.00  0.00     0.014 C 
ENDBRANCH   1   9
TORSDOF 3
ENDMDL
MODEL 4
REMARK VINA RESULT:    -3.461      2.320      3.007
REMARK INTER + INTRA:          -4.032
REMARK INTER:                  -3.997
REMARK INTRA:                  -0.035
REMARK UNBOUND:                -0.065
REMARK SMILES CC(C)[C@H]([NH3+])C(=O)[O-]
REMARK SMILES IDX 4 1 5 2 6 6 7 7 8 8 2 9 1 10 3 11
REMARK H PARENT 5 3 5 4 5 5
REMARK Flexibility Score: inf
ROOT
ATOM      1  C   UNL     1      -3.363  -2.682   7.568  1.00  0.00     0.230 C 
ENDROOT
BRANCH   1   2
ATOM      2  N   UNL     1      -3.322  -2.717   9.037  1.00  0.00    -0.350 N 
ATOM      3  H   UNL     1      -2.783  -1.894   9.392  1.00  0.00     0.345 HD
ATOM      4  H   UNL     1      -2.838  -3.586   9.361  1.00  0.00     0.345 HD
ATOM      5  H   UNL     1      -4.283  -2.686   9.448  1.00  0.00     0.345 HD
ENDBRANCH   1   2
BRANCH   1   6
ATOM      6  C   UNL     1      -3.317  -4.081   7.001  1.00  0.00     0.099 C 
ATOM      7  O   UNL     1      -2.899  -5.034   7.710  1.00  0.00    -0.544 OA
ATOM      8  O   UNL     1      -3.762  -4.336   5.709  1.00  0.00    -0.544 OA
ENDBRANCH   1   6
BRANCH   1   9
ATOM      9  C   UNL     1      -2.252  -1.758   6.983  1.00  0.00     0.047 C 
ATOM     10  C   UNL     1      -0.926  -2.487   6.706  1.00  0.00     0.014 C 
ATOM     11  C   UNL     1      -2.735  -1.043   5.711  1.00  0.00     0.014 C 
ENDBRANCH   1   9
TORSDOF 3
ENDMDL
MODEL 5
REMARK VINA RESULT:    -3.423      2.469      3.315
REMARK INTER + INTRA:          -3.988
REMARK INTER:                  -3.944
REMARK INTRA:                  -0.044
REMARK UNBOUND:                -0.065
REMARK SMILES CC(C)[C@H]([NH3+])C(=O)[O-]
REMARK SMILES IDX 4 1 5 2 6 6 7 7 8 8 2 9 1 10 3 11
REMARK H PARENT 5 3 5 4 5 5
REMARK Flexibility Score: inf
ROOT
ATOM      1  C   UNL     1      -2.040  -3.201   7.163  1.00  0.00     0.230 C 
ENDROOT
BRANCH   1   2
ATOM      2  N   UNL     1      -1.953  -1.791   7.574  1.00  0.00    -0.350 N 
ATOM      3  H   UNL     1      -2.867  -1.489   7.981  1.00  0.00     0.345 HD
ATOM      4  H   UNL     1      -1.752  -1.188   6.743  1.00  0.00     0.345 HD
ATOM      5  H   UNL     1      -1.205  -1.648   8.291  1.00  0.00     0.345 HD
ENDBRANCH   1   2
BRANCH   1   6
ATOM      6  C   UNL     1      -0.666  -3.756   6.871  1.00  0.00     0.099 C 
ATOM      7  O   UNL     1       0.236  -3.000   6.420  1.00  0.00    -0.544 OA
ATOM      8  O   UNL     1      -0.373  -5.091   7.124  1.00  0.00    -0.544 OA
ENDBRANCH   1   6
BRANCH   1   9
ATOM      9  C   UNL     1      -3.032  -3.394   5.977  1.00  0.00     0.047 C 
ATOM     10  C   UNL     1      -4.105  -4.466   6.237  1.00  0.00     0.014 C 
ATOM     11  C   UNL     1      -3.699  -2.066   5.585  1.00  0.00     0.014 C 
ENDBRANCH   1   9
TORSDOF 3
ENDMDL
MODEL 6
REMARK VINA RESULT:    -3.421      2.393      3.568
REMARK INTER + INTRA:          -3.986
REMARK INTER:                  -3.936
REMARK INTRA:                  -0.051
REMARK UNBOUND:                -0.065
REMARK SMILES CC(C)[C@H]([NH3+])C(=O)[O-]
REMARK SMILES IDX 4 1 5 2 6 6 7 7 8 8 2 9 1 10 3 11
REMARK H PARENT 5 3 5 4 5 5
REMARK Flexibility Score: inf
ROOT
ATOM      1  C   UNL     1      -1.615  -3.900   7.454  1.00  0.00     0.230 C 
ENDROOT
BRANCH   1   2
ATOM      2  N   UNL     1      -0.318  -3.275   7.154  1.00  0.00    -0.350 N 
ATOM      3  H   UNL     1      -0.473  -2.308   6.787  1.00  0.00     0.345 HD
ATOM      4  H   UNL     1       0.182  -3.824   6.418  1.00  0.00     0.345 HD
ATOM      5  H   UNL     1       0.284  -3.215   8.007  1.00  0.00     0.345 HD
ENDBRANCH   1   2
BRANCH   1   6
ATOM      6  C   UNL     1      -1.878  -5.055   6.517  1.00  0.00     0.099 C 
ATOM      7  O   UNL     1      -1.332  -6.171   6.725  1.00  0.00    -0.544 OA
ATOM      8  O   UNL     1      -2.742  -4.909   5.438  1.00  0.00    -0.544 OA
ENDBRANCH   1   6
BRANCH   1   9
ATOM      9  C   UNL     1      -2.771  -2.855   7.460  1.00  0.00     0.047 C 
ATOM     10  C   UNL     1      -3.581  -2.838   8.768  1.00  0.00     0.014 C 
ATOM     11  C   UNL     1      -2.249  -1.444   7.146  1.00  0.00     0.014 C 
ENDBRANCH   1   9
TORSDOF 3
ENDMDL
MODEL 7
REMARK VINA RESULT:    -3.387      2.017      2.798
REMARK INTER + INTRA:          -3.947
REMARK INTER:                  -3.930
REMARK INTRA:                  -0.017
REMARK UNBOUND:                -0.065
REMARK SMILES CC(C)[C@H]([NH3+])C(=O)[O-]
REMARK SMILES IDX 4 1 5 2 6 6 7 7 8 8 2 9 1 10 3 11
REMARK H PARENT 5 3 5 4 5 5
REMARK Flexibility Score: inf
ROOT
ATOM      1  C   UNL     1      -2.261  -3.952   7.702  1.00  0.00     0.230 C 
ENDROOT
BRANCH   1   2
ATOM      2  N   UNL     1      -2.327  -5.280   7.074  1.00  0.00    -0.350 N 
ATOM      3  H   UNL     1      -1.869  -5.985   7.697  1.00  0.00     0.345 HD
ATOM      4  H   UNL     1      -1.812  -5.271   6.163  1.00  0.00     0.345 HD
ATOM      5  H   UNL     1      -3.315  -5.577   6.907  1.00  0.00     0.345 HD
ENDBRANCH   1   2
BRANCH   1   6
ATOM      6  C   UNL     1      -3.614  -3.552   8.241  1.00  0.00     0.099 C 
ATOM      7  O   UNL     1      -4.640  -3.669   7.519  1.00  0.00    -0.544 OA
ATOM      8  O   UNL     1      -3.747  -3.082   9.543  1.00  0.00    -0.544 OA
ENDBRANCH   1   6
BRANCH   1   9
ATOM      9  C   UNL     1      -1.658  -2.887   6.738  1.00  0.00     0.047 C 
ATOM     10  C   UNL     1      -2.039  -1.441   7.099  1.00  0.00     0.014 C 
ATOM     11  C   UNL     1      -0.130  -3.021   6.645  1.00  0.00     0.014 C 
ENDBRANCH   1   9
TORSDOF 3
ENDMDL
MODEL 8
REMARK VINA RESULT:    -3.379      2.135      3.181
REMARK INTER + INTRA:          -3.937
REMARK INTER:                  -3.892
REMARK INTRA:                  -0.045
REMARK UNBOUND:                -0.065
REMARK SMILES CC(C)[C@H]([NH3+])C(=O)[O-]
REMARK SMILES IDX 4 1 5 2 6 6 7 7 8 8 2 9 1 10 3 11
REMARK H PARENT 5 3 5 4 5 5
REMARK Flexibility Score: inf
ROOT
ATOM      1  C   UNL     1      -1.788  -3.741   6.692  1.00  0.00     0.230 C 
ENDROOT
BRANCH   1   2
ATOM      2  N   UNL     1      -2.375  -4.871   7.428  1.00  0.00    -0.350 N 
ATOM      3  H   UNL     1      -2.741  -4.536   8.348  1.00  0.00     0.345 HD
ATOM      4  H   UNL     1      -1.643  -5.595   7.615  1.00  0.00     0.345 HD
ATOM      5  H   UNL     1      -3.162  -5.307   6.895  1.00  0.00     0.345 HD
ENDBRANCH   1   2
BRANCH   1   6
ATOM      6  C   UNL     1      -0.280  -3.831   6.695  1.00  0.00     0.099 C 
ATOM      7  O   UNL     1       0.410  -2.847   6.318  1.00  0.00    -0.544 OA
ATOM      8  O   UNL     1       0.360  -4.981   7.141  1.00  0.00    -0.544 OA
ENDBRANCH   1   6
BRANCH   1   9
ATOM      9  C   UNL     1      -2.312  -2.373   7.223  1.00  0.00     0.047 C 
ATOM     10  C   UNL     1      -2.846  -1.445   6.118  1.00  0.00     0.014 C 
ATOM     11  C   UNL     1      -3.382  -2.569   8.308  1.00  0.00     0.014 C 
ENDBRANCH   1   9
TORSDOF 3
ENDMDL
MODEL 9
REMARK VINA RESULT:    -3.361      9.847     10.619
REMARK INTER + INTRA:          -3.917
REMARK INTER:                  -3.863
REMARK INTRA:                  -0.054
REMARK UNBOUND:                -0.065
REMARK SMILES CC(C)[C@H]([NH3+])C(=O)[O-]
REMARK SMILES IDX 4 1 5 2 6 6 7 7 8 8 2 9 1 10 3 11
REMARK H PARENT 5 3 5 4 5 5
REMARK Flexibility Score: inf
ROOT
ATOM      1  C   UNL     1       4.867   4.146   6.201  1.00  0.00     0.230 C 
ENDROOT
BRANCH   1   2
ATOM      2  N   UNL     1       5.146   4.305   4.766  1.00  0.00    -0.350 N 
ATOM      3  H   UNL     1       4.947   5.291   4.478  1.00  0.00     0.345 HD
ATOM      4  H   UNL     1       4.525   3.674   4.209  1.00  0.00     0.345 HD
ATOM      5  H   UNL     1       6.145   4.088   4.544  1.00  0.00     0.345 HD
ENDBRANCH   1   2
BRANCH   1   6
ATOM      6  C   UNL     1       5.205   5.413   6.951  1.00  0.00     0.099 C 
ATOM      7  O   UNL     1       4.340   6.321   7.075  1.00  0.00    -0.544 OA
ATOM      8  O   UNL     1       6.455   5.578   7.535  1.00  0.00    -0.544 OA
ENDBRANCH   1   6
BRANCH   1   9
ATOM      9  C   UNL     1       5.576   2.890   6.790  1.00  0.00     0.047 C 
ATOM     10  C   UNL     1       4.781   2.204   7.915  1.00  0.00     0.014 C 
ATOM     11  C   UNL     1       5.914   1.873   5.689  1.00  0.00     0.014 C 
ENDBRANCH   1   9
TORSDOF 3
ENDMDL
