MODEL 1
REMARK VINA RESULT:    -3.419      0.000      0.000
REMARK INTER + INTRA:          -5.919
REMARK INTER:                  -5.218
REMARK INTRA:                  -0.701
REMARK UNBOUND:                -0.701
REMARK SMILES O=C([O-])CCCCCCCCC(=O)[O-]
REMARK SMILES IDX 7 1 6 2 5 3 4 4 2 5 1 6 3 7 8 8 9 9 10 10 11 11 12 12 13 13
REMARK SMILES IDX 14 14
REMARK H PARENT
REMARK Flexibility Score: inf
ROOT
ATOM      1  C   UNL     1      61.153  33.786  60.109  1.00  0.00     0.000 C 
ENDROOT
BRANCH   1   2
ATOM      2  C   UNL     1      62.302  34.673  60.603  1.00  0.00     0.000 C 
BRANCH   2   3
ATOM      3  C   UNL     1      63.658  33.978  60.406  1.00  0.00     0.006 C 
BRANCH   3   4
ATOM      4  C   UNL     1      64.694  34.421  61.447  1.00  0.00     0.053 C 
BRANCH   4   5
ATOM      5  C   UNL     1      65.171  35.819  61.195  1.00  0.00     0.041 C 
ATOM      6  O   UNL     1      65.898  36.072  60.198  1.00  0.00    -0.550 OA
ATOM      7  O   UNL     1      64.786  36.848  62.044  1.00  0.00    -0.550 OA
ENDBRANCH   4   5
ENDBRANCH   3   4
ENDBRANCH   2   3
ENDBRANCH   1   2
BRANCH   1   8
ATOM      8  C   UNL     1      61.596  32.322  59.996  1.00  0.00     0.000 C 
BRANCH   8   9
ATOM      9  C   UNL     1      60.652  31.401  60.783  1.00  0.00     0.000 C 
BRANCH   9  10
ATOM     10  C   UNL     1      61.372  30.633  61.903  1.00  0.00     0.006 C 
BRANCH  10  11
ATOM     11  C   UNL     1      62.796  30.216  61.513  1.00  0.00     0.053 C 
BRANCH  11  12
ATOM     12  C   UNL     1      62.810  28.806  61.014  1.00  0.00     0.041 C 
ATOM     13  O   UNL     1      62.121  27.923  61.591  1.00  0.00    -0.550 OA
ATOM     14  O   UNL     1      63.622  28.454  59.944  1.00  0.00    -0.550 OA
ENDBRANCH  11  12
ENDBRANCH  10  11
ENDBRANCH   9  10
ENDBRANCH   8   9
ENDBRANCH   1   8
TORSDOF 9
ENDMDL
MODEL 2
REMARK VINA RESULT:    -3.400     12.499     14.059
REMARK INTER + INTRA:          -5.889
REMARK INTER:                  -5.152
REMARK INTRA:                  -0.737
REMARK UNBOUND:                -0.701
REMARK SMILES O=C([O-])CCCCCCCCC(=O)[O-]
REMARK SMILES IDX 7 1 6 2 5 3 4 4 2 5 1 6 3 7 8 8 9 9 10 10 11 11 12 12 13 13
REMARK SMILES IDX 14 14
REMARK H PARENT
REMARK Flexibility Score: inf
ROOT
ATOM      1  C   UNL     1      58.810  29.325  49.615  1.00  0.00     0.000 C 
ENDROOT
BRANCH   1   2
ATOM      2  C   UNL     1      59.528  28.012  49.281  1.00  0.00     0.000 C 
BRANCH   2   3
ATOM      3  C   UNL     1      59.425  27.016  50.446  1.00  0.00     0.006 C 
BRANCH   3   4
ATOM      4  C   UNL     1      58.808  25.680  50.015  1.00  0.00     0.053 C 
BRANCH   4   5
ATOM      5  C   UNL     1      58.664  24.737  51.171  1.00  0.00     0.041 C 
ATOM      6  O   UNL     1      57.664  24.816  51.933  1.00  0.00    -0.550 OA
ATOM      7  O   UNL     1      59.617  23.751  51.386  1.00  0.00    -0.550 OA
ENDBRANCH   4   5
ENDBRANCH   3   4
ENDBRANCH   2   3
ENDBRANCH   1   2
BRANCH   1   8
ATOM      8  C   UNL     1      58.023  29.205  50.925  1.00  0.00     0.000 C 
BRANCH   8   9
ATOM      9  C   UNL     1      56.510  29.248  50.663  1.00  0.00     0.000 C 
BRANCH   9  10
ATOM     10  C   UNL     1      55.819  27.908  50.961  1.00  0.00     0.006 C 
BRANCH  10  11
ATOM     11  C   UNL     1      54.441  27.794  50.298  1.00  0.00     0.053 C 
BRANCH  11  12
ATOM     12  C   UNL     1      54.174  26.380  49.887  1.00  0.00     0.041 C 
ATOM     13  O   UNL     1      52.991  25.965  49.778  1.00  0.00    -0.550 OA
ATOM     14  O   UNL     1      55.233  25.506  49.675  1.00  0.00    -0.550 OA
ENDBRANCH  11  12
ENDBRANCH  10  11
ENDBRANCH   9  10
ENDBRANCH   8   9
ENDBRANCH   1   8
TORSDOF 9
ENDMDL
MODEL 3
REMARK VINA RESULT:    -3.367     12.776     14.128
REMARK INTER + INTRA:          -5.840
REMARK INTER:                  -5.186
REMARK INTRA:                  -0.654
REMARK UNBOUND:                -0.701
REMARK SMILES O=C([O-])CCCCCCCCC(=O)[O-]
REMARK SMILES IDX 7 1 6 2 5 3 4 4 2 5 1 6 3 7 8 8 9 9 10 10 11 11 12 12 13 13
REMARK SMILES IDX 14 14
REMARK H PARENT
REMARK Flexibility Score: inf
ROOT
ATOM      1  C   UNL     1      57.852  28.485  50.815  1.00  0.00     0.000 C 
ENDROOT
BRANCH   1   2
ATOM      2  C   UNL     1      56.541  29.268  50.674  1.00  0.00     0.000 C 
BRANCH   2   3
ATOM      3  C   UNL     1      55.327  28.359  50.916  1.00  0.00     0.006 C 
BRANCH   3   4
ATOM      4  C   UNL     1      55.567  26.927  50.422  1.00  0.00     0.053 C 
BRANCH   4   5
ATOM      5  C   UNL     1      54.314  26.310  49.879  1.00  0.00     0.041 C 
ATOM      6  O   UNL     1      53.289  27.017  49.688  1.00  0.00    -0.550 OA
ATOM      7  O   UNL     1      54.289  24.960  49.553  1.00  0.00    -0.550 OA
ENDBRANCH   4   5
ENDBRANCH   3   4
ENDBRANCH   2   3
ENDBRANCH   1   2
BRANCH   1   8
ATOM      8  C   UNL     1      58.872  28.924  49.757  1.00  0.00     0.000 C 
BRANCH   8   9
ATOM      9  C   UNL     1      59.801  27.761  49.375  1.00  0.00     0.000 C 
BRANCH   9  10
ATOM     10  C   UNL     1      59.170  26.386  49.645  1.00  0.00     0.006 C 
BRANCH  10  11
ATOM     11  C   UNL     1      60.139  25.418  50.336  1.00  0.00     0.053 C 
BRANCH  11  12
ATOM     12  C   UNL     1      59.384  24.433  51.172  1.00  0.00     0.041 C 
ATOM     13  O   UNL     1      58.211  24.690  51.550  1.00  0.00    -0.550 OA
ATOM     14  O   UNL     1      59.995  23.252  51.577  1.00  0.00    -0.550 OA
ENDBRANCH  11  12
ENDBRANCH  10  11
ENDBRANCH   9  10
ENDBRANCH   8   9
ENDBRANCH   1   8
TORSDOF 9
ENDMDL
MODEL 4
REMARK VINA RESULT:    -3.313      1.383      1.893
REMARK INTER + INTRA:          -5.757
REMARK INTER:                  -5.128
REMARK INTRA:                  -0.629
REMARK UNBOUND:                -0.701
REMARK SMILES O=C([O-])CCCCCCCCC(=O)[O-]
REMARK SMILES IDX 7 1 6 2 5 3 4 4 2 5 1 6 3 7 8 8 9 9 10 10 11 11 12 12 13 13
REMARK SMILES IDX 14 14
REMARK H PARENT
REMARK Flexibility Score: inf
ROOT
ATOM      1  C   UNL     1      60.765  32.702  59.623  1.00  0.00     0.000 C 
ENDROOT
BRANCH   1   2
ATOM      2  C   UNL     1      61.761  33.465  60.504  1.00  0.00     0.000 C 
BRANCH   2   3
ATOM      3  C   UNL     1      61.636  34.981  60.291  1.00  0.00     0.006 C 
BRANCH   3   4
ATOM      4  C   UNL     1      62.680  35.769  61.093  1.00  0.00     0.053 C 
BRANCH   4   5
ATOM      5  C   UNL     1      64.073  35.299  60.803  1.00  0.00     0.041 C 
ATOM      6  O   UNL     1      64.787  34.824  61.725  1.00  0.00    -0.550 OA
ATOM      7  O   UNL     1      64.570  35.357  59.508  1.00  0.00    -0.550 OA
ENDBRANCH   4   5
ENDBRANCH   3   4
ENDBRANCH   2   3
ENDBRANCH   1   2
BRANCH   1   8
ATOM      8  C   UNL     1      60.505  31.296  60.177  1.00  0.00     0.000 C 
BRANCH   8   9
ATOM      9  C   UNL     1      61.092  31.144  61.588  1.00  0.00     0.000 C 
BRANCH   9  10
ATOM     10  C   UNL     1      62.072  29.965  61.697  1.00  0.00     0.006 C 
BRANCH  10  11
ATOM     11  C   UNL     1      63.530  30.385  61.468  1.00  0.00     0.053 C 
BRANCH  11  12
ATOM     12  C   UNL     1      64.077  29.724  60.243  1.00  0.00     0.041 C 
ATOM     13  O   UNL     1      63.300  29.173  59.420  1.00  0.00    -0.550 OA
ATOM     14  O   UNL     1      65.450  29.671  60.036  1.00  0.00    -0.550 OA
ENDBRANCH  11  12
ENDBRANCH  10  11
ENDBRANCH   9  10
ENDBRANCH   8   9
ENDBRANCH   1   8
TORSDOF 9
ENDMDL
MODEL 5
REMARK VINA RESULT:    -3.259      1.407      5.681
REMARK INTER + INTRA:          -5.674
REMARK INTER:                  -4.719
REMARK INTRA:                  -0.955
REMARK UNBOUND:                -0.701
REMARK SMILES O=C([O-])CCCCCCCCC(=O)[O-]
REMARK SMILES IDX 7 1 6 2 5 3 4 4 2 5 1 6 3 7 8 8 9 9 10 10 11 11 12 12 13 13
REMARK SMILES IDX 14 14
REMARK H PARENT
REMARK Flexibility Score: inf
ROOT
ATOM      1  C   UNL     1      62.047  32.837  59.194  1.00  0.00     0.000 C 
ENDROOT
BRANCH   1   2
ATOM      2  C   UNL     1      63.242  31.883  59.318  1.00  0.00     0.000 C 
BRANCH   2   3
ATOM      3  C   UNL     1      63.723  31.789  60.774  1.00  0.00     0.006 C 
BRANCH   3   4
ATOM      4  C   UNL     1      63.852  30.337  61.251  1.00  0.00     0.053 C 
BRANCH   4   5
ATOM      5  C   UNL     1      62.522  29.752  61.617  1.00  0.00     0.041 C 
ATOM      6  O   UNL     1      62.334  28.509  61.542  1.00  0.00    -0.550 OA
ATOM      7  O   UNL     1      61.502  30.577  62.072  1.00  0.00    -0.550 OA
ENDBRANCH   4   5
ENDBRANCH   3   4
ENDBRANCH   2   3
ENDBRANCH   1   2
BRANCH   1   8
ATOM      8  C   UNL     1      61.840  33.631  60.489  1.00  0.00     0.000 C 
BRANCH   8   9
ATOM      9  C   UNL     1      61.507  35.100  60.185  1.00  0.00     0.000 C 
BRANCH   9  10
ATOM     10  C   UNL     1      62.715  36.032  60.373  1.00  0.00     0.006 C 
BRANCH  10  11
ATOM     11  C   UNL     1      63.782  35.435  61.299  1.00  0.00     0.053 C 
BRANCH  11  12
ATOM     12  C   UNL     1      65.109  35.395  60.609  1.00  0.00     0.041 C 
ATOM     13  O   UNL     1      66.128  35.881  61.166  1.00  0.00    -0.550 OA
ATOM     14  O   UNL     1      65.211  34.867  59.328  1.00  0.00    -0.550 OA
ENDBRANCH  11  12
ENDBRANCH  10  11
ENDBRANCH   9  10
ENDBRANCH   8   9
ENDBRANCH   1   8
TORSDOF 9
ENDMDL
MODEL 6
REMARK VINA RESULT:    -3.256     12.426     13.937
REMARK INTER + INTRA:          -5.670
REMARK INTER:                  -4.996
REMARK INTRA:                  -0.674
REMARK UNBOUND:                -0.701
REMARK SMILES O=C([O-])CCCCCCCCC(=O)[O-]
REMARK SMILES IDX 7 1 6 2 5 3 4 4 2 5 1 6 3 7 8 8 9 9 10 10 11 11 12 12 13 13
REMARK SMILES IDX 14 14
REMARK H PARENT
REMARK Flexibility Score: inf
ROOT
ATOM      1  C   UNL     1      57.449  28.578  51.021  1.00  0.00     0.000 C 
ENDROOT
BRANCH   1   2
ATOM      2  C   UNL     1      58.393  29.305  50.055  1.00  0.00     0.000 C 
BRANCH   2   3
ATOM      3  C   UNL     1      59.208  28.304  49.223  1.00  0.00     0.006 C 
BRANCH   3   4
ATOM      4  C   UNL     1      59.219  26.903  49.847  1.00  0.00     0.053 C 
BRANCH   4   5
ATOM      5  C   UNL     1      60.614  26.417  50.097  1.00  0.00     0.041 C 
ATOM      6  O   UNL     1      61.591  27.202  49.969  1.00  0.00    -0.550 OA
ATOM      7  O   UNL     1      60.831  25.108  50.502  1.00  0.00    -0.550 OA
ENDBRANCH   4   5
ENDBRANCH   3   4
ENDBRANCH   2   3
ENDBRANCH   1   2
BRANCH   1   8
ATOM      8  C   UNL     1      56.062  29.233  51.032  1.00  0.00     0.000 C 
BRANCH   8   9
ATOM      9  C   UNL     1      55.005  28.290  50.437  1.00  0.00     0.000 C 
BRANCH   9  10
ATOM     10  C   UNL     1      55.483  26.831  50.371  1.00  0.00     0.006 C 
BRANCH  10  11
ATOM     11  C   UNL     1      54.513  25.860  51.055  1.00  0.00     0.053 C 
BRANCH  11  12
ATOM     12  C   UNL     1      53.831  24.999  50.038  1.00  0.00     0.041 C 
ATOM     13  O   UNL     1      53.475  25.486  48.933  1.00  0.00    -0.550 OA
ATOM     14  O   UNL     1      53.544  23.672  50.330  1.00  0.00    -0.550 OA
ENDBRANCH  11  12
ENDBRANCH  10  11
ENDBRANCH   9  10
ENDBRANCH   8   9
ENDBRANCH   1   8
TORSDOF 9
ENDMDL
MODEL 7
REMARK VINA RESULT:    -3.236      2.603      5.746
REMARK INTER + INTRA:          -5.640
REMARK INTER:                  -4.581
REMARK INTRA:                  -1.058
REMARK UNBOUND:                -0.701
REMARK SMILES O=C([O-])CCCCCCCCC(=O)[O-]
REMARK SMILES IDX 7 1 6 2 5 3 4 4 2 5 1 6 3 7 8 8 9 9 10 10 11 11 12 12 13 13
REMARK SMILES IDX 14 14
REMARK H PARENT
REMARK Flexibility Score: inf
ROOT
ATOM      1  C   UNL     1      60.630  30.856  60.166  1.00  0.00     0.000 C 
ENDROOT
BRANCH   1   2
ATOM      2  C   UNL     1      61.058  30.829  61.638  1.00  0.00     0.000 C 
BRANCH   2   3
ATOM      3  C   UNL     1      62.164  29.789  61.872  1.00  0.00     0.006 C 
BRANCH   3   4
ATOM      4  C   UNL     1      62.259  28.775  60.725  1.00  0.00     0.053 C 
BRANCH   4   5
ATOM      5  C   UNL     1      61.671  27.450  61.106  1.00  0.00     0.041 C 
ATOM      6  O   UNL     1      60.597  27.057  60.579  1.00  0.00    -0.550 OA
ATOM      7  O   UNL     1      62.329  26.636  62.019  1.00  0.00    -0.550 OA
ENDBRANCH   4   5
ENDBRANCH   3   4
ENDBRANCH   2   3
ENDBRANCH   1   2
BRANCH   1   8
ATOM      8  C   UNL     1      60.766  32.266  59.578  1.00  0.00     0.000 C 
BRANCH   8   9
ATOM      9  C   UNL     1      61.567  33.178  60.520  1.00  0.00     0.000 C 
BRANCH   9  10
ATOM     10  C   UNL     1      62.913  33.613  59.919  1.00  0.00     0.006 C 
BRANCH  10  11
ATOM     11  C   UNL     1      64.111  32.965  60.624  1.00  0.00     0.053 C 
BRANCH  11  12
ATOM     12  C   UNL     1      64.515  31.709  59.919  1.00  0.00     0.041 C 
ATOM     13  O   UNL     1      65.249  30.865  60.498  1.00  0.00    -0.550 OA
ATOM     14  O   UNL     1      64.124  31.493  58.604  1.00  0.00    -0.550 OA
ENDBRANCH  11  12
ENDBRANCH  10  11
ENDBRANCH   9  10
ENDBRANCH   8   9
ENDBRANCH   1   8
TORSDOF 9
ENDMDL
MODEL 8
REMARK VINA RESULT:    -3.236     12.448     14.018
REMARK INTER + INTRA:          -5.639
REMARK INTER:                  -5.022
REMARK INTRA:                  -0.618
REMARK UNBOUND:                -0.701
REMARK SMILES O=C([O-])CCCCCCCCC(=O)[O-]
REMARK SMILES IDX 7 1 6 2 5 3 4 4 2 5 1 6 3 7 8 8 9 9 10 10 11 11 12 12 13 13
REMARK SMILES IDX 14 14
REMARK H PARENT
REMARK Flexibility Score: inf
ROOT
ATOM      1  C   UNL     1      56.538  29.598  51.676  1.00  0.00     0.000 C 
ENDROOT
BRANCH   1   2
ATOM      2  C   UNL     1      55.317  29.512  50.752  1.00  0.00     0.000 C 
BRANCH   2   3
ATOM      3  C   UNL     1      54.375  28.379  51.188  1.00  0.00     0.006 C 
BRANCH   3   4
ATOM      4  C   UNL     1      54.003  27.453  50.024  1.00  0.00     0.053 C 
BRANCH   4   5
ATOM      5  C   UNL     1      54.674  26.118  50.140  1.00  0.00     0.041 C 
ATOM      6  O   UNL     1      54.500  25.241  49.252  1.00  0.00    -0.550 OA
ATOM      7  O   UNL     1      55.518  25.855  51.211  1.00  0.00    -0.550 OA
ENDBRANCH   4   5
ENDBRANCH   3   4
ENDBRANCH   2   3
ENDBRANCH   1   2
BRANCH   1   8
ATOM      8  C   UNL     1      57.650  28.651  51.208  1.00  0.00     0.000 C 
BRANCH   8   9
ATOM      9  C   UNL     1      58.411  29.246  50.014  1.00  0.00     0.000 C 
BRANCH   9  10
ATOM     10  C   UNL     1      59.189  28.185  49.220  1.00  0.00     0.006 C 
BRANCH  10  11
ATOM     11  C   UNL     1      60.143  27.369  50.102  1.00  0.00     0.053 C 
BRANCH  11  12
ATOM     12  C   UNL     1      59.775  25.919  50.068  1.00  0.00     0.041 C 
ATOM     13  O   UNL     1      58.586  25.573  49.843  1.00  0.00    -0.550 OA
ATOM     14  O   UNL     1      60.735  24.952  50.334  1.00  0.00    -0.550 OA
ENDBRANCH  11  12
ENDBRANCH  10  11
ENDBRANCH   9  10
ENDBRANCH   8   9
ENDBRANCH   1   8
TORSDOF 9
ENDMDL
MODEL 9
REMARK VINA RESULT:    -3.215     12.039     13.408
REMARK INTER + INTRA:          -5.607
REMARK INTER:                  -4.728
REMARK INTRA:                  -0.879
REMARK UNBOUND:                -0.701
REMARK SMILES O=C([O-])CCCCCCCCC(=O)[O-]
REMARK SMILES IDX 7 1 6 2 5 3 4 4 2 5 1 6 3 7 8 8 9 9 10 10 11 11 12 12 13 13
REMARK SMILES IDX 14 14
REMARK H PARENT
REMARK Flexibility Score: inf
ROOT
ATOM      1  C   UNL     1      56.210  29.033  51.960  1.00  0.00     0.000 C 
ENDROOT
BRANCH   1   2
ATOM      2  C   UNL     1      57.672  29.052  51.497  1.00  0.00     0.000 C 
BRANCH   2   3
ATOM      3  C   UNL     1      57.778  28.736  49.997  1.00  0.00     0.006 C 
BRANCH   3   4
ATOM      4  C   UNL     1      59.227  28.774  49.497  1.00  0.00     0.053 C 
BRANCH   4   5
ATOM      5  C   UNL     1      59.890  27.436  49.613  1.00  0.00     0.041 C 
ATOM      6  O   UNL     1      59.200  26.383  49.604  1.00  0.00    -0.550 OA
ATOM      7  O   UNL     1      61.274  27.351  49.698  1.00  0.00    -0.550 OA
ENDBRANCH   4   5
ENDBRANCH   3   4
ENDBRANCH   2   3
ENDBRANCH   1   2
BRANCH   1   8
ATOM      8  C   UNL     1      55.253  28.982  50.763  1.00  0.00     0.000 C 
BRANCH   8   9
ATOM      9  C   UNL     1      54.071  28.041  51.045  1.00  0.00     0.000 C 
BRANCH   9  10
ATOM     10  C   UNL     1      53.960  26.906  50.015  1.00  0.00     0.006 C 
BRANCH  10  11
ATOM     11  C   UNL     1      55.209  26.016  49.979  1.00  0.00     0.053 C 
BRANCH  11  12
ATOM     12  C   UNL     1      55.389  25.316  51.289  1.00  0.00     0.041 C 
ATOM     13  O   UNL     1      54.454  24.624  51.771  1.00  0.00    -0.550 OA
ATOM     14  O   UNL     1      56.571  25.467  52.002  1.00  0.00    -0.550 OA
ENDBRANCH  11  12
ENDBRANCH  10  11
ENDBRANCH   9  10
ENDBRANCH   8   9
ENDBRANCH   1   8
TORSDOF 9
ENDMDL
