MODEL 1
REMARK VINA RESULT:    -7.751      0.000      0.000
REMARK INTER + INTRA:         -11.277
REMARK INTER:                  -9.789
REMARK INTRA:                  -1.487
REMARK UNBOUND:                -1.487
REMARK SMILES CC(C)[C@@H](C)C=C[C@@H](C)[C@H]1CC[C@H]2C3=CC=C4C[C@@H](O)CC[C@]4(C)[C@@H]3CC[C@@]12C
REMARK SMILES IDX 8 1 9 2 7 3 6 4 4 5 5 6 2 7 1 8 3 9 10 10 11 11 28 12 12 13
REMARK SMILES IDX 13 14 27 15 29 16 14 17 26 18 25 19 15 20 23 21 16 22 17 23
REMARK SMILES IDX 22 24 24 25 18 26 21 27 19 28 20 29
REMARK H PARENT 20 30
REMARK Flexibility Score: inf
ROOT
ATOM      1  C   UNL     1      15.647 -33.963  21.251  1.00  0.00     0.012 C 
ATOM      2  C   UNL     1      15.431 -35.218  20.387  1.00  0.00     0.012 C 
ENDROOT
BRANCH   1   3
ATOM      3  C   UNL     1      14.610 -32.916  20.875  1.00  0.00    -0.028 C 
ATOM      4  C   UNL     1      14.141 -31.956  21.700  1.00  0.00    -0.028 C 
BRANCH   4   5
ATOM      5  C   UNL     1      14.542 -31.749  23.153  1.00  0.00     0.011 C 
ATOM      6  C   UNL     1      13.565 -32.510  24.060  1.00  0.00     0.012 C 
BRANCH   5   7
ATOM      7  C   UNL     1      14.640 -30.243  23.538  1.00  0.00    -0.011 C 
ATOM      8  C   UNL     1      15.558 -29.479  22.572  1.00  0.00     0.008 C 
ATOM      9  C   UNL     1      13.279 -29.533  23.641  1.00  0.00     0.008 C 
ENDBRANCH   5   7
ENDBRANCH   4   5
ENDBRANCH   1   3
BRANCH   1  10
ATOM     10  C   UNL     1      17.139 -33.496  21.148  1.00  0.00     0.002 C 
ATOM     11  C   UNL     1      17.396 -32.145  20.461  1.00  0.00     0.005 C 
ATOM     12  C   UNL     1      18.002 -33.481  22.443  1.00  0.00    -0.023 C 
ATOM     13  C   UNL     1      18.749 -31.648  20.984  1.00  0.00     0.009 C 
ATOM     14  C   UNL     1      19.260 -32.728  21.949  1.00  0.00     0.021 C 
ATOM     15  C   UNL     1      17.316 -32.711  23.617  1.00  0.00     0.008 C 
ATOM     16  C   UNL     1      18.361 -34.917  22.892  1.00  0.00     0.012 C 
ATOM     17  C   UNL     1      20.098 -32.207  23.100  1.00  0.00    -0.063 C 
ATOM     18  C   UNL     1      18.279 -32.278  24.742  1.00  0.00     0.009 C 
ATOM     19  C   UNL     1      19.405 -31.387  24.173  1.00  0.00     0.025 C 
ATOM     20  C   UNL     1      21.285 -32.782  23.348  1.00  0.00    -0.000 C 
ATOM     21  C   UNL     1      20.421 -30.760  25.216  1.00  0.00    -0.005 C 
ATOM     22  C   UNL     1      21.990 -32.592  24.621  1.00  0.00    -0.000 C 
ATOM     23  C   UNL     1      21.559 -31.727  25.547  1.00  0.00    -0.061 C 
ATOM     24  C   UNL     1      19.699 -30.327  26.530  1.00  0.00     0.014 C 
ATOM     25  C   UNL     1      21.055 -29.509  24.550  1.00  0.00     0.017 C 
ATOM     26  C   UNL     1      22.439 -31.471  26.755  1.00  0.00     0.063 C 
ATOM     27  C   UNL     1      20.663 -29.886  27.639  1.00  0.00     0.033 C 
ATOM     28  C   UNL     1      21.626 -31.033  27.983  1.00  0.00     0.118 C 
BRANCH  28  29
ATOM     29  O   UNL     1      22.480 -30.665  29.036  1.00  0.00    -0.393 OA
ATOM     30  H   UNL     1      23.391 -30.548  28.659  1.00  0.00     0.210 HD
ENDBRANCH  28  29
ENDBRANCH   1  10
TORSDOF 5
ENDMDL
MODEL 2
REMARK VINA RESULT:    -7.525      3.052      7.292
REMARK INTER + INTRA:         -10.991
REMARK INTER:                  -9.816
REMARK INTRA:                  -1.175
REMARK UNBOUND:                -1.487
REMARK SMILES CC(C)[C@@H](C)C=C[C@@H](C)[C@H]1CC[C@H]2C3=CC=C4C[C@@H](O)CC[C@]4(C)[C@@H]3CC[C@@]12C
REMARK SMILES IDX 8 1 9 2 7 3 6 4 4 5 5 6 2 7 1 8 3 9 10 10 11 11 28 12 12 13
REMARK SMILES IDX 13 14 27 15 29 16 14 17 26 18 25 19 15 20 23 21 16 22 17 23
REMARK SMILES IDX 22 24 24 25 18 26 21 27 19 28 20 29
REMARK H PARENT 20 30
REMARK Flexibility Score: inf
ROOT
ATOM      1  C   UNL     1      21.457 -31.778  23.035  1.00  0.00     0.012 C 
ATOM      2  C   UNL     1      22.748 -32.601  23.191  1.00  0.00     0.012 C 
ENDROOT
BRANCH   1   3
ATOM      3  C   UNL     1      21.349 -30.798  24.192  1.00  0.00    -0.028 C 
ATOM      4  C   UNL     1      21.762 -29.512  24.163  1.00  0.00    -0.028 C 
BRANCH   4   5
ATOM      5  C   UNL     1      22.421 -28.810  22.985  1.00  0.00     0.011 C 
ATOM      6  C   UNL     1      23.599 -27.968  23.494  1.00  0.00     0.012 C 
BRANCH   5   7
ATOM      7  C   UNL     1      21.414 -27.959  22.155  1.00  0.00    -0.011 C 
ATOM      8  C   UNL     1      22.003 -26.584  21.804  1.00  0.00     0.008 C 
ATOM      9  C   UNL     1      20.909 -28.654  20.879  1.00  0.00     0.008 C 
ENDBRANCH   5   7
ENDBRANCH   4   5
ENDBRANCH   1   3
BRANCH   1  10
ATOM     10  C   UNL     1      20.232 -32.738  22.853  1.00  0.00     0.002 C 
ATOM     11  C   UNL     1      19.838 -33.594  24.068  1.00  0.00     0.005 C 
ATOM     12  C   UNL     1      18.902 -32.147  22.305  1.00  0.00    -0.023 C 
ATOM     13  C   UNL     1      18.362 -33.964  23.871  1.00  0.00     0.009 C 
ATOM     14  C   UNL     1      17.936 -33.332  22.538  1.00  0.00     0.021 C 
ATOM     15  C   UNL     1      18.433 -30.882  23.092  1.00  0.00     0.008 C 
ATOM     16  C   UNL     1      19.016 -31.818  20.797  1.00  0.00     0.012 C 
ATOM     17  C   UNL     1      16.483 -32.901  22.476  1.00  0.00    -0.063 C 
ATOM     18  C   UNL     1      16.942 -30.531  22.904  1.00  0.00     0.009 C 
ATOM     19  C   UNL     1      16.053 -31.720  23.327  1.00  0.00     0.025 C 
ATOM     20  C   UNL     1      15.737 -33.289  21.430  1.00  0.00    -0.000 C 
ATOM     21  C   UNL     1      14.485 -31.489  23.304  1.00  0.00    -0.005 C 
ATOM     22  C   UNL     1      14.457 -32.649  21.107  1.00  0.00    -0.000 C 
ATOM     23  C   UNL     1      13.897 -31.739  21.915  1.00  0.00    -0.061 C 
ATOM     24  C   UNL     1      14.111 -30.051  23.782  1.00  0.00     0.014 C 
ATOM     25  C   UNL     1      13.849 -32.525  24.270  1.00  0.00     0.017 C 
ATOM     26  C   UNL     1      12.498 -31.255  21.589  1.00  0.00     0.063 C 
ATOM     27  C   UNL     1      12.624 -29.715  23.603  1.00  0.00     0.033 C 
ATOM     28  C   UNL     1      12.234 -29.839  22.123  1.00  0.00     0.118 C 
BRANCH  28  29
ATOM     29  O   UNL     1      10.889 -29.480  21.932  1.00  0.00    -0.393 OA
ATOM     30  H   UNL     1      10.666 -29.642  20.977  1.00  0.00     0.210 HD
ENDBRANCH  28  29
ENDBRANCH   1  10
TORSDOF 5
ENDMDL
MODEL 3
REMARK VINA RESULT:    -7.505      1.676      4.171
REMARK INTER + INTRA:         -10.967
REMARK INTER:                  -9.297
REMARK INTRA:                  -1.670
REMARK UNBOUND:                -1.487
REMARK SMILES CC(C)[C@@H](C)C=C[C@@H](C)[C@H]1CC[C@H]2C3=CC=C4C[C@@H](O)CC[C@]4(C)[C@@H]3CC[C@@]12C
REMARK SMILES IDX 8 1 9 2 7 3 6 4 4 5 5 6 2 7 1 8 3 9 10 10 11 11 28 12 12 13
REMARK SMILES IDX 13 14 27 15 29 16 14 17 26 18 25 19 15 20 23 21 16 22 17 23
REMARK SMILES IDX 22 24 24 25 18 26 21 27 19 28 20 29
REMARK H PARENT 20 30
REMARK Flexibility Score: inf
ROOT
ATOM      1  C   UNL     1      14.822 -32.520  21.004  1.00  0.00     0.012 C 
ATOM      2  C   UNL     1      13.500 -31.734  20.943  1.00  0.00     0.012 C 
ENDROOT
BRANCH   1   3
ATOM      3  C   UNL     1      14.628 -33.873  20.338  1.00  0.00    -0.028 C 
ATOM      4  C   UNL     1      15.622 -34.663  19.878  1.00  0.00    -0.028 C 
BRANCH   4   5
ATOM      5  C   UNL     1      17.110 -34.348  19.924  1.00  0.00     0.011 C 
ATOM      6  C   UNL     1      17.539 -33.746  18.578  1.00  0.00     0.012 C 
BRANCH   5   7
ATOM      7  C   UNL     1      17.973 -35.585  20.308  1.00  0.00    -0.011 C 
ATOM      8  C   UNL     1      18.714 -35.357  21.634  1.00  0.00     0.008 C 
ATOM      9  C   UNL     1      17.183 -36.905  20.369  1.00  0.00     0.008 C 
ENDBRANCH   5   7
ENDBRANCH   4   5
ENDBRANCH   1   3
BRANCH   1  10
ATOM     10  C   UNL     1      15.346 -32.567  22.479  1.00  0.00     0.002 C 
ATOM     11  C   UNL     1      15.643 -33.958  23.063  1.00  0.00     0.005 C 
ATOM     12  C   UNL     1      16.565 -31.681  22.862  1.00  0.00    -0.023 C 
ATOM     13  C   UNL     1      16.644 -33.739  24.205  1.00  0.00     0.009 C 
ATOM     14  C   UNL     1      16.894 -32.225  24.272  1.00  0.00     0.021 C 
ATOM     15  C   UNL     1      17.777 -31.870  21.895  1.00  0.00     0.008 C 
ATOM     16  C   UNL     1      16.171 -30.186  22.928  1.00  0.00     0.012 C 
ATOM     17  C   UNL     1      18.287 -31.831  24.723  1.00  0.00    -0.063 C 
ATOM     18  C   UNL     1      19.128 -31.385  22.463  1.00  0.00     0.009 C 
ATOM     19  C   UNL     1      19.447 -32.116  23.786  1.00  0.00     0.025 C 
ATOM     20  C   UNL     1      18.417 -30.928  25.707  1.00  0.00    -0.000 C 
ATOM     21  C   UNL     1      20.856 -31.818  24.450  1.00  0.00    -0.005 C 
ATOM     22  C   UNL     1      19.684 -30.235  25.964  1.00  0.00    -0.000 C 
ATOM     23  C   UNL     1      20.815 -30.566  25.326  1.00  0.00    -0.061 C 
ATOM     24  C   UNL     1      21.976 -31.670  23.373  1.00  0.00     0.014 C 
ATOM     25  C   UNL     1      21.197 -33.019  25.372  1.00  0.00     0.017 C 
ATOM     26  C   UNL     1      22.109 -29.916  25.774  1.00  0.00     0.063 C 
ATOM     27  C   UNL     1      23.318 -31.200  23.949  1.00  0.00     0.033 C 
ATOM     28  C   UNL     1      23.143 -29.840  24.641  1.00  0.00     0.118 C 
BRANCH  28  29
ATOM     29  O   UNL     1      24.374 -29.368  25.126  1.00  0.00    -0.393 OA
ATOM     30  H   UNL     1      24.851 -30.135  25.538  1.00  0.00     0.210 HD
ENDBRANCH  28  29
ENDBRANCH   1  10
TORSDOF 5
ENDMDL
MODEL 4
REMARK VINA RESULT:    -7.220      3.459      7.275
REMARK INTER + INTRA:         -10.606
REMARK INTER:                  -9.118
REMARK INTRA:                  -1.489
REMARK UNBOUND:                -1.487
REMARK SMILES CC(C)[C@@H](C)C=C[C@@H](C)[C@H]1CC[C@H]2C3=CC=C4C[C@@H](O)CC[C@]4(C)[C@@H]3CC[C@@]12C
REMARK SMILES IDX 8 1 9 2 7 3 6 4 4 5 5 6 2 7 1 8 3 9 10 10 11 11 28 12 12 13
REMARK SMILES IDX 13 14 27 15 29 16 14 17 26 18 25 19 15 20 23 21 16 22 17 23
REMARK SMILES IDX 22 24 24 25 18 26 21 27 19 28 20 29
REMARK H PARENT 20 30
REMARK Flexibility Score: inf
ROOT
ATOM      1  C   UNL     1      23.442 -29.031  23.342  1.00  0.00     0.012 C 
ATOM      2  C   UNL     1      24.923 -29.340  23.623  1.00  0.00     0.012 C 
ENDROOT
BRANCH   1   3
ATOM      3  C   UNL     1      23.205 -27.538  23.509  1.00  0.00    -0.028 C 
ATOM      4  C   UNL     1      22.546 -26.752  22.630  1.00  0.00    -0.028 C 
BRANCH   4   5
ATOM      5  C   UNL     1      21.936 -27.201  21.311  1.00  0.00     0.011 C 
ATOM      6  C   UNL     1      22.881 -26.820  20.162  1.00  0.00     0.012 C 
BRANCH   5   7
ATOM      7  C   UNL     1      20.500 -26.639  21.093  1.00  0.00    -0.011 C 
ATOM      8  C   UNL     1      20.518 -25.405  20.178  1.00  0.00     0.008 C 
ATOM      9  C   UNL     1      19.496 -27.675  20.557  1.00  0.00     0.008 C 
ENDBRANCH   5   7
ENDBRANCH   4   5
ENDBRANCH   1   3
BRANCH   1  10
ATOM     10  C   UNL     1      22.529 -29.957  24.216  1.00  0.00     0.002 C 
ATOM     11  C   UNL     1      21.584 -29.259  25.209  1.00  0.00     0.005 C 
ATOM     12  C   UNL     1      21.667 -31.036  23.501  1.00  0.00    -0.023 C 
ATOM     13  C   UNL     1      20.446 -30.250  25.486  1.00  0.00     0.009 C 
ATOM     14  C   UNL     1      20.763 -31.508  24.664  1.00  0.00     0.021 C 
ATOM     15  C   UNL     1      20.811 -30.449  22.333  1.00  0.00     0.008 C 
ATOM     16  C   UNL     1      22.545 -32.198  22.980  1.00  0.00     0.012 C 
ATOM     17  C   UNL     1      19.547 -32.265  24.167  1.00  0.00    -0.063 C 
ATOM     18  C   UNL     1      19.631 -31.343  21.897  1.00  0.00     0.009 C 
ATOM     19  C   UNL     1      18.693 -31.616  23.093  1.00  0.00     0.025 C 
ATOM     20  C   UNL     1      19.476 -33.588  24.381  1.00  0.00    -0.000 C 
ATOM     21  C   UNL     1      17.365 -32.427  22.794  1.00  0.00    -0.005 C 
ATOM     22  C   UNL     1      18.536 -34.444  23.649  1.00  0.00    -0.000 C 
ATOM     23  C   UNL     1      17.604 -33.937  22.832  1.00  0.00    -0.061 C 
ATOM     24  C   UNL     1      16.746 -32.027  21.418  1.00  0.00     0.014 C 
ATOM     25  C   UNL     1      16.351 -32.091  23.921  1.00  0.00     0.017 C 
ATOM     26  C   UNL     1      16.570 -34.880  22.249  1.00  0.00     0.063 C 
ATOM     27  C   UNL     1      15.566 -32.913  20.998  1.00  0.00     0.033 C 
ATOM     28  C   UNL     1      16.017 -34.379  20.907  1.00  0.00     0.118 C 
BRANCH  28  29
ATOM     29  O   UNL     1      14.962 -35.197  20.470  1.00  0.00    -0.393 OA
ATOM     30  H   UNL     1      15.201 -36.137  20.682  1.00  0.00     0.210 HD
ENDBRANCH  28  29
ENDBRANCH   1  10
TORSDOF 5
ENDMDL
MODEL 5
REMARK VINA RESULT:    -7.175      2.858      7.110
REMARK INTER + INTRA:         -10.550
REMARK INTER:                  -8.881
REMARK INTRA:                  -1.669
REMARK UNBOUND:                -1.487
REMARK SMILES CC(C)[C@@H](C)C=C[C@@H](C)[C@H]1CC[C@H]2C3=CC=C4C[C@@H](O)CC[C@]4(C)[C@@H]3CC[C@@]12C
REMARK SMILES IDX 8 1 9 2 7 3 6 4 4 5 5 6 2 7 1 8 3 9 10 10 11 11 28 12 12 13
REMARK SMILES IDX 13 14 27 15 29 16 14 17 26 18 25 19 15 20 23 21 16 22 17 23
REMARK SMILES IDX 22 24 24 25 18 26 21 27 19 28 20 29
REMARK H PARENT 20 30
REMARK Flexibility Score: inf
ROOT
ATOM      1  C   UNL     1      22.129 -30.685  24.267  1.00  0.00     0.012 C 
ATOM      2  C   UNL     1      23.457 -30.617  23.492  1.00  0.00     0.012 C 
ENDROOT
BRANCH   1   3
ATOM      3  C   UNL     1      22.423 -30.701  25.758  1.00  0.00    -0.028 C 
ATOM      4  C   UNL     1      21.811 -29.925  26.680  1.00  0.00    -0.028 C 
BRANCH   4   5
ATOM      5  C   UNL     1      20.734 -28.888  26.403  1.00  0.00     0.011 C 
ATOM      6  C   UNL     1      21.233 -27.509  26.856  1.00  0.00     0.012 C 
BRANCH   5   7
ATOM      7  C   UNL     1      19.368 -29.255  27.056  1.00  0.00    -0.011 C 
ATOM      8  C   UNL     1      19.225 -30.774  27.235  1.00  0.00     0.008 C 
ATOM      9  C   UNL     1      19.101 -28.542  28.394  1.00  0.00     0.008 C 
ENDBRANCH   5   7
ENDBRANCH   4   5
ENDBRANCH   1   3
BRANCH   1  10
ATOM     10  C   UNL     1      21.267 -31.883  23.741  1.00  0.00     0.002 C 
ATOM     11  C   UNL     1      20.914 -32.980  24.758  1.00  0.00     0.005 C 
ATOM     12  C   UNL     1      19.944 -31.568  22.985  1.00  0.00    -0.023 C 
ATOM     13  C   UNL     1      19.656 -33.674  24.221  1.00  0.00     0.009 C 
ATOM     14  C   UNL     1      19.315 -32.978  22.895  1.00  0.00     0.021 C 
ATOM     15  C   UNL     1      19.015 -30.591  23.774  1.00  0.00     0.008 C 
ATOM     16  C   UNL     1      20.229 -31.002  21.573  1.00  0.00     0.012 C 
ATOM     17  C   UNL     1      17.834 -32.919  22.572  1.00  0.00    -0.063 C 
ATOM     18  C   UNL     1      17.543 -30.600  23.312  1.00  0.00     0.009 C 
ATOM     19  C   UNL     1      16.953 -32.023  23.423  1.00  0.00     0.025 C 
ATOM     20  C   UNL     1      17.420 -33.323  21.360  1.00  0.00    -0.000 C 
ATOM     21  C   UNL     1      15.411 -32.190  23.093  1.00  0.00    -0.005 C 
ATOM     22  C   UNL     1      16.092 -32.981  20.839  1.00  0.00    -0.000 C 
ATOM     23  C   UNL     1      15.170 -32.370  21.594  1.00  0.00    -0.061 C 
ATOM     24  C   UNL     1      14.579 -30.979  23.618  1.00  0.00     0.014 C 
ATOM     25  C   UNL     1      14.923 -33.484  23.800  1.00  0.00     0.017 C 
ATOM     26  C   UNL     1      13.772 -32.209  21.030  1.00  0.00     0.063 C 
ATOM     27  C   UNL     1      13.113 -31.002  23.164  1.00  0.00     0.033 C 
ATOM     28  C   UNL     1      13.041 -30.999  21.629  1.00  0.00     0.118 C 
BRANCH  28  29
ATOM     29  O   UNL     1      11.705 -30.963  21.196  1.00  0.00    -0.393 OA
ATOM     30  H   UNL     1      11.602 -31.643  20.479  1.00  0.00     0.210 HD
ENDBRANCH  28  29
ENDBRANCH   1  10
TORSDOF 5
ENDMDL
MODEL 6
REMARK VINA RESULT:    -7.139      2.796      7.250
REMARK INTER + INTRA:         -10.505
REMARK INTER:                  -9.194
REMARK INTRA:                  -1.310
REMARK UNBOUND:                -1.487
REMARK SMILES CC(C)[C@@H](C)C=C[C@@H](C)[C@H]1CC[C@H]2C3=CC=C4C[C@@H](O)CC[C@]4(C)[C@@H]3CC[C@@]12C
REMARK SMILES IDX 8 1 9 2 7 3 6 4 4 5 5 6 2 7 1 8 3 9 10 10 11 11 28 12 12 13
REMARK SMILES IDX 13 14 27 15 29 16 14 17 26 18 25 19 15 20 23 21 16 22 17 23
REMARK SMILES IDX 22 24 24 25 18 26 21 27 19 28 20 29
REMARK H PARENT 20 30
REMARK Flexibility Score: inf
ROOT
ATOM      1  C   UNL     1      21.387 -31.881  23.828  1.00  0.00     0.012 C 
ATOM      2  C   UNL     1      22.475 -32.038  22.751  1.00  0.00     0.012 C 
ENDROOT
BRANCH   1   3
ATOM      3  C   UNL     1      22.017 -32.060  25.201  1.00  0.00    -0.028 C 
ATOM      4  C   UNL     1      21.927 -31.177  26.219  1.00  0.00    -0.028 C 
BRANCH   4   5
ATOM      5  C   UNL     1      21.199 -29.842  26.184  1.00  0.00     0.011 C 
ATOM      6  C   UNL     1      22.150 -28.763  25.647  1.00  0.00     0.012 C 
BRANCH   5   7
ATOM      7  C   UNL     1      20.599 -29.451  27.567  1.00  0.00    -0.011 C 
ATOM      8  C   UNL     1      19.096 -29.153  27.459  1.00  0.00     0.008 C 
ATOM      9  C   UNL     1      20.850 -30.488  28.675  1.00  0.00     0.008 C 
ENDBRANCH   5   7
ENDBRANCH   4   5
ENDBRANCH   1   3
BRANCH   1  10
ATOM     10  C   UNL     1      20.183 -32.833  23.513  1.00  0.00     0.002 C 
ATOM     11  C   UNL     1      19.679 -33.715  24.667  1.00  0.00     0.005 C 
ATOM     12  C   UNL     1      18.909 -32.225  22.860  1.00  0.00    -0.023 C 
ATOM     13  C   UNL     1      18.227 -34.076  24.327  1.00  0.00     0.009 C 
ATOM     14  C   UNL     1      17.925 -33.412  22.976  1.00  0.00     0.021 C 
ATOM     15  C   UNL     1      18.372 -30.977  23.630  1.00  0.00     0.008 C 
ATOM     16  C   UNL     1      19.161 -31.862  21.377  1.00  0.00     0.012 C 
ATOM     17  C   UNL     1      16.484 -32.975  22.792  1.00  0.00    -0.063 C 
ATOM     18  C   UNL     1      16.904 -30.617  23.315  1.00  0.00     0.009 C 
ATOM     19  C   UNL     1      15.979 -31.813  23.627  1.00  0.00     0.025 C 
ATOM     20  C   UNL     1      15.836 -33.337  21.673  1.00  0.00    -0.000 C 
ATOM     21  C   UNL     1      14.420 -31.577  23.467  1.00  0.00    -0.005 C 
ATOM     22  C   UNL     1      14.592 -32.686  21.250  1.00  0.00    -0.000 C 
ATOM     23  C   UNL     1      13.961 -31.793  22.024  1.00  0.00    -0.061 C 
ATOM     24  C   UNL     1      14.005 -30.149  23.942  1.00  0.00     0.014 C 
ATOM     25  C   UNL     1      13.697 -32.633  24.345  1.00  0.00     0.017 C 
ATOM     26  C   UNL     1      12.598 -31.297  21.583  1.00  0.00     0.063 C 
ATOM     27  C   UNL     1      12.541 -29.805  23.635  1.00  0.00     0.033 C 
ATOM     28  C   UNL     1      12.288 -29.893  22.123  1.00  0.00     0.118 C 
BRANCH  28  29
ATOM     29  O   UNL     1      10.967 -29.526  21.818  1.00  0.00    -0.393 OA
ATOM     30  H   UNL     1      10.485 -29.392  22.677  1.00  0.00     0.210 HD
ENDBRANCH  28  29
ENDBRANCH   1  10
TORSDOF 5
ENDMDL
MODEL 7
REMARK VINA RESULT:    -7.061      3.111      7.464
REMARK INTER + INTRA:         -10.405
REMARK INTER:                  -8.920
REMARK INTRA:                  -1.485
REMARK UNBOUND:                -1.487
REMARK SMILES CC(C)[C@@H](C)C=C[C@@H](C)[C@H]1CC[C@H]2C3=CC=C4C[C@@H](O)CC[C@]4(C)[C@@H]3CC[C@@]12C
REMARK SMILES IDX 8 1 9 2 7 3 6 4 4 5 5 6 2 7 1 8 3 9 10 10 11 11 28 12 12 13
REMARK SMILES IDX 13 14 27 15 29 16 14 17 26 18 25 19 15 20 23 21 16 22 17 23
REMARK SMILES IDX 22 24 24 25 18 26 21 27 19 28 20 29
REMARK H PARENT 20 30
REMARK Flexibility Score: inf
ROOT
ATOM      1  C   UNL     1      22.194 -30.126  25.894  1.00  0.00     0.012 C 
ATOM      2  C   UNL     1      23.150 -30.418  27.065  1.00  0.00     0.012 C 
ENDROOT
BRANCH   1   3
ATOM      3  C   UNL     1      21.985 -28.624  25.786  1.00  0.00    -0.028 C 
ATOM      4  C   UNL     1      22.130 -27.898  24.657  1.00  0.00    -0.028 C 
BRANCH   4   5
ATOM      5  C   UNL     1      22.542 -28.434  23.295  1.00  0.00     0.011 C 
ATOM      6  C   UNL     1      24.060 -28.275  23.128  1.00  0.00     0.012 C 
BRANCH   5   7
ATOM      7  C   UNL     1      21.756 -27.770  22.126  1.00  0.00    -0.011 C 
ATOM      8  C   UNL     1      22.674 -26.885  21.269  1.00  0.00     0.008 C 
ATOM      9  C   UNL     1      21.004 -28.768  21.229  1.00  0.00     0.008 C 
ENDBRANCH   5   7
ENDBRANCH   4   5
ENDBRANCH   1   3
BRANCH   1  10
ATOM     10  C   UNL     1      20.888 -30.976  26.049  1.00  0.00     0.002 C 
ATOM     11  C   UNL     1      19.569 -30.198  26.195  1.00  0.00     0.005 C 
ATOM     12  C   UNL     1      20.603 -32.094  25.005  1.00  0.00    -0.023 C 
ATOM     13  C   UNL     1      18.456 -31.153  25.747  1.00  0.00     0.009 C 
ATOM     14  C   UNL     1      19.147 -32.471  25.368  1.00  0.00     0.021 C 
ATOM     15  C   UNL     1      20.697 -31.584  23.532  1.00  0.00     0.008 C 
ATOM     16  C   UNL     1      21.550 -33.301  25.207  1.00  0.00     0.012 C 
ATOM     17  C   UNL     1      18.468 -33.247  24.256  1.00  0.00    -0.063 C 
ATOM     18  C   UNL     1      20.001 -32.493  22.497  1.00  0.00     0.009 C 
ATOM     19  C   UNL     1      18.508 -32.668  22.854  1.00  0.00     0.025 C 
ATOM     20  C   UNL     1      18.208 -34.551  24.443  1.00  0.00    -0.000 C 
ATOM     21  C   UNL     1      17.615 -33.484  21.829  1.00  0.00    -0.005 C 
ATOM     22  C   UNL     1      17.886 -35.447  23.327  1.00  0.00    -0.000 C 
ATOM     23  C   UNL     1      17.697 -34.990  22.083  1.00  0.00    -0.061 C 
ATOM     24  C   UNL     1      18.014 -33.177  20.352  1.00  0.00     0.014 C 
ATOM     25  C   UNL     1      16.141 -33.056  22.055  1.00  0.00     0.017 C 
ATOM     26  C   UNL     1      17.204 -35.961  21.028  1.00  0.00     0.063 C 
ATOM     27  C   UNL     1      17.307 -34.078  19.329  1.00  0.00     0.033 C 
ATOM     28  C   UNL     1      17.637 -35.551  19.613  1.00  0.00     0.118 C 
BRANCH  28  29
ATOM     29  O   UNL     1      17.044 -36.386  18.652  1.00  0.00    -0.393 OA
ATOM     30  H   UNL     1      17.771 -36.888  18.198  1.00  0.00     0.210 HD
ENDBRANCH  28  29
ENDBRANCH   1  10
TORSDOF 5
ENDMDL
MODEL 8
REMARK VINA RESULT:    -7.010      2.329      4.640
REMARK INTER + INTRA:         -10.341
REMARK INTER:                  -8.979
REMARK INTRA:                  -1.362
REMARK UNBOUND:                -1.487
REMARK SMILES CC(C)[C@@H](C)C=C[C@@H](C)[C@H]1CC[C@H]2C3=CC=C4C[C@@H](O)CC[C@]4(C)[C@@H]3CC[C@@]12C
REMARK SMILES IDX 8 1 9 2 7 3 6 4 4 5 5 6 2 7 1 8 3 9 10 10 11 11 28 12 12 13
REMARK SMILES IDX 13 14 27 15 29 16 14 17 26 18 25 19 15 20 23 21 16 22 17 23
REMARK SMILES IDX 22 24 24 25 18 26 21 27 19 28 20 29
REMARK H PARENT 20 30
REMARK Flexibility Score: inf
ROOT
ATOM      1  C   UNL     1      15.660 -31.830  21.603  1.00  0.00     0.012 C 
ATOM      2  C   UNL     1      14.565 -30.806  21.255  1.00  0.00     0.012 C 
ENDROOT
BRANCH   1   3
ATOM      3  C   UNL     1      15.005 -33.144  21.997  1.00  0.00    -0.028 C 
ATOM      4  C   UNL     1      15.397 -34.366  21.575  1.00  0.00    -0.028 C 
BRANCH   4   5
ATOM      5  C   UNL     1      16.546 -34.657  20.623  1.00  0.00     0.011 C 
ATOM      6  C   UNL     1      16.112 -34.319  19.189  1.00  0.00     0.012 C 
BRANCH   5   7
ATOM      7  C   UNL     1      17.067 -36.120  20.742  1.00  0.00    -0.011 C 
ATOM      8  C   UNL     1      17.421 -36.700  19.365  1.00  0.00     0.008 C 
ATOM      9  C   UNL     1      18.258 -36.285  21.703  1.00  0.00     0.008 C 
ENDBRANCH   5   7
ENDBRANCH   4   5
ENDBRANCH   1   3
BRANCH   1  10
ATOM     10  C   UNL     1      16.638 -31.223  22.666  1.00  0.00     0.002 C 
ATOM     11  C   UNL     1      16.521 -31.762  24.101  1.00  0.00     0.005 C 
ATOM     12  C   UNL     1      18.160 -31.203  22.347  1.00  0.00    -0.023 C 
ATOM     13  C   UNL     1      17.875 -31.495  24.771  1.00  0.00     0.009 C 
ATOM     14  C   UNL     1      18.743 -30.790  23.719  1.00  0.00     0.021 C 
ATOM     15  C   UNL     1      18.704 -32.600  21.907  1.00  0.00     0.008 C 
ATOM     16  C   UNL     1      18.491 -30.144  21.268  1.00  0.00     0.012 C 
ATOM     17  C   UNL     1      20.227 -31.088  23.818  1.00  0.00    -0.063 C 
ATOM     18  C   UNL     1      20.236 -32.751  22.016  1.00  0.00     0.009 C 
ATOM     19  C   UNL     1      20.700 -32.486  23.466  1.00  0.00     0.025 C 
ATOM     20  C   UNL     1      21.093 -30.062  23.825  1.00  0.00    -0.000 C 
ATOM     21  C   UNL     1      22.237 -32.710  23.780  1.00  0.00    -0.005 C 
ATOM     22  C   UNL     1      22.525 -30.251  23.567  1.00  0.00    -0.000 C 
ATOM     23  C   UNL     1      23.068 -31.470  23.448  1.00  0.00    -0.061 C 
ATOM     24  C   UNL     1      22.805 -33.945  23.013  1.00  0.00     0.014 C 
ATOM     25  C   UNL     1      22.367 -32.959  25.307  1.00  0.00     0.017 C 
ATOM     26  C   UNL     1      24.577 -31.577  23.351  1.00  0.00     0.063 C 
ATOM     27  C   UNL     1      24.327 -34.094  23.138  1.00  0.00     0.033 C 
ATOM     28  C   UNL     1      25.023 -32.837  22.594  1.00  0.00     0.118 C 
BRANCH  28  29
ATOM     29  O   UNL     1      26.419 -32.979  22.649  1.00  0.00    -0.393 OA
ATOM     30  H   UNL     1      26.813 -32.071  22.734  1.00  0.00     0.210 HD
ENDBRANCH  28  29
ENDBRANCH   1  10
TORSDOF 5
ENDMDL
MODEL 9
REMARK VINA RESULT:    -6.691      1.691      2.470
REMARK INTER + INTRA:          -9.938
REMARK INTER:                  -9.218
REMARK INTRA:                  -0.721
REMARK UNBOUND:                -1.487
REMARK SMILES CC(C)[C@@H](C)C=C[C@@H](C)[C@H]1CC[C@H]2C3=CC=C4C[C@@H](O)CC[C@]4(C)[C@@H]3CC[C@@]12C
REMARK SMILES IDX 8 1 9 2 7 3 6 4 4 5 5 6 2 7 1 8 3 9 10 10 11 11 28 12 12 13
REMARK SMILES IDX 13 14 27 15 29 16 14 17 26 18 25 19 15 20 23 21 16 22 17 23
REMARK SMILES IDX 22 24 24 25 18 26 21 27 19 28 20 29
REMARK H PARENT 20 30
REMARK Flexibility Score: inf
ROOT
ATOM      1  C   UNL     1      15.368 -33.765  21.481  1.00  0.00     0.012 C 
ATOM      2  C   UNL     1      15.019 -34.776  20.375  1.00  0.00     0.012 C 
ENDROOT
BRANCH   1   3
ATOM      3  C   UNL     1      15.480 -32.378  20.869  1.00  0.00    -0.028 C 
ATOM      4  C   UNL     1      14.745 -31.305  21.235  1.00  0.00    -0.028 C 
BRANCH   4   5
ATOM      5  C   UNL     1      13.666 -31.283  22.307  1.00  0.00     0.011 C 
ATOM      6  C   UNL     1      12.320 -30.925  21.661  1.00  0.00     0.012 C 
BRANCH   5   7
ATOM      7  C   UNL     1      14.015 -30.329  23.488  1.00  0.00    -0.011 C 
ATOM      8  C   UNL     1      15.271 -29.499  23.183  1.00  0.00     0.008 C 
ATOM      9  C   UNL     1      12.861 -29.400  23.905  1.00  0.00     0.008 C 
ENDBRANCH   5   7
ENDBRANCH   4   5
ENDBRANCH   1   3
BRANCH   1  10
ATOM     10  C   UNL     1      16.630 -34.254  22.270  1.00  0.00     0.002 C 
ATOM     11  C   UNL     1      17.653 -35.094  21.488  1.00  0.00     0.005 C 
ATOM     12  C   UNL     1      17.464 -33.203  23.059  1.00  0.00    -0.023 C 
ATOM     13  C   UNL     1      18.987 -34.948  22.230  1.00  0.00     0.009 C 
ATOM     14  C   UNL     1      18.708 -34.041  23.438  1.00  0.00     0.021 C 
ATOM     15  C   UNL     1      17.866 -31.972  22.185  1.00  0.00     0.008 C 
ATOM     16  C   UNL     1      16.712 -32.730  24.325  1.00  0.00     0.012 C 
ATOM     17  C   UNL     1      19.874 -33.167  23.858  1.00  0.00    -0.063 C 
ATOM     18  C   UNL     1      19.038 -31.144  22.753  1.00  0.00     0.009 C 
ATOM     19  C   UNL     1      20.287 -32.035  22.934  1.00  0.00     0.025 C 
ATOM     20  C   UNL     1      20.242 -33.155  25.149  1.00  0.00    -0.000 C 
ATOM     21  C   UNL     1      21.620 -31.318  23.404  1.00  0.00    -0.005 C 
ATOM     22  C   UNL     1      21.103 -32.105  25.703  1.00  0.00    -0.000 C 
ATOM     23  C   UNL     1      21.682 -31.180  24.926  1.00  0.00    -0.061 C 
ATOM     24  C   UNL     1      21.777 -29.913  22.742  1.00  0.00     0.014 C 
ATOM     25  C   UNL     1      22.808 -32.217  22.970  1.00  0.00     0.017 C 
ATOM     26  C   UNL     1      22.688 -30.239  25.558  1.00  0.00     0.063 C 
ATOM     27  C   UNL     1      22.953 -29.102  23.304  1.00  0.00     0.033 C 
ATOM     28  C   UNL     1      22.773 -28.897  24.815  1.00  0.00     0.118 C 
BRANCH  28  29
ATOM     29  O   UNL     1      23.813 -28.108  25.336  1.00  0.00    -0.393 OA
ATOM     30  H   UNL     1      23.400 -27.366  25.852  1.00  0.00     0.210 HD
ENDBRANCH  28  29
ENDBRANCH   1  10
TORSDOF 5
ENDMDL
