MODEL 1
REMARK VINA RESULT:    -5.204      0.000      0.000
REMARK INTER + INTRA:          -6.546
REMARK INTER:                  -6.421
REMARK INTRA:                  -0.125
REMARK UNBOUND:                -0.125
REMARK SMILES CCCCCC(=O)[O-]
REMARK SMILES IDX 4 1 5 2 6 3 7 4 8 5 3 6 2 7 1 8
REMARK H PARENT
REMARK Flexibility Score: inf
ROOT
ATOM      1  C   UNL     1      -5.725   6.356   3.980  1.00  0.00     0.006 C 
ENDROOT
BRANCH   1   2
ATOM      2  C   UNL     1      -5.194   5.234   4.878  1.00  0.00     0.053 C 
BRANCH   2   3
ATOM      3  C   UNL     1      -3.698   5.239   4.894  1.00  0.00     0.041 C 
ATOM      4  O   UNL     1      -3.063   6.238   4.464  1.00  0.00    -0.550 OA
ATOM      5  O   UNL     1      -3.005   4.161   5.430  1.00  0.00    -0.550 OA
ENDBRANCH   2   3
ENDBRANCH   1   2
BRANCH   1   6
ATOM      6  C   UNL     1      -6.984   5.908   3.228  1.00  0.00     0.000 C 
BRANCH   6   7
ATOM      7  C   UNL     1      -6.921   6.323   1.754  1.00  0.00    -0.003 C 
ATOM      8  C   UNL     1      -5.663   7.136   1.462  1.00  0.00     0.004 C 
ENDBRANCH   6   7
ENDBRANCH   1   6
TORSDOF 4
ENDMDL
MODEL 2
REMARK VINA RESULT:    -4.904      1.512      2.019
REMARK INTER + INTRA:          -6.175
REMARK INTER:                  -6.114
REMARK INTRA:                  -0.061
REMARK UNBOUND:                -0.125
REMARK SMILES CCCCCC(=O)[O-]
REMARK SMILES IDX 4 1 5 2 6 3 7 4 8 5 3 6 2 7 1 8
REMARK H PARENT
REMARK Flexibility Score: inf
ROOT
ATOM      1  C   UNL     1      -5.000   5.244   4.998  1.00  0.00     0.006 C 
ENDROOT
BRANCH   1   2
ATOM      2  C   UNL     1      -3.520   4.860   4.909  1.00  0.00     0.053 C 
BRANCH   2   3
ATOM      3  C   UNL     1      -3.295   3.501   5.492  1.00  0.00     0.041 C 
ATOM      4  O   UNL     1      -3.452   2.473   4.781  1.00  0.00    -0.550 OA
ATOM      5  O   UNL     1      -2.864   3.371   6.806  1.00  0.00    -0.550 OA
ENDBRANCH   2   3
ENDBRANCH   1   2
BRANCH   1   6
ATOM      6  C   UNL     1      -5.316   6.433   4.084  1.00  0.00     0.000 C 
BRANCH   6   7
ATOM      7  C   UNL     1      -6.422   6.080   3.083  1.00  0.00    -0.003 C 
ATOM      8  C   UNL     1      -6.183   6.753   1.735  1.00  0.00     0.004 C 
ENDBRANCH   6   7
ENDBRANCH   1   6
TORSDOF 4
ENDMDL
MODEL 3
REMARK VINA RESULT:    -4.874      9.772     10.358
REMARK INTER + INTRA:          -6.138
REMARK INTER:                  -5.995
REMARK INTRA:                  -0.143
REMARK UNBOUND:                -0.125
REMARK SMILES CCCCCC(=O)[O-]
REMARK SMILES IDX 4 1 5 2 6 3 7 4 8 5 3 6 2 7 1 8
REMARK H PARENT
REMARK Flexibility Score: inf
ROOT
ATOM      1  C   UNL     1      -3.313  -0.984  -3.521  1.00  0.00     0.006 C 
ENDROOT
BRANCH   1   2
ATOM      2  C   UNL     1      -4.483  -1.974  -3.525  1.00  0.00     0.053 C 
BRANCH   2   3
ATOM      3  C   UNL     1      -4.028  -3.323  -3.065  1.00  0.00     0.041 C 
ATOM      4  O   UNL     1      -4.840  -4.285  -3.022  1.00  0.00    -0.550 OA
ATOM      5  O   UNL     1      -2.696  -3.531  -2.730  1.00  0.00    -0.550 OA
ENDBRANCH   2   3
ENDBRANCH   1   2
BRANCH   1   6
ATOM      6  C   UNL     1      -3.647   0.258  -2.687  1.00  0.00     0.000 C 
BRANCH   6   7
ATOM      7  C   UNL     1      -4.933   0.049  -1.880  1.00  0.00    -0.003 C 
ATOM      8  C   UNL     1      -4.684   0.229  -0.386  1.00  0.00     0.004 C 
ENDBRANCH   6   7
ENDBRANCH   1   6
TORSDOF 4
ENDMDL
MODEL 4
REMARK VINA RESULT:    -4.834      1.610      2.287
REMARK INTER + INTRA:          -6.089
REMARK INTER:                  -6.038
REMARK INTRA:                  -0.050
REMARK UNBOUND:                -0.125
REMARK SMILES CCCCCC(=O)[O-]
REMARK SMILES IDX 4 1 5 2 6 3 7 4 8 5 3 6 2 7 1 8
REMARK H PARENT
REMARK Flexibility Score: inf
ROOT
ATOM      1  C   UNL     1      -6.818   5.898   3.607  1.00  0.00     0.006 C 
ENDROOT
BRANCH   1   2
ATOM      2  C   UNL     1      -5.398   6.466   3.513  1.00  0.00     0.053 C 
BRANCH   2   3
ATOM      3  C   UNL     1      -4.511   5.830   4.535  1.00  0.00     0.041 C 
ATOM      4  O   UNL     1      -4.993   5.039   5.389  1.00  0.00    -0.550 OA
ATOM      5  O   UNL     1      -3.143   6.071   4.515  1.00  0.00    -0.550 OA
ENDBRANCH   2   3
ENDBRANCH   1   2
BRANCH   1   6
ATOM      6  C   UNL     1      -7.559   6.047   2.273  1.00  0.00     0.000 C 
BRANCH   6   7
ATOM      7  C   UNL     1      -9.049   5.727   2.433  1.00  0.00    -0.003 C 
ATOM      8  C   UNL     1      -9.814   6.000   1.141  1.00  0.00     0.004 C 
ENDBRANCH   6   7
ENDBRANCH   1   6
TORSDOF 4
ENDMDL
MODEL 5
REMARK VINA RESULT:    -4.780      9.923     10.342
REMARK INTER + INTRA:          -6.022
REMARK INTER:                  -5.915
REMARK INTRA:                  -0.107
REMARK UNBOUND:                -0.125
REMARK SMILES CCCCCC(=O)[O-]
REMARK SMILES IDX 4 1 5 2 6 3 7 4 8 5 3 6 2 7 1 8
REMARK H PARENT
REMARK Flexibility Score: inf
ROOT
ATOM      1  C   UNL     1      -2.927  -0.770  -3.442  1.00  0.00     0.006 C 
ENDROOT
BRANCH   1   2
ATOM      2  C   UNL     1      -2.312  -1.744  -2.431  1.00  0.00     0.053 C 
BRANCH   2   3
ATOM      3  C   UNL     1      -2.029  -3.062  -3.080  1.00  0.00     0.041 C 
ATOM      4  O   UNL     1      -2.430  -4.130  -2.546  1.00  0.00    -0.550 OA
ATOM      5  O   UNL     1      -1.365  -3.109  -4.299  1.00  0.00    -0.550 OA
ENDBRANCH   2   3
ENDBRANCH   1   2
BRANCH   1   6
ATOM      6  C   UNL     1      -3.669   0.365  -2.728  1.00  0.00     0.000 C 
BRANCH   6   7
ATOM      7  C   UNL     1      -4.846  -0.177  -1.909  1.00  0.00    -0.003 C 
ATOM      8  C   UNL     1      -4.749   0.257  -0.449  1.00  0.00     0.004 C 
ENDBRANCH   6   7
ENDBRANCH   1   6
TORSDOF 4
ENDMDL
MODEL 6
REMARK VINA RESULT:    -4.558      3.839      4.962
REMARK INTER + INTRA:          -5.749
REMARK INTER:                  -5.629
REMARK INTRA:                  -0.119
REMARK UNBOUND:                -0.125
REMARK SMILES CCCCCC(=O)[O-]
REMARK SMILES IDX 4 1 5 2 6 3 7 4 8 5 3 6 2 7 1 8
REMARK H PARENT
REMARK Flexibility Score: inf
ROOT
ATOM      1  C   UNL     1      -7.018   6.312   1.810  1.00  0.00     0.006 C 
ENDROOT
BRANCH   1   2
ATOM      2  C   UNL     1      -7.910   5.738   2.915  1.00  0.00     0.053 C 
BRANCH   2   3
ATOM      3  C   UNL     1      -9.310   5.559   2.419  1.00  0.00     0.041 C 
ATOM      4  O   UNL     1     -10.142   4.895   3.093  1.00  0.00    -0.550 OA
ATOM      5  O   UNL     1      -9.711   6.167   1.236  1.00  0.00    -0.550 OA
ENDBRANCH   2   3
ENDBRANCH   1   2
BRANCH   1   6
ATOM      6  C   UNL     1      -5.639   6.694   2.359  1.00  0.00     0.000 C 
BRANCH   6   7
ATOM      7  C   UNL     1      -5.575   6.485   3.877  1.00  0.00    -0.003 C 
ATOM      8  C   UNL     1      -4.172   6.079   4.319  1.00  0.00     0.004 C 
ENDBRANCH   6   7
ENDBRANCH   1   6
TORSDOF 4
ENDMDL
MODEL 7
REMARK VINA RESULT:    -4.417      2.834      4.308
REMARK INTER + INTRA:          -5.575
REMARK INTER:                  -5.436
REMARK INTRA:                  -0.139
REMARK UNBOUND:                -0.125
REMARK SMILES CCCCCC(=O)[O-]
REMARK SMILES IDX 4 1 5 2 6 3 7 4 8 5 3 6 2 7 1 8
REMARK H PARENT
REMARK Flexibility Score: inf
ROOT
ATOM      1  C   UNL     1      -5.098   6.687   3.908  1.00  0.00     0.006 C 
ENDROOT
BRANCH   1   2
ATOM      2  C   UNL     1      -6.368   5.873   4.175  1.00  0.00     0.053 C 
BRANCH   2   3
ATOM      3  C   UNL     1      -7.253   5.871   2.969  1.00  0.00     0.041 C 
ATOM      4  O   UNL     1      -8.455   5.509   3.066  1.00  0.00    -0.550 OA
ATOM      5  O   UNL     1      -6.763   6.316   1.747  1.00  0.00    -0.550 OA
ENDBRANCH   2   3
ENDBRANCH   1   2
BRANCH   1   6
ATOM      6  C   UNL     1      -3.856   5.955   4.429  1.00  0.00     0.000 C 
BRANCH   6   7
ATOM      7  C   UNL     1      -4.248   4.699   5.214  1.00  0.00    -0.003 C 
ATOM      8  C   UNL     1      -3.152   3.639   5.143  1.00  0.00     0.004 C 
ENDBRANCH   6   7
ENDBRANCH   1   6
TORSDOF 4
ENDMDL
MODEL 8
REMARK VINA RESULT:    -4.269     11.573     12.015
REMARK INTER + INTRA:          -5.392
REMARK INTER:                  -5.299
REMARK INTRA:                  -0.093
REMARK UNBOUND:                -0.125
REMARK SMILES CCCCCC(=O)[O-]
REMARK SMILES IDX 4 1 5 2 6 3 7 4 8 5 3 6 2 7 1 8
REMARK H PARENT
REMARK Flexibility Score: inf
ROOT
ATOM      1  C   UNL     1      -2.662  -0.958  -3.927  1.00  0.00     0.006 C 
ENDROOT
BRANCH   1   2
ATOM      2  C   UNL     1      -2.961  -2.114  -2.967  1.00  0.00     0.053 C 
BRANCH   2   3
ATOM      3  C   UNL     1      -4.275  -2.746  -3.301  1.00  0.00     0.041 C 
ATOM      4  O   UNL     1      -5.111  -2.132  -4.017  1.00  0.00    -0.550 OA
ATOM      5  O   UNL     1      -4.558  -4.034  -2.863  1.00  0.00    -0.550 OA
ENDBRANCH   2   3
ENDBRANCH   1   2
BRANCH   1   6
ATOM      6  C   UNL     1      -1.393  -1.234  -4.740  1.00  0.00     0.000 C 
BRANCH   6   7
ATOM      7  C   UNL     1      -0.990  -2.710  -4.649  1.00  0.00    -0.003 C 
ATOM      8  C   UNL     1      -0.307  -3.177  -5.930  1.00  0.00     0.004 C 
ENDBRANCH   6   7
ENDBRANCH   1   6
TORSDOF 4
ENDMDL
MODEL 9
REMARK VINA RESULT:    -4.140     15.797     16.324
REMARK INTER + INTRA:          -5.233
REMARK INTER:                  -5.035
REMARK INTRA:                  -0.198
REMARK UNBOUND:                -0.125
REMARK SMILES CCCCCC(=O)[O-]
REMARK SMILES IDX 4 1 5 2 6 3 7 4 8 5 3 6 2 7 1 8
REMARK H PARENT
REMARK Flexibility Score: inf
ROOT
ATOM      1  C   UNL     1       4.629  -1.637  -6.502  1.00  0.00     0.006 C 
ENDROOT
BRANCH   1   2
ATOM      2  C   UNL     1       4.236  -1.549  -5.024  1.00  0.00     0.053 C 
BRANCH   2   3
ATOM      3  C   UNL     1       5.456  -1.525  -4.158  1.00  0.00     0.041 C 
ATOM      4  O   UNL     1       6.554  -1.115  -4.621  1.00  0.00    -0.550 OA
ATOM      5  O   UNL     1       5.371  -1.909  -2.826  1.00  0.00    -0.550 OA
ENDBRANCH   2   3
ENDBRANCH   1   2
BRANCH   1   6
ATOM      6  C   UNL     1       4.307  -3.023  -7.073  1.00  0.00     0.000 C 
BRANCH   6   7
ATOM      7  C   UNL     1       5.430  -3.512  -7.995  1.00  0.00    -0.003 C 
ATOM      8  C   UNL     1       6.774  -3.517  -7.273  1.00  0.00     0.004 C 
ENDBRANCH   6   7
ENDBRANCH   1   6
TORSDOF 4
ENDMDL
