MODEL 1
REMARK VINA RESULT:    -4.667      0.000      0.000
REMARK INTER + INTRA:          -4.667
REMARK INTER:                  -4.667
REMARK INTRA:                   0.000
REMARK UNBOUND:                 0.000
REMARK SMILES CC(C)=C1CC[C@@H](C)CC1=O
REMARK SMILES IDX 8 1 7 2 6 3 5 4 4 5 2 6 1 7 3 8 10 9 11 10 9 11
REMARK H PARENT
REMARK Flexibility Score: inf
ROOT
ATOM      1  C   UNL     1      90.828  38.621  27.103  1.00  0.00     0.008 C 
ATOM      2  C   UNL     1      89.573  39.499  26.966  1.00  0.00    -0.006 C 
ATOM      3  C   UNL     1      88.465  39.088  27.952  1.00  0.00     0.008 C 
ATOM      4  C   UNL     1      87.877  37.700  27.651  1.00  0.00     0.039 C 
ATOM      5  C   UNL     1      87.489  37.524  26.190  1.00  0.00    -0.006 C 
ATOM      6  C   UNL     1      86.463  36.699  25.825  1.00  0.00    -0.070 C 
ATOM      7  C   UNL     1      86.030  36.555  24.384  1.00  0.00     0.039 C 
ATOM      8  C   UNL     1      85.684  35.915  26.857  1.00  0.00     0.039 C 
ATOM      9  C   UNL     1      88.363  38.202  25.187  1.00  0.00     0.159 C 
ATOM     10  O   UNL     1      88.564  37.700  24.048  1.00  0.00    -0.295 OA
ATOM     11  C   UNL     1      89.032  39.501  25.529  1.00  0.00     0.084 C 
ENDROOT
TORSDOF 0
ENDMDL
MODEL 2
REMARK VINA RESULT:    -4.632      1.978      2.884
REMARK INTER + INTRA:          -4.632
REMARK INTER:                  -4.632
REMARK INTRA:                   0.000
REMARK UNBOUND:                 0.000
REMARK SMILES CC(C)=C1CC[C@@H](C)CC1=O
REMARK SMILES IDX 8 1 7 2 6 3 5 4 4 5 2 6 1 7 3 8 10 9 11 10 9 11
REMARK H PARENT
REMARK Flexibility Score: inf
ROOT
ATOM      1  C   UNL     1      89.371  40.544  26.008  1.00  0.00     0.008 C 
ATOM      2  C   UNL     1      89.857  39.099  26.203  1.00  0.00    -0.006 C 
ATOM      3  C   UNL     1      89.083  38.100  25.325  1.00  0.00     0.008 C 
ATOM      4  C   UNL     1      87.606  37.963  25.730  1.00  0.00     0.039 C 
ATOM      5  C   UNL     1      87.419  37.734  27.223  1.00  0.00    -0.006 C 
ATOM      6  C   UNL     1      86.358  37.019  27.702  1.00  0.00    -0.070 C 
ATOM      7  C   UNL     1      86.187  36.737  29.176  1.00  0.00     0.039 C 
ATOM      8  C   UNL     1      85.319  36.440  26.768  1.00  0.00     0.039 C 
ATOM      9  C   UNL     1      88.382  38.432  28.126  1.00  0.00     0.159 C 
ATOM     10  O   UNL     1      88.033  38.842  29.265  1.00  0.00    -0.295 OA
ATOM     11  C   UNL     1      89.795  38.671  27.677  1.00  0.00     0.084 C 
ENDROOT
TORSDOF 0
ENDMDL
MODEL 3
REMARK VINA RESULT:    -4.536      1.173      3.801
REMARK INTER + INTRA:          -4.536
REMARK INTER:                  -4.536
REMARK INTRA:                   0.000
REMARK UNBOUND:                 0.000
REMARK SMILES CC(C)=C1CC[C@@H](C)CC1=O
REMARK SMILES IDX 8 1 7 2 6 3 5 4 4 5 2 6 1 7 3 8 10 9 11 10 9 11
REMARK H PARENT
REMARK Flexibility Score: inf
ROOT
ATOM      1  C   UNL     1      85.380  37.492  23.539  1.00  0.00     0.008 C 
ATOM      2  C   UNL     1      86.376  36.424  24.022  1.00  0.00    -0.006 C 
ATOM      3  C   UNL     1      85.947  35.790  25.357  1.00  0.00     0.008 C 
ATOM      4  C   UNL     1      85.993  36.778  26.534  1.00  0.00     0.039 C 
ATOM      5  C   UNL     1      87.307  37.543  26.616  1.00  0.00    -0.006 C 
ATOM      6  C   UNL     1      87.801  37.973  27.815  1.00  0.00    -0.070 C 
ATOM      7  C   UNL     1      89.130  38.685  27.920  1.00  0.00     0.039 C 
ATOM      8  C   UNL     1      87.054  37.720  29.105  1.00  0.00     0.039 C 
ATOM      9  C   UNL     1      87.950  37.895  25.316  1.00  0.00     0.159 C 
ATOM     10  O   UNL     1      88.614  38.958  25.180  1.00  0.00    -0.295 OA
ATOM     11  C   UNL     1      87.802  36.984  24.132  1.00  0.00     0.084 C 
ENDROOT
TORSDOF 0
ENDMDL
MODEL 4
REMARK VINA RESULT:    -4.513      1.984      3.924
REMARK INTER + INTRA:          -4.513
REMARK INTER:                  -4.513
REMARK INTRA:                   0.000
REMARK UNBOUND:                 0.000
REMARK SMILES CC(C)=C1CC[C@@H](C)CC1=O
REMARK SMILES IDX 8 1 7 2 6 3 5 4 4 5 2 6 1 7 3 8 10 9 11 10 9 11
REMARK H PARENT
REMARK Flexibility Score: inf
ROOT
ATOM      1  C   UNL     1      86.672  35.645  29.544  1.00  0.00     0.008 C 
ATOM      2  C   UNL     1      85.923  36.885  29.028  1.00  0.00    -0.006 C 
ATOM      3  C   UNL     1      85.459  36.718  27.570  1.00  0.00     0.008 C 
ATOM      4  C   UNL     1      86.625  36.652  26.571  1.00  0.00     0.039 C 
ATOM      5  C   UNL     1      87.637  37.773  26.764  1.00  0.00    -0.006 C 
ATOM      6  C   UNL     1      88.358  38.264  25.713  1.00  0.00    -0.070 C 
ATOM      7  C   UNL     1      89.326  39.413  25.878  1.00  0.00     0.039 C 
ATOM      8  C   UNL     1      88.191  37.703  24.319  1.00  0.00     0.039 C 
ATOM      9  C   UNL     1      87.878  38.211  28.171  1.00  0.00     0.159 C 
ATOM     10  O   UNL     1      89.011  38.617  28.545  1.00  0.00    -0.295 OA
ATOM     11  C   UNL     1      86.764  38.161  29.176  1.00  0.00     0.084 C 
ENDROOT
TORSDOF 0
ENDMDL
MODEL 5
REMARK VINA RESULT:    -4.502      1.647      4.325
REMARK INTER + INTRA:          -4.502
REMARK INTER:                  -4.502
REMARK INTRA:                   0.000
REMARK UNBOUND:                 0.000
REMARK SMILES CC(C)=C1CC[C@@H](C)CC1=O
REMARK SMILES IDX 8 1 7 2 6 3 5 4 4 5 2 6 1 7 3 8 10 9 11 10 9 11
REMARK H PARENT
REMARK Flexibility Score: inf
ROOT
ATOM      1  C   UNL     1      86.818  35.092  24.327  1.00  0.00     0.008 C 
ATOM      2  C   UNL     1      86.137  36.465  24.448  1.00  0.00    -0.006 C 
ATOM      3  C   UNL     1      87.066  37.615  24.019  1.00  0.00     0.008 C 
ATOM      4  C   UNL     1      88.264  37.805  24.963  1.00  0.00     0.039 C 
ATOM      5  C   UNL     1      87.860  37.863  26.430  1.00  0.00    -0.006 C 
ATOM      6  C   UNL     1      88.584  38.587  27.335  1.00  0.00    -0.070 C 
ATOM      7  C   UNL     1      88.165  38.699  28.782  1.00  0.00     0.039 C 
ATOM      8  C   UNL     1      89.823  39.346  26.918  1.00  0.00     0.039 C 
ATOM      9  C   UNL     1      86.715  36.994  26.836  1.00  0.00     0.159 C 
ATOM     10  O   UNL     1      86.662  36.475  27.983  1.00  0.00    -0.295 OA
ATOM     11  C   UNL     1      85.604  36.714  25.867  1.00  0.00     0.084 C 
ENDROOT
TORSDOF 0
ENDMDL
MODEL 6
REMARK VINA RESULT:    -4.492      1.654      3.791
REMARK INTER + INTRA:          -4.492
REMARK INTER:                  -4.492
REMARK INTRA:                   0.000
REMARK UNBOUND:                 0.000
REMARK SMILES CC(C)=C1CC[C@@H](C)CC1=O
REMARK SMILES IDX 8 1 7 2 6 3 5 4 4 5 2 6 1 7 3 8 10 9 11 10 9 11
REMARK H PARENT
REMARK Flexibility Score: inf
ROOT
ATOM      1  C   UNL     1      84.731  37.851  28.993  1.00  0.00     0.008 C 
ATOM      2  C   UNL     1      85.777  36.733  28.851  1.00  0.00    -0.006 C 
ATOM      3  C   UNL     1      87.186  37.198  29.261  1.00  0.00     0.008 C 
ATOM      4  C   UNL     1      87.769  38.258  28.312  1.00  0.00     0.039 C 
ATOM      5  C   UNL     1      87.659  37.866  26.845  1.00  0.00    -0.006 C 
ATOM      6  C   UNL     1      88.576  38.294  25.928  1.00  0.00    -0.070 C 
ATOM      7  C   UNL     1      88.512  37.870  24.479  1.00  0.00     0.039 C 
ATOM      8  C   UNL     1      89.728  39.187  26.331  1.00  0.00     0.039 C 
ATOM      9  C   UNL     1      86.438  37.100  26.454  1.00  0.00     0.159 C 
ATOM     10  O   UNL     1      85.915  37.237  25.316  1.00  0.00    -0.295 OA
ATOM     11  C   UNL     1      85.801  36.153  27.429  1.00  0.00     0.084 C 
ENDROOT
TORSDOF 0
ENDMDL
MODEL 7
REMARK VINA RESULT:    -4.209      1.790      3.374
REMARK INTER + INTRA:          -4.209
REMARK INTER:                  -4.209
REMARK INTRA:                   0.000
REMARK UNBOUND:                 0.000
REMARK SMILES CC(C)=C1CC[C@@H](C)CC1=O
REMARK SMILES IDX 8 1 7 2 6 3 5 4 4 5 2 6 1 7 3 8 10 9 11 10 9 11
REMARK H PARENT
REMARK Flexibility Score: inf
ROOT
ATOM      1  C   UNL     1      88.963  36.333  23.951  1.00  0.00     0.008 C 
ATOM      2  C   UNL     1      88.026  37.548  24.036  1.00  0.00    -0.006 C 
ATOM      3  C   UNL     1      88.606  38.671  24.914  1.00  0.00     0.008 C 
ATOM      4  C   UNL     1      88.707  38.283  26.398  1.00  0.00     0.039 C 
ATOM      5  C   UNL     1      87.417  37.686  26.944  1.00  0.00    -0.006 C 
ATOM      6  C   UNL     1      87.071  37.831  28.258  1.00  0.00    -0.070 C 
ATOM      7  C   UNL     1      85.769  37.293  28.804  1.00  0.00     0.039 C 
ATOM      8  C   UNL     1      87.964  38.575  29.225  1.00  0.00     0.039 C 
ATOM      9  C   UNL     1      86.626  36.842  26.000  1.00  0.00     0.159 C 
ATOM     10  O   UNL     1      85.957  35.855  26.407  1.00  0.00    -0.295 OA
ATOM     11  C   UNL     1      86.626  37.155  24.532  1.00  0.00     0.084 C 
ENDROOT
TORSDOF 0
ENDMDL
MODEL 8
REMARK VINA RESULT:    -3.928      3.718      6.591
REMARK INTER + INTRA:          -3.928
REMARK INTER:                  -3.928
REMARK INTRA:                   0.000
REMARK UNBOUND:                 0.000
REMARK SMILES CC(C)=C1CC[C@@H](C)CC1=O
REMARK SMILES IDX 8 1 7 2 6 3 5 4 4 5 2 6 1 7 3 8 10 9 11 10 9 11
REMARK H PARENT
REMARK Flexibility Score: inf
ROOT
ATOM      1  C   UNL     1      81.675  37.403  20.989  1.00  0.00     0.008 C 
ATOM      2  C   UNL     1      82.985  38.107  20.600  1.00  0.00    -0.006 C 
ATOM      3  C   UNL     1      84.084  37.108  20.196  1.00  0.00     0.008 C 
ATOM      4  C   UNL     1      84.565  36.236  21.367  1.00  0.00     0.039 C 
ATOM      5  C   UNL     1      84.904  37.047  22.610  1.00  0.00    -0.006 C 
ATOM      6  C   UNL     1      85.859  36.625  23.491  1.00  0.00    -0.070 C 
ATOM      7  C   UNL     1      86.246  37.445  24.700  1.00  0.00     0.039 C 
ATOM      8  C   UNL     1      86.605  35.328  23.274  1.00  0.00     0.039 C 
ATOM      9  C   UNL     1      84.057  38.249  22.868  1.00  0.00     0.159 C 
ATOM     10  O   UNL     1      83.793  38.625  24.042  1.00  0.00    -0.295 OA
ATOM     11  C   UNL     1      83.490  39.030  21.718  1.00  0.00     0.084 C 
ENDROOT
TORSDOF 0
ENDMDL
MODEL 9
REMARK VINA RESULT:    -3.863      5.237      6.722
REMARK INTER + INTRA:          -3.863
REMARK INTER:                  -3.863
REMARK INTRA:                   0.000
REMARK UNBOUND:                 0.000
REMARK SMILES CC(C)=C1CC[C@@H](C)CC1=O
REMARK SMILES IDX 8 1 7 2 6 3 5 4 4 5 2 6 1 7 3 8 10 9 11 10 9 11
REMARK H PARENT
REMARK Flexibility Score: inf
ROOT
ATOM      1  C   UNL     1      85.857  32.511  32.703  1.00  0.00     0.008 C 
ATOM      2  C   UNL     1      86.942  33.561  32.992  1.00  0.00    -0.006 C 
ATOM      3  C   UNL     1      86.344  34.927  33.373  1.00  0.00     0.008 C 
ATOM      4  C   UNL     1      85.596  35.601  32.212  1.00  0.00     0.039 C 
ATOM      5  C   UNL     1      86.404  35.628  30.922  1.00  0.00    -0.006 C 
ATOM      6  C   UNL     1      86.243  36.630  30.007  1.00  0.00    -0.070 C 
ATOM      7  C   UNL     1      87.076  36.700  28.748  1.00  0.00     0.039 C 
ATOM      8  C   UNL     1      85.245  37.743  30.232  1.00  0.00     0.039 C 
ATOM      9  C   UNL     1      87.280  34.446  30.665  1.00  0.00     0.159 C 
ATOM     10  O   UNL     1      87.496  34.033  29.494  1.00  0.00    -0.295 OA
ATOM     11  C   UNL     1      87.913  33.716  31.813  1.00  0.00     0.084 C 
ENDROOT
TORSDOF 0
ENDMDL
