MODEL 1
REMARK VINA RESULT:    -2.869      0.000      0.000
REMARK INTER + INTRA:          -3.237
REMARK INTER:                  -3.205
REMARK INTRA:                  -0.033
REMARK UNBOUND:                -0.033
REMARK SMILES CCCC(=O)[O-]
REMARK SMILES IDX 3 1 4 2 5 3 6 4 2 5 1 6
REMARK H PARENT
REMARK Flexibility Score: inf
ROOT
ATOM      1  C   UNL     1      19.964  20.240  47.783  1.00  0.00     0.052 C 
ENDROOT
BRANCH   1   2
ATOM      2  C   UNL     1      18.533  20.400  47.372  1.00  0.00     0.041 C 
ATOM      3  O   UNL     1      17.967  21.520  47.473  1.00  0.00    -0.550 OA
ATOM      4  O   UNL     1      17.815  19.305  46.910  1.00  0.00    -0.550 OA
ENDBRANCH   1   2
BRANCH   1   5
ATOM      5  C   UNL     1      20.744  19.357  46.801  1.00  0.00     0.003 C 
ATOM      6  C   UNL     1      21.408  18.167  47.491  1.00  0.00     0.004 C 
ENDBRANCH   1   5
TORSDOF 2
ENDMDL
MODEL 2
REMARK VINA RESULT:    -2.812      1.910      2.342
REMARK INTER + INTRA:          -3.173
REMARK INTER:                  -3.162
REMARK INTRA:                  -0.011
REMARK UNBOUND:                -0.033
REMARK SMILES CCCC(=O)[O-]
REMARK SMILES IDX 3 1 4 2 5 3 6 4 2 5 1 6
REMARK H PARENT
REMARK Flexibility Score: inf
ROOT
ATOM      1  C   UNL     1      18.552  20.411  47.581  1.00  0.00     0.052 C 
ENDROOT
BRANCH   1   2
ATOM      2  C   UNL     1      18.722  21.142  46.285  1.00  0.00     0.041 C 
ATOM      3  O   UNL     1      18.036  22.170  46.044  1.00  0.00    -0.550 OA
ATOM      4  O   UNL     1      19.611  20.668  45.330  1.00  0.00    -0.550 OA
ENDBRANCH   1   2
BRANCH   1   5
ATOM      5  C   UNL     1      19.879  20.279  48.339  1.00  0.00     0.003 C 
ATOM      6  C   UNL     1      19.821  20.916  49.727  1.00  0.00     0.004 C 
ENDBRANCH   1   5
TORSDOF 2
ENDMDL
MODEL 3
REMARK VINA RESULT:    -2.807      1.514      1.933
REMARK INTER + INTRA:          -3.168
REMARK INTER:                  -3.131
REMARK INTRA:                  -0.037
REMARK UNBOUND:                -0.033
REMARK SMILES CCCC(=O)[O-]
REMARK SMILES IDX 3 1 4 2 5 3 6 4 2 5 1 6
REMARK H PARENT
REMARK Flexibility Score: inf
ROOT
ATOM      1  C   UNL     1      21.023  19.125  46.844  1.00  0.00     0.052 C 
ENDROOT
BRANCH   1   2
ATOM      2  C   UNL     1      19.989  20.100  47.316  1.00  0.00     0.041 C 
ATOM      3  O   UNL     1      19.521  20.959  46.524  1.00  0.00    -0.550 OA
ATOM      4  O   UNL     1      19.567  20.082  48.639  1.00  0.00    -0.550 OA
ENDBRANCH   1   2
BRANCH   1   5
ATOM      5  C   UNL     1      21.074  17.875  47.731  1.00  0.00     0.003 C 
ATOM      6  C   UNL     1      20.295  16.705  47.131  1.00  0.00     0.004 C 
ENDBRANCH   1   5
TORSDOF 2
ENDMDL
MODEL 4
REMARK VINA RESULT:    -2.796      1.519      2.107
REMARK INTER + INTRA:          -3.155
REMARK INTER:                  -3.151
REMARK INTRA:                  -0.005
REMARK UNBOUND:                -0.033
REMARK SMILES CCCC(=O)[O-]
REMARK SMILES IDX 3 1 4 2 5 3 6 4 2 5 1 6
REMARK H PARENT
REMARK Flexibility Score: inf
ROOT
ATOM      1  C   UNL     1      21.061  19.163  46.857  1.00  0.00     0.052 C 
ENDROOT
BRANCH   1   2
ATOM      2  C   UNL     1      19.905  19.877  46.226  1.00  0.00     0.041 C 
ATOM      3  O   UNL     1      19.748  19.845  44.977  1.00  0.00    -0.550 OA
ATOM      4  O   UNL     1      19.023  20.604  47.013  1.00  0.00    -0.550 OA
ENDBRANCH   1   2
BRANCH   1   5
ATOM      5  C   UNL     1      20.671  17.760  47.337  1.00  0.00     0.003 C 
ATOM      6  C   UNL     1      21.816  17.056  48.065  1.00  0.00     0.004 C 
ENDBRANCH   1   5
TORSDOF 2
ENDMDL
MODEL 5
REMARK VINA RESULT:    -2.749      2.092      2.861
REMARK INTER + INTRA:          -3.103
REMARK INTER:                  -3.081
REMARK INTRA:                  -0.022
REMARK UNBOUND:                -0.033
REMARK SMILES CCCC(=O)[O-]
REMARK SMILES IDX 3 1 4 2 5 3 6 4 2 5 1 6
REMARK H PARENT
REMARK Flexibility Score: inf
ROOT
ATOM      1  C   UNL     1      19.117  20.286  47.564  1.00  0.00     0.052 C 
ENDROOT
BRANCH   1   2
ATOM      2  C   UNL     1      19.966  19.986  46.367  1.00  0.00     0.041 C 
ATOM      3  O   UNL     1      21.037  19.339  46.497  1.00  0.00    -0.550 OA
ATOM      4  O   UNL     1      19.589  20.451  45.114  1.00  0.00    -0.550 OA
ENDBRANCH   1   2
BRANCH   1   5
ATOM      5  C   UNL     1      19.839  19.944  48.874  1.00  0.00     0.003 C 
ATOM      6  C   UNL     1      19.809  21.101  49.872  1.00  0.00     0.004 C 
ENDBRANCH   1   5
TORSDOF 2
ENDMDL
MODEL 6
REMARK VINA RESULT:    -2.717      2.529      2.792
REMARK INTER + INTRA:          -3.067
REMARK INTER:                  -3.061
REMARK INTRA:                  -0.007
REMARK UNBOUND:                -0.033
REMARK SMILES CCCC(=O)[O-]
REMARK SMILES IDX 3 1 4 2 5 3 6 4 2 5 1 6
REMARK H PARENT
REMARK Flexibility Score: inf
ROOT
ATOM      1  C   UNL     1      19.390  19.939  45.017  1.00  0.00     0.052 C 
ENDROOT
BRANCH   1   2
ATOM      2  C   UNL     1      18.600  21.101  44.497  1.00  0.00     0.041 C 
ATOM      3  O   UNL     1      18.677  21.426  43.284  1.00  0.00    -0.550 OA
ATOM      4  O   UNL     1      17.806  21.845  45.360  1.00  0.00    -0.550 OA
ENDBRANCH   1   2
BRANCH   1   5
ATOM      5  C   UNL     1      19.920  20.199  46.433  1.00  0.00     0.003 C 
ATOM      6  C   UNL     1      20.873  19.102  46.906  1.00  0.00     0.004 C 
ENDBRANCH   1   5
TORSDOF 2
ENDMDL
MODEL 7
REMARK VINA RESULT:    -2.659      2.262      2.614
REMARK INTER + INTRA:          -3.003
REMARK INTER:                  -2.997
REMARK INTRA:                  -0.006
REMARK UNBOUND:                -0.033
REMARK SMILES CCCC(=O)[O-]
REMARK SMILES IDX 3 1 4 2 5 3 6 4 2 5 1 6
REMARK H PARENT
REMARK Flexibility Score: inf
ROOT
ATOM      1  C   UNL     1      19.236  20.171  47.681  1.00  0.00     0.052 C 
ENDROOT
BRANCH   1   2
ATOM      2  C   UNL     1      19.912  20.167  49.018  1.00  0.00     0.041 C 
ATOM      3  O   UNL     1      19.773  21.144  49.799  1.00  0.00    -0.550 OA
ATOM      4  O   UNL     1      20.720  19.100  49.386  1.00  0.00    -0.550 OA
ENDBRANCH   1   2
BRANCH   1   5
ATOM      5  C   UNL     1      20.232  19.935  46.539  1.00  0.00     0.003 C 
ATOM      6  C   UNL     1      19.545  19.857  45.176  1.00  0.00     0.004 C 
ENDBRANCH   1   5
TORSDOF 2
ENDMDL
MODEL 8
REMARK VINA RESULT:    -2.612      2.797      3.462
REMARK INTER + INTRA:          -2.950
REMARK INTER:                  -2.913
REMARK INTRA:                  -0.037
REMARK UNBOUND:                -0.033
REMARK SMILES CCCC(=O)[O-]
REMARK SMILES IDX 3 1 4 2 5 3 6 4 2 5 1 6
REMARK H PARENT
REMARK Flexibility Score: inf
ROOT
ATOM      1  C   UNL     1      21.084  19.114  46.850  1.00  0.00     0.052 C 
ENDROOT
BRANCH   1   2
ATOM      2  C   UNL     1      20.966  17.788  47.538  1.00  0.00     0.041 C 
ATOM      3  O   UNL     1      21.467  17.622  48.681  1.00  0.00    -0.550 OA
ATOM      4  O   UNL     1      20.333  16.728  46.903  1.00  0.00    -0.550 OA
ENDBRANCH   1   2
BRANCH   1   5
ATOM      5  C   UNL     1      19.710  19.705  46.513  1.00  0.00     0.003 C 
ATOM      6  C   UNL     1      19.477  19.812  45.006  1.00  0.00     0.004 C 
ENDBRANCH   1   5
TORSDOF 2
ENDMDL
MODEL 9
REMARK VINA RESULT:    -2.577      2.242      3.284
REMARK INTER + INTRA:          -2.911
REMARK INTER:                  -2.842
REMARK INTRA:                  -0.069
REMARK UNBOUND:                -0.033
REMARK SMILES CCCC(=O)[O-]
REMARK SMILES IDX 3 1 4 2 5 3 6 4 2 5 1 6
REMARK H PARENT
REMARK Flexibility Score: inf
ROOT
ATOM      1  C   UNL     1      20.649  19.469  46.677  1.00  0.00     0.052 C 
ENDROOT
BRANCH   1   2
ATOM      2  C   UNL     1      20.665  18.090  47.260  1.00  0.00     0.041 C 
ATOM      3  O   UNL     1      19.675  17.327  47.108  1.00  0.00    -0.550 OA
ATOM      4  O   UNL     1      21.758  17.659  48.000  1.00  0.00    -0.550 OA
ENDBRANCH   1   2
BRANCH   1   5
ATOM      5  C   UNL     1      19.591  20.358  47.344  1.00  0.00     0.003 C 
ATOM      6  C   UNL     1      19.813  20.494  48.850  1.00  0.00     0.004 C 
ENDBRANCH   1   5
TORSDOF 2
ENDMDL
