MODEL 1
REMARK VINA RESULT:    -3.541      0.000      0.000
REMARK INTER + INTRA:          -4.883
REMARK INTER:                  -4.990
REMARK INTRA:                   0.107
REMARK UNBOUND:                 0.107
REMARK SMILES CC1=CCC(=C(C)C)C(=O)CC(C)=CCC1
REMARK SMILES IDX 12 1 14 2 13 3 15 4 16 5 2 6 1 7 3 8 11 10 9 11 10 12 5 13
REMARK SMILES IDX 6 14 7 15 8 16 4 17
REMARK H PARENT
REMARK Flexibility Score: 60.00
ROOT
ATOM      1  C   UNL     1       3.403  21.787   6.771  1.00  0.00    -0.070 C 
ATOM      2  C   UNL     1       2.756  22.959   7.000  1.00  0.00    -0.027 C 
ATOM      3  C   UNL     1       3.160  20.662   7.749  1.00  0.00     0.039 C 
ENDROOT
BRANCH   2   4
ATOM      4  C   UNL     1       2.926  24.239   6.217  1.00  0.00     0.032 C 
BRANCH   4   5
ATOM      5  C   UNL     1       2.061  24.296   4.951  1.00  0.00     0.034 C 
BRANCH   5   6
ATOM      6  C   UNL     1       2.879  24.805   3.780  1.00  0.00    -0.077 C 
ATOM      7  C   UNL     1       3.417  26.211   3.842  1.00  0.00     0.039 C 
ATOM      8  C   UNL     1       3.215  24.038   2.715  1.00  0.00    -0.023 CG0
ATOM      9  G   UNL     1       2.758  22.619   2.473  1.00  0.00     0.000 G0
ENDBRANCH   5   6
ENDBRANCH   4   5
ENDBRANCH   2   4
BRANCH   1  10
ATOM     10  C   UNL     1       4.288  21.513   5.559  1.00  0.00     0.111 C 
BRANCH  10  11
ATOM     11  C   UNL     1       3.537  21.004   4.355  1.00  0.00     0.163 C 
ATOM     12  O   UNL     1       2.670  20.107   4.542  1.00  0.00    -0.294 OA
BRANCH  11  13
ATOM     13  C   UNL     1       3.743  21.562   2.977  1.00  0.00    -0.002 C 
ATOM     14  C   UNL     1       4.821  21.182   2.221  1.00  0.00    -0.069 C 
ATOM     15  C   UNL     1       5.105  21.802   0.870  1.00  0.00     0.039 C 
ATOM     16  C   UNL     1       5.762  20.087   2.672  1.00  0.00     0.039 C 
BRANCH  13  17
ATOM     17  C   UNL     1       2.757  22.606   2.452  1.00  0.00     0.066 CG0
ATOM     18  G   UNL     1       3.220  24.017   2.730  1.00  0.00     0.000 G0
ENDBRANCH  13  17
ENDBRANCH  11  13
ENDBRANCH  10  11
ENDBRANCH   1  10
TORSDOF 0
ENDMDL
MODEL 2
REMARK VINA RESULT:    -3.338      1.998      4.010
REMARK INTER + INTRA:          -4.598
REMARK INTER:                  -4.834
REMARK INTRA:                   0.236
REMARK UNBOUND:                 0.107
REMARK SMILES CC1=CCC(=C(C)C)C(=O)CC(C)=CCC1
REMARK SMILES IDX 12 1 14 2 13 3 15 4 16 5 2 6 1 7 3 8 11 10 9 11 10 12 5 13
REMARK SMILES IDX 6 14 7 15 8 16 4 17
REMARK H PARENT
REMARK Flexibility Score: 60.00
ROOT
ATOM      1  C   UNL     1       5.734  20.237   4.043  1.00  0.00    -0.070 C 
ATOM      2  C   UNL     1       5.757  20.230   2.685  1.00  0.00    -0.027 C 
ATOM      3  C   UNL     1       6.072  18.944   4.746  1.00  0.00     0.039 C 
ENDROOT
BRANCH   2   4
ATOM      4  C   UNL     1       5.359  21.371   1.781  1.00  0.00     0.032 C 
BRANCH   4   5
ATOM      5  C   UNL     1       3.927  21.249   1.243  1.00  0.00     0.034 C 
BRANCH   5   6
ATOM      6  C   UNL     1       3.019  22.244   1.939  1.00  0.00    -0.077 C 
ATOM      7  C   UNL     1       2.923  23.639   1.376  1.00  0.00     0.039 C 
ATOM      8  C   UNL     1       2.230  21.924   2.992  1.00  0.00    -0.023 CG0
ATOM      9  G   UNL     1       2.202  20.589   3.698  1.00  0.00     0.000 G0
ENDBRANCH   5   6
ENDBRANCH   4   5
ENDBRANCH   2   4
BRANCH   1  10
ATOM     10  C   UNL     1       5.469  21.474   4.895  1.00  0.00     0.111 C 
BRANCH  10  11
ATOM     11  C   UNL     1       4.016  21.680   5.240  1.00  0.00     0.163 C 
ATOM     12  O   UNL     1       3.672  22.814   5.673  1.00  0.00    -0.294 OA
BRANCH  11  13
ATOM     13  C   UNL     1       2.976  20.618   5.034  1.00  0.00    -0.002 C 
ATOM     14  C   UNL     1       2.754  19.660   5.989  1.00  0.00    -0.069 C 
ATOM     15  C   UNL     1       1.782  18.522   5.764  1.00  0.00     0.039 C 
ATOM     16  C   UNL     1       3.431  19.712   7.340  1.00  0.00     0.039 C 
BRANCH  13  17
ATOM     17  C   UNL     1       2.206  20.590   3.714  1.00  0.00     0.066 CG0
ATOM     18  G   UNL     1       2.237  21.925   3.008  1.00  0.00     0.000 G0
ENDBRANCH  13  17
ENDBRANCH  11  13
ENDBRANCH  10  11
ENDBRANCH   1  10
TORSDOF 0
ENDMDL
MODEL 3
REMARK VINA RESULT:    -3.253      1.548      3.661
REMARK INTER + INTRA:          -4.477
REMARK INTER:                  -4.766
REMARK INTRA:                   0.289
REMARK UNBOUND:                 0.107
REMARK SMILES CC1=CCC(=C(C)C)C(=O)CC(C)=CCC1
REMARK SMILES IDX 12 1 14 2 13 3 15 4 16 5 2 6 1 7 3 8 11 10 9 11 10 12 5 13
REMARK SMILES IDX 6 14 7 15 8 16 4 17
REMARK H PARENT
REMARK Flexibility Score: 60.00
ROOT
ATOM      1  C   UNL     1       2.852  24.247   4.252  1.00  0.00    -0.070 C 
ATOM      2  C   UNL     1       3.566  24.269   5.407  1.00  0.00    -0.027 C 
ATOM      3  C   UNL     1       3.268  25.206   3.164  1.00  0.00     0.039 C 
ENDROOT
BRANCH   2   4
ATOM      4  C   UNL     1       3.267  23.475   6.656  1.00  0.00     0.032 C 
BRANCH   4   5
ATOM      5  C   UNL     1       4.347  22.439   6.990  1.00  0.00     0.034 C 
BRANCH   5   6
ATOM      6  C   UNL     1       3.854  21.043   6.662  1.00  0.00    -0.077 C 
ATOM      7  C   UNL     1       3.167  20.254   7.746  1.00  0.00     0.039 C 
ATOM      8  C   UNL     1       3.930  20.496   5.425  1.00  0.00    -0.023 CG0
ATOM      9  G   UNL     1       4.593  21.127   4.223  1.00  0.00     0.000 G0
ENDBRANCH   5   6
ENDBRANCH   4   5
ENDBRANCH   2   4
BRANCH   1  10
ATOM     10  C   UNL     1       1.717  23.269   3.958  1.00  0.00     0.111 C 
BRANCH  10  11
ATOM     11  C   UNL     1       2.183  21.891   3.564  1.00  0.00     0.163 C 
ATOM     12  O   UNL     1       1.324  20.968   3.541  1.00  0.00    -0.294 OA
BRANCH  11  13
ATOM     13  C   UNL     1       3.596  21.601   3.149  1.00  0.00    -0.002 C 
ATOM     14  C   UNL     1       3.973  21.695   1.835  1.00  0.00    -0.069 C 
ATOM     15  C   UNL     1       5.364  21.313   1.376  1.00  0.00     0.039 C 
ATOM     16  C   UNL     1       3.036  22.232   0.775  1.00  0.00     0.039 C 
BRANCH  13  17
ATOM     17  C   UNL     1       4.594  21.142   4.211  1.00  0.00     0.066 CG0
ATOM     18  G   UNL     1       3.911  20.513   5.402  1.00  0.00     0.000 G0
ENDBRANCH  13  17
ENDBRANCH  11  13
ENDBRANCH  10  11
ENDBRANCH   1  10
TORSDOF 0
ENDMDL
MODEL 4
REMARK VINA RESULT:    -3.246      1.403      2.280
REMARK INTER + INTRA:          -4.467
REMARK INTER:                  -4.673
REMARK INTRA:                   0.206
REMARK UNBOUND:                 0.107
REMARK SMILES CC1=CCC(=C(C)C)C(=O)CC(C)=CCC1
REMARK SMILES IDX 12 1 14 2 13 3 15 4 16 5 2 6 1 7 3 8 11 10 9 11 10 12 5 13
REMARK SMILES IDX 6 14 7 15 8 16 4 17
REMARK H PARENT
REMARK Flexibility Score: 60.00
ROOT
ATOM      1  C   UNL     1       5.190  21.059   5.183  1.00  0.00    -0.070 C 
ATOM      2  C   UNL     1       5.302  22.047   6.108  1.00  0.00    -0.027 C 
ATOM      3  C   UNL     1       6.423  20.722   4.380  1.00  0.00     0.039 C 
ENDROOT
BRANCH   2   4
ATOM      4  C   UNL     1       4.182  22.613   6.947  1.00  0.00     0.032 C 
BRANCH   4   5
ATOM      5  C   UNL     1       3.576  23.897   6.365  1.00  0.00     0.034 C 
BRANCH   5   6
ATOM      6  C   UNL     1       2.226  23.602   5.738  1.00  0.00    -0.077 C 
ATOM      7  C   UNL     1       1.003  23.655   6.617  1.00  0.00     0.039 C 
ATOM      8  C   UNL     1       2.053  23.370   4.415  1.00  0.00    -0.023 CG0
ATOM      9  G   UNL     1       3.155  23.265   3.388  1.00  0.00     0.000 G0
ENDBRANCH   5   6
ENDBRANCH   4   5
ENDBRANCH   2   4
BRANCH   1  10
ATOM     10  C   UNL     1       3.933  20.222   4.962  1.00  0.00     0.111 C 
BRANCH  10  11
ATOM     11  C   UNL     1       3.052  20.723   3.846  1.00  0.00     0.163 C 
ATOM     12  O   UNL     1       1.914  20.194   3.716  1.00  0.00    -0.294 OA
BRANCH  11  13
ATOM     13  C   UNL     1       3.454  21.850   2.940  1.00  0.00    -0.002 C 
ATOM     14  C   UNL     1       4.126  21.604   1.771  1.00  0.00    -0.069 C 
ATOM     15  C   UNL     1       4.628  22.726   0.890  1.00  0.00     0.039 C 
ATOM     16  C   UNL     1       4.360  20.195   1.271  1.00  0.00     0.039 C 
BRANCH  13  17
ATOM     17  C   UNL     1       3.151  23.285   3.372  1.00  0.00     0.066 CG0
ATOM     18  G   UNL     1       2.056  23.347   4.410  1.00  0.00     0.000 G0
ENDBRANCH  13  17
ENDBRANCH  11  13
ENDBRANCH  10  11
ENDBRANCH   1  10
TORSDOF 0
ENDMDL
MODEL 5
REMARK VINA RESULT:    -3.242      1.541      4.213
REMARK INTER + INTRA:          -4.461
REMARK INTER:                  -4.688
REMARK INTRA:                   0.227
REMARK UNBOUND:                 0.107
REMARK SMILES CC1=CCC(=C(C)C)C(=O)CC(C)=CCC1
REMARK SMILES IDX 12 1 14 2 13 3 15 4 16 5 2 6 1 7 3 8 11 10 9 11 10 12 5 13
REMARK SMILES IDX 6 14 7 15 8 16 4 17
REMARK H PARENT
REMARK Flexibility Score: 60.00
ROOT
ATOM      1  C   UNL     1       5.199  20.612   3.242  1.00  0.00    -0.070 C 
ATOM      2  C   UNL     1       5.160  21.212   2.024  1.00  0.00    -0.027 C 
ATOM      3  C   UNL     1       6.510  19.994   3.665  1.00  0.00     0.039 C 
ENDROOT
BRANCH   2   4
ATOM      4  C   UNL     1       3.939  21.801   1.359  1.00  0.00     0.032 C 
BRANCH   4   5
ATOM      5  C   UNL     1       3.534  23.165   1.932  1.00  0.00     0.034 C 
BRANCH   5   6
ATOM      6  C   UNL     1       2.083  23.139   2.373  1.00  0.00    -0.077 C 
ATOM      7  C   UNL     1       1.032  22.795   1.350  1.00  0.00     0.039 C 
ATOM      8  C   UNL     1       1.689  23.333   3.654  1.00  0.00    -0.023 CG0
ATOM      9  G   UNL     1       2.593  23.701   4.807  1.00  0.00     0.000 G0
ENDBRANCH   5   6
ENDBRANCH   4   5
ENDBRANCH   2   4
BRANCH   1  10
ATOM     10  C   UNL     1       4.038  20.591   4.231  1.00  0.00     0.111 C 
BRANCH  10  11
ATOM     11  C   UNL     1       4.116  21.660   5.291  1.00  0.00     0.163 C 
ATOM     12  O   UNL     1       5.241  21.877   5.820  1.00  0.00    -0.294 OA
BRANCH  11  13
ATOM     13  C   UNL     1       2.936  22.499   5.685  1.00  0.00    -0.002 C 
ATOM     14  C   UNL     1       2.163  22.156   6.764  1.00  0.00    -0.069 C 
ATOM     15  C   UNL     1       0.912  22.928   7.124  1.00  0.00     0.039 C 
ATOM     16  C   UNL     1       2.543  21.019   7.686  1.00  0.00     0.039 C 
BRANCH  13  17
ATOM     17  C   UNL     1       2.576  23.711   4.827  1.00  0.00     0.066 CG0
ATOM     18  G   UNL     1       1.683  23.343   3.666  1.00  0.00     0.000 G0
ENDBRANCH  13  17
ENDBRANCH  11  13
ENDBRANCH  10  11
ENDBRANCH   1  10
TORSDOF 0
ENDMDL
MODEL 6
REMARK VINA RESULT:    -3.181      2.099      4.113
REMARK INTER + INTRA:          -4.376
REMARK INTER:                  -4.585
REMARK INTRA:                   0.209
REMARK UNBOUND:                 0.107
REMARK SMILES CC1=CCC(=C(C)C)C(=O)CC(C)=CCC1
REMARK SMILES IDX 12 1 14 2 13 3 15 4 16 5 2 6 1 7 3 8 11 10 9 11 10 12 5 13
REMARK SMILES IDX 6 14 7 15 8 16 4 17
REMARK H PARENT
REMARK Flexibility Score: 60.00
ROOT
ATOM      1  C   UNL     1       1.421  23.498   6.745  1.00  0.00    -0.070 C 
ATOM      2  C   UNL     1       1.510  22.612   7.770  1.00  0.00    -0.027 C 
ATOM      3  C   UNL     1       1.183  24.946   7.103  1.00  0.00     0.039 C 
ENDROOT
BRANCH   2   4
ATOM      4  C   UNL     1       1.644  21.113   7.643  1.00  0.00     0.032 C 
BRANCH   4   5
ATOM      5  C   UNL     1       3.098  20.627   7.691  1.00  0.00     0.034 C 
BRANCH   5   6
ATOM      6  C   UNL     1       3.365  19.659   6.554  1.00  0.00    -0.077 C 
ATOM      7  C   UNL     1       2.801  18.265   6.654  1.00  0.00     0.039 C 
ATOM      8  C   UNL     1       4.018  20.004   5.419  1.00  0.00    -0.023 CG0
ATOM      9  G   UNL     1       4.664  21.342   5.146  1.00  0.00     0.000 G0
ENDBRANCH   5   6
ENDBRANCH   4   5
ENDBRANCH   2   4
BRANCH   1  10
ATOM     10  C   UNL     1       1.624  23.142   5.275  1.00  0.00     0.111 C 
BRANCH  10  11
ATOM     11  C   UNL     1       3.038  23.329   4.789  1.00  0.00     0.163 C 
ATOM     12  O   UNL     1       3.563  24.466   4.942  1.00  0.00    -0.294 OA
BRANCH  11  13
ATOM     13  C   UNL     1       3.846  22.213   4.194  1.00  0.00    -0.002 C 
ATOM     14  C   UNL     1       3.798  21.954   2.849  1.00  0.00    -0.069 C 
ATOM     15  C   UNL     1       4.525  20.775   2.239  1.00  0.00     0.039 C 
ATOM     16  C   UNL     1       3.058  22.861   1.890  1.00  0.00     0.039 C 
BRANCH  13  17
ATOM     17  C   UNL     1       4.679  21.332   5.124  1.00  0.00     0.066 CG0
ATOM     18  G   UNL     1       4.011  20.006   5.402  1.00  0.00     0.000 G0
ENDBRANCH  13  17
ENDBRANCH  11  13
ENDBRANCH  10  11
ENDBRANCH   1  10
TORSDOF 0
ENDMDL
MODEL 7
REMARK VINA RESULT:    -3.121      1.490      3.951
REMARK INTER + INTRA:          -4.291
REMARK INTER:                  -4.684
REMARK INTRA:                   0.393
REMARK UNBOUND:                 0.107
REMARK SMILES CC1=CCC(=C(C)C)C(=O)CC(C)=CCC1
REMARK SMILES IDX 12 1 14 2 13 3 15 4 16 5 2 6 1 7 3 8 11 10 9 11 10 12 5 13
REMARK SMILES IDX 6 14 7 15 8 16 4 17
REMARK H PARENT
REMARK Flexibility Score: 60.00
ROOT
ATOM      1  C   UNL     1       5.799  20.413   3.854  1.00  0.00    -0.070 C 
ATOM      2  C   UNL     1       5.903  20.621   2.516  1.00  0.00    -0.027 C 
ATOM      3  C   UNL     1       6.879  21.000   4.730  1.00  0.00     0.039 C 
ENDROOT
BRANCH   2   4
ATOM      4  C   UNL     1       5.000  20.046   1.452  1.00  0.00     0.032 C 
BRANCH   4   5
ATOM      5  C   UNL     1       3.632  20.736   1.379  1.00  0.00     0.034 C 
BRANCH   5   6
ATOM      6  C   UNL     1       3.781  22.224   1.630  1.00  0.00    -0.077 C 
ATOM      7  C   UNL     1       4.479  23.059   0.587  1.00  0.00     0.039 C 
ATOM      8  C   UNL     1       3.253  22.855   2.705  1.00  0.00    -0.023 CG0
ATOM      9  G   UNL     1       2.538  22.187   3.856  1.00  0.00     0.000 G0
ENDBRANCH   5   6
ENDBRANCH   4   5
ENDBRANCH   2   4
BRANCH   1  10
ATOM     10  C   UNL     1       4.630  19.700   4.529  1.00  0.00     0.111 C 
BRANCH  10  11
ATOM     11  C   UNL     1       3.823  20.582   5.448  1.00  0.00     0.163 C 
ATOM     12  O   UNL     1       3.523  20.122   6.584  1.00  0.00    -0.294 OA
BRANCH  11  13
ATOM     13  C   UNL     1       3.424  21.982   5.085  1.00  0.00    -0.002 C 
ATOM     14  C   UNL     1       3.816  23.044   5.857  1.00  0.00    -0.069 C 
ATOM     15  C   UNL     1       3.348  24.454   5.569  1.00  0.00     0.039 C 
ATOM     16  C   UNL     1       4.780  22.875   7.011  1.00  0.00     0.039 C 
BRANCH  13  17
ATOM     17  C   UNL     1       2.524  22.198   3.869  1.00  0.00     0.066 CG0
ATOM     18  G   UNL     1       3.259  22.858   2.726  1.00  0.00     0.000 G0
ENDBRANCH  13  17
ENDBRANCH  11  13
ENDBRANCH  10  11
ENDBRANCH   1  10
TORSDOF 0
ENDMDL
MODEL 8
REMARK VINA RESULT:    -3.005      1.577      3.521
REMARK INTER + INTRA:          -4.128
REMARK INTER:                  -4.529
REMARK INTRA:                   0.400
REMARK UNBOUND:                 0.107
REMARK SMILES CC1=CCC(=C(C)C)C(=O)CC(C)=CCC1
REMARK SMILES IDX 12 1 14 2 13 3 15 4 16 5 2 6 1 7 3 8 11 10 9 11 10 12 5 13
REMARK SMILES IDX 6 14 7 15 8 16 4 17
REMARK H PARENT
REMARK Flexibility Score: 60.00
ROOT
ATOM      1  C   UNL     1       3.008  23.434   2.678  1.00  0.00    -0.070 C 
ATOM      2  C   UNL     1       3.109  24.391   3.637  1.00  0.00    -0.027 C 
ATOM      3  C   UNL     1       3.900  23.573   1.467  1.00  0.00     0.039 C 
ENDROOT
BRANCH   2   4
ATOM      4  C   UNL     1       2.251  24.507   4.873  1.00  0.00     0.032 C 
BRANCH   4   5
ATOM      5  C   UNL     1       2.998  24.156   6.166  1.00  0.00     0.034 C 
BRANCH   5   6
ATOM      6  C   UNL     1       2.584  22.781   6.655  1.00  0.00    -0.077 C 
ATOM      7  C   UNL     1       1.354  22.670   7.518  1.00  0.00     0.039 C 
ATOM      8  C   UNL     1       3.217  21.640   6.293  1.00  0.00    -0.023 CG0
ATOM      9  G   UNL     1       4.468  21.555   5.451  1.00  0.00     0.000 G0
ENDBRANCH   5   6
ENDBRANCH   4   5
ENDBRANCH   2   4
BRANCH   1  10
ATOM     10  C   UNL     1       2.119  22.199   2.782  1.00  0.00     0.111 C 
BRANCH  10  11
ATOM     11  C   UNL     1       2.738  21.061   3.553  1.00  0.00     0.163 C 
ATOM     12  O   UNL     1       2.024  20.042   3.766  1.00  0.00    -0.294 OA
BRANCH  11  13
ATOM     13  C   UNL     1       4.165  21.077   4.015  1.00  0.00    -0.002 C 
ATOM     14  C   UNL     1       5.170  20.629   3.198  1.00  0.00    -0.069 C 
ATOM     15  C   UNL     1       6.604  20.543   3.674  1.00  0.00     0.039 C 
ATOM     16  C   UNL     1       4.913  20.242   1.759  1.00  0.00     0.039 C 
BRANCH  13  17
ATOM     17  C   UNL     1       4.473  21.549   5.436  1.00  0.00     0.066 CG0
ATOM     18  G   UNL     1       3.228  21.645   6.286  1.00  0.00     0.000 G0
ENDBRANCH  13  17
ENDBRANCH  11  13
ENDBRANCH  10  11
ENDBRANCH   1  10
TORSDOF 0
ENDMDL
MODEL 9
REMARK VINA RESULT:    -3.005      1.771      3.627
REMARK INTER + INTRA:          -4.127
REMARK INTER:                  -4.603
REMARK INTRA:                   0.476
REMARK UNBOUND:                 0.107
REMARK SMILES CC1=CCC(=C(C)C)C(=O)CC(C)=CCC1
REMARK SMILES IDX 12 1 14 2 13 3 15 4 16 5 2 6 1 7 3 8 11 10 9 11 10 12 5 13
REMARK SMILES IDX 6 14 7 15 8 16 4 17
REMARK H PARENT
REMARK Flexibility Score: 60.00
ROOT
ATOM      1  C   UNL     1       3.352  23.489   5.407  1.00  0.00    -0.070 C 
ATOM      2  C   UNL     1       4.250  22.708   6.062  1.00  0.00    -0.027 C 
ATOM      3  C   UNL     1       3.694  24.951   5.248  1.00  0.00     0.039 C 
ENDROOT
BRANCH   2   4
ATOM      4  C   UNL     1       4.071  21.253   6.421  1.00  0.00     0.032 C 
BRANCH   4   5
ATOM      5  C   UNL     1       3.863  20.347   5.201  1.00  0.00     0.034 C 
BRANCH   5   6
ATOM      6  C   UNL     1       4.962  20.578   4.182  1.00  0.00    -0.077 C 
ATOM      7  C   UNL     1       6.389  20.336   4.602  1.00  0.00     0.039 C 
ATOM      8  C   UNL     1       4.724  20.916   2.892  1.00  0.00    -0.023 CG0
ATOM      9  G   UNL     1       3.369  21.214   2.295  1.00  0.00     0.000 G0
ENDBRANCH   5   6
ENDBRANCH   4   5
ENDBRANCH   2   4
BRANCH   1  10
ATOM     10  C   UNL     1       2.070  22.972   4.760  1.00  0.00     0.111 C 
BRANCH  10  11
ATOM     11  C   UNL     1       1.993  23.216   3.274  1.00  0.00     0.163 C 
ATOM     12  O   UNL     1       1.030  23.908   2.844  1.00  0.00    -0.294 OA
BRANCH  11  13
ATOM     13  C   UNL     1       3.038  22.722   2.316  1.00  0.00    -0.002 C 
ATOM     14  C   UNL     1       3.656  23.584   1.448  1.00  0.00    -0.069 C 
ATOM     15  C   UNL     1       4.640  23.096   0.407  1.00  0.00     0.039 C 
ATOM     16  C   UNL     1       3.428  25.078   1.514  1.00  0.00     0.039 C 
BRANCH  13  17
ATOM     17  C   UNL     1       3.360  21.228   2.286  1.00  0.00     0.066 CG0
ATOM     18  G   UNL     1       4.710  20.925   2.892  1.00  0.00     0.000 G0
ENDBRANCH  13  17
ENDBRANCH  11  13
ENDBRANCH  10  11
ENDBRANCH   1  10
TORSDOF 0
ENDMDL
