MODEL 1
REMARK VINA RESULT:    -5.065      0.000      0.000
REMARK INTER + INTRA:         -11.053
REMARK INTER:                  -9.506
REMARK INTRA:                  -1.547
REMARK UNBOUND:                -1.547
REMARK SMILES O=C([O-])CCCCCCCCCCCCCCC(=O)[O-]
REMARK SMILES IDX 10 1 9 2 8 3 7 4 6 5 5 6 4 7 2 8 1 9 3 10 11 11 12 12 13 13
REMARK SMILES IDX 14 14 15 15 16 16 17 17 18 18 19 19 20 20
REMARK H PARENT
REMARK Flexibility Score: inf
ROOT
ATOM      1  C   UNL     1      11.552 -19.438 -15.215  1.00  0.00     0.000 C 
ENDROOT
BRANCH   1   2
ATOM      2  C   UNL     1      12.522 -19.695 -16.386  1.00  0.00     0.000 C 
BRANCH   2   3
ATOM      3  C   UNL     1      13.424 -18.506 -16.757  1.00  0.00     0.000 C 
BRANCH   3   4
ATOM      4  C   UNL     1      14.306 -18.042 -15.584  1.00  0.00     0.000 C 
BRANCH   4   5
ATOM      5  C   UNL     1      13.867 -16.684 -15.005  1.00  0.00     0.000 C 
BRANCH   5   6
ATOM      6  C   UNL     1      13.212 -16.748 -13.613  1.00  0.00     0.006 C 
BRANCH   6   7
ATOM      7  C   UNL     1      14.017 -17.583 -12.609  1.00  0.00     0.053 C 
BRANCH   7   8
ATOM      8  C   UNL     1      13.134 -18.088 -11.511  1.00  0.00     0.041 C 
ATOM      9  O   UNL     1      11.882 -17.975 -11.600  1.00  0.00    -0.550 OA
ATOM     10  O   UNL     1      13.694 -18.687 -10.388  1.00  0.00    -0.550 OA
ENDBRANCH   7   8
ENDBRANCH   6   7
ENDBRANCH   5   6
ENDBRANCH   4   5
ENDBRANCH   3   4
ENDBRANCH   2   3
ENDBRANCH   1   2
BRANCH   1  11
ATOM     11  C   UNL     1      11.580 -20.542 -14.137  1.00  0.00     0.000 C 
BRANCH  11  12
ATOM     12  C   UNL     1      12.967 -21.198 -14.014  1.00  0.00     0.000 C 
BRANCH  12  13
ATOM     13  C   UNL     1      12.884 -22.732 -13.952  1.00  0.00     0.000 C 
BRANCH  13  14
ATOM     14  C   UNL     1      11.452 -23.246 -14.168  1.00  0.00     0.000 C 
BRANCH  14  15
ATOM     15  C   UNL     1      11.407 -24.778 -14.130  1.00  0.00     0.000 C 
BRANCH  15  16
ATOM     16  C   UNL     1      12.806 -25.367 -13.926  1.00  0.00     0.006 C 
BRANCH  16  17
ATOM     17  C   UNL     1      12.850 -26.835 -14.359  1.00  0.00     0.053 C 
BRANCH  17  18
ATOM     18  C   UNL     1      14.256 -27.253 -14.652  1.00  0.00     0.041 C 
ATOM     19  O   UNL     1      15.021 -26.498 -15.308  1.00  0.00    -0.550 OA
ATOM     20  O   UNL     1      14.709 -28.500 -14.239  1.00  0.00    -0.550 OA
ENDBRANCH  17  18
ENDBRANCH  16  17
ENDBRANCH  15  16
ENDBRANCH  14  15
ENDBRANCH  13  14
ENDBRANCH  12  13
ENDBRANCH  11  12
ENDBRANCH   1  11
TORSDOF 15
ENDMDL
MODEL 2
REMARK VINA RESULT:    -5.027      1.988      8.311
REMARK INTER + INTRA:         -10.982
REMARK INTER:                  -9.839
REMARK INTRA:                  -1.142
REMARK UNBOUND:                -1.547
REMARK SMILES O=C([O-])CCCCCCCCCCCCCCC(=O)[O-]
REMARK SMILES IDX 10 1 9 2 8 3 7 4 6 5 5 6 4 7 2 8 1 9 3 10 11 11 12 12 13 13
REMARK SMILES IDX 14 14 15 15 16 16 17 17 18 18 19 19 20 20
REMARK H PARENT
REMARK Flexibility Score: inf
ROOT
ATOM      1  C   UNL     1      12.741 -22.712 -13.879  1.00  0.00     0.000 C 
ENDROOT
BRANCH   1   2
ATOM      2  C   UNL     1      11.353 -23.362 -14.042  1.00  0.00     0.000 C 
BRANCH   2   3
ATOM      3  C   UNL     1      11.367 -24.889 -14.222  1.00  0.00     0.000 C 
BRANCH   3   4
ATOM      4  C   UNL     1      12.764 -25.500 -14.006  1.00  0.00     0.000 C 
BRANCH   4   5
ATOM      5  C   UNL     1      12.834 -26.987 -14.397  1.00  0.00     0.000 C 
BRANCH   5   6
ATOM      6  C   UNL     1      14.253 -27.582 -14.452  1.00  0.00     0.006 C 
BRANCH   6   7
ATOM      7  C   UNL     1      14.769 -27.770 -15.885  1.00  0.00     0.053 C 
BRANCH   7   8
ATOM      8  C   UNL     1      15.850 -26.782 -16.193  1.00  0.00     0.041 C 
ATOM      9  O   UNL     1      16.252 -25.983 -15.306  1.00  0.00    -0.550 OA
ATOM     10  O   UNL     1      16.419 -26.746 -17.461  1.00  0.00    -0.550 OA
ENDBRANCH   7   8
ENDBRANCH   6   7
ENDBRANCH   5   6
ENDBRANCH   4   5
ENDBRANCH   3   4
ENDBRANCH   2   3
ENDBRANCH   1   2
BRANCH   1  11
ATOM     11  C   UNL     1      12.937 -21.448 -14.742  1.00  0.00     0.000 C 
BRANCH  11  12
ATOM     12  C   UNL     1      11.608 -20.929 -15.322  1.00  0.00     0.000 C 
BRANCH  12  13
ATOM     13  C   UNL     1      11.335 -19.466 -14.937  1.00  0.00     0.000 C 
BRANCH  13  14
ATOM     14  C   UNL     1      11.659 -19.182 -13.462  1.00  0.00     0.000 C 
BRANCH  14  15
ATOM     15  C   UNL     1      11.607 -17.678 -13.169  1.00  0.00     0.000 C 
BRANCH  15  16
ATOM     16  C   UNL     1      13.012 -17.108 -12.953  1.00  0.00     0.006 C 
BRANCH  16  17
ATOM     17  C   UNL     1      13.570 -16.519 -14.252  1.00  0.00     0.053 C 
BRANCH  17  18
ATOM     18  C   UNL     1      14.775 -17.283 -14.700  1.00  0.00     0.041 C 
ATOM     19  O   UNL     1      14.645 -18.351 -15.356  1.00  0.00    -0.550 OA
ATOM     20  O   UNL     1      16.045 -16.841 -14.352  1.00  0.00    -0.550 OA
ENDBRANCH  17  18
ENDBRANCH  16  17
ENDBRANCH  15  16
ENDBRANCH  14  15
ENDBRANCH  13  14
ENDBRANCH  12  13
ENDBRANCH  11  12
ENDBRANCH   1  11
TORSDOF 15
ENDMDL
MODEL 3
REMARK VINA RESULT:    -4.983      2.925      6.825
REMARK INTER + INTRA:         -10.900
REMARK INTER:                  -9.081
REMARK INTRA:                  -1.819
REMARK UNBOUND:                -1.547
REMARK SMILES O=C([O-])CCCCCCCCCCCCCCC(=O)[O-]
REMARK SMILES IDX 10 1 9 2 8 3 7 4 6 5 5 6 4 7 2 8 1 9 3 10 11 11 12 12 13 13
REMARK SMILES IDX 14 14 15 15 16 16 17 17 18 18 19 19 20 20
REMARK H PARENT
REMARK Flexibility Score: inf
ROOT
ATOM      1  C   UNL     1      11.604 -22.936 -13.867  1.00  0.00     0.000 C 
ENDROOT
BRANCH   1   2
ATOM      2  C   UNL     1      11.375 -24.445 -14.082  1.00  0.00     0.000 C 
BRANCH   2   3
ATOM      3  C   UNL     1      12.644 -25.312 -14.008  1.00  0.00     0.000 C 
BRANCH   3   4
ATOM      4  C   UNL     1      13.937 -24.477 -14.050  1.00  0.00     0.000 C 
BRANCH   4   5
ATOM      5  C   UNL     1      14.705 -24.496 -12.716  1.00  0.00     0.000 C 
BRANCH   5   6
ATOM      6  C   UNL     1      15.670 -23.316 -12.500  1.00  0.00     0.006 C 
BRANCH   6   7
ATOM      7  C   UNL     1      15.054 -21.962 -12.877  1.00  0.00     0.053 C 
BRANCH   7   8
ATOM      8  C   UNL     1      16.118 -20.992 -13.287  1.00  0.00     0.041 C 
ATOM      9  O   UNL     1      15.814 -19.945 -13.919  1.00  0.00    -0.550 OA
ATOM     10  O   UNL     1      17.448 -21.243 -12.968  1.00  0.00    -0.550 OA
ENDBRANCH   7   8
ENDBRANCH   6   7
ENDBRANCH   5   6
ENDBRANCH   4   5
ENDBRANCH   3   4
ENDBRANCH   2   3
ENDBRANCH   1   2
BRANCH   1  11
ATOM     11  C   UNL     1      11.408 -22.093 -15.145  1.00  0.00     0.000 C 
BRANCH  11  12
ATOM     12  C   UNL     1      12.281 -20.826 -15.144  1.00  0.00     0.000 C 
BRANCH  12  13
ATOM     13  C   UNL     1      11.452 -19.546 -15.337  1.00  0.00     0.000 C 
BRANCH  13  14
ATOM     14  C   UNL     1      11.285 -18.756 -14.030  1.00  0.00     0.000 C 
BRANCH  14  15
ATOM     15  C   UNL     1      12.469 -18.999 -13.087  1.00  0.00     0.000 C 
BRANCH  15  16
ATOM     16  C   UNL     1      13.084 -17.676 -12.620  1.00  0.00     0.006 C 
BRANCH  16  17
ATOM     17  C   UNL     1      13.139 -16.663 -13.766  1.00  0.00     0.053 C 
BRANCH  17  18
ATOM     18  C   UNL     1      14.400 -16.830 -14.553  1.00  0.00     0.041 C 
ATOM     19  O   UNL     1      14.382 -17.416 -15.668  1.00  0.00    -0.550 OA
ATOM     20  O   UNL     1      15.607 -16.378 -14.034  1.00  0.00    -0.550 OA
ENDBRANCH  17  18
ENDBRANCH  16  17
ENDBRANCH  15  16
ENDBRANCH  14  15
ENDBRANCH  13  14
ENDBRANCH  12  13
ENDBRANCH  11  12
ENDBRANCH   1  11
TORSDOF 15
ENDMDL
MODEL 4
REMARK VINA RESULT:    -4.975      2.577      4.756
REMARK INTER + INTRA:         -10.884
REMARK INTER:                  -9.067
REMARK INTRA:                  -1.817
REMARK UNBOUND:                -1.547
REMARK SMILES O=C([O-])CCCCCCCCCCCCCCC(=O)[O-]
REMARK SMILES IDX 10 1 9 2 8 3 7 4 6 5 5 6 4 7 2 8 1 9 3 10 11 11 12 12 13 13
REMARK SMILES IDX 14 14 15 15 16 16 17 17 18 18 19 19 20 20
REMARK H PARENT
REMARK Flexibility Score: inf
ROOT
ATOM      1  C   UNL     1      12.208 -18.738  -9.679  1.00  0.00     0.000 C 
ENDROOT
BRANCH   1   2
ATOM      2  C   UNL     1      12.564 -17.356  -9.094  1.00  0.00     0.000 C 
BRANCH   2   3
ATOM      3  C   UNL     1      13.442 -16.474  -9.998  1.00  0.00     0.000 C 
BRANCH   3   4
ATOM      4  C   UNL     1      14.071 -17.258 -11.164  1.00  0.00     0.000 C 
BRANCH   4   5
ATOM      5  C   UNL     1      13.825 -16.597 -12.532  1.00  0.00     0.000 C 
BRANCH   5   6
ATOM      6  C   UNL     1      14.962 -16.769 -13.555  1.00  0.00     0.006 C 
BRANCH   6   7
ATOM      7  C   UNL     1      14.461 -16.817 -15.005  1.00  0.00     0.053 C 
BRANCH   7   8
ATOM      8  C   UNL     1      14.446 -18.224 -15.515  1.00  0.00     0.041 C 
ATOM      9  O   UNL     1      14.987 -19.147 -14.848  1.00  0.00    -0.550 OA
ATOM     10  O   UNL     1      13.831 -18.518 -16.726  1.00  0.00    -0.550 OA
ENDBRANCH   7   8
ENDBRANCH   6   7
ENDBRANCH   5   6
ENDBRANCH   4   5
ENDBRANCH   3   4
ENDBRANCH   2   3
ENDBRANCH   1   2
BRANCH   1  11
ATOM     11  C   UNL     1      10.695 -18.941  -9.904  1.00  0.00     0.000 C 
BRANCH  11  12
ATOM     12  C   UNL     1      10.304 -18.800 -11.386  1.00  0.00     0.000 C 
BRANCH  12  13
ATOM     13  C   UNL     1      11.350 -19.417 -12.327  1.00  0.00     0.000 C 
BRANCH  13  14
ATOM     14  C   UNL     1      11.282 -18.825 -13.743  1.00  0.00     0.000 C 
BRANCH  14  15
ATOM     15  C   UNL     1      11.331 -19.930 -14.804  1.00  0.00     0.000 C 
BRANCH  15  16
ATOM     16  C   UNL     1      12.129 -21.139 -14.306  1.00  0.00     0.006 C 
BRANCH  16  17
ATOM     17  C   UNL     1      11.393 -22.446 -14.614  1.00  0.00     0.053 C 
BRANCH  17  18
ATOM     18  C   UNL     1      12.135 -23.613 -14.045  1.00  0.00     0.041 C 
ATOM     19  O   UNL     1      13.334 -23.487 -13.678  1.00  0.00    -0.550 OA
ATOM     20  O   UNL     1      11.517 -24.854 -13.961  1.00  0.00    -0.550 OA
ENDBRANCH  17  18
ENDBRANCH  16  17
ENDBRANCH  15  16
ENDBRANCH  14  15
ENDBRANCH  13  14
ENDBRANCH  12  13
ENDBRANCH  11  12
ENDBRANCH   1  11
TORSDOF 15
ENDMDL
MODEL 5
REMARK VINA RESULT:    -4.965      1.919      2.966
REMARK INTER + INTRA:         -10.866
REMARK INTER:                  -9.710
REMARK INTRA:                  -1.156
REMARK UNBOUND:                -1.547
REMARK SMILES O=C([O-])CCCCCCCCCCCCCCC(=O)[O-]
REMARK SMILES IDX 10 1 9 2 8 3 7 4 6 5 5 6 4 7 2 8 1 9 3 10 11 11 12 12 13 13
REMARK SMILES IDX 14 14 15 15 16 16 17 17 18 18 19 19 20 20
REMARK H PARENT
REMARK Flexibility Score: inf
ROOT
ATOM      1  C   UNL     1      13.043 -21.758 -14.746  1.00  0.00     0.000 C 
ENDROOT
BRANCH   1   2
ATOM      2  C   UNL     1      11.808 -21.122 -15.415  1.00  0.00     0.000 C 
BRANCH   2   3
ATOM      3  C   UNL     1      11.893 -19.600 -15.623  1.00  0.00     0.000 C 
BRANCH   3   4
ATOM      4  C   UNL     1      10.987 -18.817 -14.657  1.00  0.00     0.000 C 
BRANCH   4   5
ATOM      5  C   UNL     1      11.556 -18.744 -13.228  1.00  0.00     0.000 C 
BRANCH   5   6
ATOM      6  C   UNL     1      12.447 -17.521 -12.941  1.00  0.00     0.006 C 
BRANCH   6   7
ATOM      7  C   UNL     1      13.945 -17.821 -13.098  1.00  0.00     0.053 C 
BRANCH   7   8
ATOM      8  C   UNL     1      14.533 -17.013 -14.213  1.00  0.00     0.041 C 
ATOM      9  O   UNL     1      13.789 -16.531 -15.108  1.00  0.00    -0.550 OA
ATOM     10  O   UNL     1      15.904 -16.790 -14.261  1.00  0.00    -0.550 OA
ENDBRANCH   7   8
ENDBRANCH   6   7
ENDBRANCH   5   6
ENDBRANCH   4   5
ENDBRANCH   3   4
ENDBRANCH   2   3
ENDBRANCH   1   2
BRANCH   1  11
ATOM     11  C   UNL     1      12.698 -22.927 -13.799  1.00  0.00     0.000 C 
BRANCH  11  12
ATOM     12  C   UNL     1      11.323 -23.543 -14.115  1.00  0.00     0.000 C 
BRANCH  12  13
ATOM     13  C   UNL     1      11.364 -25.080 -14.137  1.00  0.00     0.000 C 
BRANCH  13  14
ATOM     14  C   UNL     1      12.785 -25.628 -13.938  1.00  0.00     0.000 C 
BRANCH  14  15
ATOM     15  C   UNL     1      12.925 -27.026 -14.552  1.00  0.00     0.000 C 
BRANCH  15  16
ATOM     16  C   UNL     1      14.360 -27.281 -15.024  1.00  0.00     0.006 C 
BRANCH  16  17
ATOM     17  C   UNL     1      15.060 -28.299 -14.121  1.00  0.00     0.053 C 
BRANCH  17  18
ATOM     18  C   UNL     1      16.190 -27.656 -13.382  1.00  0.00     0.041 C 
ATOM     19  O   UNL     1      16.859 -28.315 -12.542  1.00  0.00    -0.550 OA
ATOM     20  O   UNL     1      16.478 -26.313 -13.588  1.00  0.00    -0.550 OA
ENDBRANCH  17  18
ENDBRANCH  16  17
ENDBRANCH  15  16
ENDBRANCH  14  15
ENDBRANCH  13  14
ENDBRANCH  12  13
ENDBRANCH  11  12
ENDBRANCH   1  11
TORSDOF 15
ENDMDL
MODEL 6
REMARK VINA RESULT:    -4.896      2.034      8.416
REMARK INTER + INTRA:         -10.736
REMARK INTER:                  -9.689
REMARK INTRA:                  -1.047
REMARK UNBOUND:                -1.547
REMARK SMILES O=C([O-])CCCCCCCCCCCCCCC(=O)[O-]
REMARK SMILES IDX 10 1 9 2 8 3 7 4 6 5 5 6 4 7 2 8 1 9 3 10 11 11 12 12 13 13
REMARK SMILES IDX 14 14 15 15 16 16 17 17 18 18 19 19 20 20
REMARK H PARENT
REMARK Flexibility Score: inf
ROOT
ATOM      1  C   UNL     1      11.901 -23.154 -13.947  1.00  0.00     0.000 C 
ENDROOT
BRANCH   1   2
ATOM      2  C   UNL     1      11.175 -24.504 -14.108  1.00  0.00     0.000 C 
BRANCH   2   3
ATOM      3  C   UNL     1      12.096 -25.735 -14.154  1.00  0.00     0.000 C 
BRANCH   3   4
ATOM      4  C   UNL     1      13.550 -25.404 -13.772  1.00  0.00     0.000 C 
BRANCH   4   5
ATOM      5  C   UNL     1      14.581 -26.125 -14.659  1.00  0.00     0.000 C 
BRANCH   5   6
ATOM      6  C   UNL     1      14.295 -27.616 -14.915  1.00  0.00     0.006 C 
BRANCH   6   7
ATOM      7  C   UNL     1      15.562 -28.481 -14.893  1.00  0.00     0.053 C 
BRANCH   7   8
ATOM      8  C   UNL     1      15.736 -29.132 -13.556  1.00  0.00     0.041 C 
ATOM      9  O   UNL     1      16.483 -28.608 -12.687  1.00  0.00    -0.550 OA
ATOM     10  O   UNL     1      15.070 -30.318 -13.268  1.00  0.00    -0.550 OA
ENDBRANCH   7   8
ENDBRANCH   6   7
ENDBRANCH   5   6
ENDBRANCH   4   5
ENDBRANCH   3   4
ENDBRANCH   2   3
ENDBRANCH   1   2
BRANCH   1  11
ATOM     11  C   UNL     1      11.474 -22.096 -14.986  1.00  0.00     0.000 C 
BRANCH  11  12
ATOM     12  C   UNL     1      12.268 -20.785 -14.840  1.00  0.00     0.000 C 
BRANCH  12  13
ATOM     13  C   UNL     1      11.432 -19.552 -15.220  1.00  0.00     0.000 C 
BRANCH  13  14
ATOM     14  C   UNL     1      11.073 -18.693 -13.998  1.00  0.00     0.000 C 
BRANCH  14  15
ATOM     15  C   UNL     1      12.303 -18.448 -13.117  1.00  0.00     0.000 C 
BRANCH  15  16
ATOM     16  C   UNL     1      12.903 -17.063 -13.378  1.00  0.00     0.006 C 
BRANCH  16  17
ATOM     17  C   UNL     1      14.431 -17.134 -13.452  1.00  0.00     0.053 C 
BRANCH  17  18
ATOM     18  C   UNL     1      14.862 -18.137 -14.474  1.00  0.00     0.041 C 
ATOM     19  O   UNL     1      15.574 -19.121 -14.140  1.00  0.00    -0.550 OA
ATOM     20  O   UNL     1      14.516 -17.960 -15.808  1.00  0.00    -0.550 OA
ENDBRANCH  17  18
ENDBRANCH  16  17
ENDBRANCH  15  16
ENDBRANCH  14  15
ENDBRANCH  13  14
ENDBRANCH  12  13
ENDBRANCH  11  12
ENDBRANCH   1  11
TORSDOF 15
ENDMDL
MODEL 7
REMARK VINA RESULT:    -4.838      2.080      3.500
REMARK INTER + INTRA:         -10.628
REMARK INTER:                  -8.536
REMARK INTRA:                  -2.093
REMARK UNBOUND:                -1.547
REMARK SMILES O=C([O-])CCCCCCCCCCCCCCC(=O)[O-]
REMARK SMILES IDX 10 1 9 2 8 3 7 4 6 5 5 6 4 7 2 8 1 9 3 10 11 11 12 12 13 13
REMARK SMILES IDX 14 14 15 15 16 16 17 17 18 18 19 19 20 20
REMARK H PARENT
REMARK Flexibility Score: inf
ROOT
ATOM      1  C   UNL     1      14.021 -18.363 -15.427  1.00  0.00     0.000 C 
ENDROOT
BRANCH   1   2
ATOM      2  C   UNL     1      14.008 -16.868 -15.052  1.00  0.00     0.000 C 
BRANCH   2   3
ATOM      3  C   UNL     1      13.175 -16.517 -13.808  1.00  0.00     0.000 C 
BRANCH   3   4
ATOM      4  C   UNL     1      12.911 -17.736 -12.907  1.00  0.00     0.000 C 
BRANCH   4   5
ATOM      5  C   UNL     1      11.414 -17.960 -12.626  1.00  0.00     0.000 C 
BRANCH   5   6
ATOM      6  C   UNL     1      11.101 -18.799 -11.373  1.00  0.00     0.006 C 
BRANCH   6   7
ATOM      7  C   UNL     1      11.202 -17.992 -10.071  1.00  0.00     0.053 C 
BRANCH   7   8
ATOM      8  C   UNL     1      12.248 -18.569  -9.170  1.00  0.00     0.041 C 
ATOM      9  O   UNL     1      11.938 -18.988  -8.023  1.00  0.00    -0.550 OA
ATOM     10  O   UNL     1      13.569 -18.647  -9.598  1.00  0.00    -0.550 OA
ENDBRANCH   7   8
ENDBRANCH   6   7
ENDBRANCH   5   6
ENDBRANCH   4   5
ENDBRANCH   3   4
ENDBRANCH   2   3
ENDBRANCH   1   2
BRANCH   1  11
ATOM     11  C   UNL     1      13.646 -18.634 -16.899  1.00  0.00     0.000 C 
BRANCH  11  12
ATOM     12  C   UNL     1      12.515 -19.670 -17.029  1.00  0.00     0.000 C 
BRANCH  12  13
ATOM     13  C   UNL     1      11.736 -19.850 -15.717  1.00  0.00     0.000 C 
BRANCH  13  14
ATOM     14  C   UNL     1      11.661 -21.321 -15.280  1.00  0.00     0.000 C 
BRANCH  14  15
ATOM     15  C   UNL     1      11.996 -21.470 -13.791  1.00  0.00     0.000 C 
BRANCH  15  16
ATOM     16  C   UNL     1      13.499 -21.315 -13.544  1.00  0.00     0.006 C 
BRANCH  16  17
ATOM     17  C   UNL     1      14.285 -22.440 -14.223  1.00  0.00     0.053 C 
BRANCH  17  18
ATOM     18  C   UNL     1      14.088 -23.731 -13.494  1.00  0.00     0.041 C 
ATOM     19  O   UNL     1      13.187 -24.535 -13.853  1.00  0.00    -0.550 OA
ATOM     20  O   UNL     1      14.872 -24.027 -12.385  1.00  0.00    -0.550 OA
ENDBRANCH  17  18
ENDBRANCH  16  17
ENDBRANCH  15  16
ENDBRANCH  14  15
ENDBRANCH  13  14
ENDBRANCH  12  13
ENDBRANCH  11  12
ENDBRANCH   1  11
TORSDOF 15
ENDMDL
MODEL 8
REMARK VINA RESULT:    -4.795      4.533      6.424
REMARK INTER + INTRA:         -10.547
REMARK INTER:                  -8.424
REMARK INTRA:                  -2.123
REMARK UNBOUND:                -1.547
REMARK SMILES O=C([O-])CCCCCCCCCCCCCCC(=O)[O-]
REMARK SMILES IDX 10 1 9 2 8 3 7 4 6 5 5 6 4 7 2 8 1 9 3 10 11 11 12 12 13 13
REMARK SMILES IDX 14 14 15 15 16 16 17 17 18 18 19 19 20 20
REMARK H PARENT
REMARK Flexibility Score: inf
ROOT
ATOM      1  C   UNL     1      10.755 -19.303 -10.239  1.00  0.00     0.000 C 
ENDROOT
BRANCH   1   2
ATOM      2  C   UNL     1      10.843 -18.510 -11.558  1.00  0.00     0.000 C 
BRANCH   2   3
ATOM      3  C   UNL     1      11.543 -19.245 -12.713  1.00  0.00     0.000 C 
BRANCH   3   4
ATOM      4  C   UNL     1      10.979 -18.858 -14.092  1.00  0.00     0.000 C 
BRANCH   4   5
ATOM      5  C   UNL     1      11.914 -19.247 -15.252  1.00  0.00     0.000 C 
BRANCH   5   6
ATOM      6  C   UNL     1      13.406 -18.946 -15.018  1.00  0.00     0.006 C 
BRANCH   6   7
ATOM      7  C   UNL     1      13.853 -17.616 -15.640  1.00  0.00     0.053 C 
BRANCH   7   8
ATOM      8  C   UNL     1      14.163 -16.611 -14.574  1.00  0.00     0.041 C 
ATOM      9  O   UNL     1      15.358 -16.301 -14.323  1.00  0.00    -0.550 OA
ATOM     10  O   UNL     1      13.131 -16.015 -13.859  1.00  0.00    -0.550 OA
ENDBRANCH   7   8
ENDBRANCH   6   7
ENDBRANCH   5   6
ENDBRANCH   4   5
ENDBRANCH   3   4
ENDBRANCH   2   3
ENDBRANCH   1   2
BRANCH   1  11
ATOM     11  C   UNL     1      10.846 -18.417  -8.978  1.00  0.00     0.000 C 
BRANCH  11  12
ATOM     12  C   UNL     1      11.482 -17.047  -9.276  1.00  0.00     0.000 C 
BRANCH  12  13
ATOM     13  C   UNL     1      12.609 -16.701  -8.290  1.00  0.00     0.000 C 
BRANCH  13  14
ATOM     14  C   UNL     1      13.998 -16.768  -8.944  1.00  0.00     0.000 C 
BRANCH  14  15
ATOM     15  C   UNL     1      13.883 -16.826 -10.472  1.00  0.00     0.000 C 
BRANCH  15  16
ATOM     16  C   UNL     1      15.130 -17.459 -11.096  1.00  0.00     0.006 C 
BRANCH  16  17
ATOM     17  C   UNL     1      14.834 -18.877 -11.592  1.00  0.00     0.053 C 
BRANCH  17  18
ATOM     18  C   UNL     1      16.068 -19.503 -12.158  1.00  0.00     0.041 C 
ATOM     19  O   UNL     1      16.466 -19.195 -13.313  1.00  0.00    -0.550 OA
ATOM     20  O   UNL     1      16.756 -20.464 -11.428  1.00  0.00    -0.550 OA
ENDBRANCH  17  18
ENDBRANCH  16  17
ENDBRANCH  15  16
ENDBRANCH  14  15
ENDBRANCH  13  14
ENDBRANCH  12  13
ENDBRANCH  11  12
ENDBRANCH   1  11
TORSDOF 15
ENDMDL
MODEL 9
REMARK VINA RESULT:    -4.695      2.687      4.526
REMARK INTER + INTRA:         -10.360
REMARK INTER:                  -7.961
REMARK INTRA:                  -2.399
REMARK UNBOUND:                -1.547
REMARK SMILES O=C([O-])CCCCCCCCCCCCCCC(=O)[O-]
REMARK SMILES IDX 10 1 9 2 8 3 7 4 6 5 5 6 4 7 2 8 1 9 3 10 11 11 12 12 13 13
REMARK SMILES IDX 14 14 15 15 16 16 17 17 18 18 19 19 20 20
REMARK H PARENT
REMARK Flexibility Score: inf
ROOT
ATOM      1  C   UNL     1      14.197 -17.944 -15.785  1.00  0.00     0.000 C 
ENDROOT
BRANCH   1   2
ATOM      2  C   UNL     1      13.467 -19.187 -15.238  1.00  0.00     0.000 C 
BRANCH   2   3
ATOM      3  C   UNL     1      12.004 -19.333 -15.690  1.00  0.00     0.000 C 
BRANCH   3   4
ATOM      4  C   UNL     1      11.002 -19.098 -14.546  1.00  0.00     0.000 C 
BRANCH   4   5
ATOM      5  C   UNL     1      11.629 -19.289 -13.153  1.00  0.00     0.000 C 
BRANCH   5   6
ATOM      6  C   UNL     1      11.134 -18.310 -12.073  1.00  0.00     0.006 C 
BRANCH   6   7
ATOM      7  C   UNL     1      10.753 -19.008 -10.760  1.00  0.00     0.053 C 
BRANCH   7   8
ATOM      8  C   UNL     1      11.434 -18.357  -9.597  1.00  0.00     0.041 C 
ATOM      9  O   UNL     1      11.152 -17.171  -9.279  1.00  0.00    -0.550 OA
ATOM     10  O   UNL     1      12.380 -19.062  -8.861  1.00  0.00    -0.550 OA
ENDBRANCH   7   8
ENDBRANCH   6   7
ENDBRANCH   5   6
ENDBRANCH   4   5
ENDBRANCH   3   4
ENDBRANCH   2   3
ENDBRANCH   1   2
BRANCH   1  11
ATOM     11  C   UNL     1      14.172 -16.739 -14.821  1.00  0.00     0.000 C 
BRANCH  11  12
ATOM     12  C   UNL     1      15.199 -16.885 -13.684  1.00  0.00     0.000 C 
BRANCH  12  13
ATOM     13  C   UNL     1      14.538 -16.880 -12.296  1.00  0.00     0.000 C 
BRANCH  13  14
ATOM     14  C   UNL     1      14.804 -18.178 -11.519  1.00  0.00     0.000 C 
BRANCH  14  15
ATOM     15  C   UNL     1      15.581 -19.183 -12.377  1.00  0.00     0.000 C 
BRANCH  15  16
ATOM     16  C   UNL     1      15.095 -20.614 -12.129  1.00  0.00     0.006 C 
BRANCH  16  17
ATOM     17  C   UNL     1      15.304 -21.485 -13.371  1.00  0.00     0.053 C 
BRANCH  17  18
ATOM     18  C   UNL     1      14.342 -22.631 -13.375  1.00  0.00     0.041 C 
ATOM     19  O   UNL     1      14.687 -23.753 -12.918  1.00  0.00    -0.550 OA
ATOM     20  O   UNL     1      13.078 -22.473 -13.927  1.00  0.00    -0.550 OA
ENDBRANCH  17  18
ENDBRANCH  16  17
ENDBRANCH  15  16
ENDBRANCH  14  15
ENDBRANCH  13  14
ENDBRANCH  12  13
ENDBRANCH  11  12
ENDBRANCH   1  11
TORSDOF 15
ENDMDL
