MODEL 1
REMARK VINA RESULT:    -3.063      0.000      0.000
REMARK INTER + INTRA:          -3.647
REMARK INTER:                  -3.600
REMARK INTRA:                  -0.046
REMARK UNBOUND:                -0.046
REMARK SMILES CCCCC(=O)[O-]
REMARK SMILES IDX 4 1 5 2 6 3 7 4 3 5 2 6 1 7
REMARK H PARENT
REMARK Flexibility Score: inf
ROOT
ATOM      1  C   UNL     1       7.587 -16.417  23.755  1.00  0.00     0.053 C 
ENDROOT
BRANCH   1   2
ATOM      2  C   UNL     1       8.659 -15.785  24.588  1.00  0.00     0.041 C 
ATOM      3  O   UNL     1       8.672 -15.951  25.835  1.00  0.00    -0.550 OA
ATOM      4  O   UNL     1       9.665 -15.041  23.983  1.00  0.00    -0.550 OA
ENDBRANCH   1   2
BRANCH   1   5
ATOM      5  C   UNL     1       7.206 -15.539  22.556  1.00  0.00     0.006 C 
BRANCH   5   6
ATOM      6  C   UNL     1       7.479 -16.237  21.215  1.00  0.00    -0.003 C 
ATOM      7  C   UNL     1       6.622 -15.643  20.102  1.00  0.00     0.004 C 
ENDBRANCH   5   6
ENDBRANCH   1   5
TORSDOF 3
ENDMDL
MODEL 2
REMARK VINA RESULT:    -2.956      0.708      1.664
REMARK INTER + INTRA:          -3.521
REMARK INTER:                  -3.430
REMARK INTRA:                  -0.091
REMARK UNBOUND:                -0.046
REMARK SMILES CCCCC(=O)[O-]
REMARK SMILES IDX 4 1 5 2 6 3 7 4 3 5 2 6 1 7
REMARK H PARENT
REMARK Flexibility Score: inf
ROOT
ATOM      1  C   UNL     1       8.717 -16.995  23.627  1.00  0.00     0.053 C 
ENDROOT
BRANCH   1   2
ATOM      2  C   UNL     1       9.239 -15.915  24.524  1.00  0.00     0.041 C 
ATOM      3  O   UNL     1      10.034 -15.048  24.076  1.00  0.00    -0.550 OA
ATOM      4  O   UNL     1       8.819 -15.845  25.847  1.00  0.00    -0.550 OA
ENDBRANCH   1   2
BRANCH   1   5
ATOM      5  C   UNL     1       7.214 -16.841  23.364  1.00  0.00     0.006 C 
BRANCH   5   6
ATOM      6  C   UNL     1       6.872 -15.493  22.715  1.00  0.00    -0.003 C 
ATOM      7  C   UNL     1       6.919 -15.587  21.193  1.00  0.00     0.004 C 
ENDBRANCH   5   6
ENDBRANCH   1   5
TORSDOF 3
ENDMDL
MODEL 3
REMARK VINA RESULT:    -2.920      6.242      7.050
REMARK INTER + INTRA:          -3.478
REMARK INTER:                  -3.456
REMARK INTRA:                  -0.022
REMARK UNBOUND:                -0.046
REMARK SMILES CCCCC(=O)[O-]
REMARK SMILES IDX 4 1 5 2 6 3 7 4 3 5 2 6 1 7
REMARK H PARENT
REMARK Flexibility Score: inf
ROOT
ATOM      1  C   UNL     1       7.243 -21.119  21.327  1.00  0.00     0.053 C 
ENDROOT
BRANCH   1   2
ATOM      2  C   UNL     1       7.955 -22.239  20.631  1.00  0.00     0.041 C 
ATOM      3  O   UNL     1       8.322 -22.109  19.434  1.00  0.00    -0.550 OA
ATOM      4  O   UNL     1       8.243 -23.413  21.315  1.00  0.00    -0.550 OA
ENDBRANCH   1   2
BRANCH   1   5
ATOM      5  C   UNL     1       7.575 -21.076  22.824  1.00  0.00     0.006 C 
BRANCH   5   6
ATOM      6  C   UNL     1       6.466 -20.403  23.646  1.00  0.00    -0.003 C 
ATOM      7  C   UNL     1       6.780 -20.453  25.137  1.00  0.00     0.004 C 
ENDBRANCH   5   6
ENDBRANCH   1   5
TORSDOF 3
ENDMDL
MODEL 4
REMARK VINA RESULT:    -2.907      1.767      2.739
REMARK INTER + INTRA:          -3.463
REMARK INTER:                  -3.417
REMARK INTRA:                  -0.045
REMARK UNBOUND:                -0.046
REMARK SMILES CCCCC(=O)[O-]
REMARK SMILES IDX 4 1 5 2 6 3 7 4 3 5 2 6 1 7
REMARK H PARENT
REMARK Flexibility Score: inf
ROOT
ATOM      1  C   UNL     1       7.605 -16.194  23.660  1.00  0.00     0.053 C 
ENDROOT
BRANCH   1   2
ATOM      2  C   UNL     1       8.706 -15.783  24.589  1.00  0.00     0.041 C 
ATOM      3  O   UNL     1       8.636 -16.059  25.815  1.00  0.00    -0.550 OA
ATOM      4  O   UNL     1       9.826 -15.127  24.095  1.00  0.00    -0.550 OA
ENDBRANCH   1   2
BRANCH   1   5
ATOM      5  C   UNL     1       7.647 -17.696  23.354  1.00  0.00     0.006 C 
BRANCH   5   6
ATOM      6  C   UNL     1       6.627 -18.487  24.186  1.00  0.00    -0.003 C 
ATOM      7  C   UNL     1       6.625 -19.962  23.796  1.00  0.00     0.004 C 
ENDBRANCH   5   6
ENDBRANCH   1   5
TORSDOF 3
ENDMDL
MODEL 5
REMARK VINA RESULT:    -2.900      3.997      4.709
REMARK INTER + INTRA:          -3.455
REMARK INTER:                  -3.429
REMARK INTRA:                  -0.026
REMARK UNBOUND:                -0.046
REMARK SMILES CCCCC(=O)[O-]
REMARK SMILES IDX 4 1 5 2 6 3 7 4 3 5 2 6 1 7
REMARK H PARENT
REMARK Flexibility Score: inf
ROOT
ATOM      1  C   UNL     1       6.689 -19.216  24.173  1.00  0.00     0.053 C 
ENDROOT
BRANCH   1   2
ATOM      2  C   UNL     1       7.013 -18.897  25.600  1.00  0.00     0.041 C 
ATOM      3  O   UNL     1       7.481 -17.770  25.907  1.00  0.00    -0.550 OA
ATOM      4  O   UNL     1       6.766 -19.834  26.597  1.00  0.00    -0.550 OA
ENDBRANCH   1   2
BRANCH   1   5
ATOM      5  C   UNL     1       6.700 -20.727  23.910  1.00  0.00     0.006 C 
BRANCH   5   6
ATOM      6  C   UNL     1       7.669 -21.113  22.782  1.00  0.00    -0.003 C 
ATOM      7  C   UNL     1       6.920 -21.369  21.478  1.00  0.00     0.004 C 
ENDBRANCH   5   6
ENDBRANCH   1   5
TORSDOF 3
ENDMDL
MODEL 6
REMARK VINA RESULT:    -2.888      6.559      7.054
REMARK INTER + INTRA:          -3.441
REMARK INTER:                  -3.353
REMARK INTRA:                  -0.088
REMARK UNBOUND:                -0.046
REMARK SMILES CCCCC(=O)[O-]
REMARK SMILES IDX 4 1 5 2 6 3 7 4 3 5 2 6 1 7
REMARK H PARENT
REMARK Flexibility Score: inf
ROOT
ATOM      1  C   UNL     1       8.405 -23.101  21.485  1.00  0.00     0.053 C 
ENDROOT
BRANCH   1   2
ATOM      2  C   UNL     1       9.858 -22.754  21.378  1.00  0.00     0.041 C 
ATOM      3  O   UNL     1      10.673 -23.166  22.244  1.00  0.00    -0.550 OA
ATOM      4  O   UNL     1      10.318 -22.005  20.302  1.00  0.00    -0.550 OA
ENDBRANCH   1   2
BRANCH   1   5
ATOM      5  C   UNL     1       7.525 -21.848  21.585  1.00  0.00     0.006 C 
BRANCH   5   6
ATOM      6  C   UNL     1       7.907 -20.965  22.781  1.00  0.00    -0.003 C 
ATOM      7  C   UNL     1       6.743 -20.829  23.758  1.00  0.00     0.004 C 
ENDBRANCH   5   6
ENDBRANCH   1   5
TORSDOF 3
ENDMDL
MODEL 7
REMARK VINA RESULT:    -2.823      7.171      7.763
REMARK INTER + INTRA:          -3.364
REMARK INTER:                  -3.296
REMARK INTRA:                  -0.068
REMARK UNBOUND:                -0.046
REMARK SMILES CCCCC(=O)[O-]
REMARK SMILES IDX 4 1 5 2 6 3 7 4 3 5 2 6 1 7
REMARK H PARENT
REMARK Flexibility Score: inf
ROOT
ATOM      1  C   UNL     1       8.358 -23.102  21.551  1.00  0.00     0.053 C 
ENDROOT
BRANCH   1   2
ATOM      2  C   UNL     1       7.763 -22.087  20.624  1.00  0.00     0.041 C 
ATOM      3  O   UNL     1       6.828 -21.342  21.016  1.00  0.00    -0.550 OA
ATOM      4  O   UNL     1       8.266 -21.941  19.336  1.00  0.00    -0.550 OA
ENDBRANCH   1   2
BRANCH   1   5
ATOM      5  C   UNL     1       9.889 -23.135  21.453  1.00  0.00     0.006 C 
BRANCH   5   6
ATOM      6  C   UNL     1      10.544 -21.961  22.195  1.00  0.00    -0.003 C 
ATOM      7  C   UNL     1      11.959 -22.313  22.643  1.00  0.00     0.004 C 
ENDBRANCH   5   6
ENDBRANCH   1   5
TORSDOF 3
ENDMDL
MODEL 8
REMARK VINA RESULT:    -2.815      2.067      2.918
REMARK INTER + INTRA:          -3.355
REMARK INTER:                  -3.254
REMARK INTRA:                  -0.101
REMARK UNBOUND:                -0.046
REMARK SMILES CCCCC(=O)[O-]
REMARK SMILES IDX 4 1 5 2 6 3 7 4 3 5 2 6 1 7
REMARK H PARENT
REMARK Flexibility Score: inf
ROOT
ATOM      1  C   UNL     1       6.763 -18.118  24.093  1.00  0.00     0.053 C 
ENDROOT
BRANCH   1   2
ATOM      2  C   UNL     1       7.270 -18.170  25.502  1.00  0.00     0.041 C 
ATOM      3  O   UNL     1       7.895 -17.191  25.987  1.00  0.00    -0.550 OA
ATOM      4  O   UNL     1       7.020 -19.286  26.291  1.00  0.00    -0.550 OA
ENDBRANCH   1   2
BRANCH   1   5
ATOM      5  C   UNL     1       7.894 -17.863  23.090  1.00  0.00     0.006 C 
BRANCH   5   6
ATOM      6  C   UNL     1       7.555 -16.734  22.106  1.00  0.00    -0.003 C 
ATOM      7  C   UNL     1       7.083 -15.485  22.843  1.00  0.00     0.004 C 
ENDBRANCH   5   6
ENDBRANCH   1   5
TORSDOF 3
ENDMDL
MODEL 9
REMARK VINA RESULT:    -2.794      4.502      5.059
REMARK INTER + INTRA:          -3.331
REMARK INTER:                  -3.284
REMARK INTRA:                  -0.047
REMARK UNBOUND:                -0.046
REMARK SMILES CCCCC(=O)[O-]
REMARK SMILES IDX 4 1 5 2 6 3 7 4 3 5 2 6 1 7
REMARK H PARENT
REMARK Flexibility Score: inf
ROOT
ATOM      1  C   UNL     1       6.395 -20.400  23.655  1.00  0.00     0.053 C 
ENDROOT
BRANCH   1   2
ATOM      2  C   UNL     1       6.796 -19.027  24.101  1.00  0.00     0.041 C 
ATOM      3  O   UNL     1       7.219 -18.188  23.264  1.00  0.00    -0.550 OA
ATOM      4  O   UNL     1       6.669 -18.663  25.436  1.00  0.00    -0.550 OA
ENDBRANCH   1   2
BRANCH   1   5
ATOM      5  C   UNL     1       7.499 -21.078  22.834  1.00  0.00     0.006 C 
BRANCH   5   6
ATOM      6  C   UNL     1       7.035 -21.425  21.412  1.00  0.00    -0.003 C 
ATOM      7  C   UNL     1       7.693 -22.709  20.917  1.00  0.00     0.004 C 
ENDBRANCH   5   6
ENDBRANCH   1   5
TORSDOF 3
ENDMDL
