MODEL 1
REMARK VINA RESULT:    -2.817      0.000      0.000
REMARK INTER + INTRA:          -4.795
REMARK INTER:                  -4.299
REMARK INTRA:                  -0.495
REMARK UNBOUND:                -0.495
REMARK SMILES CC1=CCC[C@H](C)C(=O)C[C@H](C(C)C)C(=O)C1
REMARK SMILES IDX 8 1 9 2 6 3 7 4 5 5 4 6 3 7 2 8 1 9 10 11 11 12 15 13 16 14
REMARK SMILES IDX 17 15 12 17 13 18 14 19
REMARK H PARENT
REMARK Flexibility Score: 70.00
ROOT
ATOM      1  C   UNL     1       5.608   1.493  -6.563  1.00  0.00     0.136 C 
ATOM      2  O   UNL     1       5.043   1.757  -5.511  1.00  0.00    -0.299 OA
ENDROOT
BRANCH   1   3
ATOM      3  C   UNL     1       5.843   2.592  -7.593  1.00  0.00     0.053 C 
ATOM      4  C   UNL     1       4.538   3.288  -8.015  1.00  0.00     0.016 C 
BRANCH   3   5
ATOM      5  C   UNL     1       6.865   3.639  -7.070  1.00  0.00     0.015 C 
BRANCH   5   6
ATOM      6  C   UNL     1       8.331   3.452  -7.514  1.00  0.00     0.028 C 
BRANCH   6   7
ATOM      7  C   UNL     1       9.169   2.399  -6.821  1.00  0.00    -0.028 C 
ATOM      8  C   UNL     1       9.357   1.112  -7.205  1.00  0.00    -0.070 CG0
ATOM      9  C   UNL     1      10.049   0.193  -6.225  1.00  0.00     0.039 C 
ATOM     10  G   UNL     1       8.988   0.552  -8.572  1.00  0.00     0.000 G0
ENDBRANCH   6   7
ENDBRANCH   5   6
ENDBRANCH   3   5
ENDBRANCH   1   3
BRANCH   1  11
ATOM     11  C   UNL     1       6.025   0.051  -6.811  1.00  0.00     0.087 C 
BRANCH  11  12
ATOM     12  C   UNL     1       6.442  -0.239  -8.274  1.00  0.00     0.066 C 
BRANCH  12  13
ATOM     13  C   UNL     1       7.927  -0.528  -8.482  1.00  0.00     0.140 C 
ATOM     14  O   UNL     1       8.271  -1.702  -8.487  1.00  0.00    -0.299 OA
BRANCH  13  15
ATOM     15  C   UNL     1       9.007   0.541  -8.588  1.00  0.00     0.106 CG0
ATOM     16  G   UNL     1       9.357   1.107  -7.219  1.00  0.00     0.000 G0
ENDBRANCH  13  15
ENDBRANCH  12  13
BRANCH  12  17
ATOM     17  C   UNL     1       5.529  -1.322  -8.930  1.00  0.00    -0.006 C 
ATOM     18  C   UNL     1       4.811  -2.178  -7.873  1.00  0.00     0.008 C 
ATOM     19  C   UNL     1       4.506  -0.753  -9.927  1.00  0.00     0.008 C 
ENDBRANCH  12  17
ENDBRANCH  11  12
ENDBRANCH   1  11
TORSDOF 1
ENDMDL
MODEL 2
REMARK VINA RESULT:    -2.747      1.440      1.951
REMARK INTER + INTRA:          -4.687
REMARK INTER:                  -4.293
REMARK INTRA:                  -0.394
REMARK UNBOUND:                -0.495
REMARK SMILES CC1=CCC[C@H](C)C(=O)C[C@H](C(C)C)C(=O)C1
REMARK SMILES IDX 8 1 9 2 6 3 7 4 5 5 4 6 3 7 2 8 1 9 10 11 11 12 15 13 16 14
REMARK SMILES IDX 17 15 12 17 13 18 14 19
REMARK H PARENT
REMARK Flexibility Score: 70.00
ROOT
ATOM      1  C   UNL     1       5.034   2.715  -6.514  1.00  0.00     0.136 C 
ATOM      2  O   UNL     1       4.070   3.013  -5.824  1.00  0.00    -0.299 OA
ENDROOT
BRANCH   1   3
ATOM      3  C   UNL     1       5.549   3.698  -7.560  1.00  0.00     0.053 C 
ATOM      4  C   UNL     1       4.447   4.146  -8.534  1.00  0.00     0.016 C 
BRANCH   3   5
ATOM      5  C   UNL     1       6.208   4.934  -6.889  1.00  0.00     0.015 C 
BRANCH   5   6
ATOM      6  C   UNL     1       7.720   5.125  -7.130  1.00  0.00     0.028 C 
BRANCH   6   7
ATOM      7  C   UNL     1       8.394   4.293  -8.200  1.00  0.00    -0.028 C 
ATOM      8  C   UNL     1       9.010   3.094  -8.047  1.00  0.00    -0.070 CG0
ATOM      9  C   UNL     1       9.806   2.572  -9.219  1.00  0.00     0.039 C 
ATOM     10  G   UNL     1       8.895   2.213  -6.811  1.00  0.00     0.000 G0
ENDBRANCH   6   7
ENDBRANCH   5   6
ENDBRANCH   3   5
ENDBRANCH   1   3
BRANCH   1  11
ATOM     11  C   UNL     1       5.663   1.344  -6.316  1.00  0.00     0.087 C 
BRANCH  11  12
ATOM     12  C   UNL     1       6.624   0.923  -7.454  1.00  0.00     0.066 C 
BRANCH  12  13
ATOM     13  C   UNL     1       8.108   0.940  -7.092  1.00  0.00     0.140 C 
ATOM     14  O   UNL     1       8.660  -0.142  -6.952  1.00  0.00    -0.299 OA
BRANCH  13  15
ATOM     15  C   UNL     1       8.912   2.203  -6.806  1.00  0.00     0.106 CG0
ATOM     16  G   UNL     1       9.010   3.084  -8.043  1.00  0.00     0.000 G0
ENDBRANCH  13  15
ENDBRANCH  12  13
BRANCH  12  17
ATOM     17  C   UNL     1       6.188  -0.425  -8.109  1.00  0.00    -0.006 C 
ATOM     18  C   UNL     1       5.498  -1.353  -7.095  1.00  0.00     0.008 C 
ATOM     19  C   UNL     1       5.302  -0.255  -9.353  1.00  0.00     0.008 C 
ENDBRANCH  12  17
ENDBRANCH  11  12
ENDBRANCH   1  11
TORSDOF 1
ENDMDL
MODEL 3
REMARK VINA RESULT:    -2.593      1.983      3.931
REMARK INTER + INTRA:          -4.453
REMARK INTER:                  -4.656
REMARK INTRA:                   0.203
REMARK UNBOUND:                -0.495
REMARK SMILES CC1=CCC[C@H](C)C(=O)C[C@H](C(C)C)C(=O)C1
REMARK SMILES IDX 8 1 9 2 6 3 7 4 5 5 4 6 3 7 2 8 1 9 10 11 11 12 15 13 16 14
REMARK SMILES IDX 17 15 12 17 13 18 14 19
REMARK H PARENT
REMARK Flexibility Score: 70.00
ROOT
ATOM      1  C   UNL     1       6.240  -0.250  -6.974  1.00  0.00     0.136 C 
ATOM      2  O   UNL     1       5.516  -1.030  -7.577  1.00  0.00    -0.299 OA
ENDROOT
BRANCH   1   3
ATOM      3  C   UNL     1       7.723  -0.564  -6.814  1.00  0.00     0.053 C 
ATOM      4  C   UNL     1       8.339  -1.153  -8.094  1.00  0.00     0.016 C 
BRANCH   3   5
ATOM      5  C   UNL     1       8.516   0.696  -6.368  1.00  0.00     0.015 C 
BRANCH   5   6
ATOM      6  C   UNL     1       9.448   1.332  -7.420  1.00  0.00     0.028 C 
BRANCH   6   7
ATOM      7  C   UNL     1       9.140   2.732  -7.909  1.00  0.00    -0.028 C 
ATOM      8  C   UNL     1       8.277   3.090  -8.892  1.00  0.00    -0.070 CG0
ATOM      9  C   UNL     1       8.313   4.528  -9.353  1.00  0.00     0.039 C 
ATOM     10  G   UNL     1       7.232   2.168  -9.506  1.00  0.00     0.000 G0
ENDBRANCH   6   7
ENDBRANCH   5   6
ENDBRANCH   3   5
ENDBRANCH   1   3
BRANCH   1  11
ATOM     11  C   UNL     1       5.609   0.999  -6.376  1.00  0.00     0.087 C 
BRANCH  11  12
ATOM     12  C   UNL     1       5.891   2.291  -7.181  1.00  0.00     0.066 C 
BRANCH  12  13
ATOM     13  C   UNL     1       5.947   2.113  -8.697  1.00  0.00     0.140 C 
ATOM     14  O   UNL     1       4.901   1.832  -9.265  1.00  0.00    -0.299 OA
BRANCH  13  15
ATOM     15  C   UNL     1       7.224   2.171  -9.526  1.00  0.00     0.106 CG0
ATOM     16  G   UNL     1       8.256   3.087  -8.881  1.00  0.00     0.000 G0
ENDBRANCH  13  15
ENDBRANCH  12  13
BRANCH  12  17
ATOM     17  C   UNL     1       4.942   3.455  -6.755  1.00  0.00    -0.006 C 
ATOM     18  C   UNL     1       4.090   3.076  -5.532  1.00  0.00     0.008 C 
ATOM     19  C   UNL     1       5.667   4.786  -6.497  1.00  0.00     0.008 C 
ENDBRANCH  12  17
ENDBRANCH  11  12
ENDBRANCH   1  11
TORSDOF 1
ENDMDL
MODEL 4
REMARK VINA RESULT:    -2.589      2.078      4.215
REMARK INTER + INTRA:          -4.446
REMARK INTER:                  -4.211
REMARK INTRA:                  -0.235
REMARK UNBOUND:                -0.495
REMARK SMILES CC1=CCC[C@H](C)C(=O)C[C@H](C(C)C)C(=O)C1
REMARK SMILES IDX 8 1 9 2 6 3 7 4 5 5 4 6 3 7 2 8 1 9 10 11 11 12 15 13 16 14
REMARK SMILES IDX 17 15 12 17 13 18 14 19
REMARK H PARENT
REMARK Flexibility Score: 70.00
ROOT
ATOM      1  C   UNL     1       5.627   1.396  -6.373  1.00  0.00     0.136 C 
ATOM      2  O   UNL     1       5.097   1.778  -5.340  1.00  0.00    -0.299 OA
ENDROOT
BRANCH   1   3
ATOM      3  C   UNL     1       6.414   0.091  -6.384  1.00  0.00     0.053 C 
ATOM      4  C   UNL     1       6.707  -0.428  -4.965  1.00  0.00     0.016 C 
BRANCH   3   5
ATOM      5  C   UNL     1       5.680  -0.999  -7.213  1.00  0.00     0.015 C 
BRANCH   5   6
ATOM      6  C   UNL     1       6.178  -1.221  -8.656  1.00  0.00     0.028 C 
BRANCH   6   7
ATOM      7  C   UNL     1       7.619  -0.888  -8.983  1.00  0.00    -0.028 C 
ATOM      8  C   UNL     1       8.082   0.193  -9.660  1.00  0.00    -0.070 CG0
ATOM      9  C   UNL     1       9.538   0.186 -10.060  1.00  0.00     0.039 C 
ATOM     10  G   UNL     1       7.259   1.434  -9.977  1.00  0.00     0.000 G0
ENDBRANCH   6   7
ENDBRANCH   5   6
ENDBRANCH   3   5
ENDBRANCH   1   3
BRANCH   1  11
ATOM     11  C   UNL     1       5.501   2.273  -7.611  1.00  0.00     0.087 C 
BRANCH  11  12
ATOM     12  C   UNL     1       6.760   3.123  -7.908  1.00  0.00     0.066 C 
BRANCH  12  13
ATOM     13  C   UNL     1       7.648   2.598  -9.035  1.00  0.00     0.140 C 
ATOM     14  O   UNL     1       8.694   3.195  -9.244  1.00  0.00    -0.299 OA
BRANCH  13  15
ATOM     15  C   UNL     1       7.274   1.450  -9.964  1.00  0.00     0.106 CG0
ATOM     16  G   UNL     1       8.087   0.202  -9.650  1.00  0.00     0.000 G0
ENDBRANCH  13  15
ENDBRANCH  12  13
BRANCH  12  17
ATOM     17  C   UNL     1       6.408   4.634  -8.085  1.00  0.00    -0.006 C 
ATOM     18  C   UNL     1       5.292   4.840  -9.122  1.00  0.00     0.008 C 
ATOM     19  C   UNL     1       6.042   5.345  -6.772  1.00  0.00     0.008 C 
ENDBRANCH  12  17
ENDBRANCH  11  12
ENDBRANCH   1  11
TORSDOF 1
ENDMDL
MODEL 5
REMARK VINA RESULT:    -2.437     20.754     21.934
REMARK INTER + INTRA:          -4.215
REMARK INTER:                  -4.450
REMARK INTRA:                   0.236
REMARK UNBOUND:                -0.495
REMARK SMILES CC1=CCC[C@H](C)C(=O)C[C@H](C(C)C)C(=O)C1
REMARK SMILES IDX 8 1 9 2 6 3 7 4 5 5 4 6 3 7 2 8 1 9 10 11 11 12 15 13 16 14
REMARK SMILES IDX 17 15 12 17 13 18 14 19
REMARK H PARENT
REMARK Flexibility Score: 70.00
ROOT
ATOM      1  C   UNL     1      -6.344  -4.047   7.021  1.00  0.00     0.136 C 
ATOM      2  O   UNL     1      -5.760  -4.086   5.947  1.00  0.00    -0.299 OA
ENDROOT
BRANCH   1   3
ATOM      3  C   UNL     1      -5.564  -3.754   8.297  1.00  0.00     0.053 C 
ATOM      4  C   UNL     1      -6.214  -2.643   9.139  1.00  0.00     0.016 C 
BRANCH   3   5
ATOM      5  C   UNL     1      -5.385  -5.040   9.151  1.00  0.00     0.015 C 
BRANCH   5   6
ATOM      6  C   UNL     1      -4.362  -6.074   8.634  1.00  0.00     0.028 C 
BRANCH   6   7
ATOM      7  C   UNL     1      -4.850  -7.181   7.724  1.00  0.00    -0.028 C 
ATOM      8  C   UNL     1      -6.065  -7.783   7.736  1.00  0.00    -0.070 CG0
ATOM      9  C   UNL     1      -6.233  -9.018   6.882  1.00  0.00     0.039 C 
ATOM     10  G   UNL     1      -7.282  -7.263   8.488  1.00  0.00     0.000 G0
ENDBRANCH   6   7
ENDBRANCH   5   6
ENDBRANCH   3   5
ENDBRANCH   1   3
BRANCH   1  11
ATOM     11  C   UNL     1      -7.839  -4.330   7.035  1.00  0.00     0.087 C 
BRANCH  11  12
ATOM     12  C   UNL     1      -8.221  -5.717   6.464  1.00  0.00     0.066 C 
BRANCH  12  13
ATOM     13  C   UNL     1      -8.374  -6.827   7.502  1.00  0.00     0.140 C 
ATOM     14  O   UNL     1      -9.475  -7.350   7.601  1.00  0.00    -0.299 OA
BRANCH  13  15
ATOM     15  C   UNL     1      -7.282  -7.256   8.475  1.00  0.00     0.106 CG0
ATOM     16  G   UNL     1      -6.071  -7.806   7.734  1.00  0.00     0.000 G0
ENDBRANCH  13  15
ENDBRANCH  12  13
BRANCH  12  17
ATOM     17  C   UNL     1      -9.449  -5.629   5.505  1.00  0.00    -0.006 C 
ATOM     18  C   UNL     1      -9.915  -4.176   5.309  1.00  0.00     0.008 C 
ATOM     19  C   UNL     1      -9.220  -6.294   4.138  1.00  0.00     0.008 C 
ENDBRANCH  12  17
ENDBRANCH  11  12
ENDBRANCH   1  11
TORSDOF 1
ENDMDL
MODEL 6
REMARK VINA RESULT:    -2.404     20.219     21.949
REMARK INTER + INTRA:          -4.164
REMARK INTER:                  -4.123
REMARK INTRA:                  -0.042
REMARK UNBOUND:                -0.495
REMARK SMILES CC1=CCC[C@H](C)C(=O)C[C@H](C(C)C)C(=O)C1
REMARK SMILES IDX 8 1 9 2 6 3 7 4 5 5 4 6 3 7 2 8 1 9 10 11 11 12 15 13 16 14
REMARK SMILES IDX 17 15 12 17 13 18 14 19
REMARK H PARENT
REMARK Flexibility Score: 70.00
ROOT
ATOM      1  C   UNL     1      -4.864  -4.734   8.621  1.00  0.00     0.136 C 
ATOM      2  O   UNL     1      -4.571  -4.741   9.808  1.00  0.00    -0.299 OA
ENDROOT
BRANCH   1   3
ATOM      3  C   UNL     1      -5.840  -3.692   8.088  1.00  0.00     0.053 C 
ATOM      4  C   UNL     1      -6.012  -3.776   6.562  1.00  0.00     0.016 C 
BRANCH   3   5
ATOM      5  C   UNL     1      -7.221  -3.808   8.790  1.00  0.00     0.015 C 
BRANCH   5   6
ATOM      6  C   UNL     1      -7.731  -5.236   9.077  1.00  0.00     0.028 C 
BRANCH   6   7
ATOM      7  C   UNL     1      -8.408  -6.001   7.960  1.00  0.00    -0.028 C 
ATOM      8  C   UNL     1      -8.039  -7.197   7.439  1.00  0.00    -0.070 CG0
ATOM      9  C   UNL     1      -8.737  -7.647   6.177  1.00  0.00     0.039 C 
ATOM     10  G   UNL     1      -7.029  -8.144   8.074  1.00  0.00     0.000 G0
ENDBRANCH   6   7
ENDBRANCH   5   6
ENDBRANCH   3   5
ENDBRANCH   1   3
BRANCH   1  11
ATOM     11  C   UNL     1      -4.257  -5.804   7.725  1.00  0.00     0.087 C 
BRANCH  11  12
ATOM     12  C   UNL     1      -4.505  -7.250   8.218  1.00  0.00     0.066 C 
BRANCH  12  13
ATOM     13  C   UNL     1      -5.637  -7.992   7.511  1.00  0.00     0.140 C 
ATOM     14  O   UNL     1      -5.415  -8.404   6.381  1.00  0.00    -0.299 OA
BRANCH  13  15
ATOM     15  C   UNL     1      -7.040  -8.170   8.079  1.00  0.00     0.106 CG0
ATOM     16  G   UNL     1      -8.019  -7.196   7.438  1.00  0.00     0.000 G0
ENDBRANCH  13  15
ENDBRANCH  12  13
BRANCH  12  17
ATOM     17  C   UNL     1      -3.185  -8.082   8.258  1.00  0.00    -0.006 C 
ATOM     18  C   UNL     1      -2.343  -7.874   6.988  1.00  0.00     0.008 C 
ATOM     19  C   UNL     1      -2.324  -7.825   9.505  1.00  0.00     0.008 C 
ENDBRANCH  12  17
ENDBRANCH  11  12
ENDBRANCH   1  11
TORSDOF 1
ENDMDL
MODEL 7
REMARK VINA RESULT:    -2.386      2.426      4.608
REMARK INTER + INTRA:          -4.137
REMARK INTER:                  -4.001
REMARK INTRA:                  -0.136
REMARK UNBOUND:                -0.495
REMARK SMILES CC1=CCC[C@H](C)C(=O)C[C@H](C(C)C)C(=O)C1
REMARK SMILES IDX 8 1 9 2 6 3 7 4 5 5 4 6 3 7 2 8 1 9 10 11 11 12 15 13 16 14
REMARK SMILES IDX 17 15 12 17 13 18 14 19
REMARK H PARENT
REMARK Flexibility Score: 70.00
ROOT
ATOM      1  C   UNL     1       7.724   0.375  -6.398  1.00  0.00     0.136 C 
ATOM      2  O   UNL     1       7.900  -0.510  -5.574  1.00  0.00    -0.299 OA
ENDROOT
BRANCH   1   3
ATOM      3  C   UNL     1       6.371   0.511  -7.087  1.00  0.00     0.053 C 
ATOM      4  C   UNL     1       5.677  -0.847  -7.288  1.00  0.00     0.016 C 
BRANCH   3   5
ATOM      5  C   UNL     1       5.440   1.479  -6.306  1.00  0.00     0.015 C 
BRANCH   5   6
ATOM      6  C   UNL     1       4.970   2.741  -7.060  1.00  0.00     0.028 C 
BRANCH   6   7
ATOM      7  C   UNL     1       5.259   4.097  -6.452  1.00  0.00    -0.028 C 
ATOM      8  C   UNL     1       6.340   4.886  -6.672  1.00  0.00    -0.070 CG0
ATOM      9  C   UNL     1       6.513   6.088  -5.774  1.00  0.00     0.039 C 
ATOM     10  G   UNL     1       7.343   4.686  -7.800  1.00  0.00     0.000 G0
ENDBRANCH   6   7
ENDBRANCH   5   6
ENDBRANCH   3   5
ENDBRANCH   1   3
BRANCH   1  11
ATOM     11  C   UNL     1       8.893   1.293  -6.727  1.00  0.00     0.087 C 
BRANCH  11  12
ATOM     12  C   UNL     1       8.596   2.308  -7.856  1.00  0.00     0.066 C 
BRANCH  12  13
ATOM     13  C   UNL     1       8.469   3.762  -7.406  1.00  0.00     0.140 C 
ATOM     14  O   UNL     1       9.300   4.174  -6.609  1.00  0.00    -0.299 OA
BRANCH  13  15
ATOM     15  C   UNL     1       7.332   4.694  -7.809  1.00  0.00     0.106 CG0
ATOM     16  G   UNL     1       6.356   4.899  -6.658  1.00  0.00     0.000 G0
ENDBRANCH  13  15
ENDBRANCH  12  13
BRANCH  12  17
ATOM     17  C   UNL     1       9.581   2.143  -9.056  1.00  0.00    -0.006 C 
ATOM     18  C   UNL     1       9.162   0.987  -9.980  1.00  0.00     0.008 C 
ATOM     19  C   UNL     1       9.781   3.426  -9.878  1.00  0.00     0.008 C 
ENDBRANCH  12  17
ENDBRANCH  11  12
ENDBRANCH   1  11
TORSDOF 1
ENDMDL
MODEL 8
REMARK VINA RESULT:    -2.373      2.085      4.348
REMARK INTER + INTRA:          -4.117
REMARK INTER:                  -3.569
REMARK INTRA:                  -0.548
REMARK UNBOUND:                -0.495
REMARK SMILES CC1=CCC[C@H](C)C(=O)C[C@H](C(C)C)C(=O)C1
REMARK SMILES IDX 8 1 9 2 6 3 7 4 5 5 4 6 3 7 2 8 1 9 10 11 11 12 15 13 16 14
REMARK SMILES IDX 17 15 12 17 13 18 14 19
REMARK H PARENT
REMARK Flexibility Score: 70.00
ROOT
ATOM      1  C   UNL     1       8.953   2.812  -7.675  1.00  0.00     0.136 C 
ATOM      2  O   UNL     1      10.077   2.909  -7.204  1.00  0.00    -0.299 OA
ENDROOT
BRANCH   1   3
ATOM      3  C   UNL     1       8.776   2.457  -9.147  1.00  0.00     0.053 C 
ATOM      4  C   UNL     1       9.543   3.413 -10.076  1.00  0.00     0.016 C 
BRANCH   3   5
ATOM      5  C   UNL     1       9.199   0.987  -9.422  1.00  0.00     0.015 C 
BRANCH   5   6
ATOM      6  C   UNL     1       8.083  -0.077  -9.346  1.00  0.00     0.028 C 
BRANCH   6   7
ATOM      7  C   UNL     1       7.908  -0.851  -8.057  1.00  0.00    -0.028 C 
ATOM      8  C   UNL     1       6.932  -0.695  -7.128  1.00  0.00    -0.070 CG0
ATOM      9  C   UNL     1       7.101  -1.427  -5.818  1.00  0.00     0.039 C 
ATOM     10  G   UNL     1       5.652   0.102  -7.342  1.00  0.00     0.000 G0
ENDBRANCH   6   7
ENDBRANCH   5   6
ENDBRANCH   3   5
ENDBRANCH   1   3
BRANCH   1  11
ATOM     11  C   UNL     1       7.766   3.086  -6.762  1.00  0.00     0.087 C 
BRANCH  11  12
ATOM     12  C   UNL     1       6.401   2.686  -7.371  1.00  0.00     0.066 C 
BRANCH  12  13
ATOM     13  C   UNL     1       5.724   1.485  -6.715  1.00  0.00     0.140 C 
ATOM     14  O   UNL     1       5.286   1.640  -5.584  1.00  0.00    -0.299 OA
BRANCH  13  15
ATOM     15  C   UNL     1       5.642   0.095  -7.335  1.00  0.00     0.106 CG0
ATOM     16  G   UNL     1       6.931  -0.683  -7.111  1.00  0.00     0.000 G0
ENDBRANCH  13  15
ENDBRANCH  12  13
BRANCH  12  17
ATOM     17  C   UNL     1       5.442   3.912  -7.496  1.00  0.00    -0.006 C 
ATOM     18  C   UNL     1       6.206   5.243  -7.398  1.00  0.00     0.008 C 
ATOM     19  C   UNL     1       4.574   3.897  -8.765  1.00  0.00     0.008 C 
ENDBRANCH  12  17
ENDBRANCH  11  12
ENDBRANCH   1  11
TORSDOF 1
ENDMDL
MODEL 9
REMARK VINA RESULT:    -2.312      1.878      2.687
REMARK INTER + INTRA:          -4.023
REMARK INTER:                  -3.487
REMARK INTRA:                  -0.536
REMARK UNBOUND:                -0.495
REMARK SMILES CC1=CCC[C@H](C)C(=O)C[C@H](C(C)C)C(=O)C1
REMARK SMILES IDX 8 1 9 2 6 3 7 4 5 5 4 6 3 7 2 8 1 9 10 11 11 12 15 13 16 14
REMARK SMILES IDX 17 15 12 17 13 18 14 19
REMARK H PARENT
REMARK Flexibility Score: 70.00
ROOT
ATOM      1  C   UNL     1       5.590   2.321  -7.399  1.00  0.00     0.136 C 
ATOM      2  O   UNL     1       4.613   2.883  -6.925  1.00  0.00    -0.299 OA
ENDROOT
BRANCH   1   3
ATOM      3  C   UNL     1       5.839   2.373  -8.902  1.00  0.00     0.053 C 
ATOM      4  C   UNL     1       4.678   1.768  -9.709  1.00  0.00     0.016 C 
BRANCH   3   5
ATOM      5  C   UNL     1       6.119   3.827  -9.373  1.00  0.00     0.015 C 
BRANCH   5   6
ATOM      6  C   UNL     1       7.599   4.259  -9.433  1.00  0.00     0.028 C 
BRANCH   6   7
ATOM      7  C   UNL     1       8.281   4.688  -8.151  1.00  0.00    -0.028 C 
ATOM      8  C   UNL     1       9.071   3.936  -7.345  1.00  0.00    -0.070 CG0
ATOM      9  C   UNL     1       9.447   4.520  -6.004  1.00  0.00     0.039 C 
ATOM     10  G   UNL     1       9.662   2.586  -7.728  1.00  0.00     0.000 G0
ENDBRANCH   6   7
ENDBRANCH   5   6
ENDBRANCH   3   5
ENDBRANCH   1   3
BRANCH   1  11
ATOM     11  C   UNL     1       6.507   1.557  -6.454  1.00  0.00     0.087 C 
BRANCH  11  12
ATOM     12  C   UNL     1       7.689   0.851  -7.162  1.00  0.00     0.066 C 
BRANCH  12  13
ATOM     13  C   UNL     1       9.064   1.459  -6.894  1.00  0.00     0.140 C 
ATOM     14  O   UNL     1       9.669   1.060  -5.910  1.00  0.00    -0.299 OA
BRANCH  13  15
ATOM     15  C   UNL     1       9.683   2.585  -7.713  1.00  0.00     0.106 CG0
ATOM     16  G   UNL     1       9.086   3.934  -7.333  1.00  0.00     0.000 G0
ENDBRANCH  13  15
ENDBRANCH  12  13
BRANCH  12  17
ATOM     17  C   UNL     1       7.666  -0.692  -6.923  1.00  0.00    -0.006 C 
ATOM     18  C   UNL     1       6.902  -1.058  -5.640  1.00  0.00     0.008 C 
ATOM     19  C   UNL     1       7.115  -1.498  -8.111  1.00  0.00     0.008 C 
ENDBRANCH  12  17
ENDBRANCH  11  12
ENDBRANCH   1  11
TORSDOF 1
ENDMDL
