MODEL 1
REMARK VINA RESULT:    -4.007      0.000      0.000
REMARK INTER + INTRA:          -9.749
REMARK INTER:                  -7.520
REMARK INTRA:                  -2.229
REMARK UNBOUND:                -2.229
REMARK SMILES CCCCCCCCC=CCCCCCCCC(=O)[O-]
REMARK SMILES IDX 10 1 9 2 11 3 12 4 13 5 14 6 15 7 16 8 17 9 18 10 19 11
REMARK SMILES IDX 20 12 8 13 7 14 6 15 5 16 4 17 3 18 2 19 1 20
REMARK H PARENT
REMARK Flexibility Score: inf
ROOT
ATOM      1  C   UNL     1      17.135  21.032  16.794  1.00  0.00    -0.031 C 
ATOM      2  C   UNL     1      17.616  22.275  16.657  1.00  0.00    -0.031 C 
ENDROOT
BRANCH   1   3
ATOM      3  C   UNL     1      15.712  20.691  16.443  1.00  0.00     0.027 C 
BRANCH   3   4
ATOM      4  C   UNL     1      14.696  21.485  17.278  1.00  0.00     0.004 C 
BRANCH   4   5
ATOM      5  C   UNL     1      13.404  20.693  17.527  1.00  0.00     0.000 C 
BRANCH   5   6
ATOM      6  C   UNL     1      13.315  20.233  18.989  1.00  0.00     0.000 C 
BRANCH   6   7
ATOM      7  C   UNL     1      13.985  18.870  19.223  1.00  0.00     0.000 C 
BRANCH   7   8
ATOM      8  C   UNL     1      14.999  18.900  20.380  1.00  0.00     0.006 C 
BRANCH   8   9
ATOM      9  C   UNL     1      16.405  19.291  19.908  1.00  0.00     0.053 C 
BRANCH   9  10
ATOM     10  C   UNL     1      17.229  18.089  19.565  1.00  0.00     0.041 C 
ATOM     11  O   UNL     1      16.901  16.951  19.993  1.00  0.00    -0.550 OA
ATOM     12  O   UNL     1      18.342  18.220  18.744  1.00  0.00    -0.550 OA
ENDBRANCH   9  10
ENDBRANCH   8   9
ENDBRANCH   7   8
ENDBRANCH   6   7
ENDBRANCH   5   6
ENDBRANCH   4   5
ENDBRANCH   3   4
ENDBRANCH   1   3
BRANCH   2  13
ATOM     13  C   UNL     1      19.042  22.591  17.016  1.00  0.00     0.027 C 
BRANCH  13  14
ATOM     14  C   UNL     1      19.847  21.307  17.268  1.00  0.00     0.004 C 
BRANCH  14  15
ATOM     15  C   UNL     1      21.116  21.232  16.403  1.00  0.00     0.000 C 
BRANCH  15  16
ATOM     16  C   UNL     1      21.102  20.071  15.382  1.00  0.00     0.000 C 
BRANCH  16  17
ATOM     17  C   UNL     1      20.417  20.428  14.050  1.00  0.00    -0.000 C 
BRANCH  17  18
ATOM     18  C   UNL     1      19.047  19.758  13.827  1.00  0.00    -0.000 C 
BRANCH  18  19
ATOM     19  C   UNL     1      18.747  18.576  14.767  1.00  0.00    -0.003 C 
ATOM     20  C   UNL     1      19.097  17.221  14.153  1.00  0.00     0.004 C 
ENDBRANCH  18  19
ENDBRANCH  17  18
ENDBRANCH  16  17
ENDBRANCH  15  16
ENDBRANCH  14  15
ENDBRANCH  13  14
ENDBRANCH   2  13
TORSDOF 15
ENDMDL
MODEL 2
REMARK VINA RESULT:    -3.946      1.459      3.085
REMARK INTER + INTRA:          -9.636
REMARK INTER:                  -7.437
REMARK INTRA:                  -2.198
REMARK UNBOUND:                -2.229
REMARK SMILES CCCCCCCCC=CCCCCCCCC(=O)[O-]
REMARK SMILES IDX 10 1 9 2 11 3 12 4 13 5 14 6 15 7 16 8 17 9 18 10 19 11
REMARK SMILES IDX 20 12 8 13 7 14 6 15 5 16 4 17 3 18 2 19 1 20
REMARK H PARENT
REMARK Flexibility Score: inf
ROOT
ATOM      1  C   UNL     1      18.778  21.486  15.941  1.00  0.00    -0.031 C 
ATOM      2  C   UNL     1      18.804  20.455  15.085  1.00  0.00    -0.031 C 
ENDROOT
BRANCH   1   3
ATOM      3  C   UNL     1      17.692  21.629  16.974  1.00  0.00     0.027 C 
BRANCH   3   4
ATOM      4  C   UNL     1      16.394  20.918  16.560  1.00  0.00     0.004 C 
BRANCH   4   5
ATOM      5  C   UNL     1      15.145  21.636  17.092  1.00  0.00     0.000 C 
BRANCH   5   6
ATOM      6  C   UNL     1      14.366  20.737  18.063  1.00  0.00     0.000 C 
BRANCH   6   7
ATOM      7  C   UNL     1      14.953  19.321  18.160  1.00  0.00     0.000 C 
BRANCH   7   8
ATOM      8  C   UNL     1      15.353  18.942  19.597  1.00  0.00     0.006 C 
BRANCH   8   9
ATOM      9  C   UNL     1      16.838  19.211  19.874  1.00  0.00     0.053 C 
BRANCH   9  10
ATOM     10  C   UNL     1      17.714  18.160  19.264  1.00  0.00     0.041 C 
ATOM     11  O   UNL     1      18.453  18.440  18.285  1.00  0.00    -0.550 OA
ATOM     12  O   UNL     1      17.738  16.879  19.800  1.00  0.00    -0.550 OA
ENDBRANCH   9  10
ENDBRANCH   8   9
ENDBRANCH   7   8
ENDBRANCH   6   7
ENDBRANCH   5   6
ENDBRANCH   4   5
ENDBRANCH   3   4
ENDBRANCH   1   3
BRANCH   2  13
ATOM     13  C   UNL     1      19.900  20.335  14.062  1.00  0.00     0.027 C 
BRANCH  13  14
ATOM     14  C   UNL     1      20.265  18.864  13.812  1.00  0.00     0.004 C 
BRANCH  14  15
ATOM     15  C   UNL     1      20.221  18.023  15.099  1.00  0.00     0.000 C 
BRANCH  15  16
ATOM     16  C   UNL     1      21.429  17.072  15.259  1.00  0.00     0.000 C 
BRANCH  16  17
ATOM     17  C   UNL     1      22.646  17.728  15.938  1.00  0.00    -0.000 C 
BRANCH  17  18
ATOM     18  C   UNL     1      22.304  18.865  16.920  1.00  0.00    -0.000 C 
BRANCH  18  19
ATOM     19  C   UNL     1      22.833  20.252  16.510  1.00  0.00    -0.003 C 
ATOM     20  C   UNL     1      22.129  21.397  17.236  1.00  0.00     0.004 C 
ENDBRANCH  18  19
ENDBRANCH  17  18
ENDBRANCH  16  17
ENDBRANCH  15  16
ENDBRANCH  14  15
ENDBRANCH  13  14
ENDBRANCH   2  13
TORSDOF 15
ENDMDL
MODEL 3
REMARK VINA RESULT:    -3.937      3.301      6.538
REMARK INTER + INTRA:          -9.619
REMARK INTER:                  -6.863
REMARK INTRA:                  -2.756
REMARK UNBOUND:                -2.229
REMARK SMILES CCCCCCCCC=CCCCCCCCC(=O)[O-]
REMARK SMILES IDX 10 1 9 2 11 3 12 4 13 5 14 6 15 7 16 8 17 9 18 10 19 11
REMARK SMILES IDX 20 12 8 13 7 14 6 15 5 16 4 17 3 18 2 19 1 20
REMARK H PARENT
REMARK Flexibility Score: inf
ROOT
ATOM      1  C   UNL     1      22.340  17.131  17.155  1.00  0.00    -0.031 C 
ATOM      2  C   UNL     1      23.617  17.351  16.813  1.00  0.00    -0.031 C 
ENDROOT
BRANCH   1   3
ATOM      3  C   UNL     1      21.319  16.673  16.148  1.00  0.00     0.027 C 
BRANCH   3   4
ATOM      4  C   UNL     1      21.808  16.841  14.701  1.00  0.00     0.004 C 
BRANCH   4   5
ATOM      5  C   UNL     1      20.647  17.040  13.716  1.00  0.00     0.000 C 
BRANCH   5   6
ATOM      6  C   UNL     1      19.703  18.152  14.196  1.00  0.00     0.000 C 
BRANCH   6   7
ATOM      7  C   UNL     1      20.128  19.544  13.703  1.00  0.00     0.000 C 
BRANCH   7   8
ATOM      8  C   UNL     1      19.458  20.682  14.492  1.00  0.00     0.006 C 
BRANCH   8   9
ATOM      9  C   UNL     1      18.870  20.196  15.823  1.00  0.00     0.053 C 
BRANCH   9  10
ATOM     10  C   UNL     1      17.677  21.005  16.230  1.00  0.00     0.041 C 
ATOM     11  O   UNL     1      17.798  22.233  16.483  1.00  0.00    -0.550 OA
ATOM     12  O   UNL     1      16.423  20.410  16.297  1.00  0.00    -0.550 OA
ENDBRANCH   9  10
ENDBRANCH   8   9
ENDBRANCH   7   8
ENDBRANCH   6   7
ENDBRANCH   5   6
ENDBRANCH   4   5
ENDBRANCH   3   4
ENDBRANCH   1   3
BRANCH   2  13
ATOM     13  C   UNL     1      24.618  17.809  17.838  1.00  0.00     0.027 C 
BRANCH  13  14
ATOM     14  C   UNL     1      25.675  18.728  17.208  1.00  0.00     0.004 C 
BRANCH  14  15
ATOM     15  C   UNL     1      25.376  19.037  15.731  1.00  0.00     0.000 C 
BRANCH  15  16
ATOM     16  C   UNL     1      25.647  20.508  15.338  1.00  0.00     0.000 C 
BRANCH  16  17
ATOM     17  C   UNL     1      24.486  21.462  15.674  1.00  0.00    -0.000 C 
BRANCH  17  18
ATOM     18  C   UNL     1      23.085  20.825  15.604  1.00  0.00    -0.000 C 
BRANCH  18  19
ATOM     19  C   UNL     1      22.303  20.839  16.931  1.00  0.00    -0.003 C 
ATOM     20  C   UNL     1      23.129  21.368  18.103  1.00  0.00     0.004 C 
ENDBRANCH  18  19
ENDBRANCH  17  18
ENDBRANCH  16  17
ENDBRANCH  15  16
ENDBRANCH  14  15
ENDBRANCH  13  14
ENDBRANCH   2  13
TORSDOF 15
ENDMDL
MODEL 4
REMARK VINA RESULT:    -3.937      3.570      5.089
REMARK INTER + INTRA:          -9.618
REMARK INTER:                  -7.651
REMARK INTRA:                  -1.968
REMARK UNBOUND:                -2.229
REMARK SMILES CCCCCCCCC=CCCCCCCCC(=O)[O-]
REMARK SMILES IDX 10 1 9 2 11 3 12 4 13 5 14 6 15 7 16 8 17 9 18 10 19 11
REMARK SMILES IDX 20 12 8 13 7 14 6 15 5 16 4 17 3 18 2 19 1 20
REMARK H PARENT
REMARK Flexibility Score: inf
ROOT
ATOM      1  C   UNL     1      16.784  19.058  16.859  1.00  0.00    -0.031 C 
ATOM      2  C   UNL     1      16.476  19.132  15.557  1.00  0.00    -0.031 C 
ENDROOT
BRANCH   1   3
ATOM      3  C   UNL     1      16.094  19.917  17.885  1.00  0.00     0.027 C 
BRANCH   3   4
ATOM      4  C   UNL     1      14.996  20.798  17.268  1.00  0.00     0.004 C 
BRANCH   4   5
ATOM      5  C   UNL     1      13.795  20.972  18.208  1.00  0.00     0.000 C 
BRANCH   5   6
ATOM      6  C   UNL     1      13.601  19.729  19.089  1.00  0.00     0.000 C 
BRANCH   6   7
ATOM      7  C   UNL     1      12.121  19.427  19.370  1.00  0.00     0.000 C 
BRANCH   7   8
ATOM      8  C   UNL     1      11.178  20.492  18.784  1.00  0.00     0.006 C 
BRANCH   8   9
ATOM      9  C   UNL     1       9.710  20.228  19.146  1.00  0.00     0.053 C 
BRANCH   9  10
ATOM     10  C   UNL     1       8.894  21.483  19.098  1.00  0.00     0.041 C 
ATOM     11  O   UNL     1       7.872  21.549  18.366  1.00  0.00    -0.550 OA
ATOM     12  O   UNL     1       9.244  22.570  19.890  1.00  0.00    -0.550 OA
ENDBRANCH   9  10
ENDBRANCH   8   9
ENDBRANCH   7   8
ENDBRANCH   6   7
ENDBRANCH   5   6
ENDBRANCH   4   5
ENDBRANCH   3   4
ENDBRANCH   1   3
BRANCH   2  13
ATOM     13  C   UNL     1      17.181  18.263  14.551  1.00  0.00     0.027 C 
BRANCH  13  14
ATOM     14  C   UNL     1      18.704  18.320  14.741  1.00  0.00     0.004 C 
BRANCH  14  15
ATOM     15  C   UNL     1      19.384  19.262  13.733  1.00  0.00     0.000 C 
BRANCH  15  16
ATOM     16  C   UNL     1      20.078  20.477  14.391  1.00  0.00     0.000 C 
BRANCH  16  17
ATOM     17  C   UNL     1      20.436  20.257  15.872  1.00  0.00    -0.000 C 
BRANCH  17  18
ATOM     18  C   UNL     1      19.851  21.303  16.841  1.00  0.00    -0.000 C 
BRANCH  18  19
ATOM     19  C   UNL     1      18.675  22.120  16.275  1.00  0.00    -0.003 C 
ATOM     20  C   UNL     1      18.233  23.250  17.204  1.00  0.00     0.004 C 
ENDBRANCH  18  19
ENDBRANCH  17  18
ENDBRANCH  16  17
ENDBRANCH  15  16
ENDBRANCH  14  15
ENDBRANCH  13  14
ENDBRANCH   2  13
TORSDOF 15
ENDMDL
MODEL 5
REMARK VINA RESULT:    -3.928      2.746      6.794
REMARK INTER + INTRA:          -9.602
REMARK INTER:                  -7.612
REMARK INTRA:                  -1.991
REMARK UNBOUND:                -2.229
REMARK SMILES CCCCCCCCC=CCCCCCCCC(=O)[O-]
REMARK SMILES IDX 10 1 9 2 11 3 12 4 13 5 14 6 15 7 16 8 17 9 18 10 19 11
REMARK SMILES IDX 20 12 8 13 7 14 6 15 5 16 4 17 3 18 2 19 1 20
REMARK H PARENT
REMARK Flexibility Score: inf
ROOT
ATOM      1  C   UNL     1      20.531  18.029  13.715  1.00  0.00    -0.031 C 
ATOM      2  C   UNL     1      19.310  18.502  14.002  1.00  0.00    -0.031 C 
ENDROOT
BRANCH   1   3
ATOM      3  C   UNL     1      20.864  16.567  13.849  1.00  0.00     0.027 C 
BRANCH   3   4
ATOM      4  C   UNL     1      21.888  16.301  14.963  1.00  0.00     0.004 C 
BRANCH   4   5
ATOM      5  C   UNL     1      21.287  16.491  16.362  1.00  0.00     0.000 C 
BRANCH   5   6
ATOM      6  C   UNL     1      21.904  17.708  17.066  1.00  0.00     0.000 C 
BRANCH   6   7
ATOM      7  C   UNL     1      23.437  17.730  16.975  1.00  0.00     0.000 C 
BRANCH   7   8
ATOM      8  C   UNL     1      23.974  19.029  16.347  1.00  0.00     0.006 C 
BRANCH   8   9
ATOM      9  C   UNL     1      22.873  20.081  16.162  1.00  0.00     0.053 C 
BRANCH   9  10
ATOM     10  C   UNL     1      23.020  21.213  17.131  1.00  0.00     0.041 C 
ATOM     11  O   UNL     1      22.001  21.790  17.594  1.00  0.00    -0.550 OA
ATOM     12  O   UNL     1      24.284  21.609  17.550  1.00  0.00    -0.550 OA
ENDBRANCH   9  10
ENDBRANCH   8   9
ENDBRANCH   7   8
ENDBRANCH   6   7
ENDBRANCH   5   6
ENDBRANCH   4   5
ENDBRANCH   3   4
ENDBRANCH   1   3
BRANCH   2  13
ATOM     13  C   UNL     1      19.002  19.967  13.860  1.00  0.00     0.027 C 
BRANCH  13  14
ATOM     14  C   UNL     1      19.591  20.772  15.028  1.00  0.00     0.004 C 
BRANCH  14  15
ATOM     15  C   UNL     1      19.104  20.262  16.395  1.00  0.00     0.000 C 
BRANCH  15  16
ATOM     16  C   UNL     1      18.469  21.363  17.277  1.00  0.00     0.000 C 
BRANCH  16  17
ATOM     17  C   UNL     1      17.159  21.933  16.704  1.00  0.00    -0.000 C 
BRANCH  17  18
ATOM     18  C   UNL     1      15.959  20.967  16.748  1.00  0.00    -0.000 C 
BRANCH  18  19
ATOM     19  C   UNL     1      14.615  21.625  17.114  1.00  0.00    -0.003 C 
ATOM     20  C   UNL     1      13.874  20.888  18.228  1.00  0.00     0.004 C 
ENDBRANCH  18  19
ENDBRANCH  17  18
ENDBRANCH  16  17
ENDBRANCH  15  16
ENDBRANCH  14  15
ENDBRANCH  13  14
ENDBRANCH   2  13
TORSDOF 15
ENDMDL
MODEL 6
REMARK VINA RESULT:    -3.884      1.813      6.127
REMARK INTER + INTRA:          -9.520
REMARK INTER:                  -7.355
REMARK INTRA:                  -2.164
REMARK UNBOUND:                -2.229
REMARK SMILES CCCCCCCCC=CCCCCCCCC(=O)[O-]
REMARK SMILES IDX 10 1 9 2 11 3 12 4 13 5 14 6 15 7 16 8 17 9 18 10 19 11
REMARK SMILES IDX 20 12 8 13 7 14 6 15 5 16 4 17 3 18 2 19 1 20
REMARK H PARENT
REMARK Flexibility Score: inf
ROOT
ATOM      1  C   UNL     1      14.582  20.697  17.501  1.00  0.00    -0.031 C 
ATOM      2  C   UNL     1      13.611  21.052  18.354  1.00  0.00    -0.031 C 
ENDROOT
BRANCH   1   3
ATOM      3  C   UNL     1      15.461  21.720  16.833  1.00  0.00     0.027 C 
BRANCH   3   4
ATOM      4  C   UNL     1      16.945  21.321  16.859  1.00  0.00     0.004 C 
BRANCH   4   5
ATOM      5  C   UNL     1      17.874  22.544  16.860  1.00  0.00     0.000 C 
BRANCH   5   6
ATOM      6  C   UNL     1      19.341  22.120  16.700  1.00  0.00     0.000 C 
BRANCH   6   7
ATOM      7  C   UNL     1      19.489  20.665  16.228  1.00  0.00     0.000 C 
BRANCH   7   8
ATOM      8  C   UNL     1      19.747  20.558  14.714  1.00  0.00     0.006 C 
BRANCH   8   9
ATOM      9  C   UNL     1      18.987  19.385  14.079  1.00  0.00     0.053 C 
BRANCH   9  10
ATOM     10  C   UNL     1      19.744  18.100  14.209  1.00  0.00     0.041 C 
ATOM     11  O   UNL     1      20.649  17.809  13.382  1.00  0.00    -0.550 OA
ATOM     12  O   UNL     1      19.474  17.237  15.263  1.00  0.00    -0.550 OA
ENDBRANCH   9  10
ENDBRANCH   8   9
ENDBRANCH   7   8
ENDBRANCH   6   7
ENDBRANCH   5   6
ENDBRANCH   4   5
ENDBRANCH   3   4
ENDBRANCH   1   3
BRANCH   2  13
ATOM     13  C   UNL     1      12.745  20.010  19.007  1.00  0.00     0.027 C 
BRANCH  13  14
ATOM     14  C   UNL     1      13.573  18.788  19.430  1.00  0.00     0.004 C 
BRANCH  14  15
ATOM     15  C   UNL     1      13.654  18.636  20.959  1.00  0.00     0.000 C 
BRANCH  15  16
ATOM     16  C   UNL     1      15.091  18.759  21.518  1.00  0.00     0.000 C 
BRANCH  16  17
ATOM     17  C   UNL     1      16.132  19.171  20.461  1.00  0.00    -0.000 C 
BRANCH  17  18
ATOM     18  C   UNL     1      17.147  18.072  20.090  1.00  0.00    -0.000 C 
BRANCH  18  19
ATOM     19  C   UNL     1      17.800  18.239  18.706  1.00  0.00    -0.003 C 
ATOM     20  C   UNL     1      16.916  17.736  17.565  1.00  0.00     0.004 C 
ENDBRANCH  18  19
ENDBRANCH  17  18
ENDBRANCH  16  17
ENDBRANCH  15  16
ENDBRANCH  14  15
ENDBRANCH  13  14
ENDBRANCH   2  13
TORSDOF 15
ENDMDL
MODEL 7
REMARK VINA RESULT:    -3.873      1.551      3.484
REMARK INTER + INTRA:          -9.499
REMARK INTER:                  -7.135
REMARK INTRA:                  -2.364
REMARK UNBOUND:                -2.229
REMARK SMILES CCCCCCCCC=CCCCCCCCC(=O)[O-]
REMARK SMILES IDX 10 1 9 2 11 3 12 4 13 5 14 6 15 7 16 8 17 9 18 10 19 11
REMARK SMILES IDX 20 12 8 13 7 14 6 15 5 16 4 17 3 18 2 19 1 20
REMARK H PARENT
REMARK Flexibility Score: inf
ROOT
ATOM      1  C   UNL     1      19.510  21.110  16.357  1.00  0.00    -0.031 C 
ATOM      2  C   UNL     1      20.792  20.721  16.373  1.00  0.00    -0.031 C 
ENDROOT
BRANCH   1   3
ATOM      3  C   UNL     1      19.052  22.354  17.071  1.00  0.00     0.027 C 
BRANCH   3   4
ATOM      4  C   UNL     1      17.613  22.744  16.703  1.00  0.00     0.004 C 
BRANCH   4   5
ATOM      5  C   UNL     1      16.666  21.535  16.704  1.00  0.00     0.000 C 
BRANCH   5   6
ATOM      6  C   UNL     1      15.242  21.953  17.100  1.00  0.00     0.000 C 
BRANCH   6   7
ATOM      7  C   UNL     1      14.246  20.784  17.045  1.00  0.00     0.000 C 
BRANCH   7   8
ATOM      8  C   UNL     1      13.822  20.301  18.444  1.00  0.00     0.006 C 
BRANCH   8   9
ATOM      9  C   UNL     1      14.952  19.554  19.165  1.00  0.00     0.053 C 
BRANCH   9  10
ATOM     10  C   UNL     1      14.436  18.748  20.316  1.00  0.00     0.041 C 
ATOM     11  O   UNL     1      15.107  17.783  20.768  1.00  0.00    -0.550 OA
ATOM     12  O   UNL     1      13.227  19.083  20.913  1.00  0.00    -0.550 OA
ENDBRANCH   9  10
ENDBRANCH   8   9
ENDBRANCH   7   8
ENDBRANCH   6   7
ENDBRANCH   5   6
ENDBRANCH   4   5
ENDBRANCH   3   4
ENDBRANCH   1   3
BRANCH   2  13
ATOM     13  C   UNL     1      21.225  19.473  15.652  1.00  0.00     0.027 C 
BRANCH  13  14
ATOM     14  C   UNL     1      20.398  19.257  14.375  1.00  0.00     0.004 C 
BRANCH  14  15
ATOM     15  C   UNL     1      20.162  17.767  14.076  1.00  0.00     0.000 C 
BRANCH  15  16
ATOM     16  C   UNL     1      18.678  17.343  14.177  1.00  0.00     0.000 C 
BRANCH  16  17
ATOM     17  C   UNL     1      17.779  18.396  14.849  1.00  0.00    -0.000 C 
BRANCH  17  18
ATOM     18  C   UNL     1      17.090  17.927  16.146  1.00  0.00    -0.000 C 
BRANCH  18  19
ATOM     19  C   UNL     1      18.048  17.389  17.225  1.00  0.00    -0.003 C 
ATOM     20  C   UNL     1      18.311  18.396  18.344  1.00  0.00     0.004 C 
ENDBRANCH  18  19
ENDBRANCH  17  18
ENDBRANCH  16  17
ENDBRANCH  15  16
ENDBRANCH  14  15
ENDBRANCH  13  14
ENDBRANCH   2  13
TORSDOF 15
ENDMDL
MODEL 8
REMARK VINA RESULT:    -3.860      2.096      6.046
REMARK INTER + INTRA:          -9.473
REMARK INTER:                  -6.798
REMARK INTRA:                  -2.675
REMARK UNBOUND:                -2.229
REMARK SMILES CCCCCCCCC=CCCCCCCCC(=O)[O-]
REMARK SMILES IDX 10 1 9 2 11 3 12 4 13 5 14 6 15 7 16 8 17 9 18 10 19 11
REMARK SMILES IDX 20 12 8 13 7 14 6 15 5 16 4 17 3 18 2 19 1 20
REMARK H PARENT
REMARK Flexibility Score: inf
ROOT
ATOM      1  C   UNL     1      17.069  21.726  16.748  1.00  0.00    -0.031 C 
ATOM      2  C   UNL     1      16.513  20.570  16.359  1.00  0.00    -0.031 C 
ENDROOT
BRANCH   1   3
ATOM      3  C   UNL     1      18.559  21.935  16.722  1.00  0.00     0.027 C 
BRANCH   3   4
ATOM      4  C   UNL     1      19.318  20.682  16.259  1.00  0.00     0.004 C 
BRANCH   4   5
ATOM      5  C   UNL     1      19.779  20.789  14.799  1.00  0.00     0.000 C 
BRANCH   5   6
ATOM      6  C   UNL     1      19.393  19.532  14.006  1.00  0.00     0.000 C 
BRANCH   6   7
ATOM      7  C   UNL     1      18.973  18.365  14.913  1.00  0.00     0.000 C 
BRANCH   7   8
ATOM      8  C   UNL     1      19.967  17.191  14.865  1.00  0.00     0.006 C 
BRANCH   8   9
ATOM      9  C   UNL     1      20.802  17.085  16.148  1.00  0.00     0.053 C 
BRANCH   9  10
ATOM     10  C   UNL     1      22.172  17.662  15.966  1.00  0.00     0.041 C 
ATOM     11  O   UNL     1      23.076  16.986  15.408  1.00  0.00    -0.550 OA
ATOM     12  O   UNL     1      22.441  18.959  16.382  1.00  0.00    -0.550 OA
ENDBRANCH   9  10
ENDBRANCH   8   9
ENDBRANCH   7   8
ENDBRANCH   6   7
ENDBRANCH   5   6
ENDBRANCH   4   5
ENDBRANCH   3   4
ENDBRANCH   1   3
BRANCH   2  13
ATOM     13  C   UNL     1      15.020  20.386  16.395  1.00  0.00     0.027 C 
BRANCH  13  14
ATOM     14  C   UNL     1      14.378  21.276  17.469  1.00  0.00     0.004 C 
BRANCH  14  15
ATOM     15  C   UNL     1      13.801  20.460  18.638  1.00  0.00     0.000 C 
BRANCH  15  16
ATOM     16  C   UNL     1      13.953  18.931  18.461  1.00  0.00     0.000 C 
BRANCH  16  17
ATOM     17  C   UNL     1      14.920  18.285  19.469  1.00  0.00    -0.000 C 
BRANCH  17  18
ATOM     18  C   UNL     1      16.142  19.148  19.838  1.00  0.00    -0.000 C 
BRANCH  18  19
ATOM     19  C   UNL     1      17.482  18.647  19.267  1.00  0.00    -0.003 C 
ATOM     20  C   UNL     1      17.312  17.509  18.261  1.00  0.00     0.004 C 
ENDBRANCH  18  19
ENDBRANCH  17  18
ENDBRANCH  16  17
ENDBRANCH  15  16
ENDBRANCH  14  15
ENDBRANCH  13  14
ENDBRANCH   2  13
TORSDOF 15
ENDMDL
MODEL 9
REMARK VINA RESULT:    -3.835      1.945      5.972
REMARK INTER + INTRA:          -9.428
REMARK INTER:                  -6.982
REMARK INTRA:                  -2.446
REMARK UNBOUND:                -2.229
REMARK SMILES CCCCCCCCC=CCCCCCCCC(=O)[O-]
REMARK SMILES IDX 10 1 9 2 11 3 12 4 13 5 14 6 15 7 16 8 17 9 18 10 19 11
REMARK SMILES IDX 20 12 8 13 7 14 6 15 5 16 4 17 3 18 2 19 1 20
REMARK H PARENT
REMARK Flexibility Score: inf
ROOT
ATOM      1  C   UNL     1      17.500  18.717  19.163  1.00  0.00    -0.031 C 
ATOM      2  C   UNL     1      16.225  18.627  18.762  1.00  0.00    -0.031 C 
ENDROOT
BRANCH   1   3
ATOM      3  C   UNL     1      18.645  18.476  18.216  1.00  0.00     0.027 C 
BRANCH   3   4
ATOM      4  C   UNL     1      18.659  17.041  17.668  1.00  0.00     0.004 C 
BRANCH   4   5
ATOM      5  C   UNL     1      18.834  17.004  16.143  1.00  0.00     0.000 C 
BRANCH   5   6
ATOM      6  C   UNL     1      18.287  18.285  15.496  1.00  0.00     0.000 C 
BRANCH   6   7
ATOM      7  C   UNL     1      18.974  18.614  14.162  1.00  0.00     0.000 C 
BRANCH   7   8
ATOM      8  C   UNL     1      20.489  18.837  14.315  1.00  0.00     0.006 C 
BRANCH   8   9
ATOM      9  C   UNL     1      20.815  20.204  14.931  1.00  0.00     0.053 C 
BRANCH   9  10
ATOM     10  C   UNL     1      21.384  20.069  16.309  1.00  0.00     0.041 C 
ATOM     11  O   UNL     1      21.830  18.961  16.707  1.00  0.00    -0.550 OA
ATOM     12  O   UNL     1      21.452  21.177  17.145  1.00  0.00    -0.550 OA
ENDBRANCH   9  10
ENDBRANCH   8   9
ENDBRANCH   7   8
ENDBRANCH   6   7
ENDBRANCH   5   6
ENDBRANCH   4   5
ENDBRANCH   3   4
ENDBRANCH   1   3
BRANCH   2  13
ATOM     13  C   UNL     1      15.097  18.873  19.727  1.00  0.00     0.027 C 
BRANCH  13  14
ATOM     14  C   UNL     1      13.998  19.734  19.087  1.00  0.00     0.004 C 
BRANCH  14  15
ATOM     15  C   UNL     1      14.297  20.066  17.615  1.00  0.00     0.000 C 
BRANCH  15  16
ATOM     16  C   UNL     1      14.226  21.577  17.295  1.00  0.00     0.000 C 
BRANCH  16  17
ATOM     17  C   UNL     1      15.606  22.231  17.094  1.00  0.00    -0.000 C 
BRANCH  17  18
ATOM     18  C   UNL     1      16.719  21.267  16.641  1.00  0.00    -0.000 C 
BRANCH  18  19
ATOM     19  C   UNL     1      18.069  21.941  16.333  1.00  0.00    -0.003 C 
ATOM     20  C   UNL     1      18.323  23.184  17.183  1.00  0.00     0.004 C 
ENDBRANCH  18  19
ENDBRANCH  17  18
ENDBRANCH  16  17
ENDBRANCH  15  16
ENDBRANCH  14  15
ENDBRANCH  13  14
ENDBRANCH   2  13
TORSDOF 15
ENDMDL
