MODEL 1
REMARK VINA RESULT:    -2.332      0.000      0.000
REMARK INTER + INTRA:          -2.332
REMARK INTER:                  -2.332
REMARK INTRA:                   0.000
REMARK UNBOUND:                 0.000
REMARK SMILES CC(=O)[O-]
REMARK SMILES IDX 1 1 2 2 3 3 4 4
REMARK H PARENT
REMARK Flexibility Score: inf
ROOT
ATOM      1  C   UNL     1       9.305   5.647  10.360  1.00  0.00     0.063 C 
ATOM      2  C   UNL     1       8.278   6.690  10.644  1.00  0.00     0.038 C 
ATOM      3  O   UNL     1       8.549   7.652  11.409  1.00  0.00    -0.550 OA
ATOM      4  O   UNL     1       7.036   6.631  10.024  1.00  0.00    -0.550 OA
ENDROOT
TORSDOF 0
ENDMDL
MODEL 2
REMARK VINA RESULT:    -2.328      0.168      1.627
REMARK INTER + INTRA:          -2.328
REMARK INTER:                  -2.328
REMARK INTRA:                   0.000
REMARK UNBOUND:                 0.000
REMARK SMILES CC(=O)[O-]
REMARK SMILES IDX 1 1 2 2 3 3 4 4
REMARK H PARENT
REMARK Flexibility Score: inf
ROOT
ATOM      1  C   UNL     1       9.206   5.752  10.358  1.00  0.00     0.063 C 
ATOM      2  C   UNL     1       8.186   6.813  10.597  1.00  0.00     0.038 C 
ATOM      3  O   UNL     1       7.052   6.732  10.056  1.00  0.00    -0.550 OA
ATOM      4  O   UNL     1       8.465   7.864  11.461  1.00  0.00    -0.550 OA
ENDROOT
TORSDOF 0
ENDMDL
MODEL 3
REMARK VINA RESULT:    -2.178      3.515      4.043
REMARK INTER + INTRA:          -2.178
REMARK INTER:                  -2.178
REMARK INTRA:                   0.000
REMARK UNBOUND:                 0.000
REMARK SMILES CC(=O)[O-]
REMARK SMILES IDX 1 1 2 2 3 3 4 4
REMARK H PARENT
REMARK Flexibility Score: inf
ROOT
ATOM      1  C   UNL     1       4.083   6.760  11.103  1.00  0.00     0.063 C 
ATOM      2  C   UNL     1       4.741   7.378   9.916  1.00  0.00     0.038 C 
ATOM      3  O   UNL     1       5.934   7.090   9.634  1.00  0.00    -0.550 OA
ATOM      4  O   UNL     1       4.024   8.232   9.088  1.00  0.00    -0.550 OA
ENDROOT
TORSDOF 0
ENDMDL
MODEL 4
REMARK VINA RESULT:    -2.145      3.792      4.269
REMARK INTER + INTRA:          -2.145
REMARK INTER:                  -2.145
REMARK INTRA:                   0.000
REMARK UNBOUND:                 0.000
REMARK SMILES CC(=O)[O-]
REMARK SMILES IDX 1 1 2 2 3 3 4 4
REMARK H PARENT
REMARK Flexibility Score: inf
ROOT
ATOM      1  C   UNL     1       5.939   5.836  14.700  1.00  0.00     0.063 C 
ATOM      2  C   UNL     1       7.327   6.174  14.272  1.00  0.00     0.038 C 
ATOM      3  O   UNL     1       8.266   5.360  14.475  1.00  0.00    -0.550 OA
ATOM      4  O   UNL     1       7.579   7.363  13.600  1.00  0.00    -0.550 OA
ENDROOT
TORSDOF 0
ENDMDL
MODEL 5
REMARK VINA RESULT:    -2.121      3.490      3.804
REMARK INTER + INTRA:          -2.121
REMARK INTER:                  -2.121
REMARK INTRA:                   0.000
REMARK UNBOUND:                 0.000
REMARK SMILES CC(=O)[O-]
REMARK SMILES IDX 1 1 2 2 3 3 4 4
REMARK H PARENT
REMARK Flexibility Score: inf
ROOT
ATOM      1  C   UNL     1       7.819   5.786  14.511  1.00  0.00     0.063 C 
ATOM      2  C   UNL     1       7.108   6.979  13.969  1.00  0.00     0.038 C 
ATOM      3  O   UNL     1       7.536   7.553  12.934  1.00  0.00    -0.550 OA
ATOM      4  O   UNL     1       5.941   7.429  14.574  1.00  0.00    -0.550 OA
ENDROOT
TORSDOF 0
ENDMDL
MODEL 6
REMARK VINA RESULT:    -2.088      3.736      4.033
REMARK INTER + INTRA:          -2.088
REMARK INTER:                  -2.088
REMARK INTRA:                   0.000
REMARK UNBOUND:                 0.000
REMARK SMILES CC(=O)[O-]
REMARK SMILES IDX 1 1 2 2 3 3 4 4
REMARK H PARENT
REMARK Flexibility Score: inf
ROOT
ATOM      1  C   UNL     1       6.027   7.098   9.957  1.00  0.00     0.063 C 
ATOM      2  C   UNL     1       4.581   7.446   9.847  1.00  0.00     0.038 C 
ATOM      3  O   UNL     1       4.193   8.270   8.978  1.00  0.00    -0.550 OA
ATOM      4  O   UNL     1       3.650   6.821  10.668  1.00  0.00    -0.550 OA
ENDROOT
TORSDOF 0
ENDMDL
MODEL 7
REMARK VINA RESULT:    -2.072      3.811      4.222
REMARK INTER + INTRA:          -2.072
REMARK INTER:                  -2.072
REMARK INTRA:                   0.000
REMARK UNBOUND:                 0.000
REMARK SMILES CC(=O)[O-]
REMARK SMILES IDX 1 1 2 2 3 3 4 4
REMARK H PARENT
REMARK Flexibility Score: inf
ROOT
ATOM      1  C   UNL     1       7.464   7.067  13.144  1.00  0.00     0.063 C 
ATOM      2  C   UNL     1       7.492   6.170  14.335  1.00  0.00     0.038 C 
ATOM      3  O   UNL     1       8.374   5.277  14.432  1.00  0.00    -0.550 OA
ATOM      4  O   UNL     1       6.578   6.352  15.365  1.00  0.00    -0.550 OA
ENDROOT
TORSDOF 0
ENDMDL
MODEL 8
REMARK VINA RESULT:    -2.062      1.278      1.755
REMARK INTER + INTRA:          -2.062
REMARK INTER:                  -2.062
REMARK INTRA:                   0.000
REMARK UNBOUND:                 0.000
REMARK SMILES CC(=O)[O-]
REMARK SMILES IDX 1 1 2 2 3 3 4 4
REMARK H PARENT
REMARK Flexibility Score: inf
ROOT
ATOM      1  C   UNL     1       8.246   8.239  11.507  1.00  0.00     0.063 C 
ATOM      2  C   UNL     1       8.094   6.972  10.735  1.00  0.00     0.038 C 
ATOM      3  O   UNL     1       9.003   6.103  10.763  1.00  0.00    -0.550 OA
ATOM      4  O   UNL     1       6.926   6.726  10.025  1.00  0.00    -0.550 OA
ENDROOT
TORSDOF 0
ENDMDL
MODEL 9
REMARK VINA RESULT:    -2.010      2.373      2.581
REMARK INTER + INTRA:          -2.010
REMARK INTER:                  -2.010
REMARK INTRA:                   0.000
REMARK UNBOUND:                 0.000
REMARK SMILES CC(=O)[O-]
REMARK SMILES IDX 1 1 2 2 3 3 4 4
REMARK H PARENT
REMARK Flexibility Score: inf
ROOT
ATOM      1  C   UNL     1       7.850   8.151  10.975  1.00  0.00     0.063 C 
ATOM      2  C   UNL     1       6.697   8.245  10.033  1.00  0.00     0.038 C 
ATOM      3  O   UNL     1       6.422   9.341   9.479  1.00  0.00    -0.550 OA
ATOM      4  O   UNL     1       5.956   7.111   9.724  1.00  0.00    -0.550 OA
ENDROOT
TORSDOF 0
ENDMDL
