MODEL 1
REMARK VINA RESULT:    -3.634      0.000      0.000
REMARK INTER + INTRA:          -4.098
REMARK INTER:                  -4.059
REMARK INTRA:                  -0.039
REMARK UNBOUND:                -0.039
REMARK SMILES CCCC(=O)[O-]
REMARK SMILES IDX 3 1 4 2 5 3 6 4 2 5 1 6
REMARK H PARENT
REMARK Flexibility Score: inf
ROOT
ATOM      1  C   UNL     1      -4.034  -4.326   5.156  1.00  0.00     0.052 C 
ENDROOT
BRANCH   1   2
ATOM      2  C   UNL     1      -4.602  -3.013   5.601  1.00  0.00     0.041 C 
ATOM      3  O   UNL     1      -5.293  -2.945   6.651  1.00  0.00    -0.550 OA
ATOM      4  O   UNL     1      -4.340  -1.859   4.873  1.00  0.00    -0.550 OA
ENDBRANCH   1   2
BRANCH   1   5
ATOM      5  C   UNL     1      -4.060  -5.369   6.283  1.00  0.00     0.003 C 
ATOM      6  C   UNL     1      -5.065  -6.489   6.015  1.00  0.00     0.004 C 
ENDBRANCH   1   5
TORSDOF 2
ENDMDL
MODEL 2
REMARK VINA RESULT:    -3.423      1.344      1.818
REMARK INTER + INTRA:          -3.862
REMARK INTER:                  -3.844
REMARK INTRA:                  -0.017
REMARK UNBOUND:                -0.039
REMARK SMILES CCCC(=O)[O-]
REMARK SMILES IDX 3 1 4 2 5 3 6 4 2 5 1 6
REMARK H PARENT
REMARK Flexibility Score: inf
ROOT
ATOM      1  C   UNL     1      -4.835  -4.009   6.269  1.00  0.00     0.052 C 
ENDROOT
BRANCH   1   2
ATOM      2  C   UNL     1      -4.151  -3.221   5.194  1.00  0.00     0.041 C 
ATOM      3  O   UNL     1      -3.273  -3.762   4.474  1.00  0.00    -0.550 OA
ATOM      4  O   UNL     1      -4.510  -1.898   4.967  1.00  0.00    -0.550 OA
ENDBRANCH   1   2
BRANCH   1   5
ATOM      5  C   UNL     1      -4.005  -5.227   6.697  1.00  0.00     0.003 C 
ATOM      6  C   UNL     1      -3.837  -5.312   8.214  1.00  0.00     0.004 C 
ENDBRANCH   1   5
TORSDOF 2
ENDMDL
MODEL 3
REMARK VINA RESULT:    -3.297      2.112      2.981
REMARK INTER + INTRA:          -3.721
REMARK INTER:                  -3.656
REMARK INTRA:                  -0.065
REMARK UNBOUND:                -0.039
REMARK SMILES CCCC(=O)[O-]
REMARK SMILES IDX 3 1 4 2 5 3 6 4 2 5 1 6
REMARK H PARENT
REMARK Flexibility Score: inf
ROOT
ATOM      1  C   UNL     1      -4.464  -4.902   5.235  1.00  0.00     0.052 C 
ENDROOT
BRANCH   1   2
ATOM      2  C   UNL     1      -4.572  -5.051   6.722  1.00  0.00     0.041 C 
ATOM      3  O   UNL     1      -5.697  -4.999   7.283  1.00  0.00    -0.550 OA
ATOM      4  O   UNL     1      -3.432  -5.283   7.482  1.00  0.00    -0.550 OA
ENDBRANCH   1   2
BRANCH   1   5
ATOM      5  C   UNL     1      -3.702  -3.628   4.845  1.00  0.00     0.003 C 
ATOM      6  C   UNL     1      -4.449  -2.357   5.247  1.00  0.00     0.004 C 
ENDBRANCH   1   5
TORSDOF 2
ENDMDL
MODEL 4
REMARK VINA RESULT:    -3.239      2.430      3.527
REMARK INTER + INTRA:          -3.657
REMARK INTER:                  -3.620
REMARK INTRA:                  -0.036
REMARK UNBOUND:                -0.039
REMARK SMILES CCCC(=O)[O-]
REMARK SMILES IDX 3 1 4 2 5 3 6 4 2 5 1 6
REMARK H PARENT
REMARK Flexibility Score: inf
ROOT
ATOM      1  C   UNL     1      -3.936  -5.341   6.131  1.00  0.00     0.052 C 
ENDROOT
BRANCH   1   2
ATOM      2  C   UNL     1      -5.154  -6.204   6.007  1.00  0.00     0.041 C 
ATOM      3  O   UNL     1      -5.810  -6.222   4.934  1.00  0.00    -0.550 OA
ATOM      4  O   UNL     1      -5.543  -7.014   7.067  1.00  0.00    -0.550 OA
ENDBRANCH   1   2
BRANCH   1   5
ATOM      5  C   UNL     1      -4.009  -4.117   5.207  1.00  0.00     0.003 C 
ATOM      6  C   UNL     1      -4.803  -2.968   5.827  1.00  0.00     0.004 C 
ENDBRANCH   1   5
TORSDOF 2
ENDMDL
MODEL 5
REMARK VINA RESULT:    -3.221     15.642     16.816
REMARK INTER + INTRA:          -3.636
REMARK INTER:                  -3.592
REMARK INTRA:                  -0.045
REMARK UNBOUND:                -0.039
REMARK SMILES CCCC(=O)[O-]
REMARK SMILES IDX 3 1 4 2 5 3 6 4 2 5 1 6
REMARK H PARENT
REMARK Flexibility Score: inf
ROOT
ATOM      1  C   UNL     1       1.386   5.013  -7.648  1.00  0.00     0.052 C 
ENDROOT
BRANCH   1   2
ATOM      2  C   UNL     1       0.423   4.182  -6.856  1.00  0.00     0.041 C 
ATOM      3  O   UNL     1       0.284   4.379  -5.621  1.00  0.00    -0.550 OA
ATOM      4  O   UNL     1      -0.345   3.214  -7.490  1.00  0.00    -0.550 OA
ENDBRANCH   1   2
BRANCH   1   5
ATOM      5  C   UNL     1       1.407   6.471  -7.169  1.00  0.00     0.003 C 
ATOM      6  C   UNL     1       0.186   7.257  -7.645  1.00  0.00     0.004 C 
ENDBRANCH   1   5
TORSDOF 2
ENDMDL
MODEL 6
REMARK VINA RESULT:    -3.215     16.607     17.715
REMARK INTER + INTRA:          -3.629
REMARK INTER:                  -3.598
REMARK INTRA:                  -0.031
REMARK UNBOUND:                -0.039
REMARK SMILES CCCC(=O)[O-]
REMARK SMILES IDX 3 1 4 2 5 3 6 4 2 5 1 6
REMARK H PARENT
REMARK Flexibility Score: inf
ROOT
ATOM      1  C   UNL     1       2.894   8.771  -4.858  1.00  0.00     0.052 C 
ENDROOT
BRANCH   1   2
ATOM      2  C   UNL     1       2.564   7.436  -4.262  1.00  0.00     0.041 C 
ATOM      3  O   UNL     1       2.362   7.329  -3.024  1.00  0.00    -0.550 OA
ATOM      4  O   UNL     1       2.447   6.319  -5.079  1.00  0.00    -0.550 OA
ENDBRANCH   1   2
BRANCH   1   5
ATOM      5  C   UNL     1       1.634   9.510  -5.330  1.00  0.00     0.003 C 
ATOM      6  C   UNL     1       1.239   9.133  -6.757  1.00  0.00     0.004 C 
ENDBRANCH   1   5
TORSDOF 2
ENDMDL
MODEL 7
REMARK VINA RESULT:    -3.212     15.929     17.089
REMARK INTER + INTRA:          -3.626
REMARK INTER:                  -3.564
REMARK INTRA:                  -0.062
REMARK UNBOUND:                -0.039
REMARK SMILES CCCC(=O)[O-]
REMARK SMILES IDX 3 1 4 2 5 3 6 4 2 5 1 6
REMARK H PARENT
REMARK Flexibility Score: inf
ROOT
ATOM      1  C   UNL     1       1.409   4.881  -7.887  1.00  0.00     0.052 C 
ENDROOT
BRANCH   1   2
ATOM      2  C   UNL     1       0.433   4.176  -6.995  1.00  0.00     0.041 C 
ATOM      3  O   UNL     1      -0.294   3.257  -7.454  1.00  0.00    -0.550 OA
ATOM      4  O   UNL     1       0.352   4.512  -5.649  1.00  0.00    -0.550 OA
ENDBRANCH   1   2
BRANCH   1   5
ATOM      5  C   UNL     1       0.712   5.540  -9.085  1.00  0.00     0.003 C 
ATOM      6  C   UNL     1      -0.043   6.810  -8.691  1.00  0.00     0.004 C 
ENDBRANCH   1   5
TORSDOF 2
ENDMDL
MODEL 8
REMARK VINA RESULT:    -3.171     13.848     14.560
REMARK INTER + INTRA:          -3.580
REMARK INTER:                  -3.571
REMARK INTRA:                  -0.009
REMARK UNBOUND:                -0.039
REMARK SMILES CCCC(=O)[O-]
REMARK SMILES IDX 3 1 4 2 5 3 6 4 2 5 1 6
REMARK H PARENT
REMARK Flexibility Score: inf
ROOT
ATOM      1  C   UNL     1       1.964  -8.185  -6.964  1.00  0.00     0.052 C 
ENDROOT
BRANCH   1   2
ATOM      2  C   UNL     1       2.299  -7.783  -5.560  1.00  0.00     0.041 C 
ATOM      3  O   UNL     1       3.284  -8.301  -4.972  1.00  0.00    -0.550 OA
ATOM      4  O   UNL     1       1.543  -6.812  -4.915  1.00  0.00    -0.550 OA
ENDBRANCH   1   2
BRANCH   1   5
ATOM      5  C   UNL     1       1.107  -7.125  -7.670  1.00  0.00     0.003 C 
ATOM      6  C   UNL     1       0.712  -7.545  -9.086  1.00  0.00     0.004 C 
ENDBRANCH   1   5
TORSDOF 2
ENDMDL
MODEL 9
REMARK VINA RESULT:    -3.064     15.884     16.976
REMARK INTER + INTRA:          -3.461
REMARK INTER:                  -3.393
REMARK INTRA:                  -0.068
REMARK UNBOUND:                -0.039
REMARK SMILES CCCC(=O)[O-]
REMARK SMILES IDX 3 1 4 2 5 3 6 4 2 5 1 6
REMARK H PARENT
REMARK Flexibility Score: inf
ROOT
ATOM      1  C   UNL     1       2.250   5.609  -7.223  1.00  0.00     0.052 C 
ENDROOT
BRANCH   1   2
ATOM      2  C   UNL     1       2.005   6.636  -6.159  1.00  0.00     0.041 C 
ATOM      3  O   UNL     1       1.377   7.692  -6.431  1.00  0.00    -0.550 OA
ATOM      4  O   UNL     1       2.440   6.408  -4.859  1.00  0.00    -0.550 OA
ENDBRANCH   1   2
BRANCH   1   5
ATOM      5  C   UNL     1       0.949   4.928  -7.667  1.00  0.00     0.003 C 
ATOM      6  C   UNL     1       0.288   4.141  -6.535  1.00  0.00     0.004 C 
ENDBRANCH   1   5
TORSDOF 2
ENDMDL
