MODEL 1
REMARK VINA RESULT:    -4.103      0.000      0.000
REMARK INTER + INTRA:          -6.666
REMARK INTER:                  -6.022
REMARK INTRA:                  -0.644
REMARK UNBOUND:                -0.644
REMARK SMILES O=C([O-])CCCCCCCC(=O)[O-]
REMARK SMILES IDX 7 1 6 2 5 3 4 4 2 5 1 6 3 7 8 8 9 9 10 10 11 11 12 12 13 13
REMARK H PARENT
REMARK Flexibility Score: inf
ROOT
ATOM      1  C   UNL     1      -9.815 -12.993  14.095  1.00  0.00     0.000 C 
ENDROOT
BRANCH   1   2
ATOM      2  C   UNL     1     -10.118 -11.628  14.736  1.00  0.00     0.000 C 
BRANCH   2   3
ATOM      3  C   UNL     1      -9.089 -11.233  15.811  1.00  0.00     0.006 C 
BRANCH   3   4
ATOM      4  C   UNL     1      -9.489 -10.012  16.655  1.00  0.00     0.053 C 
BRANCH   4   5
ATOM      5  C   UNL     1      -9.503 -10.322  18.121  1.00  0.00     0.041 C 
ATOM      6  O   UNL     1     -10.394  -9.832  18.863  1.00  0.00    -0.550 OA
ATOM      7  O   UNL     1      -8.551 -11.178  18.661  1.00  0.00    -0.550 OA
ENDBRANCH   4   5
ENDBRANCH   3   4
ENDBRANCH   2   3
ENDBRANCH   1   2
BRANCH   1   8
ATOM      8  C   UNL     1     -11.080 -13.841  13.885  1.00  0.00     0.000 C 
BRANCH   8   9
ATOM      9  C   UNL     1     -12.186 -13.518  14.901  1.00  0.00     0.006 C 
BRANCH   9  10
ATOM     10  C   UNL     1     -12.078 -14.422  16.133  1.00  0.00     0.053 C 
BRANCH  10  11
ATOM     11  C   UNL     1     -11.333 -13.728  17.229  1.00  0.00     0.041 C 
ATOM     12  O   UNL     1     -11.895 -12.826  17.905  1.00  0.00    -0.550 OA
ATOM     13  O   UNL     1     -10.034 -14.110  17.537  1.00  0.00    -0.550 OA
ENDBRANCH  10  11
ENDBRANCH   9  10
ENDBRANCH   8   9
ENDBRANCH   1   8
TORSDOF 8
ENDMDL
MODEL 2
REMARK VINA RESULT:    -4.006      1.923      3.551
REMARK INTER + INTRA:          -6.523
REMARK INTER:                  -5.800
REMARK INTRA:                  -0.723
REMARK UNBOUND:                -0.644
REMARK SMILES O=C([O-])CCCCCCCC(=O)[O-]
REMARK SMILES IDX 7 1 6 2 5 3 4 4 2 5 1 6 3 7 8 8 9 9 10 10 11 11 12 12 13 13
REMARK H PARENT
REMARK Flexibility Score: inf
ROOT
ATOM      1  C   UNL     1     -11.090 -13.892  13.920  1.00  0.00     0.000 C 
ENDROOT
BRANCH   1   2
ATOM      2  C   UNL     1     -12.045 -13.407  15.024  1.00  0.00     0.000 C 
BRANCH   2   3
ATOM      3  C   UNL     1     -12.005 -14.298  16.280  1.00  0.00     0.006 C 
BRANCH   3   4
ATOM      4  C   UNL     1     -11.014 -13.831  17.358  1.00  0.00     0.053 C 
BRANCH   4   5
ATOM      5  C   UNL     1     -11.117 -12.359  17.619  1.00  0.00     0.041 C 
ATOM      6  O   UNL     1     -12.073 -11.902  18.299  1.00  0.00    -0.550 OA
ATOM      7  O   UNL     1     -10.140 -11.497  17.137  1.00  0.00    -0.550 OA
ENDBRANCH   4   5
ENDBRANCH   3   4
ENDBRANCH   2   3
ENDBRANCH   1   2
BRANCH   1   8
ATOM      8  C   UNL     1      -9.753 -13.133  13.920  1.00  0.00     0.000 C 
BRANCH   8   9
ATOM      9  C   UNL     1      -8.643 -13.887  14.667  1.00  0.00     0.006 C 
BRANCH   9  10
ATOM     10  C   UNL     1      -7.583 -12.916  15.197  1.00  0.00     0.053 C 
BRANCH  10  11
ATOM     11  C   UNL     1      -6.963 -13.449  16.450  1.00  0.00     0.041 C 
ATOM     12  O   UNL     1      -7.622 -14.204  17.212  1.00  0.00    -0.550 OA
ATOM     13  O   UNL     1      -5.640 -13.151  16.752  1.00  0.00    -0.550 OA
ENDBRANCH  10  11
ENDBRANCH   9  10
ENDBRANCH   8   9
ENDBRANCH   1   8
TORSDOF 8
ENDMDL
MODEL 3
REMARK VINA RESULT:    -3.990      2.218      2.817
REMARK INTER + INTRA:          -6.500
REMARK INTER:                  -5.629
REMARK INTRA:                  -0.871
REMARK UNBOUND:                -0.644
REMARK SMILES O=C([O-])CCCCCCCC(=O)[O-]
REMARK SMILES IDX 7 1 6 2 5 3 4 4 2 5 1 6 3 7 8 8 9 9 10 10 11 11 12 12 13 13
REMARK H PARENT
REMARK Flexibility Score: inf
ROOT
ATOM      1  C   UNL     1      -7.946 -13.931  17.583  1.00  0.00     0.000 C 
ENDROOT
BRANCH   1   2
ATOM      2  C   UNL     1      -7.608 -13.368  16.192  1.00  0.00     0.000 C 
BRANCH   2   3
ATOM      3  C   UNL     1      -7.725 -11.833  16.127  1.00  0.00     0.006 C 
BRANCH   3   4
ATOM      4  C   UNL     1      -9.122 -11.319  15.743  1.00  0.00     0.053 C 
BRANCH   4   5
ATOM      5  C   UNL     1      -9.844 -10.725  16.914  1.00  0.00     0.041 C 
ATOM      6  O   UNL     1      -9.597  -9.545  17.278  1.00  0.00    -0.550 OA
ATOM      7  O   UNL     1     -10.814 -11.464  17.581  1.00  0.00    -0.550 OA
ENDBRANCH   4   5
ENDBRANCH   3   4
ENDBRANCH   2   3
ENDBRANCH   1   2
BRANCH   1   8
ATOM      8  C   UNL     1      -9.341 -14.576  17.636  1.00  0.00     0.000 C 
BRANCH   8   9
ATOM      9  C   UNL     1      -9.865 -14.970  16.248  1.00  0.00     0.006 C 
BRANCH   9  10
ATOM     10  C   UNL     1     -11.347 -14.611  16.100  1.00  0.00     0.053 C 
BRANCH  10  11
ATOM     11  C   UNL     1     -11.584 -13.877  14.818  1.00  0.00     0.041 C 
ATOM     12  O   UNL     1     -12.624 -13.182  14.670  1.00  0.00    -0.550 OA
ATOM     13  O   UNL     1     -10.634 -13.920  13.806  1.00  0.00    -0.550 OA
ENDBRANCH  10  11
ENDBRANCH   9  10
ENDBRANCH   8   9
ENDBRANCH   1   8
TORSDOF 8
ENDMDL
MODEL 4
REMARK VINA RESULT:    -3.953      2.116      4.091
REMARK INTER + INTRA:          -6.445
REMARK INTER:                  -5.745
REMARK INTRA:                  -0.700
REMARK UNBOUND:                -0.644
REMARK SMILES O=C([O-])CCCCCCCC(=O)[O-]
REMARK SMILES IDX 7 1 6 2 5 3 4 4 2 5 1 6 3 7 8 8 9 9 10 10 11 11 12 12 13 13
REMARK H PARENT
REMARK Flexibility Score: inf
ROOT
ATOM      1  C   UNL     1      -9.767 -10.887  15.500  1.00  0.00     0.000 C 
ENDROOT
BRANCH   1   2
ATOM      2  C   UNL     1      -9.136 -12.197  14.998  1.00  0.00     0.000 C 
BRANCH   2   3
ATOM      3  C   UNL     1     -10.051 -12.962  14.023  1.00  0.00     0.006 C 
BRANCH   3   4
ATOM      4  C   UNL     1     -10.678 -14.238  14.610  1.00  0.00     0.053 C 
BRANCH   4   5
ATOM      5  C   UNL     1     -12.002 -13.968  15.257  1.00  0.00     0.041 C 
ATOM      6  O   UNL     1     -12.725 -13.022  14.849  1.00  0.00    -0.550 OA
ATOM      7  O   UNL     1     -12.451 -14.782  16.290  1.00  0.00    -0.550 OA
ENDBRANCH   4   5
ENDBRANCH   3   4
ENDBRANCH   2   3
ENDBRANCH   1   2
BRANCH   1   8
ATOM      8  C   UNL     1      -9.718 -10.757  17.032  1.00  0.00     0.000 C 
BRANCH   8   9
ATOM      9  C   UNL     1     -10.003 -12.084  17.749  1.00  0.00     0.006 C 
BRANCH   9  10
ATOM     10  C   UNL     1      -8.766 -12.572  18.510  1.00  0.00     0.053 C 
BRANCH  10  11
ATOM     11  C   UNL     1      -8.360 -13.931  18.035  1.00  0.00     0.041 C 
ATOM     12  O   UNL     1      -9.234 -14.800  17.779  1.00  0.00    -0.550 OA
ATOM     13  O   UNL     1      -7.017 -14.223  17.828  1.00  0.00    -0.550 OA
ENDBRANCH  10  11
ENDBRANCH   9  10
ENDBRANCH   8   9
ENDBRANCH   1   8
TORSDOF 8
ENDMDL
MODEL 5
REMARK VINA RESULT:    -3.952      2.078      4.827
REMARK INTER + INTRA:          -6.444
REMARK INTER:                  -5.752
REMARK INTRA:                  -0.692
REMARK UNBOUND:                -0.644
REMARK SMILES O=C([O-])CCCCCCCC(=O)[O-]
REMARK SMILES IDX 7 1 6 2 5 3 4 4 2 5 1 6 3 7 8 8 9 9 10 10 11 11 12 12 13 13
REMARK H PARENT
REMARK Flexibility Score: inf
ROOT
ATOM      1  C   UNL     1     -10.138 -14.076  17.495  1.00  0.00     0.000 C 
ENDROOT
BRANCH   1   2
ATOM      2  C   UNL     1     -11.563 -13.965  16.926  1.00  0.00     0.000 C 
BRANCH   2   3
ATOM      3  C   UNL     1     -11.666 -14.470  15.474  1.00  0.00     0.006 C 
BRANCH   3   4
ATOM      4  C   UNL     1     -11.578 -13.364  14.410  1.00  0.00     0.053 C 
BRANCH   4   5
ATOM      5  C   UNL     1     -10.217 -13.290  13.787  1.00  0.00     0.041 C 
ATOM      6  O   UNL     1      -9.254 -12.795  14.428  1.00  0.00    -0.550 OA
ATOM      7  O   UNL     1     -10.007 -13.799  12.511  1.00  0.00    -0.550 OA
ENDBRANCH   4   5
ENDBRANCH   3   4
ENDBRANCH   2   3
ENDBRANCH   1   2
BRANCH   1   8
ATOM      8  C   UNL     1      -9.539 -12.708  17.857  1.00  0.00     0.000 C 
BRANCH   8   9
ATOM      9  C   UNL     1     -10.485 -11.541  17.537  1.00  0.00     0.006 C 
BRANCH   9  10
ATOM     10  C   UNL     1      -9.714 -10.357  16.945  1.00  0.00     0.053 C 
BRANCH  10  11
ATOM     11  C   UNL     1      -9.542  -9.279  17.967  1.00  0.00     0.041 C 
ATOM     12  O   UNL     1      -8.787  -8.299  17.733  1.00  0.00    -0.550 OA
ATOM     13  O   UNL     1     -10.253  -9.332  19.160  1.00  0.00    -0.550 OA
ENDBRANCH  10  11
ENDBRANCH   9  10
ENDBRANCH   8   9
ENDBRANCH   1   8
TORSDOF 8
ENDMDL
MODEL 6
REMARK VINA RESULT:    -3.896      1.823      4.421
REMARK INTER + INTRA:          -6.362
REMARK INTER:                  -5.697
REMARK INTRA:                  -0.665
REMARK UNBOUND:                -0.644
REMARK SMILES O=C([O-])CCCCCCCC(=O)[O-]
REMARK SMILES IDX 7 1 6 2 5 3 4 4 2 5 1 6 3 7 8 8 9 9 10 10 11 11 12 12 13 13
REMARK H PARENT
REMARK Flexibility Score: inf
ROOT
ATOM      1  C   UNL     1      -7.810 -13.525  15.954  1.00  0.00     0.000 C 
ENDROOT
BRANCH   1   2
ATOM      2  C   UNL     1      -8.129 -13.673  17.451  1.00  0.00     0.000 C 
BRANCH   2   3
ATOM      3  C   UNL     1      -9.350 -14.576  17.713  1.00  0.00     0.006 C 
BRANCH   3   4
ATOM      4  C   UNL     1     -10.195 -14.879  16.465  1.00  0.00     0.053 C 
BRANCH   4   5
ATOM      5  C   UNL     1     -11.529 -14.200  16.509  1.00  0.00     0.041 C 
ATOM      6  O   UNL     1     -12.443 -14.546  15.716  1.00  0.00    -0.550 OA
ATOM      7  O   UNL     1     -11.773 -13.207  17.451  1.00  0.00    -0.550 OA
ENDBRANCH   4   5
ENDBRANCH   3   4
ENDBRANCH   2   3
ENDBRANCH   1   2
BRANCH   1   8
ATOM      8  C   UNL     1      -7.803 -12.058  15.494  1.00  0.00     0.000 C 
BRANCH   8   9
ATOM      9  C   UNL     1      -9.198 -11.417  15.534  1.00  0.00     0.006 C 
BRANCH   9  10
ATOM     10  C   UNL     1      -9.103  -9.917  15.826  1.00  0.00     0.053 C 
BRANCH  10  11
ATOM     11  C   UNL     1      -9.437  -9.638  17.257  1.00  0.00     0.041 C 
ATOM     12  O   UNL     1      -9.314  -8.474  17.722  1.00  0.00    -0.550 OA
ATOM     13  O   UNL     1      -9.932 -10.654  18.066  1.00  0.00    -0.550 OA
ENDBRANCH  10  11
ENDBRANCH   9  10
ENDBRANCH   8   9
ENDBRANCH   1   8
TORSDOF 8
ENDMDL
MODEL 7
REMARK VINA RESULT:    -3.824      1.987      4.087
REMARK INTER + INTRA:          -6.256
REMARK INTER:                  -5.498
REMARK INTRA:                  -0.757
REMARK UNBOUND:                -0.644
REMARK SMILES O=C([O-])CCCCCCCC(=O)[O-]
REMARK SMILES IDX 7 1 6 2 5 3 4 4 2 5 1 6 3 7 8 8 9 9 10 10 11 11 12 12 13 13
REMARK H PARENT
REMARK Flexibility Score: inf
ROOT
ATOM      1  C   UNL     1      -7.469 -12.427  15.902  1.00  0.00     0.000 C 
ENDROOT
BRANCH   1   2
ATOM      2  C   UNL     1      -8.219 -13.335  14.912  1.00  0.00     0.000 C 
BRANCH   2   3
ATOM      3  C   UNL     1      -9.530 -12.707  14.403  1.00  0.00     0.006 C 
BRANCH   3   4
ATOM      4  C   UNL     1     -10.565 -13.723  13.894  1.00  0.00     0.053 C 
BRANCH   4   5
ATOM      5  C   UNL     1     -11.695 -13.909  14.861  1.00  0.00     0.041 C 
ATOM      6  O   UNL     1     -12.715 -13.174  14.791  1.00  0.00    -0.550 OA
ATOM      7  O   UNL     1     -11.634 -14.915  15.817  1.00  0.00    -0.550 OA
ENDBRANCH   4   5
ENDBRANCH   3   4
ENDBRANCH   2   3
ENDBRANCH   1   2
BRANCH   1   8
ATOM      8  C   UNL     1      -7.305 -13.072  17.288  1.00  0.00     0.000 C 
BRANCH   8   9
ATOM      9  C   UNL     1      -8.292 -12.513  18.323  1.00  0.00     0.006 C 
BRANCH   9  10
ATOM     10  C   UNL     1      -9.699 -13.074  18.098  1.00  0.00     0.053 C 
BRANCH  10  11
ATOM     11  C   UNL     1     -10.677 -11.964  17.877  1.00  0.00     0.041 C 
ATOM     12  O   UNL     1     -11.895 -12.128  18.154  1.00  0.00    -0.550 OA
ATOM     13  O   UNL     1     -10.237 -10.731  17.411  1.00  0.00    -0.550 OA
ENDBRANCH  10  11
ENDBRANCH   9  10
ENDBRANCH   8   9
ENDBRANCH   1   8
TORSDOF 8
ENDMDL
MODEL 8
REMARK VINA RESULT:    -3.821      0.805      4.149
REMARK INTER + INTRA:          -6.251
REMARK INTER:                  -5.790
REMARK INTRA:                  -0.461
REMARK UNBOUND:                -0.644
REMARK SMILES O=C([O-])CCCCCCCC(=O)[O-]
REMARK SMILES IDX 7 1 6 2 5 3 4 4 2 5 1 6 3 7 8 8 9 9 10 10 11 11 12 12 13 13
REMARK H PARENT
REMARK Flexibility Score: inf
ROOT
ATOM      1  C   UNL     1     -10.004 -11.616  14.917  1.00  0.00     0.000 C 
ENDROOT
BRANCH   1   2
ATOM      2  C   UNL     1     -10.520 -12.960  14.377  1.00  0.00     0.000 C 
BRANCH   2   3
ATOM      3  C   UNL     1     -11.911 -13.328  14.926  1.00  0.00     0.006 C 
BRANCH   3   4
ATOM      4  C   UNL     1     -11.883 -14.226  16.174  1.00  0.00     0.053 C 
BRANCH   4   5
ATOM      5  C   UNL     1     -11.199 -13.562  17.329  1.00  0.00     0.041 C 
ATOM      6  O   UNL     1     -10.083 -13.984  17.733  1.00  0.00    -0.550 OA
ATOM      7  O   UNL     1     -11.778 -12.455  17.939  1.00  0.00    -0.550 OA
ENDBRANCH   4   5
ENDBRANCH   3   4
ENDBRANCH   2   3
ENDBRANCH   1   2
BRANCH   1   8
ATOM      8  C   UNL     1      -8.555 -11.700  15.424  1.00  0.00     0.000 C 
BRANCH   8   9
ATOM      9  C   UNL     1      -8.066 -10.384  16.046  1.00  0.00     0.006 C 
BRANCH   9  10
ATOM     10  C   UNL     1      -9.248  -9.490  16.434  1.00  0.00     0.053 C 
BRANCH  10  11
ATOM     11  C   UNL     1      -9.375  -9.404  17.922  1.00  0.00     0.041 C 
ATOM     12  O   UNL     1      -9.750  -8.331  18.465  1.00  0.00    -0.550 OA
ATOM     13  O   UNL     1      -9.125 -10.522  18.707  1.00  0.00    -0.550 OA
ENDBRANCH  10  11
ENDBRANCH   9  10
ENDBRANCH   8   9
ENDBRANCH   1   8
TORSDOF 8
ENDMDL
MODEL 9
REMARK VINA RESULT:    -3.812      2.237      3.267
REMARK INTER + INTRA:          -6.239
REMARK INTER:                  -5.368
REMARK INTRA:                  -0.871
REMARK UNBOUND:                -0.644
REMARK SMILES O=C([O-])CCCCCCCC(=O)[O-]
REMARK SMILES IDX 7 1 6 2 5 3 4 4 2 5 1 6 3 7 8 8 9 9 10 10 11 11 12 12 13 13
REMARK H PARENT
REMARK Flexibility Score: inf
ROOT
ATOM      1  C   UNL     1      -9.678 -11.086  16.113  1.00  0.00     0.000 C 
ENDROOT
BRANCH   1   2
ATOM      2  C   UNL     1      -8.164 -10.950  16.353  1.00  0.00     0.000 C 
BRANCH   2   3
ATOM      3  C   UNL     1      -7.343 -12.005  15.589  1.00  0.00     0.006 C 
BRANCH   3   4
ATOM      4  C   UNL     1      -7.722 -13.460  15.912  1.00  0.00     0.053 C 
BRANCH   4   5
ATOM      5  C   UNL     1      -7.434 -13.812  17.339  1.00  0.00     0.041 C 
ATOM      6  O   UNL     1      -6.251 -13.791  17.771  1.00  0.00    -0.550 OA
ATOM      7  O   UNL     1      -8.476 -14.133  18.201  1.00  0.00    -0.550 OA
ENDBRANCH   4   5
ENDBRANCH   3   4
ENDBRANCH   2   3
ENDBRANCH   1   2
BRANCH   1   8
ATOM      8  C   UNL     1     -10.471 -11.245  17.420  1.00  0.00     0.000 C 
BRANCH   8   9
ATOM      9  C   UNL     1     -11.392 -12.474  17.409  1.00  0.00     0.006 C 
BRANCH   9  10
ATOM     10  C   UNL     1     -11.442 -13.108  16.016  1.00  0.00     0.053 C 
BRANCH  10  11
ATOM     11  C   UNL     1     -11.661 -14.585  16.119  1.00  0.00     0.041 C 
ATOM     12  O   UNL     1     -12.829 -15.047  16.209  1.00  0.00    -0.550 OA
ATOM     13  O   UNL     1     -10.579 -15.453  16.065  1.00  0.00    -0.550 OA
ENDBRANCH  10  11
ENDBRANCH   9  10
ENDBRANCH   8   9
ENDBRANCH   1   8
TORSDOF 8
ENDMDL
