MODEL 1
REMARK VINA RESULT:    -8.239      0.000      0.000
REMARK INTER + INTRA:         -13.760
REMARK INTER:                 -11.369
REMARK INTRA:                  -2.391
REMARK UNBOUND:                -2.391
REMARK SMILES CC[C@@H](CC[C@H](C)[C@@H]1CC[C@H]2[C@H]3CC=C4C[C@H](O)CC[C@]4(C)[C@H]3CC[C@@]21C)C(C)C
REMARK SMILES IDX 5 1 4 2 3 3 2 4 1 5 28 6 29 7 30 8 6 9 7 10 8 11 9 12 26 13
REMARK SMILES IDX 10 14 11 15 25 16 27 17 12 18 24 19 23 20 13 21 21 22 14 23
REMARK SMILES IDX 15 24 20 25 22 26 16 27 19 28 17 29 18 30
REMARK H PARENT 18 31
REMARK Flexibility Score: inf
ROOT
ATOM      1  C   UNL     1     -12.793 -27.139 -11.162  1.00  0.00     0.004 C 
ENDROOT
BRANCH   1   2
ATOM      2  C   UNL     1     -13.939 -27.265 -12.186  1.00  0.00     0.004 C 
BRANCH   2   3
ATOM      3  C   UNL     1     -14.053 -28.652 -12.872  1.00  0.00    -0.009 C 
BRANCH   3   4
ATOM      4  C   UNL     1     -13.416 -28.632 -14.292  1.00  0.00     0.000 C 
ATOM      5  C   UNL     1     -13.381 -27.238 -14.922  1.00  0.00     0.004 C 
ENDBRANCH   3   4
BRANCH   3   6
ATOM      6  C   UNL     1     -15.507 -29.244 -12.773  1.00  0.00    -0.014 C 
ATOM      7  C   UNL     1     -15.588 -30.666 -13.350  1.00  0.00     0.007 C 
ATOM      8  C   UNL     1     -16.612 -28.363 -13.387  1.00  0.00     0.007 C 
ENDBRANCH   3   6
ENDBRANCH   2   3
ENDBRANCH   1   2
BRANCH   1   9
ATOM      9  C   UNL     1     -13.120 -27.903  -9.837  1.00  0.00    -0.011 C 
ATOM     10  C   UNL     1     -13.430 -26.846  -8.743  1.00  0.00     0.008 C 
BRANCH   9  11
ATOM     11  C   UNL     1     -11.948 -28.868  -9.423  1.00  0.00    -0.002 C 
ATOM     12  C   UNL     1     -10.558 -28.374  -9.953  1.00  0.00     0.005 C 
ATOM     13  C   UNL     1     -12.016 -30.379  -9.889  1.00  0.00    -0.026 C 
ATOM     14  C   UNL     1      -9.897 -29.523 -10.713  1.00  0.00     0.005 C 
ATOM     15  C   UNL     1     -11.080 -30.368 -11.114  1.00  0.00    -0.001 C 
ATOM     16  C   UNL     1     -13.361 -30.967 -10.380  1.00  0.00     0.007 C 
ATOM     17  C   UNL     1     -11.524 -31.228  -8.677  1.00  0.00     0.012 C 
ATOM     18  C   UNL     1     -10.826 -31.714 -11.838  1.00  0.00     0.000 C 
ATOM     19  C   UNL     1     -13.190 -32.362 -11.033  1.00  0.00     0.005 C 
ATOM     20  C   UNL     1     -12.186 -32.365 -12.229  1.00  0.00     0.003 C 
ATOM     21  C   UNL     1      -9.831 -32.659 -11.128  1.00  0.00     0.031 C 
ATOM     22  C   UNL     1     -12.000 -33.768 -12.932  1.00  0.00    -0.008 C 
ATOM     23  C   UNL     1     -10.045 -34.125 -11.383  1.00  0.00    -0.027 C 
ATOM     24  C   UNL     1     -10.986 -34.640 -12.201  1.00  0.00    -0.065 C 
ATOM     25  C   UNL     1     -11.452 -33.587 -14.384  1.00  0.00     0.014 C 
ATOM     26  C   UNL     1     -13.375 -34.493 -13.011  1.00  0.00     0.016 C 
ATOM     27  C   UNL     1     -10.725 -36.007 -12.796  1.00  0.00     0.063 C 
ATOM     28  C   UNL     1     -11.078 -34.920 -15.081  1.00  0.00     0.033 C 
ATOM     29  C   UNL     1     -10.166 -35.826 -14.219  1.00  0.00     0.118 C 
BRANCH  29  30
ATOM     30  O   UNL     1      -8.875 -35.276 -14.145  1.00  0.00    -0.393 OA
ATOM     31  H   UNL     1      -8.240 -36.037 -14.096  1.00  0.00     0.210 HD
ENDBRANCH  29  30
ENDBRANCH   9  11
ENDBRANCH   1   9
TORSDOF 7
ENDMDL
MODEL 2
REMARK VINA RESULT:    -7.887      2.590      6.507
REMARK INTER + INTRA:         -13.275
REMARK INTER:                 -12.551
REMARK INTRA:                  -0.724
REMARK UNBOUND:                -2.391
REMARK SMILES CC[C@@H](CC[C@H](C)[C@@H]1CC[C@H]2[C@H]3CC=C4C[C@H](O)CC[C@]4(C)[C@H]3CC[C@@]21C)C(C)C
REMARK SMILES IDX 5 1 4 2 3 3 2 4 1 5 28 6 29 7 30 8 6 9 7 10 8 11 9 12 26 13
REMARK SMILES IDX 10 14 11 15 25 16 27 17 12 18 24 19 23 20 13 21 21 22 14 23
REMARK SMILES IDX 15 24 20 25 22 26 16 27 19 28 17 29 18 30
REMARK H PARENT 18 31
REMARK Flexibility Score: inf
ROOT
ATOM      1  C   UNL     1     -10.111 -32.936  -8.468  1.00  0.00     0.004 C 
ENDROOT
BRANCH   1   2
ATOM      2  C   UNL     1      -9.331 -34.099  -9.115  1.00  0.00     0.004 C 
BRANCH   2   3
ATOM      3  C   UNL     1      -9.822 -34.509 -10.529  1.00  0.00    -0.009 C 
BRANCH   3   4
ATOM      4  C   UNL     1     -11.375 -34.577 -10.587  1.00  0.00     0.000 C 
ATOM      5  C   UNL     1     -11.950 -34.199 -11.953  1.00  0.00     0.004 C 
ENDBRANCH   3   4
BRANCH   3   6
ATOM      6  C   UNL     1      -9.051 -35.765 -11.081  1.00  0.00    -0.014 C 
ATOM      7  C   UNL     1      -8.924 -35.730 -12.612  1.00  0.00     0.007 C 
ATOM      8  C   UNL     1      -9.616 -37.125 -10.631  1.00  0.00     0.007 C 
ENDBRANCH   3   6
ENDBRANCH   2   3
ENDBRANCH   1   2
BRANCH   1   9
ATOM      9  C   UNL     1      -9.159 -31.958  -7.706  1.00  0.00    -0.011 C 
ATOM     10  C   UNL     1      -9.236 -32.302  -6.194  1.00  0.00     0.008 C 
BRANCH   9  11
ATOM     11  C   UNL     1      -9.521 -30.455  -7.998  1.00  0.00    -0.002 C 
ATOM     12  C   UNL     1     -10.524 -29.871  -6.943  1.00  0.00     0.005 C 
ATOM     13  C   UNL     1     -10.184 -30.096  -9.389  1.00  0.00    -0.026 C 
ATOM     14  C   UNL     1     -11.706 -29.258  -7.692  1.00  0.00     0.005 C 
ATOM     15  C   UNL     1     -11.673 -29.996  -9.007  1.00  0.00    -0.001 C 
ATOM     16  C   UNL     1     -10.105 -31.111 -10.556  1.00  0.00     0.007 C 
ATOM     17  C   UNL     1      -9.519 -28.764  -9.854  1.00  0.00     0.012 C 
ATOM     18  C   UNL     1     -12.676 -29.589 -10.117  1.00  0.00     0.000 C 
ATOM     19  C   UNL     1     -11.017 -30.712 -11.744  1.00  0.00     0.005 C 
ATOM     20  C   UNL     1     -12.516 -30.540 -11.341  1.00  0.00     0.003 C 
ATOM     21  C   UNL     1     -12.696 -28.083 -10.459  1.00  0.00     0.031 C 
ATOM     22  C   UNL     1     -13.480 -30.151 -12.532  1.00  0.00    -0.008 C 
ATOM     23  C   UNL     1     -13.100 -27.750 -11.868  1.00  0.00    -0.027 C 
ATOM     24  C   UNL     1     -13.477 -28.651 -12.800  1.00  0.00    -0.065 C 
ATOM     25  C   UNL     1     -14.956 -30.529 -12.190  1.00  0.00     0.014 C 
ATOM     26  C   UNL     1     -13.057 -30.926 -13.813  1.00  0.00     0.016 C 
ATOM     27  C   UNL     1     -14.374 -28.167 -13.918  1.00  0.00     0.063 C 
ATOM     28  C   UNL     1     -15.988 -30.025 -13.231  1.00  0.00     0.033 C 
ATOM     29  C   UNL     1     -15.830 -28.523 -13.570  1.00  0.00     0.118 C 
BRANCH  29  30
ATOM     30  O   UNL     1     -16.253 -27.739 -12.482  1.00  0.00    -0.393 OA
ATOM     31  H   UNL     1     -17.122 -27.336 -12.738  1.00  0.00     0.210 HD
ENDBRANCH  29  30
ENDBRANCH   9  11
ENDBRANCH   1   9
TORSDOF 7
ENDMDL
MODEL 3
REMARK VINA RESULT:    -7.348      2.543      6.521
REMARK INTER + INTRA:         -12.531
REMARK INTER:                 -12.249
REMARK INTRA:                  -0.282
REMARK UNBOUND:                -2.391
REMARK SMILES CC[C@@H](CC[C@H](C)[C@@H]1CC[C@H]2[C@H]3CC=C4C[C@H](O)CC[C@]4(C)[C@H]3CC[C@@]21C)C(C)C
REMARK SMILES IDX 5 1 4 2 3 3 2 4 1 5 28 6 29 7 30 8 6 9 7 10 8 11 9 12 26 13
REMARK SMILES IDX 10 14 11 15 25 16 27 17 12 18 24 19 23 20 13 21 21 22 14 23
REMARK SMILES IDX 15 24 20 25 22 26 16 27 19 28 17 29 18 30
REMARK H PARENT 18 31
REMARK Flexibility Score: inf
ROOT
ATOM      1  C   UNL     1     -10.261 -33.059  -9.071  1.00  0.00     0.004 C 
ENDROOT
BRANCH   1   2
ATOM      2  C   UNL     1      -9.446 -34.131  -9.823  1.00  0.00     0.004 C 
BRANCH   2   3
ATOM      3  C   UNL     1     -10.295 -35.230 -10.518  1.00  0.00    -0.009 C 
BRANCH   3   4
ATOM      4  C   UNL     1      -9.604 -36.621 -10.417  1.00  0.00     0.000 C 
ATOM      5  C   UNL     1      -9.053 -37.124 -11.753  1.00  0.00     0.004 C 
ENDBRANCH   3   4
BRANCH   3   6
ATOM      6  C   UNL     1     -10.769 -34.792 -11.952  1.00  0.00    -0.014 C 
ATOM      7  C   UNL     1      -9.748 -33.869 -12.636  1.00  0.00     0.007 C 
ATOM      8  C   UNL     1     -12.172 -34.159 -12.009  1.00  0.00     0.007 C 
ENDBRANCH   3   6
ENDBRANCH   2   3
ENDBRANCH   1   2
BRANCH   1   9
ATOM      9  C   UNL     1      -9.346 -32.174  -8.163  1.00  0.00    -0.011 C 
ATOM     10  C   UNL     1      -9.576 -32.608  -6.691  1.00  0.00     0.008 C 
BRANCH   9  11
ATOM     11  C   UNL     1      -9.621 -30.641  -8.386  1.00  0.00    -0.002 C 
ATOM     12  C   UNL     1     -10.538 -30.034  -7.268  1.00  0.00     0.005 C 
ATOM     13  C   UNL     1     -10.318 -30.189  -9.734  1.00  0.00    -0.026 C 
ATOM     14  C   UNL     1     -11.708 -29.319  -7.942  1.00  0.00     0.005 C 
ATOM     15  C   UNL     1     -11.780 -30.008  -9.282  1.00  0.00    -0.001 C 
ATOM     16  C   UNL     1     -10.355 -31.162 -10.937  1.00  0.00     0.007 C 
ATOM     17  C   UNL     1      -9.588 -28.885 -10.182  1.00  0.00     0.012 C 
ATOM     18  C   UNL     1     -12.800 -29.497 -10.331  1.00  0.00     0.000 C 
ATOM     19  C   UNL     1     -11.289 -30.662 -12.068  1.00  0.00     0.005 C 
ATOM     20  C   UNL     1     -12.755 -30.410 -11.593  1.00  0.00     0.003 C 
ATOM     21  C   UNL     1     -12.736 -27.981 -10.619  1.00  0.00     0.031 C 
ATOM     22  C   UNL     1     -13.741 -29.916 -12.725  1.00  0.00    -0.008 C 
ATOM     23  C   UNL     1     -13.177 -27.571 -11.997  1.00  0.00    -0.027 C 
ATOM     24  C   UNL     1     -13.651 -28.410 -12.941  1.00  0.00    -0.065 C 
ATOM     25  C   UNL     1     -15.223 -30.212 -12.331  1.00  0.00     0.014 C 
ATOM     26  C   UNL     1     -13.424 -30.668 -14.050  1.00  0.00     0.016 C 
ATOM     27  C   UNL     1     -14.562 -27.828 -14.000  1.00  0.00     0.063 C 
ATOM     28  C   UNL     1     -16.263 -29.604 -13.306  1.00  0.00     0.033 C 
ATOM     29  C   UNL     1     -16.022 -28.103 -13.599  1.00  0.00     0.118 C 
BRANCH  29  30
ATOM     30  O   UNL     1     -16.346 -27.336 -12.467  1.00  0.00    -0.393 OA
ATOM     31  H   UNL     1     -16.017 -27.838 -11.676  1.00  0.00     0.210 HD
ENDBRANCH  29  30
ENDBRANCH   9  11
ENDBRANCH   1   9
TORSDOF 7
ENDMDL
MODEL 4
REMARK VINA RESULT:    -7.170      2.340      6.822
REMARK INTER + INTRA:         -12.286
REMARK INTER:                  -9.463
REMARK INTRA:                  -2.823
REMARK UNBOUND:                -2.391
REMARK SMILES CC[C@@H](CC[C@H](C)[C@@H]1CC[C@H]2[C@H]3CC=C4C[C@H](O)CC[C@]4(C)[C@H]3CC[C@@]21C)C(C)C
REMARK SMILES IDX 5 1 4 2 3 3 2 4 1 5 28 6 29 7 30 8 6 9 7 10 8 11 9 12 26 13
REMARK SMILES IDX 10 14 11 15 25 16 27 17 12 18 24 19 23 20 13 21 21 22 14 23
REMARK SMILES IDX 15 24 20 25 22 26 16 27 19 28 17 29 18 30
REMARK H PARENT 18 31
REMARK Flexibility Score: inf
ROOT
ATOM      1  C   UNL     1     -13.494 -34.446 -14.121  1.00  0.00     0.004 C 
ENDROOT
BRANCH   1   2
ATOM      2  C   UNL     1     -12.478 -35.185 -13.227  1.00  0.00     0.004 C 
BRANCH   2   3
ATOM      3  C   UNL     1     -11.517 -34.262 -12.429  1.00  0.00    -0.009 C 
BRANCH   3   4
ATOM      4  C   UNL     1     -10.375 -33.721 -13.337  1.00  0.00     0.000 C 
ATOM      5  C   UNL     1      -9.752 -32.422 -12.820  1.00  0.00     0.004 C 
ENDBRANCH   3   4
BRANCH   3   6
ATOM      6  C   UNL     1     -11.074 -34.909 -11.066  1.00  0.00    -0.014 C 
ATOM      7  C   UNL     1     -11.055 -33.880  -9.924  1.00  0.00     0.007 C 
ATOM      8  C   UNL     1      -9.735 -35.669 -11.110  1.00  0.00     0.007 C 
ENDBRANCH   3   6
ENDBRANCH   2   3
ENDBRANCH   1   2
BRANCH   1   9
ATOM      9  C   UNL     1     -14.739 -33.968 -13.303  1.00  0.00    -0.011 C 
ATOM     10  C   UNL     1     -15.960 -34.809 -13.762  1.00  0.00     0.008 C 
BRANCH   9  11
ATOM     11  C   UNL     1     -14.979 -32.422 -13.468  1.00  0.00    -0.002 C 
ATOM     12  C   UNL     1     -14.321 -31.856 -14.774  1.00  0.00     0.005 C 
ATOM     13  C   UNL     1     -14.458 -31.453 -12.330  1.00  0.00    -0.026 C 
ATOM     14  C   UNL     1     -13.444 -30.664 -14.392  1.00  0.00     0.005 C 
ATOM     15  C   UNL     1     -13.140 -30.938 -12.940  1.00  0.00    -0.001 C 
ATOM     16  C   UNL     1     -14.094 -32.032 -10.942  1.00  0.00     0.007 C 
ATOM     17  C   UNL     1     -15.572 -30.377 -12.135  1.00  0.00     0.012 C 
ATOM     18  C   UNL     1     -12.335 -29.887 -12.134  1.00  0.00     0.000 C 
ATOM     19  C   UNL     1     -13.366 -30.997 -10.046  1.00  0.00     0.005 C 
ATOM     20  C   UNL     1     -12.069 -30.422 -10.695  1.00  0.00     0.003 C 
ATOM     21  C   UNL     1     -12.891 -28.447 -12.202  1.00  0.00     0.031 C 
ATOM     22  C   UNL     1     -11.289 -29.377  -9.802  1.00  0.00    -0.008 C 
ATOM     23  C   UNL     1     -12.597 -27.589 -11.003  1.00  0.00    -0.027 C 
ATOM     24  C   UNL     1     -11.866 -27.973  -9.936  1.00  0.00    -0.065 C 
ATOM     25  C   UNL     1      -9.796 -29.278 -10.247  1.00  0.00     0.014 C 
ATOM     26  C   UNL     1     -11.331 -29.835  -8.316  1.00  0.00     0.016 C 
ATOM     27  C   UNL     1     -11.188 -26.889  -9.127  1.00  0.00     0.063 C 
ATOM     28  C   UNL     1      -9.005 -28.151  -9.537  1.00  0.00     0.033 C 
ATOM     29  C   UNL     1      -9.722 -26.779  -9.581  1.00  0.00     0.118 C 
BRANCH  29  30
ATOM     30  O   UNL     1      -9.677 -26.257 -10.885  1.00  0.00    -0.393 OA
ATOM     31  H   UNL     1      -8.772 -25.868 -11.008  1.00  0.00     0.210 HD
ENDBRANCH  29  30
ENDBRANCH   9  11
ENDBRANCH   1   9
TORSDOF 7
ENDMDL
MODEL 5
REMARK VINA RESULT:    -7.097      2.273      6.743
REMARK INTER + INTRA:         -12.184
REMARK INTER:                  -9.961
REMARK INTRA:                  -2.223
REMARK UNBOUND:                -2.391
REMARK SMILES CC[C@@H](CC[C@H](C)[C@@H]1CC[C@H]2[C@H]3CC=C4C[C@H](O)CC[C@]4(C)[C@H]3CC[C@@]21C)C(C)C
REMARK SMILES IDX 5 1 4 2 3 3 2 4 1 5 28 6 29 7 30 8 6 9 7 10 8 11 9 12 26 13
REMARK SMILES IDX 10 14 11 15 25 16 27 17 12 18 24 19 23 20 13 21 21 22 14 23
REMARK SMILES IDX 15 24 20 25 22 26 16 27 19 28 17 29 18 30
REMARK H PARENT 18 31
REMARK Flexibility Score: inf
ROOT
ATOM      1  C   UNL     1      -9.042 -34.116 -10.826  1.00  0.00     0.004 C 
ENDROOT
BRANCH   1   2
ATOM      2  C   UNL     1      -8.882 -33.396  -9.472  1.00  0.00     0.004 C 
BRANCH   2   3
ATOM      3  C   UNL     1      -9.793 -32.154  -9.280  1.00  0.00    -0.009 C 
BRANCH   3   4
ATOM      4  C   UNL     1      -9.037 -30.841  -9.633  1.00  0.00     0.000 C 
ATOM      5  C   UNL     1      -9.364 -30.307 -11.029  1.00  0.00     0.004 C 
ENDBRANCH   3   4
BRANCH   3   6
ATOM      6  C   UNL     1     -10.538 -32.175  -7.895  1.00  0.00    -0.014 C 
ATOM      7  C   UNL     1     -11.272 -30.853  -7.619  1.00  0.00     0.007 C 
ATOM      8  C   UNL     1      -9.657 -32.548  -6.688  1.00  0.00     0.007 C 
ENDBRANCH   3   6
ENDBRANCH   2   3
ENDBRANCH   1   2
BRANCH   1   9
ATOM      9  C   UNL     1     -10.164 -35.204 -10.769  1.00  0.00    -0.011 C 
ATOM     10  C   UNL     1      -9.474 -36.591 -10.673  1.00  0.00     0.008 C 
BRANCH   9  11
ATOM     11  C   UNL     1     -11.132 -35.101 -12.005  1.00  0.00    -0.002 C 
ATOM     12  C   UNL     1     -10.353 -34.956 -13.358  1.00  0.00     0.005 C 
ATOM     13  C   UNL     1     -12.180 -33.916 -12.043  1.00  0.00    -0.026 C 
ATOM     14  C   UNL     1     -10.898 -33.735 -14.098  1.00  0.00     0.005 C 
ATOM     15  C   UNL     1     -11.479 -32.910 -12.977  1.00  0.00    -0.001 C 
ATOM     16  C   UNL     1     -12.505 -33.142 -10.742  1.00  0.00     0.007 C 
ATOM     17  C   UNL     1     -13.506 -34.529 -12.591  1.00  0.00     0.012 C 
ATOM     18  C   UNL     1     -12.235 -31.603 -13.325  1.00  0.00     0.000 C 
ATOM     19  C   UNL     1     -13.344 -31.866 -11.011  1.00  0.00     0.005 C 
ATOM     20  C   UNL     1     -12.665 -30.881 -12.014  1.00  0.00     0.003 C 
ATOM     21  C   UNL     1     -13.351 -31.756 -14.382  1.00  0.00     0.031 C 
ATOM     22  C   UNL     1     -13.484 -29.559 -12.298  1.00  0.00    -0.008 C 
ATOM     23  C   UNL     1     -14.479 -30.769 -14.271  1.00  0.00    -0.027 C 
ATOM     24  C   UNL     1     -14.548 -29.768 -13.369  1.00  0.00    -0.065 C 
ATOM     25  C   UNL     1     -12.543 -28.434 -12.833  1.00  0.00     0.014 C 
ATOM     26  C   UNL     1     -14.141 -29.065 -10.977  1.00  0.00     0.016 C 
ATOM     27  C   UNL     1     -15.387 -28.561 -13.725  1.00  0.00     0.063 C 
ATOM     28  C   UNL     1     -13.293 -27.161 -13.300  1.00  0.00     0.033 C 
ATOM     29  C   UNL     1     -14.461 -27.460 -14.272  1.00  0.00     0.118 C 
BRANCH  29  30
ATOM     30  O   UNL     1     -13.954 -27.857 -15.521  1.00  0.00    -0.393 OA
ATOM     31  H   UNL     1     -13.739 -28.824 -15.451  1.00  0.00     0.210 HD
ENDBRANCH  29  30
ENDBRANCH   9  11
ENDBRANCH   1   9
TORSDOF 7
ENDMDL
MODEL 6
REMARK VINA RESULT:    -6.755      2.302      7.069
REMARK INTER + INTRA:         -11.713
REMARK INTER:                 -10.373
REMARK INTRA:                  -1.340
REMARK UNBOUND:                -2.391
REMARK SMILES CC[C@@H](CC[C@H](C)[C@@H]1CC[C@H]2[C@H]3CC=C4C[C@H](O)CC[C@]4(C)[C@H]3CC[C@@]21C)C(C)C
REMARK SMILES IDX 5 1 4 2 3 3 2 4 1 5 28 6 29 7 30 8 6 9 7 10 8 11 9 12 26 13
REMARK SMILES IDX 10 14 11 15 25 16 27 17 12 18 24 19 23 20 13 21 21 22 14 23
REMARK SMILES IDX 15 24 20 25 22 26 16 27 19 28 17 29 18 30
REMARK H PARENT 18 31
REMARK Flexibility Score: inf
ROOT
ATOM      1  C   UNL     1     -10.267 -34.701 -10.676  1.00  0.00     0.004 C 
ENDROOT
BRANCH   1   2
ATOM      2  C   UNL     1      -8.875 -34.125 -10.347  1.00  0.00     0.004 C 
BRANCH   2   3
ATOM      3  C   UNL     1      -8.885 -32.884  -9.414  1.00  0.00    -0.009 C 
BRANCH   3   4
ATOM      4  C   UNL     1      -9.969 -33.023  -8.306  1.00  0.00     0.000 C 
ATOM      5  C   UNL     1      -9.431 -32.777  -6.895  1.00  0.00     0.004 C 
ENDBRANCH   3   4
BRANCH   3   6
ATOM      6  C   UNL     1      -8.890 -31.536 -10.223  1.00  0.00    -0.014 C 
ATOM      7  C   UNL     1      -9.964 -30.564  -9.710  1.00  0.00     0.007 C 
ATOM      8  C   UNL     1      -9.009 -31.693 -11.751  1.00  0.00     0.007 C 
ENDBRANCH   3   6
ENDBRANCH   2   3
ENDBRANCH   1   2
BRANCH   1   9
ATOM      9  C   UNL     1     -10.253 -35.508 -12.016  1.00  0.00    -0.011 C 
ATOM     10  C   UNL     1      -8.966 -35.119 -12.791  1.00  0.00     0.008 C 
BRANCH   9  11
ATOM     11  C   UNL     1     -11.558 -35.254 -12.857  1.00  0.00    -0.002 C 
ATOM     12  C   UNL     1     -11.252 -35.054 -14.382  1.00  0.00     0.005 C 
ATOM     13  C   UNL     1     -12.463 -34.010 -12.485  1.00  0.00    -0.026 C 
ATOM     14  C   UNL     1     -11.908 -33.751 -14.836  1.00  0.00     0.005 C 
ATOM     15  C   UNL     1     -12.024 -32.980 -13.545  1.00  0.00    -0.001 C 
ATOM     16  C   UNL     1     -12.284 -33.318 -11.112  1.00  0.00     0.007 C 
ATOM     17  C   UNL     1     -13.940 -34.500 -12.598  1.00  0.00     0.012 C 
ATOM     18  C   UNL     1     -12.744 -31.608 -13.557  1.00  0.00     0.000 C 
ATOM     19  C   UNL     1     -13.058 -31.979 -11.023  1.00  0.00     0.005 C 
ATOM     20  C   UNL     1     -12.665 -30.962 -12.141  1.00  0.00     0.003 C 
ATOM     21  C   UNL     1     -14.151 -31.614 -14.193  1.00  0.00     0.031 C 
ATOM     22  C   UNL     1     -13.422 -29.577 -12.070  1.00  0.00    -0.008 C 
ATOM     23  C   UNL     1     -15.099 -30.573 -13.666  1.00  0.00    -0.027 C 
ATOM     24  C   UNL     1     -14.789 -29.641 -12.740  1.00  0.00    -0.065 C 
ATOM     25  C   UNL     1     -12.618 -28.472 -12.827  1.00  0.00     0.014 C 
ATOM     26  C   UNL     1     -13.572 -29.146 -10.583  1.00  0.00     0.016 C 
ATOM     27  C   UNL     1     -15.599 -28.362 -12.737  1.00  0.00     0.063 C 
ATOM     28  C   UNL     1     -13.373 -27.125 -12.954  1.00  0.00     0.033 C 
ATOM     29  C   UNL     1     -14.814 -27.281 -13.500  1.00  0.00     0.118 C 
BRANCH  29  30
ATOM     30  O   UNL     1     -14.774 -27.611 -14.866  1.00  0.00    -0.393 OA
ATOM     31  H   UNL     1     -14.260 -28.456 -14.942  1.00  0.00     0.210 HD
ENDBRANCH  29  30
ENDBRANCH   9  11
ENDBRANCH   1   9
TORSDOF 7
ENDMDL
MODEL 7
REMARK VINA RESULT:    -6.435      2.812      6.969
REMARK INTER + INTRA:         -11.271
REMARK INTER:                  -9.828
REMARK INTRA:                  -1.443
REMARK UNBOUND:                -2.391
REMARK SMILES CC[C@@H](CC[C@H](C)[C@@H]1CC[C@H]2[C@H]3CC=C4C[C@H](O)CC[C@]4(C)[C@H]3CC[C@@]21C)C(C)C
REMARK SMILES IDX 5 1 4 2 3 3 2 4 1 5 28 6 29 7 30 8 6 9 7 10 8 11 9 12 26 13
REMARK SMILES IDX 10 14 11 15 25 16 27 17 12 18 24 19 23 20 13 21 21 22 14 23
REMARK SMILES IDX 15 24 20 25 22 26 16 27 19 28 17 29 18 30
REMARK H PARENT 18 31
REMARK Flexibility Score: inf
ROOT
ATOM      1  C   UNL     1     -10.172 -34.110 -13.528  1.00  0.00     0.004 C 
ENDROOT
BRANCH   1   2
ATOM      2  C   UNL     1     -10.885 -35.168 -14.393  1.00  0.00     0.004 C 
BRANCH   2   3
ATOM      3  C   UNL     1     -12.135 -34.653 -15.156  1.00  0.00    -0.009 C 
BRANCH   3   4
ATOM      4  C   UNL     1     -12.634 -33.300 -14.571  1.00  0.00     0.000 C 
ATOM      5  C   UNL     1     -13.755 -33.458 -13.543  1.00  0.00     0.004 C 
ENDBRANCH   3   4
BRANCH   3   6
ATOM      6  C   UNL     1     -13.223 -35.775 -15.333  1.00  0.00    -0.014 C 
ATOM      7  C   UNL     1     -12.755 -37.122 -14.760  1.00  0.00     0.007 C 
ATOM      8  C   UNL     1     -13.735 -35.966 -16.773  1.00  0.00     0.007 C 
ENDBRANCH   3   6
ENDBRANCH   2   3
ENDBRANCH   1   2
BRANCH   1   9
ATOM      9  C   UNL     1      -9.122 -34.763 -12.569  1.00  0.00    -0.011 C 
ATOM     10  C   UNL     1      -9.062 -36.279 -12.895  1.00  0.00     0.008 C 
BRANCH   9  11
ATOM     11  C   UNL     1      -9.469 -34.488 -11.059  1.00  0.00    -0.002 C 
ATOM     12  C   UNL     1     -10.858 -35.091 -10.651  1.00  0.00     0.005 C 
ATOM     13  C   UNL     1      -9.549 -32.986 -10.567  1.00  0.00    -0.026 C 
ATOM     14  C   UNL     1     -11.691 -33.985 -10.005  1.00  0.00     0.005 C 
ATOM     15  C   UNL     1     -11.070 -32.735 -10.578  1.00  0.00    -0.001 C 
ATOM     16  C   UNL     1      -8.921 -31.865 -11.430  1.00  0.00     0.007 C 
ATOM     17  C   UNL     1      -8.875 -32.956  -9.160  1.00  0.00     0.012 C 
ATOM     18  C   UNL     1     -11.576 -31.356 -10.086  1.00  0.00     0.000 C 
ATOM     19  C   UNL     1      -9.313 -30.450 -10.932  1.00  0.00     0.005 C 
ATOM     20  C   UNL     1     -10.856 -30.222 -10.875  1.00  0.00     0.003 C 
ATOM     21  C   UNL     1     -11.591 -31.175  -8.552  1.00  0.00     0.031 C 
ATOM     22  C   UNL     1     -11.294 -28.783 -10.390  1.00  0.00    -0.008 C 
ATOM     23  C   UNL     1     -11.426 -29.760  -8.071  1.00  0.00    -0.027 C 
ATOM     24  C   UNL     1     -11.317 -28.678  -8.870  1.00  0.00    -0.065 C 
ATOM     25  C   UNL     1     -12.744 -28.457 -10.871  1.00  0.00     0.014 C 
ATOM     26  C   UNL     1     -10.327 -27.720 -10.987  1.00  0.00     0.016 C 
ATOM     27  C   UNL     1     -11.731 -27.341  -8.295  1.00  0.00     0.063 C 
ATOM     28  C   UNL     1     -13.314 -27.138 -10.291  1.00  0.00     0.033 C 
ATOM     29  C   UNL     1     -13.168 -27.031  -8.754  1.00  0.00     0.118 C 
BRANCH  29  30
ATOM     30  O   UNL     1     -14.058 -27.920  -8.126  1.00  0.00    -0.393 OA
ATOM     31  H   UNL     1     -13.507 -28.634  -7.712  1.00  0.00     0.210 HD
ENDBRANCH  29  30
ENDBRANCH   9  11
ENDBRANCH   1   9
TORSDOF 7
ENDMDL
MODEL 8
REMARK VINA RESULT:    -6.324      2.759      6.337
REMARK INTER + INTRA:         -11.117
REMARK INTER:                  -9.785
REMARK INTRA:                  -1.333
REMARK UNBOUND:                -2.391
REMARK SMILES CC[C@@H](CC[C@H](C)[C@@H]1CC[C@H]2[C@H]3CC=C4C[C@H](O)CC[C@]4(C)[C@H]3CC[C@@]21C)C(C)C
REMARK SMILES IDX 5 1 4 2 3 3 2 4 1 5 28 6 29 7 30 8 6 9 7 10 8 11 9 12 26 13
REMARK SMILES IDX 10 14 11 15 25 16 27 17 12 18 24 19 23 20 13 21 21 22 14 23
REMARK SMILES IDX 15 24 20 25 22 26 16 27 19 28 17 29 18 30
REMARK H PARENT 18 31
REMARK Flexibility Score: inf
ROOT
ATOM      1  C   UNL     1     -13.174 -33.720 -14.610  1.00  0.00     0.004 C 
ENDROOT
BRANCH   1   2
ATOM      2  C   UNL     1     -14.510 -34.412 -14.272  1.00  0.00     0.004 C 
BRANCH   2   3
ATOM      3  C   UNL     1     -15.447 -33.604 -13.335  1.00  0.00    -0.009 C 
BRANCH   3   4
ATOM      4  C   UNL     1     -16.941 -33.812 -13.717  1.00  0.00     0.000 C 
ATOM      5  C   UNL     1     -17.314 -35.280 -13.933  1.00  0.00     0.004 C 
ENDBRANCH   3   4
BRANCH   3   6
ATOM      6  C   UNL     1     -14.974 -32.112 -13.170  1.00  0.00    -0.014 C 
ATOM      7  C   UNL     1     -14.473 -31.825 -11.746  1.00  0.00     0.007 C 
ATOM      8  C   UNL     1     -16.009 -31.051 -13.587  1.00  0.00     0.007 C 
ENDBRANCH   3   6
ENDBRANCH   2   3
ENDBRANCH   1   2
BRANCH   1   9
ATOM      9  C   UNL     1     -12.174 -34.705 -15.299  1.00  0.00    -0.011 C 
ATOM     10  C   UNL     1     -12.996 -35.890 -15.873  1.00  0.00     0.008 C 
BRANCH   9  11
ATOM     11  C   UNL     1     -11.052 -35.180 -14.304  1.00  0.00    -0.002 C 
ATOM     12  C   UNL     1     -11.531 -36.364 -13.392  1.00  0.00     0.005 C 
ATOM     13  C   UNL     1     -10.460 -34.129 -13.279  1.00  0.00    -0.026 C 
ATOM     14  C   UNL     1     -11.265 -35.986 -11.936  1.00  0.00     0.005 C 
ATOM     15  C   UNL     1     -11.234 -34.479 -11.993  1.00  0.00    -0.001 C 
ATOM     16  C   UNL     1     -10.687 -32.617 -13.521  1.00  0.00     0.007 C 
ATOM     17  C   UNL     1      -8.923 -34.392 -13.230  1.00  0.00     0.012 C 
ATOM     18  C   UNL     1     -10.885 -33.690 -10.706  1.00  0.00     0.000 C 
ATOM     19  C   UNL     1     -10.268 -31.758 -12.300  1.00  0.00     0.005 C 
ATOM     20  C   UNL     1     -10.999 -32.161 -10.981  1.00  0.00     0.003 C 
ATOM     21  C   UNL     1      -9.582 -34.131 -10.003  1.00  0.00     0.031 C 
ATOM     22  C   UNL     1     -10.611 -31.293  -9.719  1.00  0.00    -0.008 C 
ATOM     23  C   UNL     1      -8.884 -33.057  -9.215  1.00  0.00    -0.027 C 
ATOM     24  C   UNL     1      -9.335 -31.796  -9.054  1.00  0.00    -0.065 C 
ATOM     25  C   UNL     1     -11.729 -31.374  -8.631  1.00  0.00     0.014 C 
ATOM     26  C   UNL     1     -10.445 -29.806 -10.145  1.00  0.00     0.016 C 
ATOM     27  C   UNL     1      -8.875 -31.040  -7.827  1.00  0.00     0.063 C 
ATOM     28  C   UNL     1     -11.350 -30.692  -7.292  1.00  0.00     0.033 C 
ATOM     29  C   UNL     1      -9.970 -31.137  -6.749  1.00  0.00     0.118 C 
BRANCH  29  30
ATOM     30  O   UNL     1     -10.044 -32.460  -6.280  1.00  0.00    -0.393 OA
ATOM     31  H   UNL     1      -9.418 -32.529  -5.513  1.00  0.00     0.210 HD
ENDBRANCH  29  30
ENDBRANCH   9  11
ENDBRANCH   1   9
TORSDOF 7
ENDMDL
MODEL 9
REMARK VINA RESULT:    -6.121      2.422      6.983
REMARK INTER + INTRA:         -10.837
REMARK INTER:                  -9.614
REMARK INTRA:                  -1.223
REMARK UNBOUND:                -2.391
REMARK SMILES CC[C@@H](CC[C@H](C)[C@@H]1CC[C@H]2[C@H]3CC=C4C[C@H](O)CC[C@]4(C)[C@H]3CC[C@@]21C)C(C)C
REMARK SMILES IDX 5 1 4 2 3 3 2 4 1 5 28 6 29 7 30 8 6 9 7 10 8 11 9 12 26 13
REMARK SMILES IDX 10 14 11 15 25 16 27 17 12 18 24 19 23 20 13 21 21 22 14 23
REMARK SMILES IDX 15 24 20 25 22 26 16 27 19 28 17 29 18 30
REMARK H PARENT 18 31
REMARK Flexibility Score: inf
ROOT
ATOM      1  C   UNL     1     -13.818 -34.165 -13.023  1.00  0.00     0.004 C 
ENDROOT
BRANCH   1   2
ATOM      2  C   UNL     1     -13.746 -35.474 -13.836  1.00  0.00     0.004 C 
BRANCH   2   3
ATOM      3  C   UNL     1     -12.832 -35.415 -15.089  1.00  0.00    -0.009 C 
BRANCH   3   4
ATOM      4  C   UNL     1     -13.317 -36.405 -16.187  1.00  0.00     0.000 C 
ATOM      5  C   UNL     1     -14.513 -35.886 -16.988  1.00  0.00     0.004 C 
ENDBRANCH   3   4
BRANCH   3   6
ATOM      6  C   UNL     1     -11.306 -35.490 -14.713  1.00  0.00    -0.014 C 
ATOM      7  C   UNL     1     -11.027 -36.585 -13.671  1.00  0.00     0.007 C 
ATOM      8  C   UNL     1     -10.682 -34.158 -14.256  1.00  0.00     0.007 C 
ENDBRANCH   3   6
ENDBRANCH   2   3
ENDBRANCH   1   2
BRANCH   1   9
ATOM      9  C   UNL     1     -15.269 -33.581 -13.003  1.00  0.00    -0.011 C 
ATOM     10  C   UNL     1     -16.121 -34.391 -14.016  1.00  0.00     0.008 C 
BRANCH   9  11
ATOM     11  C   UNL     1     -15.274 -32.038 -13.314  1.00  0.00    -0.002 C 
ATOM     12  C   UNL     1     -14.448 -31.690 -14.600  1.00  0.00     0.005 C 
ATOM     13  C   UNL     1     -14.705 -31.047 -12.219  1.00  0.00    -0.026 C 
ATOM     14  C   UNL     1     -13.441 -30.598 -14.244  1.00  0.00     0.005 C 
ATOM     15  C   UNL     1     -13.285 -30.775 -12.754  1.00  0.00    -0.001 C 
ATOM     16  C   UNL     1     -14.529 -31.539 -10.762  1.00  0.00     0.007 C 
ATOM     17  C   UNL     1     -15.665 -29.817 -12.208  1.00  0.00     0.012 C 
ATOM     18  C   UNL     1     -12.401 -29.772 -11.971  1.00  0.00     0.000 C 
ATOM     19  C   UNL     1     -13.729 -30.534  -9.895  1.00  0.00     0.005 C 
ATOM     20  C   UNL     1     -12.319 -30.202 -10.476  1.00  0.00     0.003 C 
ATOM     21  C   UNL     1     -12.738 -28.283 -12.204  1.00  0.00     0.031 C 
ATOM     22  C   UNL     1     -11.466 -29.194  -9.608  1.00  0.00    -0.008 C 
ATOM     23  C   UNL     1     -12.414 -27.365 -11.059  1.00  0.00    -0.027 C 
ATOM     24  C   UNL     1     -11.825 -27.743  -9.905  1.00  0.00    -0.065 C 
ATOM     25  C   UNL     1      -9.945 -29.340  -9.930  1.00  0.00     0.014 C 
ATOM     26  C   UNL     1     -11.681 -29.502  -8.098  1.00  0.00     0.016 C 
ATOM     27  C   UNL     1     -11.061 -26.691  -9.132  1.00  0.00     0.063 C 
ATOM     28  C   UNL     1      -9.055 -28.270  -9.250  1.00  0.00     0.033 C 
ATOM     29  C   UNL     1      -9.565 -26.824  -9.467  1.00  0.00     0.118 C 
BRANCH  29  30
ATOM     30  O   UNL     1      -9.350 -26.435 -10.801  1.00  0.00    -0.393 OA
ATOM     31  H   UNL     1      -9.892 -25.618 -10.953  1.00  0.00     0.210 HD
ENDBRANCH  29  30
ENDBRANCH   9  11
ENDBRANCH   1   9
TORSDOF 7
ENDMDL
