MODEL 1
REMARK VINA RESULT:    -4.847      0.000      0.000
REMARK INTER + INTRA:          -5.695
REMARK INTER:                  -5.556
REMARK INTRA:                  -0.140
REMARK UNBOUND:                -0.140
REMARK SMILES O=C([O-])C=Cc1ccc(O)cc1
REMARK SMILES IDX 6 1 7 2 12 3 8 4 11 5 9 6 5 7 4 8 2 9 1 10 3 11 10 12
REMARK H PARENT 10 13
REMARK Flexibility Score: inf
ROOT
ATOM      1  C   UNL     1      21.119   0.455 -18.622  1.00  0.00    -0.025 A 
ATOM      2  C   UNL     1      21.382   1.203 -19.783  1.00  0.00     0.012 A 
ATOM      3  C   UNL     1      20.635  -0.862 -18.758  1.00  0.00     0.012 A 
ATOM      4  C   UNL     1      21.144   0.660 -21.049  1.00  0.00     0.047 A 
ATOM      5  C   UNL     1      20.399  -1.402 -20.026  1.00  0.00     0.047 A 
ATOM      6  C   UNL     1      20.649  -0.644 -21.174  1.00  0.00     0.115 A 
ENDROOT
BRANCH   1   7
ATOM      7  C   UNL     1      21.397   1.073 -17.302  1.00  0.00     0.010 C 
ATOM      8  C   UNL     1      22.613   1.472 -16.908  1.00  0.00     0.025 C 
BRANCH   8   9
ATOM      9  C   UNL     1      22.845   2.071 -15.584  1.00  0.00     0.064 C 
ATOM     10  O   UNL     1      22.671   1.377 -14.549  1.00  0.00    -0.545 OA
ATOM     11  O   UNL     1      23.256   3.393 -15.457  1.00  0.00    -0.545 OA
ENDBRANCH   8   9
ENDBRANCH   1   7
BRANCH   6  12
ATOM     12  O   UNL     1      20.408  -1.196 -22.430  1.00  0.00    -0.508 OA
ATOM     13  H   UNL     1      20.273  -2.192 -22.553  1.00  0.00     0.293 HD
ENDBRANCH   6  12
TORSDOF 3
ENDMDL
MODEL 2
REMARK VINA RESULT:    -4.784      2.613      5.329
REMARK INTER + INTRA:          -5.623
REMARK INTER:                  -5.475
REMARK INTRA:                  -0.148
REMARK UNBOUND:                -0.140
REMARK SMILES O=C([O-])C=Cc1ccc(O)cc1
REMARK SMILES IDX 6 1 7 2 12 3 8 4 11 5 9 6 5 7 4 8 2 9 1 10 3 11 10 12
REMARK H PARENT 10 13
REMARK Flexibility Score: inf
ROOT
ATOM      1  C   UNL     1      20.176  -0.007 -19.262  1.00  0.00    -0.025 A 
ATOM      2  C   UNL     1      20.812   0.712 -18.235  1.00  0.00     0.012 A 
ATOM      3  C   UNL     1      18.985  -0.702 -18.968  1.00  0.00     0.012 A 
ATOM      4  C   UNL     1      20.288   0.716 -16.939  1.00  0.00     0.047 A 
ATOM      5  C   UNL     1      18.464  -0.695 -17.670  1.00  0.00     0.047 A 
ATOM      6  C   UNL     1      19.113   0.010 -16.652  1.00  0.00     0.115 A 
ENDROOT
BRANCH   1   7
ATOM      7  C   UNL     1      20.766   0.028 -20.624  1.00  0.00     0.010 C 
ATOM      8  C   UNL     1      21.372   1.102 -21.145  1.00  0.00     0.025 C 
BRANCH   8   9
ATOM      9  C   UNL     1      21.935   1.094 -22.505  1.00  0.00     0.064 C 
ATOM     10  O   UNL     1      22.094   2.181 -23.118  1.00  0.00    -0.545 OA
ATOM     11  O   UNL     1      22.295  -0.097 -23.125  1.00  0.00    -0.545 OA
ENDBRANCH   8   9
ENDBRANCH   1   7
BRANCH   6  12
ATOM     12  O   UNL     1      18.582   0.006 -15.365  1.00  0.00    -0.508 OA
ATOM     13  H   UNL     1      19.141  -0.257 -14.562  1.00  0.00     0.293 HD
ENDBRANCH   6  12
TORSDOF 3
ENDMDL
MODEL 3
REMARK VINA RESULT:    -4.698     15.679     16.879
REMARK INTER + INTRA:          -5.525
REMARK INTER:                  -5.387
REMARK INTRA:                  -0.137
REMARK UNBOUND:                -0.140
REMARK SMILES O=C([O-])C=Cc1ccc(O)cc1
REMARK SMILES IDX 6 1 7 2 12 3 8 4 11 5 9 6 5 7 4 8 2 9 1 10 3 11 10 12
REMARK H PARENT 10 13
REMARK Flexibility Score: inf
ROOT
ATOM      1  C   UNL     1       8.647  -5.274 -10.628  1.00  0.00    -0.025 A 
ATOM      2  C   UNL     1      10.012  -5.605 -10.575  1.00  0.00     0.012 A 
ATOM      3  C   UNL     1       7.914  -5.217  -9.425  1.00  0.00     0.012 A 
ATOM      4  C   UNL     1      10.626  -5.898  -9.353  1.00  0.00     0.047 A 
ATOM      5  C   UNL     1       8.532  -5.511  -8.206  1.00  0.00     0.047 A 
ATOM      6  C   UNL     1       9.887  -5.854  -8.165  1.00  0.00     0.115 A 
ENDROOT
BRANCH   1   7
ATOM      7  C   UNL     1       8.043  -4.962 -11.948  1.00  0.00     0.010 C 
ATOM      8  C   UNL     1       7.789  -3.719 -12.375  1.00  0.00     0.025 C 
BRANCH   8   9
ATOM      9  C   UNL     1       7.179  -3.456 -13.689  1.00  0.00     0.064 C 
ATOM     10  O   UNL     1       7.314  -4.297 -14.615  1.00  0.00    -0.545 OA
ATOM     11  O   UNL     1       6.455  -2.293 -13.922  1.00  0.00    -0.545 OA
ENDBRANCH   8   9
ENDBRANCH   1   7
BRANCH   6  12
ATOM     12  O   UNL     1      10.487  -6.144  -6.943  1.00  0.00    -0.508 OA
ATOM     13  H   UNL     1      10.267  -6.991  -6.433  1.00  0.00     0.293 HD
ENDBRANCH   6  12
TORSDOF 3
ENDMDL
MODEL 4
REMARK VINA RESULT:    -4.648     17.581     19.098
REMARK INTER + INTRA:          -5.467
REMARK INTER:                  -5.321
REMARK INTRA:                  -0.146
REMARK UNBOUND:                -0.140
REMARK SMILES O=C([O-])C=Cc1ccc(O)cc1
REMARK SMILES IDX 6 1 7 2 12 3 8 4 11 5 9 6 5 7 4 8 2 9 1 10 3 11 10 12
REMARK H PARENT 10 13
REMARK Flexibility Score: inf
ROOT
ATOM      1  C   UNL     1       8.295  -7.222  -8.190  1.00  0.00    -0.025 A 
ATOM      2  C   UNL     1       9.631  -6.878  -8.456  1.00  0.00     0.012 A 
ATOM      3  C   UNL     1       7.666  -6.674  -7.053  1.00  0.00     0.012 A 
ATOM      4  C   UNL     1      10.333  -6.029  -7.595  1.00  0.00     0.047 A 
ATOM      5  C   UNL     1       8.371  -5.824  -6.195  1.00  0.00     0.047 A 
ATOM      6  C   UNL     1       9.705  -5.501  -6.460  1.00  0.00     0.115 A 
ENDROOT
BRANCH   1   7
ATOM      7  C   UNL     1       7.590  -8.119  -9.139  1.00  0.00     0.010 C 
ATOM      8  C   UNL     1       7.602  -7.955 -10.468  1.00  0.00     0.025 C 
BRANCH   8   9
ATOM      9  C   UNL     1       6.879  -8.864 -11.371  1.00  0.00     0.064 C 
ATOM     10  O   UNL     1       5.885  -9.505 -10.943  1.00  0.00    -0.545 OA
ATOM     11  O   UNL     1       7.277  -9.026 -12.694  1.00  0.00    -0.545 OA
ENDBRANCH   8   9
ENDBRANCH   1   7
BRANCH   6  12
ATOM     12  O   UNL     1      10.394  -4.655  -5.595  1.00  0.00    -0.508 OA
ATOM     13  H   UNL     1       9.956  -3.832  -5.199  1.00  0.00     0.293 HD
ENDBRANCH   6  12
TORSDOF 3
ENDMDL
MODEL 5
REMARK VINA RESULT:    -4.635     16.633     17.468
REMARK INTER + INTRA:          -5.453
REMARK INTER:                  -5.319
REMARK INTRA:                  -0.134
REMARK UNBOUND:                -0.140
REMARK SMILES O=C([O-])C=Cc1ccc(O)cc1
REMARK SMILES IDX 6 1 7 2 12 3 8 4 11 5 9 6 5 7 4 8 2 9 1 10 3 11 10 12
REMARK H PARENT 10 13
REMARK Flexibility Score: inf
ROOT
ATOM      1  C   UNL     1       8.260  -5.703 -10.007  1.00  0.00    -0.025 A 
ATOM      2  C   UNL     1       7.910  -4.450 -10.539  1.00  0.00     0.012 A 
ATOM      3  C   UNL     1       8.329  -6.814 -10.873  1.00  0.00     0.012 A 
ATOM      4  C   UNL     1       7.612  -4.313 -11.898  1.00  0.00     0.047 A 
ATOM      5  C   UNL     1       8.030  -6.671 -12.232  1.00  0.00     0.047 A 
ATOM      6  C   UNL     1       7.669  -5.424 -12.748  1.00  0.00     0.115 A 
ENDROOT
BRANCH   1   7
ATOM      7  C   UNL     1       8.577  -5.797  -8.560  1.00  0.00     0.010 C 
ATOM      8  C   UNL     1       7.652  -5.950  -7.604  1.00  0.00     0.025 C 
BRANCH   8   9
ATOM      9  C   UNL     1       8.011  -6.027  -6.178  1.00  0.00     0.064 C 
ATOM     10  O   UNL     1       7.633  -7.013  -5.495  1.00  0.00    -0.545 OA
ATOM     11  O   UNL     1       8.764  -5.026  -5.574  1.00  0.00    -0.545 OA
ENDBRANCH   8   9
ENDBRANCH   1   7
BRANCH   6  12
ATOM     12  O   UNL     1       7.373  -5.299 -14.103  1.00  0.00    -0.508 OA
ATOM     13  H   UNL     1       7.483  -6.076 -14.743  1.00  0.00     0.293 HD
ENDBRANCH   6  12
TORSDOF 3
ENDMDL
MODEL 6
REMARK VINA RESULT:    -4.632      1.591      2.397
REMARK INTER + INTRA:          -5.448
REMARK INTER:                  -5.306
REMARK INTRA:                  -0.142
REMARK UNBOUND:                -0.140
REMARK SMILES O=C([O-])C=Cc1ccc(O)cc1
REMARK SMILES IDX 6 1 7 2 12 3 8 4 11 5 9 6 5 7 4 8 2 9 1 10 3 11 10 12
REMARK H PARENT 10 13
REMARK Flexibility Score: inf
ROOT
ATOM      1  C   UNL     1      20.852   0.318 -18.700  1.00  0.00    -0.025 A 
ATOM      2  C   UNL     1      20.422  -0.987 -18.997  1.00  0.00     0.012 A 
ATOM      3  C   UNL     1      21.240   1.164 -19.760  1.00  0.00     0.012 A 
ATOM      4  C   UNL     1      20.404  -1.447 -20.317  1.00  0.00     0.047 A 
ATOM      5  C   UNL     1      21.220   0.699 -21.079  1.00  0.00     0.047 A 
ATOM      6  C   UNL     1      20.805  -0.605 -21.362  1.00  0.00     0.115 A 
ENDROOT
BRANCH   1   7
ATOM      7  C   UNL     1      20.844   0.763 -17.284  1.00  0.00     0.010 C 
ATOM      8  C   UNL     1      19.750   0.771 -16.512  1.00  0.00     0.025 C 
BRANCH   8   9
ATOM      9  C   UNL     1      19.787   1.231 -15.114  1.00  0.00     0.064 C 
ATOM     10  O   UNL     1      18.709   1.417 -14.493  1.00  0.00    -0.545 OA
ATOM     11  O   UNL     1      20.995   1.463 -14.468  1.00  0.00    -0.545 OA
ENDBRANCH   8   9
ENDBRANCH   1   7
BRANCH   6  12
ATOM     12  O   UNL     1      20.792  -1.053 -22.680  1.00  0.00    -0.508 OA
ATOM     13  H   UNL     1      20.521  -2.000 -22.915  1.00  0.00     0.293 HD
ENDBRANCH   6  12
TORSDOF 3
ENDMDL
MODEL 7
REMARK VINA RESULT:    -4.553      3.208      3.909
REMARK INTER + INTRA:          -5.358
REMARK INTER:                  -5.216
REMARK INTRA:                  -0.142
REMARK UNBOUND:                -0.140
REMARK SMILES O=C([O-])C=Cc1ccc(O)cc1
REMARK SMILES IDX 6 1 7 2 12 3 8 4 11 5 9 6 5 7 4 8 2 9 1 10 3 11 10 12
REMARK H PARENT 10 13
REMARK Flexibility Score: inf
ROOT
ATOM      1  C   UNL     1      20.115  -0.425 -19.376  1.00  0.00    -0.025 A 
ATOM      2  C   UNL     1      20.132  -1.104 -20.607  1.00  0.00     0.012 A 
ATOM      3  C   UNL     1      20.808   0.798 -19.265  1.00  0.00     0.012 A 
ATOM      4  C   UNL     1      20.843  -0.588 -21.695  1.00  0.00     0.047 A 
ATOM      5  C   UNL     1      21.517   1.311 -20.356  1.00  0.00     0.047 A 
ATOM      6  C   UNL     1      21.539   0.620 -21.571  1.00  0.00     0.115 A 
ENDROOT
BRANCH   1   7
ATOM      7  C   UNL     1      19.338  -1.009 -18.254  1.00  0.00     0.010 C 
ATOM      8  C   UNL     1      18.856  -0.293 -17.231  1.00  0.00     0.025 C 
BRANCH   8   9
ATOM      9  C   UNL     1      18.099  -0.916 -16.133  1.00  0.00     0.064 C 
ATOM     10  O   UNL     1      17.380  -0.199 -15.390  1.00  0.00    -0.545 OA
ATOM     11  O   UNL     1      18.165  -2.285 -15.904  1.00  0.00    -0.545 OA
ENDBRANCH   8   9
ENDBRANCH   1   7
BRANCH   6  12
ATOM     12  O   UNL     1      22.252   1.144 -22.647  1.00  0.00    -0.508 OA
ATOM     13  H   UNL     1      23.034   0.647 -23.056  1.00  0.00     0.293 HD
ENDBRANCH   6  12
TORSDOF 3
ENDMDL
MODEL 8
REMARK VINA RESULT:    -4.536     17.867     19.210
REMARK INTER + INTRA:          -5.339
REMARK INTER:                  -5.204
REMARK INTRA:                  -0.135
REMARK UNBOUND:                -0.140
REMARK SMILES O=C([O-])C=Cc1ccc(O)cc1
REMARK SMILES IDX 6 1 7 2 12 3 8 4 11 5 9 6 5 7 4 8 2 9 1 10 3 11 10 12
REMARK H PARENT 10 13
REMARK Flexibility Score: inf
ROOT
ATOM      1  C   UNL     1       8.367  -6.390  -7.394  1.00  0.00    -0.025 A 
ATOM      2  C   UNL     1       7.987  -7.737  -7.268  1.00  0.00     0.012 A 
ATOM      3  C   UNL     1       8.364  -5.572  -6.246  1.00  0.00     0.012 A 
ATOM      4  C   UNL     1       7.589  -8.251  -6.030  1.00  0.00     0.047 A 
ATOM      5  C   UNL     1       7.965  -6.091  -5.009  1.00  0.00     0.047 A 
ATOM      6  C   UNL     1       7.575  -7.428  -4.898  1.00  0.00     0.115 A 
ENDROOT
BRANCH   1   7
ATOM      7  C   UNL     1       8.790  -5.894  -8.728  1.00  0.00     0.010 C 
ATOM      8  C   UNL     1       7.990  -5.213  -9.557  1.00  0.00     0.025 C 
BRANCH   8   9
ATOM      9  C   UNL     1       8.449  -4.748 -10.876  1.00  0.00     0.064 C 
ATOM     10  O   UNL     1       7.604  -4.457 -11.761  1.00  0.00    -0.545 OA
ATOM     11  O   UNL     1       9.805  -4.625 -11.160  1.00  0.00    -0.545 OA
ENDBRANCH   8   9
ENDBRANCH   1   7
BRANCH   6  12
ATOM     12  O   UNL     1       7.180  -7.929  -3.660  1.00  0.00    -0.508 OA
ATOM     13  H   UNL     1       7.856  -8.176  -2.948  1.00  0.00     0.293 HD
ENDBRANCH   6  12
TORSDOF 3
ENDMDL
MODEL 9
REMARK VINA RESULT:    -3.726     19.114     20.116
REMARK INTER + INTRA:          -4.411
REMARK INTER:                  -4.267
REMARK INTRA:                  -0.143
REMARK UNBOUND:                -0.140
REMARK SMILES O=C([O-])C=Cc1ccc(O)cc1
REMARK SMILES IDX 6 1 7 2 12 3 8 4 11 5 9 6 5 7 4 8 2 9 1 10 3 11 10 12
REMARK H PARENT 10 13
REMARK Flexibility Score: inf
ROOT
ATOM      1  C   UNL     1       4.804   5.328  -9.052  1.00  0.00    -0.025 A 
ATOM      2  C   UNL     1       6.041   4.700  -9.279  1.00  0.00     0.012 A 
ATOM      3  C   UNL     1       4.032   4.927  -7.941  1.00  0.00     0.012 A 
ATOM      4  C   UNL     1       6.487   3.679  -8.434  1.00  0.00     0.047 A 
ATOM      5  C   UNL     1       4.483   3.906  -7.099  1.00  0.00     0.047 A 
ATOM      6  C   UNL     1       5.708   3.278  -7.343  1.00  0.00     0.115 A 
ENDROOT
BRANCH   1   7
ATOM      7  C   UNL     1       4.378   6.413  -9.971  1.00  0.00     0.010 C 
ATOM      8  C   UNL     1       5.088   7.528 -10.185  1.00  0.00     0.025 C 
BRANCH   8   9
ATOM      9  C   UNL     1       4.622   8.583 -11.099  1.00  0.00     0.064 C 
ATOM     10  O   UNL     1       3.875   8.283 -12.065  1.00  0.00    -0.545 OA
ATOM     11  O   UNL     1       4.994   9.910 -10.910  1.00  0.00    -0.545 OA
ENDBRANCH   8   9
ENDBRANCH   1   7
BRANCH   6  12
ATOM     12  O   UNL     1       6.142   2.262  -6.495  1.00  0.00    -0.508 OA
ATOM     13  H   UNL     1       5.583   1.954  -5.708  1.00  0.00     0.293 HD
ENDBRANCH   6  12
TORSDOF 3
ENDMDL
