MODEL 1
REMARK VINA RESULT:    -1.828      0.000      0.000
REMARK INTER + INTRA:          -2.266
REMARK INTER:                  -2.149
REMARK INTRA:                  -0.117
REMARK UNBOUND:                -0.117
REMARK SMILES O=C([O-])CCC(=O)[O-]
REMARK SMILES IDX 4 1 2 2 1 3 3 4 5 5 6 6 7 7 8 8
REMARK H PARENT
REMARK Flexibility Score: inf
ROOT
ATOM      1  C   UNL     1      24.030  30.429  -8.112  1.00  0.00     0.059 C 
ENDROOT
BRANCH   1   2
ATOM      2  C   UNL     1      22.540  30.378  -7.958  1.00  0.00     0.042 C 
ATOM      3  O   UNL     1      21.880  31.443  -7.833  1.00  0.00    -0.550 OA
ATOM      4  O   UNL     1      21.877  29.158  -7.993  1.00  0.00    -0.550 OA
ENDBRANCH   1   2
BRANCH   1   5
ATOM      5  C   UNL     1      24.671  31.385  -7.102  1.00  0.00     0.059 C 
BRANCH   5   6
ATOM      6  C   UNL     1      25.266  32.584  -7.776  1.00  0.00     0.042 C 
ATOM      7  O   UNL     1      26.475  32.579  -8.125  1.00  0.00    -0.550 OA
ATOM      8  O   UNL     1      24.473  33.690  -8.055  1.00  0.00    -0.550 OA
ENDBRANCH   5   6
ENDBRANCH   1   5
TORSDOF 3
ENDMDL
MODEL 2
REMARK VINA RESULT:    -1.474      0.599      3.873
REMARK INTER + INTRA:          -1.850
REMARK INTER:                  -1.784
REMARK INTRA:                  -0.066
REMARK UNBOUND:                -0.117
REMARK SMILES O=C([O-])CCC(=O)[O-]
REMARK SMILES IDX 4 1 2 2 1 3 3 4 5 5 6 6 7 7 8 8
REMARK H PARENT
REMARK Flexibility Score: inf
ROOT
ATOM      1  C   UNL     1      24.633  31.736  -7.018  1.00  0.00     0.059 C 
ENDROOT
BRANCH   1   2
ATOM      2  C   UNL     1      25.706  32.437  -7.795  1.00  0.00     0.042 C 
ATOM      3  O   UNL     1      25.564  33.645  -8.120  1.00  0.00    -0.550 OA
ATOM      4  O   UNL     1      26.879  31.769  -8.122  1.00  0.00    -0.550 OA
ENDBRANCH   1   2
BRANCH   1   5
ATOM      5  C   UNL     1      24.099  30.512  -7.770  1.00  0.00     0.059 C 
BRANCH   5   6
ATOM      6  C   UNL     1      22.616  30.590  -7.969  1.00  0.00     0.042 C 
ATOM      7  O   UNL     1      21.939  29.537  -8.105  1.00  0.00    -0.550 OA
ATOM      8  O   UNL     1      21.977  31.824  -7.963  1.00  0.00    -0.550 OA
ENDBRANCH   5   6
ENDBRANCH   1   5
TORSDOF 3
ENDMDL
MODEL 3
REMARK VINA RESULT:     0.570     12.485     13.845
REMARK INTER + INTRA:           0.553
REMARK INTER:                   0.607
REMARK INTRA:                  -0.055
REMARK UNBOUND:                -0.117
REMARK SMILES O=C([O-])CCC(=O)[O-]
REMARK SMILES IDX 4 1 2 2 1 3 3 4 5 5 6 6 7 7 8 8
REMARK H PARENT
REMARK Flexibility Score: inf
ROOT
ATOM      1  C   UNL     1      34.249  29.108  -0.502  1.00  0.00     0.059 C 
ENDROOT
BRANCH   1   2
ATOM      2  C   UNL     1      34.531  28.365  -1.772  1.00  0.00     0.042 C 
ATOM      3  O   UNL     1      35.672  27.875  -1.978  1.00  0.00    -0.550 OA
ATOM      4  O   UNL     1      33.522  28.178  -2.709  1.00  0.00    -0.550 OA
ENDBRANCH   1   2
BRANCH   1   5
ATOM      5  C   UNL     1      35.451  29.082   0.448  1.00  0.00     0.059 C 
BRANCH   5   6
ATOM      6  C   UNL     1      35.834  30.461   0.892  1.00  0.00     0.042 C 
ATOM      7  O   UNL     1      34.954  31.262   1.302  1.00  0.00    -0.550 OA
ATOM      8  O   UNL     1      37.169  30.845   0.892  1.00  0.00    -0.550 OA
ENDBRANCH   5   6
ENDBRANCH   1   5
TORSDOF 3
ENDMDL
MODEL 4
REMARK VINA RESULT:     0.903      2.078      4.361
REMARK INTER + INTRA:           0.944
REMARK INTER:                   0.978
REMARK INTRA:                  -0.034
REMARK UNBOUND:                -0.117
REMARK SMILES O=C([O-])CCC(=O)[O-]
REMARK SMILES IDX 4 1 2 2 1 3 3 4 5 5 6 6 7 7 8 8
REMARK H PARENT
REMARK Flexibility Score: inf
ROOT
ATOM      1  C   UNL     1      24.091  34.043  -7.622  1.00  0.00     0.059 C 
ENDROOT
BRANCH   1   2
ATOM      2  C   UNL     1      24.662  35.389  -7.949  1.00  0.00     0.042 C 
ATOM      3  O   UNL     1      25.904  35.529  -8.103  1.00  0.00    -0.550 OA
ATOM      4  O   UNL     1      23.819  36.479  -8.125  1.00  0.00    -0.550 OA
ENDBRANCH   1   2
BRANCH   1   5
ATOM      5  C   UNL     1      25.117  32.926  -7.837  1.00  0.00     0.059 C 
BRANCH   5   6
ATOM      6  C   UNL     1      24.538  31.577  -7.535  1.00  0.00     0.042 C 
ATOM      7  O   UNL     1      25.174  30.760  -6.819  1.00  0.00    -0.550 OA
ATOM      8  O   UNL     1      23.277  31.240  -8.011  1.00  0.00    -0.550 OA
ENDBRANCH   5   6
ENDBRANCH   1   5
TORSDOF 3
ENDMDL
MODEL 5
REMARK VINA RESULT:     0.920     15.721     17.193
REMARK INTER + INTRA:           0.964
REMARK INTER:                   1.001
REMARK INTRA:                  -0.037
REMARK UNBOUND:                -0.117
REMARK SMILES O=C([O-])CCC(=O)[O-]
REMARK SMILES IDX 4 1 2 2 1 3 3 4 5 5 6 6 7 7 8 8
REMARK H PARENT
REMARK Flexibility Score: inf
ROOT
ATOM      1  C   UNL     1      25.676  42.991   4.537  1.00  0.00     0.059 C 
ENDROOT
BRANCH   1   2
ATOM      2  C   UNL     1      26.694  44.089   4.615  1.00  0.00     0.042 C 
ATOM      3  O   UNL     1      27.497  44.276   3.664  1.00  0.00    -0.550 OA
ATOM      4  O   UNL     1      26.727  44.930   5.720  1.00  0.00    -0.550 OA
ENDBRANCH   1   2
BRANCH   1   5
ATOM      5  C   UNL     1      25.045  42.904   3.144  1.00  0.00     0.059 C 
BRANCH   5   6
ATOM      6  C   UNL     1      23.653  42.352   3.201  1.00  0.00     0.042 C 
ATOM      7  O   UNL     1      23.078  41.973   2.147  1.00  0.00    -0.550 OA
ATOM      8  O   UNL     1      23.008  42.217   4.425  1.00  0.00    -0.550 OA
ENDBRANCH   5   6
ENDBRANCH   1   5
TORSDOF 3
ENDMDL
MODEL 6
REMARK VINA RESULT:     0.926     15.718     16.758
REMARK INTER + INTRA:           0.971
REMARK INTER:                   1.009
REMARK INTRA:                  -0.037
REMARK UNBOUND:                -0.117
REMARK SMILES O=C([O-])CCC(=O)[O-]
REMARK SMILES IDX 4 1 2 2 1 3 3 4 5 5 6 6 7 7 8 8
REMARK H PARENT
REMARK Flexibility Score: inf
ROOT
ATOM      1  C   UNL     1      25.031  42.889   3.145  1.00  0.00     0.059 C 
ENDROOT
BRANCH   1   2
ATOM      2  C   UNL     1      23.630  42.359   3.190  1.00  0.00     0.042 C 
ATOM      3  O   UNL     1      23.067  41.966   2.134  1.00  0.00    -0.550 OA
ATOM      4  O   UNL     1      22.962  42.259   4.404  1.00  0.00    -0.550 OA
ENDBRANCH   1   2
BRANCH   1   5
ATOM      5  C   UNL     1      25.647  42.977   4.544  1.00  0.00     0.059 C 
BRANCH   5   6
ATOM      6  C   UNL     1      26.668  44.070   4.631  1.00  0.00     0.042 C 
ATOM      7  O   UNL     1      27.492  44.244   3.695  1.00  0.00    -0.550 OA
ATOM      8  O   UNL     1      26.682  44.923   5.728  1.00  0.00    -0.550 OA
ENDBRANCH   5   6
ENDBRANCH   1   5
TORSDOF 3
ENDMDL
MODEL 7
REMARK VINA RESULT:     1.056     12.485     14.103
REMARK INTER + INTRA:           1.125
REMARK INTER:                   1.181
REMARK INTRA:                  -0.056
REMARK UNBOUND:                -0.117
REMARK SMILES O=C([O-])CCC(=O)[O-]
REMARK SMILES IDX 4 1 2 2 1 3 3 4 5 5 6 6 7 7 8 8
REMARK H PARENT
REMARK Flexibility Score: inf
ROOT
ATOM      1  C   UNL     1      34.515  29.862   0.108  1.00  0.00     0.059 C 
ENDROOT
BRANCH   1   2
ATOM      2  C   UNL     1      35.576  30.592   0.875  1.00  0.00     0.042 C 
ATOM      3  O   UNL     1      35.267  31.563   1.614  1.00  0.00    -0.550 OA
ATOM      4  O   UNL     1      36.898  30.173   0.805  1.00  0.00    -0.550 OA
ENDBRANCH   1   2
BRANCH   1   5
ATOM      5  C   UNL     1      34.962  28.445  -0.266  1.00  0.00     0.059 C 
BRANCH   5   6
ATOM      6  C   UNL     1      34.765  28.170  -1.726  1.00  0.00     0.042 C 
ATOM      7  O   UNL     1      35.749  27.875  -2.453  1.00  0.00    -0.550 OA
ATOM      8  O   UNL     1      33.489  28.200  -2.273  1.00  0.00    -0.550 OA
ENDBRANCH   5   6
ENDBRANCH   1   5
TORSDOF 3
ENDMDL
