MODEL 1
REMARK VINA RESULT:    -4.636      0.000      0.000
REMARK INTER + INTRA:         -10.312
REMARK INTER:                  -8.431
REMARK INTRA:                  -1.881
REMARK UNBOUND:                -1.881
REMARK SMILES CCCCCCCCCCCCCC[C@@H](C)C(=O)[O-]
REMARK SMILES IDX 9 1 10 2 11 3 12 4 13 5 14 6 15 7 16 8 17 9 18 10 19 11 8 12
REMARK SMILES IDX 7 13 6 14 5 15 4 16 3 17 2 18 1 19
REMARK H PARENT
REMARK Flexibility Score: inf
ROOT
ATOM      1  C   UNL     1       4.416 -14.034   4.909  1.00  0.00     0.000 C 
ENDROOT
BRANCH   1   2
ATOM      2  C   UNL     1       4.962 -13.568   6.270  1.00  0.00     0.000 C 
BRANCH   2   3
ATOM      3  C   UNL     1       5.754 -12.254   6.170  1.00  0.00     0.000 C 
BRANCH   3   4
ATOM      4  C   UNL     1       5.377 -11.250   7.275  1.00  0.00     0.000 C 
BRANCH   4   5
ATOM      5  C   UNL     1       4.064 -10.508   6.976  1.00  0.00     0.001 C 
BRANCH   5   6
ATOM      6  C   UNL     1       4.157  -9.625   5.718  1.00  0.00     0.009 C 
BRANCH   6   7
ATOM      7  C   UNL     1       2.976  -8.638   5.596  1.00  0.00     0.032 C 
ATOM      8  C   UNL     1       1.646  -9.348   5.305  1.00  0.00     0.014 C 
BRANCH   7   9
ATOM      9  C   UNL     1       2.852  -7.828   6.858  1.00  0.00     0.044 C 
ATOM     10  O   UNL     1       3.694  -6.931   7.130  1.00  0.00    -0.550 OA
ATOM     11  O   UNL     1       1.801  -8.067   7.734  1.00  0.00    -0.550 OA
ENDBRANCH   7   9
ENDBRANCH   6   7
ENDBRANCH   5   6
ENDBRANCH   4   5
ENDBRANCH   3   4
ENDBRANCH   2   3
ENDBRANCH   1   2
BRANCH   1  12
ATOM     12  C   UNL     1       4.603 -12.982   3.800  1.00  0.00     0.000 C 
BRANCH  12  13
ATOM     13  C   UNL     1       3.308 -12.540   3.087  1.00  0.00    -0.000 C 
BRANCH  13  14
ATOM     14  C   UNL     1       3.370 -11.165   2.398  1.00  0.00    -0.000 C 
BRANCH  14  15
ATOM     15  C   UNL     1       4.221 -11.177   1.117  1.00  0.00    -0.000 C 
BRANCH  15  16
ATOM     16  C   UNL     1       3.994 -12.437   0.261  1.00  0.00    -0.000 C 
BRANCH  16  17
ATOM     17  C   UNL     1       5.267 -13.233  -0.092  1.00  0.00    -0.000 C 
BRANCH  17  18
ATOM     18  C   UNL     1       6.572 -12.417  -0.065  1.00  0.00    -0.003 C 
ATOM     19  C   UNL     1       7.573 -12.930   0.969  1.00  0.00     0.004 C 
ENDBRANCH  17  18
ENDBRANCH  16  17
ENDBRANCH  15  16
ENDBRANCH  14  15
ENDBRANCH  13  14
ENDBRANCH  12  13
ENDBRANCH   1  12
TORSDOF 14
ENDMDL
MODEL 2
REMARK VINA RESULT:    -4.626      1.457      2.118
REMARK INTER + INTRA:         -10.292
REMARK INTER:                  -8.908
REMARK INTRA:                  -1.385
REMARK UNBOUND:                -1.881
REMARK SMILES CCCCCCCCCCCCCC[C@@H](C)C(=O)[O-]
REMARK SMILES IDX 9 1 10 2 11 3 12 4 13 5 14 6 15 7 16 8 17 9 18 10 19 11 8 12
REMARK SMILES IDX 7 13 6 14 5 15 4 16 3 17 2 18 1 19
REMARK H PARENT
REMARK Flexibility Score: inf
ROOT
ATOM      1  C   UNL     1       3.596 -13.591   4.278  1.00  0.00     0.000 C 
ENDROOT
BRANCH   1   2
ATOM      2  C   UNL     1       4.846 -14.028   5.061  1.00  0.00     0.000 C 
BRANCH   2   3
ATOM      3  C   UNL     1       4.864 -13.479   6.497  1.00  0.00     0.000 C 
BRANCH   3   4
ATOM      4  C   UNL     1       6.000 -12.466   6.729  1.00  0.00     0.000 C 
BRANCH   4   5
ATOM      5  C   UNL     1       5.478 -11.057   7.053  1.00  0.00     0.001 C 
BRANCH   5   6
ATOM      6  C   UNL     1       3.945 -10.956   6.947  1.00  0.00     0.009 C 
BRANCH   6   7
ATOM      7  C   UNL     1       3.462  -9.515   6.669  1.00  0.00     0.032 C 
ATOM      8  C   UNL     1       4.624  -8.515   6.580  1.00  0.00     0.014 C 
BRANCH   7   9
ATOM      9  C   UNL     1       2.664  -9.479   5.394  1.00  0.00     0.044 C 
ATOM     10  O   UNL     1       3.018  -8.736   4.438  1.00  0.00    -0.550 OA
ATOM     11  O   UNL     1       1.528 -10.268   5.263  1.00  0.00    -0.550 OA
ENDBRANCH   7   9
ENDBRANCH   6   7
ENDBRANCH   5   6
ENDBRANCH   4   5
ENDBRANCH   3   4
ENDBRANCH   2   3
ENDBRANCH   1   2
BRANCH   1  12
ATOM     12  C   UNL     1       3.827 -12.313   3.450  1.00  0.00     0.000 C 
BRANCH  12  13
ATOM     13  C   UNL     1       2.978 -12.196   2.168  1.00  0.00    -0.000 C 
BRANCH  13  14
ATOM     14  C   UNL     1       3.775 -12.039   0.860  1.00  0.00    -0.000 C 
BRANCH  14  15
ATOM     15  C   UNL     1       5.059 -12.887   0.839  1.00  0.00    -0.000 C 
BRANCH  15  16
ATOM     16  C   UNL     1       6.236 -12.172   0.151  1.00  0.00    -0.000 C 
BRANCH  16  17
ATOM     17  C   UNL     1       7.638 -12.669   0.557  1.00  0.00    -0.000 C 
BRANCH  17  18
ATOM     18  C   UNL     1       7.851 -14.188   0.435  1.00  0.00    -0.003 C 
ATOM     19  C   UNL     1       9.327 -14.581   0.402  1.00  0.00     0.004 C 
ENDBRANCH  17  18
ENDBRANCH  16  17
ENDBRANCH  15  16
ENDBRANCH  14  15
ENDBRANCH  13  14
ENDBRANCH  12  13
ENDBRANCH   1  12
TORSDOF 14
ENDMDL
MODEL 3
REMARK VINA RESULT:    -4.621      3.885      7.157
REMARK INTER + INTRA:         -10.284
REMARK INTER:                  -8.549
REMARK INTRA:                  -1.736
REMARK UNBOUND:                -1.881
REMARK SMILES CCCCCCCCCCCCCC[C@@H](C)C(=O)[O-]
REMARK SMILES IDX 9 1 10 2 11 3 12 4 13 5 14 6 15 7 16 8 17 9 18 10 19 11 8 12
REMARK SMILES IDX 7 13 6 14 5 15 4 16 3 17 2 18 1 19
REMARK H PARENT
REMARK Flexibility Score: inf
ROOT
ATOM      1  C   UNL     1       3.565 -14.158   4.401  1.00  0.00     0.000 C 
ENDROOT
BRANCH   1   2
ATOM      2  C   UNL     1       2.915 -12.860   3.890  1.00  0.00     0.000 C 
BRANCH   2   3
ATOM      3  C   UNL     1       3.928 -11.915   3.224  1.00  0.00     0.000 C 
BRANCH   3   4
ATOM      4  C   UNL     1       3.385 -11.284   1.929  1.00  0.00     0.000 C 
BRANCH   4   5
ATOM      5  C   UNL     1       4.162 -11.735   0.681  1.00  0.00     0.001 C 
BRANCH   5   6
ATOM      6  C   UNL     1       5.216 -12.812   0.998  1.00  0.00     0.009 C 
BRANCH   6   7
ATOM      7  C   UNL     1       6.394 -12.802  -0.000  1.00  0.00     0.032 C 
ATOM      8  C   UNL     1       7.759 -12.814   0.704  1.00  0.00     0.014 C 
BRANCH   7   9
ATOM      9  C   UNL     1       6.293 -13.984  -0.925  1.00  0.00     0.044 C 
ATOM     10  O   UNL     1       5.570 -14.973  -0.625  1.00  0.00    -0.550 OA
ATOM     11  O   UNL     1       6.999 -13.992  -2.122  1.00  0.00    -0.550 OA
ENDBRANCH   7   9
ENDBRANCH   6   7
ENDBRANCH   5   6
ENDBRANCH   4   5
ENDBRANCH   3   4
ENDBRANCH   2   3
ENDBRANCH   1   2
BRANCH   1  12
ATOM     12  C   UNL     1       4.958 -13.925   5.014  1.00  0.00     0.000 C 
BRANCH  12  13
ATOM     13  C   UNL     1       4.960 -13.422   6.472  1.00  0.00    -0.000 C 
BRANCH  13  14
ATOM     14  C   UNL     1       5.999 -12.332   6.793  1.00  0.00    -0.000 C 
BRANCH  14  15
ATOM     15  C   UNL     1       5.356 -10.991   7.185  1.00  0.00    -0.000 C 
BRANCH  15  16
ATOM     16  C   UNL     1       3.838 -10.957   6.924  1.00  0.00    -0.000 C 
BRANCH  16  17
ATOM     17  C   UNL     1       3.347  -9.790   6.043  1.00  0.00    -0.000 C 
BRANCH  17  18
ATOM     18  C   UNL     1       4.350  -8.635   5.874  1.00  0.00    -0.003 C 
ATOM     19  C   UNL     1       4.076  -7.466   6.819  1.00  0.00     0.004 C 
ENDBRANCH  17  18
ENDBRANCH  16  17
ENDBRANCH  15  16
ENDBRANCH  14  15
ENDBRANCH  13  14
ENDBRANCH  12  13
ENDBRANCH   1  12
TORSDOF 14
ENDMDL
MODEL 4
REMARK VINA RESULT:    -4.523      1.670      3.284
REMARK INTER + INTRA:         -10.104
REMARK INTER:                  -8.545
REMARK INTRA:                  -1.559
REMARK UNBOUND:                -1.881
REMARK SMILES CCCCCCCCCCCCCC[C@@H](C)C(=O)[O-]
REMARK SMILES IDX 9 1 10 2 11 3 12 4 13 5 14 6 15 7 16 8 17 9 18 10 19 11 8 12
REMARK SMILES IDX 7 13 6 14 5 15 4 16 3 17 2 18 1 19
REMARK H PARENT
REMARK Flexibility Score: inf
ROOT
ATOM      1  C   UNL     1       1.707 -12.652   3.095  1.00  0.00     0.000 C 
ENDROOT
BRANCH   1   2
ATOM      2  C   UNL     1       1.992 -14.162   3.007  1.00  0.00     0.000 C 
BRANCH   2   3
ATOM      3  C   UNL     1       2.700 -14.702   4.261  1.00  0.00     0.000 C 
BRANCH   3   4
ATOM      4  C   UNL     1       4.214 -14.422   4.253  1.00  0.00     0.000 C 
BRANCH   4   5
ATOM      5  C   UNL     1       4.705 -13.794   5.567  1.00  0.00     0.001 C 
BRANCH   5   6
ATOM      6  C   UNL     1       4.736 -12.255   5.511  1.00  0.00     0.009 C 
BRANCH   6   7
ATOM      7  C   UNL     1       4.949 -11.614   6.900  1.00  0.00     0.032 C 
ATOM      8  C   UNL     1       6.425 -11.618   7.327  1.00  0.00     0.014 C 
BRANCH   7   9
ATOM      9  C   UNL     1       4.427 -10.203   6.900  1.00  0.00     0.044 C 
ATOM     10  O   UNL     1       5.215  -9.228   6.771  1.00  0.00    -0.550 OA
ATOM     11  O   UNL     1       3.065  -9.967   7.042  1.00  0.00    -0.550 OA
ENDBRANCH   7   9
ENDBRANCH   6   7
ENDBRANCH   5   6
ENDBRANCH   4   5
ENDBRANCH   3   4
ENDBRANCH   2   3
ENDBRANCH   1   2
BRANCH   1  12
ATOM     12  C   UNL     1       2.044 -11.905   1.791  1.00  0.00     0.000 C 
BRANCH  12  13
ATOM     13  C   UNL     1       3.295 -11.004   1.854  1.00  0.00    -0.000 C 
BRANCH  13  14
ATOM     14  C   UNL     1       4.446 -11.406   0.914  1.00  0.00    -0.000 C 
BRANCH  14  15
ATOM     15  C   UNL     1       4.614 -12.931   0.795  1.00  0.00    -0.000 C 
BRANCH  15  16
ATOM     16  C   UNL     1       5.999 -13.417   1.259  1.00  0.00    -0.000 C 
BRANCH  16  17
ATOM     17  C   UNL     1       7.188 -12.939   0.401  1.00  0.00    -0.000 C 
BRANCH  17  18
ATOM     18  C   UNL     1       8.556 -13.516   0.804  1.00  0.00    -0.003 C 
ATOM     19  C   UNL     1       8.941 -14.754  -0.003  1.00  0.00     0.004 C 
ENDBRANCH  17  18
ENDBRANCH  16  17
ENDBRANCH  15  16
ENDBRANCH  14  15
ENDBRANCH  13  14
ENDBRANCH  12  13
ENDBRANCH   1  12
TORSDOF 14
ENDMDL
MODEL 5
REMARK VINA RESULT:    -4.492      1.137      2.133
REMARK INTER + INTRA:         -10.049
REMARK INTER:                  -8.004
REMARK INTRA:                  -2.045
REMARK UNBOUND:                -1.881
REMARK SMILES CCCCCCCCCCCCCC[C@@H](C)C(=O)[O-]
REMARK SMILES IDX 9 1 10 2 11 3 12 4 13 5 14 6 15 7 16 8 17 9 18 10 19 11 8 12
REMARK SMILES IDX 7 13 6 14 5 15 4 16 3 17 2 18 1 19
REMARK H PARENT
REMARK Flexibility Score: inf
ROOT
ATOM      1  C   UNL     1       3.696 -13.096   2.948  1.00  0.00     0.000 C 
ENDROOT
BRANCH   1   2
ATOM      2  C   UNL     1       4.817 -13.332   3.975  1.00  0.00     0.000 C 
BRANCH   2   3
ATOM      3  C   UNL     1       4.276 -13.752   5.352  1.00  0.00     0.000 C 
BRANCH   3   4
ATOM      4  C   UNL     1       5.248 -13.417   6.497  1.00  0.00     0.000 C 
BRANCH   4   5
ATOM      5  C   UNL     1       5.601 -11.921   6.555  1.00  0.00     0.001 C 
BRANCH   5   6
ATOM      6  C   UNL     1       4.384 -11.040   6.895  1.00  0.00     0.009 C 
BRANCH   6   7
ATOM      7  C   UNL     1       4.015 -10.070   5.751  1.00  0.00     0.032 C 
ATOM      8  C   UNL     1       2.527 -10.143   5.379  1.00  0.00     0.014 C 
BRANCH   7   9
ATOM      9  C   UNL     1       4.371  -8.661   6.139  1.00  0.00     0.044 C 
ATOM     10  O   UNL     1       5.390  -8.428   6.843  1.00  0.00    -0.550 OA
ATOM     11  O   UNL     1       3.574  -7.603   5.720  1.00  0.00    -0.550 OA
ENDBRANCH   7   9
ENDBRANCH   6   7
ENDBRANCH   5   6
ENDBRANCH   4   5
ENDBRANCH   3   4
ENDBRANCH   2   3
ENDBRANCH   1   2
BRANCH   1  12
ATOM     12  C   UNL     1       3.778 -11.708   2.285  1.00  0.00     0.000 C 
BRANCH  12  13
ATOM     13  C   UNL     1       3.498 -11.686   0.768  1.00  0.00    -0.000 C 
BRANCH  13  14
ATOM     14  C   UNL     1       2.780 -12.928   0.210  1.00  0.00    -0.000 C 
BRANCH  14  15
ATOM     15  C   UNL     1       3.585 -13.640  -0.890  1.00  0.00    -0.000 C 
BRANCH  15  16
ATOM     16  C   UNL     1       4.919 -14.213  -0.378  1.00  0.00    -0.000 C 
BRANCH  16  17
ATOM     17  C   UNL     1       6.181 -13.679  -1.086  1.00  0.00    -0.000 C 
BRANCH  17  18
ATOM     18  C   UNL     1       7.096 -12.803  -0.211  1.00  0.00    -0.003 C 
ATOM     19  C   UNL     1       7.058 -13.193   1.266  1.00  0.00     0.004 C 
ENDBRANCH  17  18
ENDBRANCH  16  17
ENDBRANCH  15  16
ENDBRANCH  14  15
ENDBRANCH  13  14
ENDBRANCH  12  13
ENDBRANCH   1  12
TORSDOF 14
ENDMDL
MODEL 6
REMARK VINA RESULT:    -4.465      1.408      3.454
REMARK INTER + INTRA:         -10.000
REMARK INTER:                  -8.007
REMARK INTRA:                  -1.993
REMARK UNBOUND:                -1.881
REMARK SMILES CCCCCCCCCCCCCC[C@@H](C)C(=O)[O-]
REMARK SMILES IDX 9 1 10 2 11 3 12 4 13 5 14 6 15 7 16 8 17 9 18 10 19 11 8 12
REMARK SMILES IDX 7 13 6 14 5 15 4 16 3 17 2 18 1 19
REMARK H PARENT
REMARK Flexibility Score: inf
ROOT
ATOM      1  C   UNL     1       5.283 -10.821   6.884  1.00  0.00     0.000 C 
ENDROOT
BRANCH   1   2
ATOM      2  C   UNL     1       3.748 -10.922   6.904  1.00  0.00     0.000 C 
BRANCH   2   3
ATOM      3  C   UNL     1       3.071  -9.766   6.148  1.00  0.00     0.000 C 
BRANCH   3   4
ATOM      4  C   UNL     1       4.078  -8.889   5.383  1.00  0.00     0.000 C 
BRANCH   4   5
ATOM      5  C   UNL     1       3.959  -7.399   5.747  1.00  0.00     0.001 C 
BRANCH   5   6
ATOM      6  C   UNL     1       3.896  -7.166   7.268  1.00  0.00     0.009 C 
BRANCH   6   7
ATOM      7  C   UNL     1       2.793  -6.161   7.669  1.00  0.00     0.032 C 
ATOM      8  C   UNL     1       2.685  -4.987   6.686  1.00  0.00     0.014 C 
BRANCH   7   9
ATOM      9  C   UNL     1       1.467  -6.865   7.764  1.00  0.00     0.044 C 
ATOM     10  O   UNL     1       1.264  -7.731   8.657  1.00  0.00    -0.550 OA
ATOM     11  O   UNL     1       0.455  -6.562   6.862  1.00  0.00    -0.550 OA
ENDBRANCH   7   9
ENDBRANCH   6   7
ENDBRANCH   5   6
ENDBRANCH   4   5
ENDBRANCH   3   4
ENDBRANCH   2   3
ENDBRANCH   1   2
BRANCH   1  12
ATOM     12  C   UNL     1       5.968 -12.192   6.734  1.00  0.00     0.000 C 
BRANCH  12  13
ATOM     13  C   UNL     1       5.019 -13.377   6.461  1.00  0.00    -0.000 C 
BRANCH  13  14
ATOM     14  C   UNL     1       4.865 -13.772   4.981  1.00  0.00    -0.000 C 
BRANCH  14  15
ATOM     15  C   UNL     1       3.406 -14.062   4.590  1.00  0.00    -0.000 C 
BRANCH  15  16
ATOM     16  C   UNL     1       2.753 -12.903   3.814  1.00  0.00    -0.000 C 
BRANCH  16  17
ATOM     17  C   UNL     1       3.734 -11.868   3.228  1.00  0.00    -0.000 C 
BRANCH  17  18
ATOM     18  C   UNL     1       3.905 -11.925   1.699  1.00  0.00    -0.003 C 
ATOM     19  C   UNL     1       5.128 -12.731   1.267  1.00  0.00     0.004 C 
ENDBRANCH  17  18
ENDBRANCH  16  17
ENDBRANCH  15  16
ENDBRANCH  14  15
ENDBRANCH  13  14
ENDBRANCH  12  13
ENDBRANCH   1  12
TORSDOF 14
ENDMDL
MODEL 7
REMARK VINA RESULT:    -4.400      3.155      6.686
REMARK INTER + INTRA:          -9.882
REMARK INTER:                  -7.833
REMARK INTRA:                  -2.049
REMARK UNBOUND:                -1.881
REMARK SMILES CCCCCCCCCCCCCC[C@@H](C)C(=O)[O-]
REMARK SMILES IDX 9 1 10 2 11 3 12 4 13 5 14 6 15 7 16 8 17 9 18 10 19 11 8 12
REMARK SMILES IDX 7 13 6 14 5 15 4 16 3 17 2 18 1 19
REMARK H PARENT
REMARK Flexibility Score: inf
ROOT
ATOM      1  C   UNL     1       4.521  -9.093   6.498  1.00  0.00     0.000 C 
ENDROOT
BRANCH   1   2
ATOM      2  C   UNL     1       4.472 -10.539   7.021  1.00  0.00     0.000 C 
BRANCH   2   3
ATOM      3  C   UNL     1       5.856 -11.061   7.444  1.00  0.00     0.000 C 
BRANCH   3   4
ATOM      4  C   UNL     1       6.148 -12.470   6.898  1.00  0.00     0.000 C 
BRANCH   4   5
ATOM      5  C   UNL     1       4.874 -13.211   6.461  1.00  0.00     0.001 C 
BRANCH   5   6
ATOM      6  C   UNL     1       4.795 -13.401   4.934  1.00  0.00     0.009 C 
BRANCH   6   7
ATOM      7  C   UNL     1       3.490 -12.837   4.332  1.00  0.00     0.032 C 
ATOM      8  C   UNL     1       3.742 -11.999   3.069  1.00  0.00     0.014 C 
BRANCH   7   9
ATOM      9  C   UNL     1       2.545 -13.963   4.011  1.00  0.00     0.044 C 
ATOM     10  O   UNL     1       1.379 -13.722   3.598  1.00  0.00    -0.550 OA
ATOM     11  O   UNL     1       2.955 -15.281   4.170  1.00  0.00    -0.550 OA
ENDBRANCH   7   9
ENDBRANCH   6   7
ENDBRANCH   5   6
ENDBRANCH   4   5
ENDBRANCH   3   4
ENDBRANCH   2   3
ENDBRANCH   1   2
BRANCH   1  12
ATOM     12  C   UNL     1       3.648  -8.882   5.247  1.00  0.00     0.000 C 
BRANCH  12  13
ATOM     13  C   UNL     1       2.228  -9.479   5.327  1.00  0.00    -0.000 C 
BRANCH  13  14
ATOM     14  C   UNL     1       1.180  -8.598   6.032  1.00  0.00    -0.000 C 
BRANCH  14  15
ATOM     15  C   UNL     1       0.911  -9.037   7.482  1.00  0.00    -0.000 C 
BRANCH  15  16
ATOM     16  C   UNL     1       0.865  -7.853   8.466  1.00  0.00    -0.000 C 
BRANCH  16  17
ATOM     17  C   UNL     1       1.265  -6.487   7.872  1.00  0.00    -0.000 C 
BRANCH  17  18
ATOM     18  C   UNL     1       2.744  -6.103   8.063  1.00  0.00    -0.003 C 
ATOM     19  C   UNL     1       3.296  -5.271   6.907  1.00  0.00     0.004 C 
ENDBRANCH  17  18
ENDBRANCH  16  17
ENDBRANCH  15  16
ENDBRANCH  14  15
ENDBRANCH  13  14
ENDBRANCH  12  13
ENDBRANCH   1  12
TORSDOF 14
ENDMDL
MODEL 8
REMARK VINA RESULT:    -4.399      2.123      3.766
REMARK INTER + INTRA:          -9.879
REMARK INTER:                  -8.051
REMARK INTRA:                  -1.829
REMARK UNBOUND:                -1.881
REMARK SMILES CCCCCCCCCCCCCC[C@@H](C)C(=O)[O-]
REMARK SMILES IDX 9 1 10 2 11 3 12 4 13 5 14 6 15 7 16 8 17 9 18 10 19 11 8 12
REMARK SMILES IDX 7 13 6 14 5 15 4 16 3 17 2 18 1 19
REMARK H PARENT
REMARK Flexibility Score: inf
ROOT
ATOM      1  C   UNL     1       5.927 -12.167   6.346  1.00  0.00     0.000 C 
ENDROOT
BRANCH   1   2
ATOM      2  C   UNL     1       5.318 -11.099   7.271  1.00  0.00     0.000 C 
BRANCH   2   3
ATOM      3  C   UNL     1       3.874 -10.737   6.884  1.00  0.00     0.000 C 
BRANCH   3   4
ATOM      4  C   UNL     1       3.804  -9.818   5.652  1.00  0.00     0.000 C 
BRANCH   4   5
ATOM      5  C   UNL     1       4.562  -8.495   5.858  1.00  0.00     0.001 C 
BRANCH   5   6
ATOM      6  C   UNL     1       3.617  -7.287   5.991  1.00  0.00     0.009 C 
BRANCH   6   7
ATOM      7  C   UNL     1       3.339  -6.909   7.462  1.00  0.00     0.032 C 
ATOM      8  C   UNL     1       3.763  -5.469   7.787  1.00  0.00     0.014 C 
BRANCH   7   9
ATOM      9  C   UNL     1       1.877  -7.087   7.770  1.00  0.00     0.044 C 
ATOM     10  O   UNL     1       1.177  -6.109   8.146  1.00  0.00    -0.550 OA
ATOM     11  O   UNL     1       1.289  -8.339   7.642  1.00  0.00    -0.550 OA
ENDBRANCH   7   9
ENDBRANCH   6   7
ENDBRANCH   5   6
ENDBRANCH   4   5
ENDBRANCH   3   4
ENDBRANCH   2   3
ENDBRANCH   1   2
BRANCH   1  12
ATOM     12  C   UNL     1       5.234 -13.536   6.479  1.00  0.00     0.000 C 
BRANCH  12  13
ATOM     13  C   UNL     1       4.476 -14.015   5.223  1.00  0.00    -0.000 C 
BRANCH  13  14
ATOM     14  C   UNL     1       4.868 -13.315   3.909  1.00  0.00    -0.000 C 
BRANCH  14  15
ATOM     15  C   UNL     1       3.675 -12.633   3.217  1.00  0.00    -0.000 C 
BRANCH  15  16
ATOM     16  C   UNL     1       2.352 -12.826   3.980  1.00  0.00    -0.000 C 
BRANCH  16  17
ATOM     17  C   UNL     1       1.208 -13.463   3.165  1.00  0.00    -0.000 C 
BRANCH  17  18
ATOM     18  C   UNL     1       0.563 -14.704   3.808  1.00  0.00    -0.003 C 
ATOM     19  C   UNL     1       1.587 -15.756   4.230  1.00  0.00     0.004 C 
ENDBRANCH  17  18
ENDBRANCH  16  17
ENDBRANCH  15  16
ENDBRANCH  14  15
ENDBRANCH  13  14
ENDBRANCH  12  13
ENDBRANCH   1  12
TORSDOF 14
ENDMDL
MODEL 9
REMARK VINA RESULT:    -4.331      3.185      6.723
REMARK INTER + INTRA:          -9.756
REMARK INTER:                  -8.180
REMARK INTRA:                  -1.576
REMARK UNBOUND:                -1.881
REMARK SMILES CCCCCCCCCCCCCC[C@@H](C)C(=O)[O-]
REMARK SMILES IDX 9 1 10 2 11 3 12 4 13 5 14 6 15 7 16 8 17 9 18 10 19 11 8 12
REMARK SMILES IDX 7 13 6 14 5 15 4 16 3 17 2 18 1 19
REMARK H PARENT
REMARK Flexibility Score: inf
ROOT
ATOM      1  C   UNL     1       5.909 -12.300   6.652  1.00  0.00     0.000 C 
ENDROOT
BRANCH   1   2
ATOM      2  C   UNL     1       4.866 -13.398   6.381  1.00  0.00     0.000 C 
BRANCH   2   3
ATOM      3  C   UNL     1       4.892 -13.890   4.924  1.00  0.00     0.000 C 
BRANCH   3   4
ATOM      4  C   UNL     1       3.484 -14.013   4.315  1.00  0.00     0.000 C 
BRANCH   4   5
ATOM      5  C   UNL     1       2.942 -12.667   3.805  1.00  0.00     0.001 C 
BRANCH   5   6
ATOM      6  C   UNL     1       3.848 -12.032   2.734  1.00  0.00     0.009 C 
BRANCH   6   7
ATOM      7  C   UNL     1       4.098 -12.972   1.534  1.00  0.00     0.032 C 
ATOM      8  C   UNL     1       3.262 -12.586   0.305  1.00  0.00     0.014 C 
BRANCH   7   9
ATOM      9  C   UNL     1       5.559 -12.967   1.175  1.00  0.00     0.044 C 
ATOM     10  O   UNL     1       6.355 -13.779   1.718  1.00  0.00    -0.550 OA
ATOM     11  O   UNL     1       6.040 -12.062   0.236  1.00  0.00    -0.550 OA
ENDBRANCH   7   9
ENDBRANCH   6   7
ENDBRANCH   5   6
ENDBRANCH   4   5
ENDBRANCH   3   4
ENDBRANCH   2   3
ENDBRANCH   1   2
BRANCH   1  12
ATOM     12  C   UNL     1       5.288 -11.022   7.247  1.00  0.00     0.000 C 
BRANCH  12  13
ATOM     13  C   UNL     1       3.810 -10.776   6.881  1.00  0.00    -0.000 C 
BRANCH  13  14
ATOM     14  C   UNL     1       3.564  -9.690   5.819  1.00  0.00    -0.000 C 
BRANCH  14  15
ATOM     15  C   UNL     1       4.520  -8.492   5.958  1.00  0.00    -0.000 C 
BRANCH  15  16
ATOM     16  C   UNL     1       3.782  -7.164   6.208  1.00  0.00    -0.000 C 
BRANCH  16  17
ATOM     17  C   UNL     1       2.506  -7.271   7.068  1.00  0.00    -0.000 C 
BRANCH  17  18
ATOM     18  C   UNL     1       1.634  -6.003   7.098  1.00  0.00    -0.003 C 
ATOM     19  C   UNL     1       2.420  -4.732   6.782  1.00  0.00     0.004 C 
ENDBRANCH  17  18
ENDBRANCH  16  17
ENDBRANCH  15  16
ENDBRANCH  14  15
ENDBRANCH  13  14
ENDBRANCH  12  13
ENDBRANCH   1  12
TORSDOF 14
ENDMDL
