MODEL 1
REMARK VINA RESULT:    -4.144      0.000      0.000
REMARK INTER + INTRA:         -13.536
REMARK INTER:                  -9.473
REMARK INTRA:                  -4.063
REMARK UNBOUND:                -4.063
REMARK SMILES CCCCCCCCCCCCCCCCCCCCCCCC(=O)[O-]
REMARK SMILES IDX 13 1 14 2 15 3 16 4 17 5 18 6 19 7 20 8 21 9 22 10 23 11
REMARK SMILES IDX 24 12 25 13 26 14 12 15 11 16 10 17 9 18 8 19 7 20 6 21 5 22
REMARK SMILES IDX 4 23 3 24 2 25 1 26
REMARK H PARENT
REMARK Flexibility Score: inf
ROOT
ATOM      1  C   UNL     1     -21.333  10.629  13.954  1.00  0.00     0.000 C 
ENDROOT
BRANCH   1   2
ATOM      2  C   UNL     1     -21.222  11.994  13.259  1.00  0.00     0.000 C 
BRANCH   2   3
ATOM      3  C   UNL     1     -22.001  13.102  13.990  1.00  0.00     0.000 C 
BRANCH   3   4
ATOM      4  C   UNL     1     -21.295  14.473  14.039  1.00  0.00     0.000 C 
BRANCH   4   5
ATOM      5  C   UNL     1     -20.004  14.574  13.209  1.00  0.00     0.000 C 
BRANCH   5   6
ATOM      6  C   UNL     1     -19.545  16.027  12.993  1.00  0.00     0.000 C 
BRANCH   6   7
ATOM      7  C   UNL     1     -18.644  16.536  14.130  1.00  0.00     0.000 C 
BRANCH   7   8
ATOM      8  C   UNL     1     -19.118  17.888  14.690  1.00  0.00     0.000 C 
BRANCH   8   9
ATOM      9  C   UNL     1     -20.272  17.742  15.696  1.00  0.00     0.000 C 
BRANCH   9  10
ATOM     10  C   UNL     1     -19.992  16.680  16.770  1.00  0.00     0.006 C 
BRANCH  10  11
ATOM     11  C   UNL     1     -19.655  17.337  18.113  1.00  0.00     0.053 C 
BRANCH  11  12
ATOM     12  C   UNL     1     -20.764  18.242  18.548  1.00  0.00     0.041 C 
ATOM     13  O   UNL     1     -21.859  17.762  18.940  1.00  0.00    -0.550 OA
ATOM     14  O   UNL     1     -20.601  19.620  18.483  1.00  0.00    -0.550 OA
ENDBRANCH  11  12
ENDBRANCH  10  11
ENDBRANCH   9  10
ENDBRANCH   8   9
ENDBRANCH   7   8
ENDBRANCH   6   7
ENDBRANCH   5   6
ENDBRANCH   4   5
ENDBRANCH   3   4
ENDBRANCH   2   3
ENDBRANCH   1   2
BRANCH   1  15
ATOM     15  C   UNL     1     -20.078   9.783  13.705  1.00  0.00     0.000 C 
BRANCH  15  16
ATOM     16  C   UNL     1     -18.880  10.670  13.338  1.00  0.00     0.000 C 
BRANCH  16  17
ATOM     17  C   UNL     1     -18.000  11.019  14.552  1.00  0.00     0.000 C 
BRANCH  17  18
ATOM     18  C   UNL     1     -17.365  12.425  14.519  1.00  0.00    -0.000 C 
BRANCH  18  19
ATOM     19  C   UNL     1     -17.751  13.346  15.692  1.00  0.00    -0.000 C 
BRANCH  19  20
ATOM     20  C   UNL     1     -19.059  12.960  16.407  1.00  0.00    -0.000 C 
BRANCH  20  21
ATOM     21  C   UNL     1     -18.975  13.059  17.947  1.00  0.00    -0.000 C 
BRANCH  21  22
ATOM     22  C   UNL     1     -19.384  11.770  18.688  1.00  0.00    -0.000 C 
BRANCH  22  23
ATOM     23  C   UNL     1     -19.597  10.539  17.783  1.00  0.00    -0.000 C 
BRANCH  23  24
ATOM     24  C   UNL     1     -21.047  10.024  17.694  1.00  0.00    -0.000 C 
BRANCH  24  25
ATOM     25  C   UNL     1     -22.124  11.053  18.078  1.00  0.00    -0.003 C 
ATOM     26  C   UNL     1     -22.988  10.596  19.254  1.00  0.00     0.004 C 
ENDBRANCH  24  25
ENDBRANCH  23  24
ENDBRANCH  22  23
ENDBRANCH  21  22
ENDBRANCH  20  21
ENDBRANCH  19  20
ENDBRANCH  18  19
ENDBRANCH  17  18
ENDBRANCH  16  17
ENDBRANCH  15  16
ENDBRANCH   1  15
TORSDOF 22
ENDMDL
MODEL 2
REMARK VINA RESULT:    -4.140      5.247      9.399
REMARK INTER + INTRA:         -13.527
REMARK INTER:                 -10.414
REMARK INTRA:                  -3.113
REMARK UNBOUND:                -4.063
REMARK SMILES CCCCCCCCCCCCCCCCCCCCCCCC(=O)[O-]
REMARK SMILES IDX 13 1 14 2 15 3 16 4 17 5 18 6 19 7 20 8 21 9 22 10 23 11
REMARK SMILES IDX 24 12 25 13 26 14 12 15 11 16 10 17 9 18 8 19 7 20 6 21 5 22
REMARK SMILES IDX 4 23 3 24 2 25 1 26
REMARK H PARENT
REMARK Flexibility Score: inf
ROOT
ATOM      1  C   UNL     1     -23.201   7.074  17.568  1.00  0.00     0.000 C 
ENDROOT
BRANCH   1   2
ATOM      2  C   UNL     1     -24.376   6.541  18.400  1.00  0.00     0.000 C 
BRANCH   2   3
ATOM      3  C   UNL     1     -24.002   6.287  19.871  1.00  0.00     0.000 C 
BRANCH   3   4
ATOM      4  C   UNL     1     -24.554   4.978  20.469  1.00  0.00     0.000 C 
BRANCH   4   5
ATOM      5  C   UNL     1     -23.488   3.996  20.989  1.00  0.00     0.000 C 
BRANCH   5   6
ATOM      6  C   UNL     1     -22.537   3.507  19.883  1.00  0.00     0.000 C 
BRANCH   6   7
ATOM      7  C   UNL     1     -21.056   3.704  20.250  1.00  0.00     0.000 C 
BRANCH   7   8
ATOM      8  C   UNL     1     -20.560   5.125  19.931  1.00  0.00     0.000 C 
BRANCH   8   9
ATOM      9  C   UNL     1     -19.697   5.181  18.660  1.00  0.00     0.000 C 
BRANCH   9  10
ATOM     10  C   UNL     1     -19.284   6.613  18.287  1.00  0.00     0.006 C 
BRANCH  10  11
ATOM     11  C   UNL     1     -18.168   7.118  19.208  1.00  0.00     0.053 C 
BRANCH  11  12
ATOM     12  C   UNL     1     -17.007   6.175  19.194  1.00  0.00     0.041 C 
ATOM     13  O   UNL     1     -16.395   5.936  18.120  1.00  0.00    -0.550 OA
ATOM     14  O   UNL     1     -16.624   5.526  20.362  1.00  0.00    -0.550 OA
ENDBRANCH  11  12
ENDBRANCH  10  11
ENDBRANCH   9  10
ENDBRANCH   8   9
ENDBRANCH   7   8
ENDBRANCH   6   7
ENDBRANCH   5   6
ENDBRANCH   4   5
ENDBRANCH   3   4
ENDBRANCH   2   3
ENDBRANCH   1   2
BRANCH   1  15
ATOM     15  C   UNL     1     -22.435   8.160  18.333  1.00  0.00     0.000 C 
BRANCH  15  16
ATOM     16  C   UNL     1     -23.190   9.497  18.295  1.00  0.00     0.000 C 
BRANCH  16  17
ATOM     17  C   UNL     1     -22.332  10.682  18.774  1.00  0.00     0.000 C 
BRANCH  17  18
ATOM     18  C   UNL     1     -20.839  10.609  18.388  1.00  0.00    -0.000 C 
BRANCH  18  19
ATOM     19  C   UNL     1     -19.908  11.527  19.202  1.00  0.00    -0.000 C 
BRANCH  19  20
ATOM     20  C   UNL     1     -18.957  12.391  18.353  1.00  0.00    -0.000 C 
BRANCH  20  21
ATOM     21  C   UNL     1     -19.662  13.127  17.190  1.00  0.00    -0.000 C 
BRANCH  21  22
ATOM     22  C   UNL     1     -18.714  13.582  16.062  1.00  0.00    -0.000 C 
BRANCH  22  23
ATOM     23  C   UNL     1     -18.342  12.487  15.042  1.00  0.00    -0.000 C 
BRANCH  23  24
ATOM     24  C   UNL     1     -19.389  11.373  14.852  1.00  0.00    -0.000 C 
BRANCH  24  25
ATOM     25  C   UNL     1     -18.925   9.969  15.277  1.00  0.00    -0.003 C 
ATOM     26  C   UNL     1     -20.067   8.954  15.318  1.00  0.00     0.004 C 
ENDBRANCH  24  25
ENDBRANCH  23  24
ENDBRANCH  22  23
ENDBRANCH  21  22
ENDBRANCH  20  21
ENDBRANCH  19  20
ENDBRANCH  18  19
ENDBRANCH  17  18
ENDBRANCH  16  17
ENDBRANCH  15  16
ENDBRANCH   1  15
TORSDOF 22
ENDMDL
MODEL 3
REMARK VINA RESULT:    -4.119      5.275      9.101
REMARK INTER + INTRA:         -13.481
REMARK INTER:                 -10.162
REMARK INTRA:                  -3.318
REMARK UNBOUND:                -4.063
REMARK SMILES CCCCCCCCCCCCCCCCCCCCCCCC(=O)[O-]
REMARK SMILES IDX 13 1 14 2 15 3 16 4 17 5 18 6 19 7 20 8 21 9 22 10 23 11
REMARK SMILES IDX 24 12 25 13 26 14 12 15 11 16 10 17 9 18 8 19 7 20 6 21 5 22
REMARK SMILES IDX 4 23 3 24 2 25 1 26
REMARK H PARENT
REMARK Flexibility Score: inf
ROOT
ATOM      1  C   UNL     1     -19.147   9.583  17.902  1.00  0.00     0.000 C 
ENDROOT
BRANCH   1   2
ATOM      2  C   UNL     1     -20.001   8.539  17.167  1.00  0.00     0.000 C 
BRANCH   2   3
ATOM      3  C   UNL     1     -21.468   8.533  17.632  1.00  0.00     0.000 C 
BRANCH   3   4
ATOM      4  C   UNL     1     -22.003   7.162  18.091  1.00  0.00     0.000 C 
BRANCH   4   5
ATOM      5  C   UNL     1     -21.509   5.959  17.268  1.00  0.00     0.000 C 
BRANCH   5   6
ATOM      6  C   UNL     1     -20.717   4.944  18.110  1.00  0.00     0.000 C 
BRANCH   6   7
ATOM      7  C   UNL     1     -20.905   5.156  19.621  1.00  0.00     0.000 C 
BRANCH   7   8
ATOM      8  C   UNL     1     -19.564   5.237  20.371  1.00  0.00     0.000 C 
BRANCH   8   9
ATOM      9  C   UNL     1     -18.576   6.215  19.715  1.00  0.00     0.000 C 
BRANCH   9  10
ATOM     10  C   UNL     1     -17.153   5.644  19.619  1.00  0.00     0.006 C 
BRANCH  10  11
ATOM     11  C   UNL     1     -16.999   4.767  18.371  1.00  0.00     0.053 C 
BRANCH  11  12
ATOM     12  C   UNL     1     -15.565   4.700  17.949  1.00  0.00     0.041 C 
ATOM     13  O   UNL     1     -15.191   5.250  16.880  1.00  0.00    -0.550 OA
ATOM     14  O   UNL     1     -14.647   3.995  18.717  1.00  0.00    -0.550 OA
ENDBRANCH  11  12
ENDBRANCH  10  11
ENDBRANCH   9  10
ENDBRANCH   8   9
ENDBRANCH   7   8
ENDBRANCH   6   7
ENDBRANCH   5   6
ENDBRANCH   4   5
ENDBRANCH   3   4
ENDBRANCH   2   3
ENDBRANCH   1   2
BRANCH   1  15
ATOM     15  C   UNL     1     -19.996  10.789  18.322  1.00  0.00     0.000 C 
BRANCH  15  16
ATOM     16  C   UNL     1     -19.116  11.908  18.899  1.00  0.00     0.000 C 
BRANCH  16  17
ATOM     17  C   UNL     1     -19.014  13.129  17.968  1.00  0.00     0.000 C 
BRANCH  17  18
ATOM     18  C   UNL     1     -19.802  13.014  16.647  1.00  0.00    -0.000 C 
BRANCH  18  19
ATOM     19  C   UNL     1     -19.092  13.592  15.408  1.00  0.00    -0.000 C 
BRANCH  19  20
ATOM     20  C   UNL     1     -17.873  12.782  14.930  1.00  0.00    -0.000 C 
BRANCH  20  21
ATOM     21  C   UNL     1     -18.185  11.289  14.672  1.00  0.00    -0.000 C 
BRANCH  21  22
ATOM     22  C   UNL     1     -18.016  10.853  13.203  1.00  0.00    -0.000 C 
BRANCH  22  23
ATOM     23  C   UNL     1     -19.312  10.385  12.510  1.00  0.00    -0.000 C 
BRANCH  23  24
ATOM     24  C   UNL     1     -20.623  10.791  13.210  1.00  0.00    -0.000 C 
BRANCH  24  25
ATOM     25  C   UNL     1     -21.381   9.636  13.886  1.00  0.00    -0.003 C 
ATOM     26  C   UNL     1     -20.799   8.264  13.544  1.00  0.00     0.004 C 
ENDBRANCH  24  25
ENDBRANCH  23  24
ENDBRANCH  22  23
ENDBRANCH  21  22
ENDBRANCH  20  21
ENDBRANCH  19  20
ENDBRANCH  18  19
ENDBRANCH  17  18
ENDBRANCH  16  17
ENDBRANCH  15  16
ENDBRANCH   1  15
TORSDOF 22
ENDMDL
MODEL 4
REMARK VINA RESULT:    -4.097      1.281      2.712
REMARK INTER + INTRA:         -13.430
REMARK INTER:                  -9.161
REMARK INTRA:                  -4.269
REMARK UNBOUND:                -4.063
REMARK SMILES CCCCCCCCCCCCCCCCCCCCCCCC(=O)[O-]
REMARK SMILES IDX 13 1 14 2 15 3 16 4 17 5 18 6 19 7 20 8 21 9 22 10 23 11
REMARK SMILES IDX 24 12 25 13 26 14 12 15 11 16 10 17 9 18 8 19 7 20 6 21 5 22
REMARK SMILES IDX 4 23 3 24 2 25 1 26
REMARK H PARENT
REMARK Flexibility Score: inf
ROOT
ATOM      1  C   UNL     1     -21.908  14.875  16.523  1.00  0.00     0.000 C 
ENDROOT
BRANCH   1   2
ATOM      2  C   UNL     1     -22.286  15.336  15.107  1.00  0.00     0.000 C 
BRANCH   2   3
ATOM      3  C   UNL     1     -22.042  14.254  14.040  1.00  0.00     0.000 C 
BRANCH   3   4
ATOM      4  C   UNL     1     -21.128  14.680  12.875  1.00  0.00     0.000 C 
BRANCH   4   5
ATOM      5  C   UNL     1     -20.513  16.085  13.005  1.00  0.00     0.000 C 
BRANCH   5   6
ATOM      6  C   UNL     1     -18.975  16.068  12.989  1.00  0.00     0.000 C 
BRANCH   6   7
ATOM      7  C   UNL     1     -18.364  16.733  14.234  1.00  0.00     0.000 C 
BRANCH   7   8
ATOM      8  C   UNL     1     -19.330  17.733  14.894  1.00  0.00     0.000 C 
BRANCH   8   9
ATOM      9  C   UNL     1     -19.525  17.466  16.395  1.00  0.00     0.000 C 
BRANCH   9  10
ATOM     10  C   UNL     1     -20.429  18.509  17.070  1.00  0.00     0.006 C 
BRANCH  10  11
ATOM     11  C   UNL     1     -20.667  18.155  18.542  1.00  0.00     0.053 C 
BRANCH  11  12
ATOM     12  C   UNL     1     -21.848  18.899  19.078  1.00  0.00     0.041 C 
ATOM     13  O   UNL     1     -22.054  18.956  20.318  1.00  0.00    -0.550 OA
ATOM     14  O   UNL     1     -22.747  19.499  18.203  1.00  0.00    -0.550 OA
ENDBRANCH  11  12
ENDBRANCH  10  11
ENDBRANCH   9  10
ENDBRANCH   8   9
ENDBRANCH   7   8
ENDBRANCH   6   7
ENDBRANCH   5   6
ENDBRANCH   4   5
ENDBRANCH   3   4
ENDBRANCH   2   3
ENDBRANCH   1   2
BRANCH   1  15
ATOM     15  C   UNL     1     -20.930  13.694  16.472  1.00  0.00     0.000 C 
BRANCH  15  16
ATOM     16  C   UNL     1     -19.605  14.047  17.164  1.00  0.00     0.000 C 
BRANCH  16  17
ATOM     17  C   UNL     1     -18.381  13.439  16.457  1.00  0.00     0.000 C 
BRANCH  17  18
ATOM     18  C   UNL     1     -18.587  13.096  14.967  1.00  0.00    -0.000 C 
BRANCH  18  19
ATOM     19  C   UNL     1     -17.721  11.939  14.435  1.00  0.00    -0.000 C 
BRANCH  19  20
ATOM     20  C   UNL     1     -18.482  10.908  13.579  1.00  0.00    -0.000 C 
BRANCH  20  21
ATOM     21  C   UNL     1     -19.131   9.776  14.407  1.00  0.00    -0.000 C 
BRANCH  21  22
ATOM     22  C   UNL     1     -20.363  10.215  15.224  1.00  0.00    -0.000 C 
BRANCH  22  23
ATOM     23  C   UNL     1     -20.503   9.542  16.605  1.00  0.00    -0.000 C 
BRANCH  23  24
ATOM     24  C   UNL     1     -19.564  10.078  17.702  1.00  0.00    -0.000 C 
BRANCH  24  25
ATOM     25  C   UNL     1     -20.258  10.895  18.806  1.00  0.00    -0.003 C 
ATOM     26  C   UNL     1     -21.783  10.845  18.712  1.00  0.00     0.004 C 
ENDBRANCH  24  25
ENDBRANCH  23  24
ENDBRANCH  22  23
ENDBRANCH  21  22
ENDBRANCH  20  21
ENDBRANCH  19  20
ENDBRANCH  18  19
ENDBRANCH  17  18
ENDBRANCH  16  17
ENDBRANCH  15  16
ENDBRANCH   1  15
TORSDOF 22
ENDMDL
MODEL 5
REMARK VINA RESULT:    -4.041      2.575      5.497
REMARK INTER + INTRA:         -13.301
REMARK INTER:                  -9.142
REMARK INTRA:                  -4.160
REMARK UNBOUND:                -4.063
REMARK SMILES CCCCCCCCCCCCCCCCCCCCCCCC(=O)[O-]
REMARK SMILES IDX 13 1 14 2 15 3 16 4 17 5 18 6 19 7 20 8 21 9 22 10 23 11
REMARK SMILES IDX 24 12 25 13 26 14 12 15 11 16 10 17 9 18 8 19 7 20 6 21 5 22
REMARK SMILES IDX 4 23 3 24 2 25 1 26
REMARK H PARENT
REMARK Flexibility Score: inf
ROOT
ATOM      1  C   UNL     1     -19.976  17.205  16.797  1.00  0.00     0.000 C 
ENDROOT
BRANCH   1   2
ATOM      2  C   UNL     1     -19.768  17.915  15.451  1.00  0.00     0.000 C 
BRANCH   2   3
ATOM      3  C   UNL     1     -18.513  17.428  14.705  1.00  0.00     0.000 C 
BRANCH   3   4
ATOM      4  C   UNL     1     -18.789  16.601  13.434  1.00  0.00     0.000 C 
BRANCH   4   5
ATOM      5  C   UNL     1     -19.027  15.099  13.670  1.00  0.00     0.000 C 
BRANCH   5   6
ATOM      6  C   UNL     1     -20.465  14.662  13.338  1.00  0.00     0.000 C 
BRANCH   6   7
ATOM      7  C   UNL     1     -20.788  13.252  13.861  1.00  0.00     0.000 C 
BRANCH   7   8
ATOM      8  C   UNL     1     -22.272  13.096  14.236  1.00  0.00     0.000 C 
BRANCH   8   9
ATOM      9  C   UNL     1     -22.511  11.970  15.255  1.00  0.00     0.000 C 
BRANCH   9  10
ATOM     10  C   UNL     1     -23.645  12.292  16.240  1.00  0.00     0.006 C 
BRANCH  10  11
ATOM     11  C   UNL     1     -23.143  12.241  17.687  1.00  0.00     0.053 C 
BRANCH  11  12
ATOM     12  C   UNL     1     -23.873  11.188  18.460  1.00  0.00     0.041 C 
ATOM     13  O   UNL     1     -25.063  11.378  18.826  1.00  0.00    -0.550 OA
ATOM     14  O   UNL     1     -23.226  10.010  18.811  1.00  0.00    -0.550 OA
ENDBRANCH  11  12
ENDBRANCH  10  11
ENDBRANCH   9  10
ENDBRANCH   8   9
ENDBRANCH   7   8
ENDBRANCH   6   7
ENDBRANCH   5   6
ENDBRANCH   4   5
ENDBRANCH   3   4
ENDBRANCH   2   3
ENDBRANCH   1   2
BRANCH   1  15
ATOM     15  C   UNL     1     -21.277  16.392  16.793  1.00  0.00     0.000 C 
BRANCH  15  16
ATOM     16  C   UNL     1     -20.999  14.907  17.065  1.00  0.00     0.000 C 
BRANCH  16  17
ATOM     17  C   UNL     1     -19.501  14.603  17.252  1.00  0.00     0.000 C 
BRANCH  17  18
ATOM     18  C   UNL     1     -19.118  13.112  17.157  1.00  0.00    -0.000 C 
BRANCH  18  19
ATOM     19  C   UNL     1     -18.903  12.404  18.508  1.00  0.00    -0.000 C 
BRANCH  19  20
ATOM     20  C   UNL     1     -19.955  11.331  18.845  1.00  0.00    -0.000 C 
BRANCH  20  21
ATOM     21  C   UNL     1     -19.661   9.953  18.209  1.00  0.00    -0.000 C 
BRANCH  21  22
ATOM     22  C   UNL     1     -20.203   9.790  16.774  1.00  0.00    -0.000 C 
BRANCH  22  23
ATOM     23  C   UNL     1     -19.127   9.771  15.669  1.00  0.00    -0.000 C 
BRANCH  23  24
ATOM     24  C   UNL     1     -19.656   9.607  14.231  1.00  0.00    -0.000 C 
BRANCH  24  25
ATOM     25  C   UNL     1     -18.934  10.460  13.174  1.00  0.00    -0.003 C 
ATOM     26  C   UNL     1     -17.634  11.074  13.694  1.00  0.00     0.004 C 
ENDBRANCH  24  25
ENDBRANCH  23  24
ENDBRANCH  22  23
ENDBRANCH  21  22
ENDBRANCH  20  21
ENDBRANCH  19  20
ENDBRANCH  18  19
ENDBRANCH  17  18
ENDBRANCH  16  17
ENDBRANCH  15  16
ENDBRANCH   1  15
TORSDOF 22
ENDMDL
MODEL 6
REMARK VINA RESULT:    -3.996      4.008      6.286
REMARK INTER + INTRA:         -13.199
REMARK INTER:                  -9.185
REMARK INTRA:                  -4.014
REMARK UNBOUND:                -4.063
REMARK SMILES CCCCCCCCCCCCCCCCCCCCCCCC(=O)[O-]
REMARK SMILES IDX 13 1 14 2 15 3 16 4 17 5 18 6 19 7 20 8 21 9 22 10 23 11
REMARK SMILES IDX 24 12 25 13 26 14 12 15 11 16 10 17 9 18 8 19 7 20 6 21 5 22
REMARK SMILES IDX 4 23 3 24 2 25 1 26
REMARK H PARENT
REMARK Flexibility Score: inf
ROOT
ATOM      1  C   UNL     1     -22.249  11.208  16.374  1.00  0.00     0.000 C 
ENDROOT
BRANCH   1   2
ATOM      2  C   UNL     1     -22.094  12.526  15.600  1.00  0.00     0.000 C 
BRANCH   2   3
ATOM      3  C   UNL     1     -21.930  13.746  16.524  1.00  0.00     0.000 C 
BRANCH   3   4
ATOM      4  C   UNL     1     -20.624  14.542  16.328  1.00  0.00     0.000 C 
BRANCH   4   5
ATOM      5  C   UNL     1     -19.510  14.232  17.343  1.00  0.00     0.000 C 
BRANCH   5   6
ATOM      6  C   UNL     1     -18.628  13.045  16.918  1.00  0.00     0.000 C 
BRANCH   6   7
ATOM      7  C   UNL     1     -18.000  13.246  15.528  1.00  0.00     0.000 C 
BRANCH   7   8
ATOM      8  C   UNL     1     -18.331  12.092  14.566  1.00  0.00     0.000 C 
BRANCH   8   9
ATOM      9  C   UNL     1     -18.717  10.798  15.301  1.00  0.00     0.000 C 
BRANCH   9  10
ATOM     10  C   UNL     1     -19.543   9.843  14.427  1.00  0.00     0.006 C 
BRANCH  10  11
ATOM     11  C   UNL     1     -19.614  10.349  12.982  1.00  0.00     0.053 C 
BRANCH  11  12
ATOM     12  C   UNL     1     -21.037  10.537  12.560  1.00  0.00     0.041 C 
ATOM     13  O   UNL     1     -21.376  11.558  11.906  1.00  0.00    -0.550 OA
ATOM     14  O   UNL     1     -21.999   9.603  12.923  1.00  0.00    -0.550 OA
ENDBRANCH  11  12
ENDBRANCH  10  11
ENDBRANCH   9  10
ENDBRANCH   8   9
ENDBRANCH   7   8
ENDBRANCH   6   7
ENDBRANCH   5   6
ENDBRANCH   4   5
ENDBRANCH   3   4
ENDBRANCH   2   3
ENDBRANCH   1   2
BRANCH   1  15
ATOM     15  C   UNL     1     -21.934  11.405  17.862  1.00  0.00     0.000 C 
BRANCH  15  16
ATOM     16  C   UNL     1     -20.881  10.396  18.340  1.00  0.00     0.000 C 
BRANCH  16  17
ATOM     17  C   UNL     1     -21.212   8.949  17.933  1.00  0.00     0.000 C 
BRANCH  17  18
ATOM     18  C   UNL     1     -19.989   8.047  17.665  1.00  0.00    -0.000 C 
BRANCH  18  19
ATOM     19  C   UNL     1     -18.640   8.614  18.145  1.00  0.00    -0.000 C 
BRANCH  19  20
ATOM     20  C   UNL     1     -17.726   7.590  18.843  1.00  0.00    -0.000 C 
BRANCH  20  21
ATOM     21  C   UNL     1     -18.297   6.153  18.850  1.00  0.00    -0.000 C 
BRANCH  21  22
ATOM     22  C   UNL     1     -18.793   5.676  20.229  1.00  0.00    -0.000 C 
BRANCH  22  23
ATOM     23  C   UNL     1     -19.887   4.589  20.188  1.00  0.00    -0.000 C 
BRANCH  23  24
ATOM     24  C   UNL     1     -21.253   5.043  19.640  1.00  0.00    -0.000 C 
BRANCH  24  25
ATOM     25  C   UNL     1     -21.694   4.347  18.341  1.00  0.00    -0.003 C 
ATOM     26  C   UNL     1     -22.418   5.290  17.379  1.00  0.00     0.004 C 
ENDBRANCH  24  25
ENDBRANCH  23  24
ENDBRANCH  22  23
ENDBRANCH  21  22
ENDBRANCH  20  21
ENDBRANCH  19  20
ENDBRANCH  18  19
ENDBRANCH  17  18
ENDBRANCH  16  17
ENDBRANCH  15  16
ENDBRANCH   1  15
TORSDOF 22
ENDMDL
MODEL 7
REMARK VINA RESULT:    -3.977      2.229      4.552
REMARK INTER + INTRA:         -13.155
REMARK INTER:                  -9.508
REMARK INTRA:                  -3.647
REMARK UNBOUND:                -4.063
REMARK SMILES CCCCCCCCCCCCCCCCCCCCCCCC(=O)[O-]
REMARK SMILES IDX 13 1 14 2 15 3 16 4 17 5 18 6 19 7 20 8 21 9 22 10 23 11
REMARK SMILES IDX 24 12 25 13 26 14 12 15 11 16 10 17 9 18 8 19 7 20 6 21 5 22
REMARK SMILES IDX 4 23 3 24 2 25 1 26
REMARK H PARENT
REMARK Flexibility Score: inf
ROOT
ATOM      1  C   UNL     1     -21.180  10.258  16.830  1.00  0.00     0.000 C 
ENDROOT
BRANCH   1   2
ATOM      2  C   UNL     1     -22.570  10.850  16.554  1.00  0.00     0.000 C 
BRANCH   2   3
ATOM      3  C   UNL     1     -22.508  12.266  15.954  1.00  0.00     0.000 C 
BRANCH   3   4
ATOM      4  C   UNL     1     -22.835  13.408  16.937  1.00  0.00     0.000 C 
BRANCH   4   5
ATOM      5  C   UNL     1     -22.527  14.824  16.421  1.00  0.00     0.000 C 
BRANCH   5   6
ATOM      6  C   UNL     1     -23.094  15.928  17.329  1.00  0.00     0.000 C 
BRANCH   6   7
ATOM      7  C   UNL     1     -22.130  17.116  17.488  1.00  0.00     0.000 C 
BRANCH   7   8
ATOM      8  C   UNL     1     -20.672  16.662  17.679  1.00  0.00     0.000 C 
BRANCH   8   9
ATOM      9  C   UNL     1     -19.681  17.478  16.833  1.00  0.00     0.000 C 
BRANCH   9  10
ATOM     10  C   UNL     1     -19.996  17.421  15.331  1.00  0.00     0.006 C 
BRANCH  10  11
ATOM     11  C   UNL     1     -18.780  16.932  14.536  1.00  0.00     0.053 C 
BRANCH  11  12
ATOM     12  C   UNL     1     -18.137  18.068  13.806  1.00  0.00     0.041 C 
ATOM     13  O   UNL     1     -18.067  18.056  12.549  1.00  0.00    -0.550 OA
ATOM     14  O   UNL     1     -17.580  19.124  14.516  1.00  0.00    -0.550 OA
ENDBRANCH  11  12
ENDBRANCH  10  11
ENDBRANCH   9  10
ENDBRANCH   8   9
ENDBRANCH   7   8
ENDBRANCH   6   7
ENDBRANCH   5   6
ENDBRANCH   4   5
ENDBRANCH   3   4
ENDBRANCH   2   3
ENDBRANCH   1   2
BRANCH   1  15
ATOM     15  C   UNL     1     -20.919  10.149  18.337  1.00  0.00     0.000 C 
BRANCH  15  16
ATOM     16  C   UNL     1     -20.275  11.434  18.879  1.00  0.00     0.000 C 
BRANCH  16  17
ATOM     17  C   UNL     1     -19.076  11.902  18.035  1.00  0.00     0.000 C 
BRANCH  17  18
ATOM     18  C   UNL     1     -19.136  13.372  17.569  1.00  0.00    -0.000 C 
BRANCH  18  19
ATOM     19  C   UNL     1     -19.084  13.577  16.044  1.00  0.00    -0.000 C 
BRANCH  19  20
ATOM     20  C   UNL     1     -17.693  13.375  15.415  1.00  0.00    -0.000 C 
BRANCH  20  21
ATOM     21  C   UNL     1     -17.612  12.153  14.471  1.00  0.00    -0.000 C 
BRANCH  21  22
ATOM     22  C   UNL     1     -18.866  11.256  14.489  1.00  0.00    -0.000 C 
BRANCH  22  23
ATOM     23  C   UNL     1     -19.336  10.766  13.103  1.00  0.00    -0.000 C 
BRANCH  23  24
ATOM     24  C   UNL     1     -20.756  11.201  12.692  1.00  0.00    -0.000 C 
BRANCH  24  25
ATOM     25  C   UNL     1     -21.288  10.544  11.408  1.00  0.00    -0.003 C 
ATOM     26  C   UNL     1     -20.750   9.128  11.199  1.00  0.00     0.004 C 
ENDBRANCH  24  25
ENDBRANCH  23  24
ENDBRANCH  22  23
ENDBRANCH  21  22
ENDBRANCH  20  21
ENDBRANCH  19  20
ENDBRANCH  18  19
ENDBRANCH  17  18
ENDBRANCH  16  17
ENDBRANCH  15  16
ENDBRANCH   1  15
TORSDOF 22
ENDMDL
MODEL 8
REMARK VINA RESULT:    -3.973      2.619      6.437
REMARK INTER + INTRA:         -13.145
REMARK INTER:                  -8.985
REMARK INTRA:                  -4.160
REMARK UNBOUND:                -4.063
REMARK SMILES CCCCCCCCCCCCCCCCCCCCCCCC(=O)[O-]
REMARK SMILES IDX 13 1 14 2 15 3 16 4 17 5 18 6 19 7 20 8 21 9 22 10 23 11
REMARK SMILES IDX 24 12 25 13 26 14 12 15 11 16 10 17 9 18 8 19 7 20 6 21 5 22
REMARK SMILES IDX 4 23 3 24 2 25 1 26
REMARK H PARENT
REMARK Flexibility Score: inf
ROOT
ATOM      1  C   UNL     1     -20.222  13.852  16.570  1.00  0.00     0.000 C 
ENDROOT
BRANCH   1   2
ATOM      2  C   UNL     1     -19.127  13.737  17.642  1.00  0.00     0.000 C 
BRANCH   2   3
ATOM      3  C   UNL     1     -19.120  12.368  18.346  1.00  0.00     0.000 C 
BRANCH   3   4
ATOM      4  C   UNL     1     -19.744  11.214  17.536  1.00  0.00     0.000 C 
BRANCH   4   5
ATOM      5  C   UNL     1     -19.586   9.817  18.161  1.00  0.00     0.000 C 
BRANCH   5   6
ATOM      6  C   UNL     1     -19.826   8.680  17.152  1.00  0.00     0.000 C 
BRANCH   6   7
ATOM      7  C   UNL     1     -21.319   8.468  16.848  1.00  0.00     0.000 C 
BRANCH   7   8
ATOM      8  C   UNL     1     -22.155   8.288  18.127  1.00  0.00     0.000 C 
BRANCH   8   9
ATOM      9  C   UNL     1     -23.400   9.189  18.154  1.00  0.00     0.000 C 
BRANCH   9  10
ATOM     10  C   UNL     1     -23.186  10.471  18.972  1.00  0.00     0.006 C 
BRANCH  10  11
ATOM     11  C   UNL     1     -23.219  11.708  18.067  1.00  0.00     0.053 C 
BRANCH  11  12
ATOM     12  C   UNL     1     -24.555  12.376  18.137  1.00  0.00     0.041 C 
ATOM     13  O   UNL     1     -24.749  13.473  17.550  1.00  0.00    -0.550 OA
ATOM     14  O   UNL     1     -25.579  11.806  18.885  1.00  0.00    -0.550 OA
ENDBRANCH  11  12
ENDBRANCH  10  11
ENDBRANCH   9  10
ENDBRANCH   8   9
ENDBRANCH   7   8
ENDBRANCH   6   7
ENDBRANCH   5   6
ENDBRANCH   4   5
ENDBRANCH   3   4
ENDBRANCH   2   3
ENDBRANCH   1   2
BRANCH   1  15
ATOM     15  C   UNL     1     -19.845  14.896  15.512  1.00  0.00     0.000 C 
BRANCH  15  16
ATOM     16  C   UNL     1     -18.760  14.358  14.569  1.00  0.00     0.000 C 
BRANCH  16  17
ATOM     17  C   UNL     1     -19.031  12.916  14.106  1.00  0.00     0.000 C 
BRANCH  17  18
ATOM     18  C   UNL     1     -17.892  11.912  14.383  1.00  0.00    -0.000 C 
BRANCH  18  19
ATOM     19  C   UNL     1     -18.270  10.429  14.210  1.00  0.00    -0.000 C 
BRANCH  19  20
ATOM     20  C   UNL     1     -19.707  10.186  13.714  1.00  0.00    -0.000 C 
BRANCH  20  21
ATOM     21  C   UNL     1     -19.794   9.856  12.206  1.00  0.00    -0.000 C 
BRANCH  21  22
ATOM     22  C   UNL     1     -21.034  10.441  11.501  1.00  0.00    -0.000 C 
BRANCH  22  23
ATOM     23  C   UNL     1     -21.945  11.306  12.395  1.00  0.00    -0.000 C 
BRANCH  23  24
ATOM     24  C   UNL     1     -22.137  12.764  11.934  1.00  0.00    -0.000 C 
BRANCH  24  25
ATOM     25  C   UNL     1     -22.415  13.770  13.064  1.00  0.00    -0.003 C 
ATOM     26  C   UNL     1     -23.089  13.127  14.277  1.00  0.00     0.004 C 
ENDBRANCH  24  25
ENDBRANCH  23  24
ENDBRANCH  22  23
ENDBRANCH  21  22
ENDBRANCH  20  21
ENDBRANCH  19  20
ENDBRANCH  18  19
ENDBRANCH  17  18
ENDBRANCH  16  17
ENDBRANCH  15  16
ENDBRANCH   1  15
TORSDOF 22
ENDMDL
MODEL 9
REMARK VINA RESULT:    -3.936      2.504      4.523
REMARK INTER + INTRA:         -13.062
REMARK INTER:                  -8.852
REMARK INTRA:                  -4.210
REMARK UNBOUND:                -4.063
REMARK SMILES CCCCCCCCCCCCCCCCCCCCCCCC(=O)[O-]
REMARK SMILES IDX 13 1 14 2 15 3 16 4 17 5 18 6 19 7 20 8 21 9 22 10 23 11
REMARK SMILES IDX 24 12 25 13 26 14 12 15 11 16 10 17 9 18 8 19 7 20 6 21 5 22
REMARK SMILES IDX 4 23 3 24 2 25 1 26
REMARK H PARENT
REMARK Flexibility Score: inf
ROOT
ATOM      1  C   UNL     1     -21.335  14.014  12.761  1.00  0.00     0.000 C 
ENDROOT
BRANCH   1   2
ATOM      2  C   UNL     1     -22.100  15.287  12.371  1.00  0.00     0.000 C 
BRANCH   2   3
ATOM      3  C   UNL     1     -22.552  16.111  13.589  1.00  0.00     0.000 C 
BRANCH   3   4
ATOM      4  C   UNL     1     -23.464  15.364  14.582  1.00  0.00     0.000 C 
BRANCH   4   5
ATOM      5  C   UNL     1     -23.423  15.886  16.029  1.00  0.00     0.000 C 
BRANCH   5   6
ATOM      6  C   UNL     1     -22.243  16.840  16.286  1.00  0.00     0.000 C 
BRANCH   6   7
ATOM      7  C   UNL     1     -21.315  16.341  17.407  1.00  0.00     0.000 C 
BRANCH   7   8
ATOM      8  C   UNL     1     -19.881  16.879  17.259  1.00  0.00     0.000 C 
BRANCH   8   9
ATOM      9  C   UNL     1     -19.784  18.044  16.261  1.00  0.00     0.000 C 
BRANCH   9  10
ATOM     10  C   UNL     1     -18.835  17.746  15.091  1.00  0.00     0.006 C 
BRANCH  10  11
ATOM     11  C   UNL     1     -19.526  18.004  13.748  1.00  0.00     0.053 C 
BRANCH  11  12
ATOM     12  C   UNL     1     -18.522  18.044  12.639  1.00  0.00     0.041 C 
ATOM     13  O   UNL     1     -17.482  18.746  12.749  1.00  0.00    -0.550 OA
ATOM     14  O   UNL     1     -18.754  17.337  11.465  1.00  0.00    -0.550 OA
ENDBRANCH  11  12
ENDBRANCH  10  11
ENDBRANCH   9  10
ENDBRANCH   8   9
ENDBRANCH   7   8
ENDBRANCH   6   7
ENDBRANCH   5   6
ENDBRANCH   4   5
ENDBRANCH   3   4
ENDBRANCH   2   3
ENDBRANCH   1   2
BRANCH   1  15
ATOM     15  C   UNL     1     -20.081  14.356  13.575  1.00  0.00     0.000 C 
BRANCH  15  16
ATOM     16  C   UNL     1     -20.166  13.768  14.991  1.00  0.00     0.000 C 
BRANCH  16  17
ATOM     17  C   UNL     1     -18.823  13.818  15.741  1.00  0.00     0.000 C 
BRANCH  17  18
ATOM     18  C   UNL     1     -18.801  13.083  17.097  1.00  0.00    -0.000 C 
BRANCH  18  19
ATOM     19  C   UNL     1     -19.997  12.148  17.355  1.00  0.00    -0.000 C 
BRANCH  19  20
ATOM     20  C   UNL     1     -19.628  10.793  17.986  1.00  0.00    -0.000 C 
BRANCH  20  21
ATOM     21  C   UNL     1     -19.169   9.735  16.956  1.00  0.00    -0.000 C 
BRANCH  21  22
ATOM     22  C   UNL     1     -19.535  10.072  15.497  1.00  0.00    -0.000 C 
BRANCH  22  23
ATOM     23  C   UNL     1     -18.333  10.249  14.547  1.00  0.00    -0.000 C 
BRANCH  23  24
ATOM     24  C   UNL     1     -18.650  10.910  13.192  1.00  0.00    -0.000 C 
BRANCH  24  25
ATOM     25  C   UNL     1     -20.037  10.575  12.616  1.00  0.00    -0.003 C 
ATOM     26  C   UNL     1     -19.966   9.950  11.223  1.00  0.00     0.004 C 
ENDBRANCH  24  25
ENDBRANCH  23  24
ENDBRANCH  22  23
ENDBRANCH  21  22
ENDBRANCH  20  21
ENDBRANCH  19  20
ENDBRANCH  18  19
ENDBRANCH  17  18
ENDBRANCH  16  17
ENDBRANCH  15  16
ENDBRANCH   1  15
TORSDOF 22
ENDMDL
