MODEL 1
REMARK VINA RESULT:    -6.943      0.000      0.000
REMARK INTER + INTRA:         -11.547
REMARK INTER:                 -10.189
REMARK INTRA:                  -1.357
REMARK UNBOUND:                -1.357
REMARK SMILES O=c1c(O[C@@H]2O[C@H](CO)[C@@H](O)[C@H](O)[C@H]2O)c(-c2ccc(O)c(O)c2)oc2cc(O)cc(O)c12
REMARK SMILES IDX 4 1 3 2 16 3 25 4 2 5 26 6 1 7 33 8 27 9 31 10 28 11 30 12
REMARK SMILES IDX 17 13 18 14 19 15 20 16 24 17 22 18 21 19 23 21 32 23 29 25
REMARK SMILES IDX 5 27 14 28 6 29 12 30 7 31 10 32 15 33 13 35 8 37 9 38 11 40
REMARK H PARENT 21 20 23 22 32 24 29 26 15 34 13 36 9 39 11 41
REMARK Flexibility Score: inf
ROOT
ATOM      1  O   UNL     1      -7.674 -15.753  20.748  1.00  0.00    -0.454 OA
ENDROOT
BRANCH   1   2
ATOM      2  C   UNL     1      -7.580 -16.971  20.047  1.00  0.00     0.214 A 
ATOM      3  C   UNL     1      -7.057 -16.925  18.744  1.00  0.00     0.180 A 
ATOM      4  O   UNL     1      -6.820 -18.044  18.068  1.00  0.00    -0.452 OA
ATOM      5  C   UNL     1      -7.925 -18.234  20.584  1.00  0.00     0.239 A 
ATOM      6  C   UNL     1      -7.094 -19.249  18.546  1.00  0.00     0.146 A 
ATOM      7  O   UNL     1      -8.446 -18.323  21.728  1.00  0.00    -0.285 OA
ATOM      8  C   UNL     1      -7.676 -19.401  19.827  1.00  0.00     0.111 A 
ATOM      9  C   UNL     1      -6.807 -20.369  17.761  1.00  0.00     0.094 A 
ATOM     10  C   UNL     1      -7.971 -20.708  20.294  1.00  0.00     0.134 A 
ATOM     11  C   UNL     1      -7.090 -21.654  18.228  1.00  0.00     0.123 A 
ATOM     12  C   UNL     1      -7.673 -21.822  19.491  1.00  0.00     0.093 A 
BRANCH   3  13
ATOM     13  C   UNL     1      -6.765 -15.637  18.087  1.00  0.00     0.025 A 
ATOM     14  C   UNL     1      -7.729 -15.029  17.275  1.00  0.00     0.016 A 
ATOM     15  C   UNL     1      -7.470 -13.789  16.685  1.00  0.00     0.051 A 
ATOM     16  C   UNL     1      -6.263 -13.122  16.931  1.00  0.00     0.157 A 
ATOM     17  C   UNL     1      -5.552 -14.976  18.337  1.00  0.00     0.062 A 
ATOM     18  C   UNL     1      -5.301 -13.714  17.786  1.00  0.00     0.158 A 
BRANCH  16  19
ATOM     19  O   UNL     1      -6.069 -11.879  16.324  1.00  0.00    -0.504 OA
ATOM     20  H   UNL     1      -5.405 -11.713  15.586  1.00  0.00     0.293 HD
ENDBRANCH  16  19
BRANCH  18  21
ATOM     21  O   UNL     1      -4.110 -13.080  18.130  1.00  0.00    -0.504 OA
ATOM     22  H   UNL     1      -3.972 -12.080  18.092  1.00  0.00     0.293 HD
ENDBRANCH  18  21
ENDBRANCH   3  13
BRANCH  10  23
ATOM     23  O   UNL     1      -8.557 -20.910  21.545  1.00  0.00    -0.507 OA
ATOM     24  H   UNL     1      -8.031 -20.784  22.404  1.00  0.00     0.293 HD
ENDBRANCH  10  23
BRANCH  11  25
ATOM     25  O   UNL     1      -6.785 -22.756  17.432  1.00  0.00    -0.508 OA
ATOM     26  H   UNL     1      -7.192 -23.668  17.610  1.00  0.00     0.293 HD
ENDBRANCH  11  25
ENDBRANCH   1   2
BRANCH   1  27
ATOM     27  C   UNL     1      -8.850 -15.053  21.142  1.00  0.00     0.339 C 
ATOM     28  C   UNL     1      -8.679 -14.638  22.635  1.00  0.00     0.214 C 
ATOM     29  O   UNL     1      -9.030 -13.943  20.266  1.00  0.00    -0.332 OA
ATOM     30  C   UNL     1      -8.295 -13.153  22.746  1.00  0.00     0.180 C 
ATOM     31  C   UNL     1      -9.958 -13.021  20.807  1.00  0.00     0.179 C 
ATOM     32  C   UNL     1      -9.321 -12.264  22.005  1.00  0.00     0.177 C 
BRANCH  28  33
ATOM     33  O   UNL     1      -9.879 -14.876  23.330  1.00  0.00    -0.384 OA
ATOM     34  H   UNL     1     -10.466 -15.400  22.721  1.00  0.00     0.211 HD
ENDBRANCH  28  33
BRANCH  30  35
ATOM     35  O   UNL     1      -7.012 -12.977  22.194  1.00  0.00    -0.387 OA
ATOM     36  H   UNL     1      -7.135 -12.851  21.217  1.00  0.00     0.211 HD
ENDBRANCH  30  35
BRANCH  31  37
ATOM     37  C   UNL     1     -10.410 -12.049  19.709  1.00  0.00     0.191 C 
BRANCH  37  38
ATOM     38  O   UNL     1     -11.253 -11.074  20.267  1.00  0.00    -0.394 OA
ATOM     39  H   UNL     1     -12.159 -11.480  20.345  1.00  0.00     0.210 HD
ENDBRANCH  37  38
ENDBRANCH  31  37
BRANCH  32  40
ATOM     40  O   UNL     1     -10.339 -11.892  22.901  1.00  0.00    -0.387 OA
ATOM     41  H   UNL     1     -11.084 -11.506  22.369  1.00  0.00     0.211 HD
ENDBRANCH  32  40
ENDBRANCH   1  27
TORSDOF 12
ENDMDL
MODEL 2
REMARK VINA RESULT:    -6.835      5.125      7.269
REMARK INTER + INTRA:         -11.389
REMARK INTER:                 -10.309
REMARK INTRA:                  -1.080
REMARK UNBOUND:                -1.357
REMARK SMILES O=c1c(O[C@@H]2O[C@H](CO)[C@@H](O)[C@H](O)[C@H]2O)c(-c2ccc(O)c(O)c2)oc2cc(O)cc(O)c12
REMARK SMILES IDX 4 1 3 2 16 3 25 4 2 5 26 6 1 7 33 8 27 9 31 10 28 11 30 12
REMARK SMILES IDX 17 13 18 14 19 15 20 16 24 17 22 18 21 19 23 21 32 23 29 25
REMARK SMILES IDX 5 27 14 28 6 29 12 30 7 31 10 32 15 33 13 35 8 37 9 38 11 40
REMARK H PARENT 21 20 23 22 32 24 29 26 15 34 13 36 9 39 11 41
REMARK Flexibility Score: inf
ROOT
ATOM      1  O   UNL     1     -11.884 -17.367  20.983  1.00  0.00    -0.454 OA
ENDROOT
BRANCH   1   2
ATOM      2  C   UNL     1     -13.150 -17.352  20.365  1.00  0.00     0.214 A 
ATOM      3  C   UNL     1     -13.412 -16.311  19.458  1.00  0.00     0.180 A 
ATOM      4  O   UNL     1     -14.531 -16.301  18.742  1.00  0.00    -0.452 OA
ATOM      5  C   UNL     1     -14.146 -18.339  20.555  1.00  0.00     0.239 A 
ATOM      6  C   UNL     1     -15.474 -17.224  18.861  1.00  0.00     0.146 A 
ATOM      7  O   UNL     1     -13.981 -19.263  21.395  1.00  0.00    -0.285 OA
ATOM      8  C   UNL     1     -15.333 -18.283  19.788  1.00  0.00     0.111 A 
ATOM      9  C   UNL     1     -16.617 -17.129  18.062  1.00  0.00     0.094 A 
ATOM     10  C   UNL     1     -16.374 -19.240  19.899  1.00  0.00     0.134 A 
ATOM     11  C   UNL     1     -17.636 -18.078  18.167  1.00  0.00     0.123 A 
ATOM     12  C   UNL     1     -17.514 -19.129  19.085  1.00  0.00     0.093 A 
BRANCH   3  13
ATOM     13  C   UNL     1     -12.458 -15.199  19.282  1.00  0.00     0.025 A 
ATOM     14  C   UNL     1     -11.964 -14.894  18.008  1.00  0.00     0.016 A 
ATOM     15  C   UNL     1     -11.093 -13.814  17.833  1.00  0.00     0.051 A 
ATOM     16  C   UNL     1     -10.737 -13.004  18.919  1.00  0.00     0.157 A 
ATOM     17  C   UNL     1     -12.104 -14.394  20.375  1.00  0.00     0.062 A 
ATOM     18  C   UNL     1     -11.267 -13.286  20.203  1.00  0.00     0.158 A 
BRANCH  16  19
ATOM     19  O   UNL     1      -9.874 -11.933  18.678  1.00  0.00    -0.504 OA
ATOM     20  H   UNL     1      -9.391 -11.786  17.806  1.00  0.00     0.293 HD
ENDBRANCH  16  19
BRANCH  18  21
ATOM     21  O   UNL     1     -11.012 -12.485  21.313  1.00  0.00    -0.504 OA
ATOM     22  H   UNL     1     -10.169 -12.542  21.867  1.00  0.00     0.293 HD
ENDBRANCH  18  21
ENDBRANCH   3  13
BRANCH  10  23
ATOM     23  O   UNL     1     -16.288 -20.296  20.808  1.00  0.00    -0.507 OA
ATOM     24  H   UNL     1     -15.933 -20.158  21.748  1.00  0.00     0.293 HD
ENDBRANCH  10  23
BRANCH  11  25
ATOM     25  O   UNL     1     -18.761 -17.969  17.353  1.00  0.00    -0.508 OA
ATOM     26  H   UNL     1     -18.792 -18.391  16.432  1.00  0.00     0.293 HD
ENDBRANCH  11  25
ENDBRANCH   1   2
BRANCH   1  27
ATOM     27  C   UNL     1     -10.638 -17.773  20.426  1.00  0.00     0.339 C 
ATOM     28  C   UNL     1      -9.508 -17.014  21.188  1.00  0.00     0.214 C 
ATOM     29  O   UNL     1     -10.535 -19.190  20.532  1.00  0.00    -0.332 OA
ATOM     30  C   UNL     1      -8.839 -17.935  22.223  1.00  0.00     0.180 C 
ATOM     31  C   UNL     1      -9.200 -19.614  20.328  1.00  0.00     0.179 C 
ATOM     32  C   UNL     1      -8.326 -19.232  21.554  1.00  0.00     0.177 C 
BRANCH  28  33
ATOM     33  O   UNL     1      -8.549 -16.551  20.268  1.00  0.00    -0.384 OA
ATOM     34  H   UNL     1      -7.663 -16.867  20.591  1.00  0.00     0.211 HD
ENDBRANCH  28  33
BRANCH  30  35
ATOM     35  O   UNL     1      -9.777 -18.244  23.225  1.00  0.00    -0.387 OA
ATOM     36  H   UNL     1     -10.520 -17.592  23.133  1.00  0.00     0.211 HD
ENDBRANCH  30  35
BRANCH  31  37
ATOM     37  C   UNL     1      -9.179 -21.128  20.078  1.00  0.00     0.191 C 
BRANCH  37  38
ATOM     38  O   UNL     1      -8.112 -21.703  20.789  1.00  0.00    -0.394 OA
ATOM     39  H   UNL     1      -7.304 -21.628  20.214  1.00  0.00     0.210 HD
ENDBRANCH  37  38
ENDBRANCH  31  37
BRANCH  32  40
ATOM     40  O   UNL     1      -7.001 -19.035  21.124  1.00  0.00    -0.387 OA
ATOM     41  H   UNL     1      -6.712 -18.138  21.436  1.00  0.00     0.211 HD
ENDBRANCH  32  40
ENDBRANCH   1  27
TORSDOF 12
ENDMDL
MODEL 3
REMARK VINA RESULT:    -6.817      3.661      5.599
REMARK INTER + INTRA:         -11.363
REMARK INTER:                  -9.969
REMARK INTRA:                  -1.394
REMARK UNBOUND:                -1.357
REMARK SMILES O=c1c(O[C@@H]2O[C@H](CO)[C@@H](O)[C@H](O)[C@H]2O)c(-c2ccc(O)c(O)c2)oc2cc(O)cc(O)c12
REMARK SMILES IDX 4 1 3 2 16 3 25 4 2 5 26 6 1 7 33 8 27 9 31 10 28 11 30 12
REMARK SMILES IDX 17 13 18 14 19 15 20 16 24 17 22 18 21 19 23 21 32 23 29 25
REMARK SMILES IDX 5 27 14 28 6 29 12 30 7 31 10 32 15 33 13 35 8 37 9 38 11 40
REMARK H PARENT 21 20 23 22 32 24 29 26 15 34 13 36 9 39 11 41
REMARK Flexibility Score: inf
ROOT
ATOM      1  O   UNL     1     -11.567 -19.311  20.344  1.00  0.00    -0.454 OA
ENDROOT
BRANCH   1   2
ATOM      2  C   UNL     1     -10.373 -20.036  20.157  1.00  0.00     0.214 A 
ATOM      3  C   UNL     1      -9.236 -19.595  20.854  1.00  0.00     0.180 A 
ATOM      4  O   UNL     1      -8.109 -20.299  20.827  1.00  0.00    -0.452 OA
ATOM      5  C   UNL     1     -10.260 -21.200  19.360  1.00  0.00     0.239 A 
ATOM      6  C   UNL     1      -7.970 -21.414  20.126  1.00  0.00     0.146 A 
ATOM      7  O   UNL     1     -11.236 -21.606  18.676  1.00  0.00    -0.285 OA
ATOM      8  C   UNL     1      -9.038 -21.912  19.343  1.00  0.00     0.111 A 
ATOM      9  C   UNL     1      -6.745 -22.087  20.162  1.00  0.00     0.094 A 
ATOM     10  C   UNL     1      -8.841 -23.098  18.591  1.00  0.00     0.134 A 
ATOM     11  C   UNL     1      -6.558 -23.259  19.428  1.00  0.00     0.123 A 
ATOM     12  C   UNL     1      -7.604 -23.762  18.643  1.00  0.00     0.093 A 
BRANCH   3  13
ATOM     13  C   UNL     1      -9.257 -18.338  21.625  1.00  0.00     0.025 A 
ATOM     14  C   UNL     1      -9.564 -18.358  22.991  1.00  0.00     0.016 A 
ATOM     15  C   UNL     1      -9.544 -17.173  23.732  1.00  0.00     0.051 A 
ATOM     16  C   UNL     1      -9.180 -15.962  23.130  1.00  0.00     0.157 A 
ATOM     17  C   UNL     1      -8.894 -17.128  21.013  1.00  0.00     0.062 A 
ATOM     18  C   UNL     1      -8.829 -15.944  21.756  1.00  0.00     0.158 A 
BRANCH  16  19
ATOM     19  O   UNL     1      -9.166 -14.815  23.926  1.00  0.00    -0.504 OA
ATOM     20  H   UNL     1      -8.473 -14.088  23.851  1.00  0.00     0.293 HD
ENDBRANCH  16  19
BRANCH  18  21
ATOM     21  O   UNL     1      -8.392 -14.792  21.107  1.00  0.00    -0.504 OA
ATOM     22  H   UNL     1      -7.533 -14.736  20.578  1.00  0.00     0.293 HD
ENDBRANCH  18  21
ENDBRANCH   3  13
BRANCH  10  23
ATOM     23  O   UNL     1      -9.860 -23.623  17.793  1.00  0.00    -0.507 OA
ATOM     24  H   UNL     1      -9.734 -23.761  16.796  1.00  0.00     0.293 HD
ENDBRANCH  10  23
BRANCH  11  25
ATOM     25  O   UNL     1      -5.332 -23.918  19.488  1.00  0.00    -0.508 OA
ATOM     26  H   UNL     1      -5.041 -24.564  18.763  1.00  0.00     0.293 HD
ENDBRANCH  11  25
ENDBRANCH   1   2
BRANCH   1  27
ATOM     27  C   UNL     1     -12.303 -18.565  19.380  1.00  0.00     0.339 C 
ATOM     28  C   UNL     1     -13.792 -19.022  19.464  1.00  0.00     0.214 C 
ATOM     29  O   UNL     1     -12.124 -17.178  19.647  1.00  0.00    -0.332 OA
ATOM     30  C   UNL     1     -14.632 -17.996  20.244  1.00  0.00     0.180 C 
ATOM     31  C   UNL     1     -13.093 -16.404  18.964  1.00  0.00     0.179 C 
ATOM     32  C   UNL     1     -14.486 -16.584  19.627  1.00  0.00     0.177 C 
BRANCH  28  33
ATOM     33  O   UNL     1     -14.310 -19.177  18.165  1.00  0.00    -0.384 OA
ATOM     34  H   UNL     1     -15.205 -19.600  18.259  1.00  0.00     0.211 HD
ENDBRANCH  28  33
BRANCH  30  35
ATOM     35  O   UNL     1     -14.202 -17.988  21.583  1.00  0.00    -0.387 OA
ATOM     36  H   UNL     1     -13.851 -17.078  21.767  1.00  0.00     0.211 HD
ENDBRANCH  30  35
BRANCH  31  37
ATOM     37  C   UNL     1     -12.662 -14.931  18.964  1.00  0.00     0.191 C 
BRANCH  37  38
ATOM     38  O   UNL     1     -13.639 -14.159  19.612  1.00  0.00    -0.394 OA
ATOM     39  H   UNL     1     -14.055 -14.737  20.307  1.00  0.00     0.210 HD
ENDBRANCH  37  38
ENDBRANCH  31  37
BRANCH  32  40
ATOM     40  O   UNL     1     -15.481 -16.403  18.651  1.00  0.00    -0.387 OA
ATOM     41  H   UNL     1     -15.137 -15.753  17.984  1.00  0.00     0.211 HD
ENDBRANCH  32  40
ENDBRANCH   1  27
TORSDOF 12
ENDMDL
MODEL 4
REMARK VINA RESULT:    -6.797      2.433      5.760
REMARK INTER + INTRA:         -11.333
REMARK INTER:                  -9.797
REMARK INTRA:                  -1.536
REMARK UNBOUND:                -1.357
REMARK SMILES O=c1c(O[C@@H]2O[C@H](CO)[C@@H](O)[C@H](O)[C@H]2O)c(-c2ccc(O)c(O)c2)oc2cc(O)cc(O)c12
REMARK SMILES IDX 4 1 3 2 16 3 25 4 2 5 26 6 1 7 33 8 27 9 31 10 28 11 30 12
REMARK SMILES IDX 17 13 18 14 19 15 20 16 24 17 22 18 21 19 23 21 32 23 29 25
REMARK SMILES IDX 5 27 14 28 6 29 12 30 7 31 10 32 15 33 13 35 8 37 9 38 11 40
REMARK H PARENT 21 20 23 22 32 24 29 26 15 34 13 36 9 39 11 41
REMARK Flexibility Score: inf
ROOT
ATOM      1  O   UNL     1      -7.817 -16.509  19.749  1.00  0.00    -0.454 OA
ENDROOT
BRANCH   1   2
ATOM      2  C   UNL     1      -7.635 -15.714  18.600  1.00  0.00     0.214 A 
ATOM      3  C   UNL     1      -7.531 -14.326  18.788  1.00  0.00     0.180 A 
ATOM      4  O   UNL     1      -7.234 -13.524  17.771  1.00  0.00    -0.452 OA
ATOM      5  C   UNL     1      -7.496 -16.223  17.287  1.00  0.00     0.239 A 
ATOM      6  C   UNL     1      -7.059 -13.961  16.533  1.00  0.00     0.146 A 
ATOM      7  O   UNL     1      -7.632 -17.454  17.059  1.00  0.00    -0.285 OA
ATOM      8  C   UNL     1      -7.198 -15.336  16.227  1.00  0.00     0.111 A 
ATOM      9  C   UNL     1      -6.745 -13.041  15.529  1.00  0.00     0.094 A 
ATOM     10  C   UNL     1      -7.022 -15.760  14.885  1.00  0.00     0.134 A 
ATOM     11  C   UNL     1      -6.564 -13.464  14.211  1.00  0.00     0.123 A 
ATOM     12  C   UNL     1      -6.705 -14.820  13.891  1.00  0.00     0.093 A 
BRANCH   3  13
ATOM     13  C   UNL     1      -7.760 -13.719  20.113  1.00  0.00     0.025 A 
ATOM     14  C   UNL     1      -6.694 -13.566  21.008  1.00  0.00     0.016 A 
ATOM     15  C   UNL     1      -6.900 -12.954  22.247  1.00  0.00     0.051 A 
ATOM     16  C   UNL     1      -8.162 -12.453  22.593  1.00  0.00     0.157 A 
ATOM     17  C   UNL     1      -9.027 -13.221  20.452  1.00  0.00     0.062 A 
ATOM     18  C   UNL     1      -9.234 -12.568  21.673  1.00  0.00     0.158 A 
BRANCH  16  19
ATOM     19  O   UNL     1      -8.301 -11.840  23.840  1.00  0.00    -0.504 OA
ATOM     20  H   UNL     1      -7.542 -11.708  24.489  1.00  0.00     0.293 HD
ENDBRANCH  16  19
BRANCH  18  21
ATOM     21  O   UNL     1     -10.496 -12.033  21.919  1.00  0.00    -0.504 OA
ATOM     22  H   UNL     1     -10.843 -11.809  22.840  1.00  0.00     0.293 HD
ENDBRANCH  18  21
ENDBRANCH   3  13
BRANCH  10  23
ATOM     23  O   UNL     1      -7.161 -17.104  14.531  1.00  0.00    -0.507 OA
ATOM     24  H   UNL     1      -8.072 -17.511  14.344  1.00  0.00     0.293 HD
ENDBRANCH  10  23
BRANCH  11  25
ATOM     25  O   UNL     1      -6.242 -12.529  13.229  1.00  0.00    -0.508 OA
ATOM     26  H   UNL     1      -6.386 -11.536  13.374  1.00  0.00     0.293 HD
ENDBRANCH  11  25
ENDBRANCH   1   2
BRANCH   1  27
ATOM     27  C   UNL     1      -8.950 -17.297  20.102  1.00  0.00     0.339 C 
ATOM     28  C   UNL     1      -8.645 -17.980  21.471  1.00  0.00     0.214 C 
ATOM     29  O   UNL     1     -10.096 -16.451  20.138  1.00  0.00    -0.332 OA
ATOM     30  C   UNL     1      -9.358 -17.242  22.617  1.00  0.00     0.180 C 
ATOM     31  C   UNL     1     -11.167 -17.083  20.815  1.00  0.00     0.179 C 
ATOM     32  C   UNL     1     -10.876 -17.136  22.340  1.00  0.00     0.177 C 
BRANCH  28  33
ATOM     33  O   UNL     1      -9.065 -19.322  21.430  1.00  0.00    -0.384 OA
ATOM     34  H   UNL     1      -8.441 -19.838  22.008  1.00  0.00     0.211 HD
ENDBRANCH  28  33
BRANCH  30  35
ATOM     35  O   UNL     1      -8.796 -15.958  22.744  1.00  0.00    -0.387 OA
ATOM     36  H   UNL     1      -9.535 -15.308  22.614  1.00  0.00     0.211 HD
ENDBRANCH  30  35
BRANCH  31  37
ATOM     37  C   UNL     1     -12.471 -16.330  20.521  1.00  0.00     0.191 C 
BRANCH  37  38
ATOM     38  O   UNL     1     -13.565 -17.141  20.864  1.00  0.00    -0.394 OA
ATOM     39  H   UNL     1     -14.267 -16.993  20.174  1.00  0.00     0.210 HD
ENDBRANCH  37  38
ENDBRANCH  31  37
BRANCH  32  40
ATOM     40  O   UNL     1     -11.523 -18.258  22.888  1.00  0.00    -0.387 OA
ATOM     41  H   UNL     1     -11.543 -18.145  23.874  1.00  0.00     0.211 HD
ENDBRANCH  32  40
ENDBRANCH   1  27
TORSDOF 12
ENDMDL
MODEL 5
REMARK VINA RESULT:    -6.760      3.205      6.964
REMARK INTER + INTRA:         -11.279
REMARK INTER:                 -10.608
REMARK INTRA:                  -0.671
REMARK UNBOUND:                -1.357
REMARK SMILES O=c1c(O[C@@H]2O[C@H](CO)[C@@H](O)[C@H](O)[C@H]2O)c(-c2ccc(O)c(O)c2)oc2cc(O)cc(O)c12
REMARK SMILES IDX 4 1 3 2 16 3 25 4 2 5 26 6 1 7 33 8 27 9 31 10 28 11 30 12
REMARK SMILES IDX 17 13 18 14 19 15 20 16 24 17 22 18 21 19 23 21 32 23 29 25
REMARK SMILES IDX 5 27 14 28 6 29 12 30 7 31 10 32 15 33 13 35 8 37 9 38 11 40
REMARK H PARENT 21 20 23 22 32 24 29 26 15 34 13 36 9 39 11 41
REMARK Flexibility Score: inf
ROOT
ATOM      1  O   UNL     1     -10.482 -15.563  20.162  1.00  0.00    -0.454 OA
ENDROOT
BRANCH   1   2
ATOM      2  C   UNL     1      -9.508 -14.809  20.847  1.00  0.00     0.214 A 
ATOM      3  C   UNL     1      -8.163 -15.154  20.638  1.00  0.00     0.180 A 
ATOM      4  O   UNL     1      -7.186 -14.413  21.147  1.00  0.00    -0.452 OA
ATOM      5  C   UNL     1      -9.793 -13.702  21.681  1.00  0.00     0.239 A 
ATOM      6  C   UNL     1      -7.405 -13.347  21.903  1.00  0.00     0.146 A 
ATOM      7  O   UNL     1     -10.984 -13.384  21.941  1.00  0.00    -0.285 OA
ATOM      8  C   UNL     1      -8.725 -12.948  22.220  1.00  0.00     0.111 A 
ATOM      9  C   UNL     1      -6.311 -12.627  22.392  1.00  0.00     0.094 A 
ATOM     10  C   UNL     1      -8.917 -11.813  23.048  1.00  0.00     0.134 A 
ATOM     11  C   UNL     1      -6.505 -11.505  23.199  1.00  0.00     0.123 A 
ATOM     12  C   UNL     1      -7.805 -11.101  23.528  1.00  0.00     0.093 A 
BRANCH   3  13
ATOM     13  C   UNL     1      -7.798 -16.352  19.858  1.00  0.00     0.025 A 
ATOM     14  C   UNL     1      -7.649 -16.267  18.469  1.00  0.00     0.016 A 
ATOM     15  C   UNL     1      -7.263 -17.391  17.734  1.00  0.00     0.051 A 
ATOM     16  C   UNL     1      -6.982 -18.602  18.379  1.00  0.00     0.157 A 
ATOM     17  C   UNL     1      -7.520 -17.563  20.513  1.00  0.00     0.062 A 
ATOM     18  C   UNL     1      -7.091 -18.682  19.790  1.00  0.00     0.158 A 
BRANCH  16  19
ATOM     19  O   UNL     1      -6.588 -19.685  17.591  1.00  0.00    -0.504 OA
ATOM     20  H   UNL     1      -6.415 -19.626  16.601  1.00  0.00     0.293 HD
ENDBRANCH  16  19
BRANCH  18  21
ATOM     21  O   UNL     1      -6.763 -19.831  20.505  1.00  0.00    -0.504 OA
ATOM     22  H   UNL     1      -7.235 -20.123  21.349  1.00  0.00     0.293 HD
ENDBRANCH  18  21
ENDBRANCH   3  13
BRANCH  10  23
ATOM     23  O   UNL     1     -10.200 -11.387  23.400  1.00  0.00    -0.507 OA
ATOM     24  H   UNL     1     -10.542 -11.467  24.353  1.00  0.00     0.293 HD
ENDBRANCH  10  23
BRANCH  11  25
ATOM     25  O   UNL     1      -5.399 -10.797  23.666  1.00  0.00    -0.508 OA
ATOM     26  H   UNL     1      -4.656 -10.502  23.042  1.00  0.00     0.293 HD
ENDBRANCH  11  25
ENDBRANCH   1   2
BRANCH   1  27
ATOM     27  C   UNL     1     -11.885 -15.614  20.404  1.00  0.00     0.339 C 
ATOM     28  C   UNL     1     -12.601 -14.979  19.172  1.00  0.00     0.214 C 
ATOM     29  O   UNL     1     -12.256 -16.970  20.634  1.00  0.00    -0.332 OA
ATOM     30  C   UNL     1     -13.170 -16.072  18.252  1.00  0.00     0.180 C 
ATOM     31  C   UNL     1     -13.659 -17.133  20.528  1.00  0.00     0.179 C 
ATOM     32  C   UNL     1     -14.097 -17.027  19.041  1.00  0.00     0.177 C 
BRANCH  28  33
ATOM     33  O   UNL     1     -13.638 -14.137  19.614  1.00  0.00    -0.384 OA
ATOM     34  H   UNL     1     -13.610 -14.142  20.608  1.00  0.00     0.211 HD
ENDBRANCH  28  33
BRANCH  30  35
ATOM     35  O   UNL     1     -12.099 -16.791  17.690  1.00  0.00    -0.387 OA
ATOM     36  H   UNL     1     -11.276 -16.264  17.865  1.00  0.00     0.211 HD
ENDBRANCH  30  35
BRANCH  31  37
ATOM     37  C   UNL     1     -14.062 -18.483  21.134  1.00  0.00     0.191 C 
BRANCH  37  38
ATOM     38  O   UNL     1     -13.588 -18.563  22.453  1.00  0.00    -0.394 OA
ATOM     39  H   UNL     1     -12.971 -17.794  22.589  1.00  0.00     0.210 HD
ENDBRANCH  37  38
ENDBRANCH  31  37
BRANCH  32  40
ATOM     40  O   UNL     1     -15.414 -16.536  18.990  1.00  0.00    -0.387 OA
ATOM     41  H   UNL     1     -15.433 -15.668  19.471  1.00  0.00     0.211 HD
ENDBRANCH  32  40
ENDBRANCH   1  27
TORSDOF 12
ENDMDL
MODEL 6
REMARK VINA RESULT:    -6.758      7.601      9.603
REMARK INTER + INTRA:         -11.276
REMARK INTER:                  -9.792
REMARK INTRA:                  -1.483
REMARK UNBOUND:                -1.357
REMARK SMILES O=c1c(O[C@@H]2O[C@H](CO)[C@@H](O)[C@H](O)[C@H]2O)c(-c2ccc(O)c(O)c2)oc2cc(O)cc(O)c12
REMARK SMILES IDX 4 1 3 2 16 3 25 4 2 5 26 6 1 7 33 8 27 9 31 10 28 11 30 12
REMARK SMILES IDX 17 13 18 14 19 15 20 16 24 17 22 18 21 19 23 21 32 23 29 25
REMARK SMILES IDX 5 27 14 28 6 29 12 30 7 31 10 32 15 33 13 35 8 37 9 38 11 40
REMARK H PARENT 21 20 23 22 32 24 29 26 15 34 13 36 9 39 11 41
REMARK Flexibility Score: inf
ROOT
ATOM      1  O   UNL     1     -13.508 -18.019  17.786  1.00  0.00    -0.454 OA
ENDROOT
BRANCH   1   2
ATOM      2  C   UNL     1     -14.736 -18.227  17.128  1.00  0.00     0.214 A 
ATOM      3  C   UNL     1     -15.726 -18.943  17.821  1.00  0.00     0.180 A 
ATOM      4  O   UNL     1     -16.949 -19.070  17.318  1.00  0.00    -0.452 OA
ATOM      5  C   UNL     1     -15.054 -17.718  15.845  1.00  0.00     0.239 A 
ATOM      6  C   UNL     1     -17.301 -18.579  16.139  1.00  0.00     0.146 A 
ATOM      7  O   UNL     1     -14.185 -17.114  15.162  1.00  0.00    -0.285 OA
ATOM      8  C   UNL     1     -16.361 -17.890  15.336  1.00  0.00     0.111 A 
ATOM      9  C   UNL     1     -18.613 -18.761  15.696  1.00  0.00     0.094 A 
ATOM     10  C   UNL     1     -16.773 -17.396  14.072  1.00  0.00     0.134 A 
ATOM     11  C   UNL     1     -19.017 -18.266  14.454  1.00  0.00     0.123 A 
ATOM     12  C   UNL     1     -18.098 -17.588  13.644  1.00  0.00     0.093 A 
BRANCH   3  13
ATOM     13  C   UNL     1     -15.433 -19.581  19.119  1.00  0.00     0.025 A 
ATOM     14  C   UNL     1     -16.007 -19.080  20.293  1.00  0.00     0.016 A 
ATOM     15  C   UNL     1     -15.764 -19.709  21.517  1.00  0.00     0.051 A 
ATOM     16  C   UNL     1     -14.978 -20.866  21.580  1.00  0.00     0.157 A 
ATOM     17  C   UNL     1     -14.642 -20.740  19.173  1.00  0.00     0.062 A 
ATOM     18  C   UNL     1     -14.428 -21.401  20.388  1.00  0.00     0.158 A 
BRANCH  16  19
ATOM     19  O   UNL     1     -14.783 -21.456  22.830  1.00  0.00    -0.504 OA
ATOM     20  H   UNL     1     -15.532 -21.710  23.454  1.00  0.00     0.293 HD
ENDBRANCH  16  19
BRANCH  18  21
ATOM     21  O   UNL     1     -13.695 -22.585  20.363  1.00  0.00    -0.504 OA
ATOM     22  H   UNL     1     -13.724 -23.280  21.095  1.00  0.00     0.293 HD
ENDBRANCH  18  21
ENDBRANCH   3  13
BRANCH  10  23
ATOM     23  O   UNL     1     -15.880 -16.721  13.237  1.00  0.00    -0.507 OA
ATOM     24  H   UNL     1     -15.902 -15.711  13.145  1.00  0.00     0.293 HD
ENDBRANCH  10  23
BRANCH  11  25
ATOM     25  O   UNL     1     -20.334 -18.451  14.037  1.00  0.00    -0.508 OA
ATOM     26  H   UNL     1     -20.850 -17.715  13.569  1.00  0.00     0.293 HD
ENDBRANCH  11  25
ENDBRANCH   1   2
BRANCH   1  27
ATOM     27  C   UNL     1     -12.923 -16.784  18.188  1.00  0.00     0.339 C 
ATOM     28  C   UNL     1     -13.595 -16.354  19.528  1.00  0.00     0.214 C 
ATOM     29  O   UNL     1     -11.514 -16.964  18.296  1.00  0.00    -0.332 OA
ATOM     30  C   UNL     1     -12.675 -16.666  20.721  1.00  0.00     0.180 C 
ATOM     31  C   UNL     1     -10.925 -15.900  19.021  1.00  0.00     0.179 C 
ATOM     32  C   UNL     1     -11.285 -16.015  20.527  1.00  0.00     0.177 C 
BRANCH  28  33
ATOM     33  O   UNL     1     -13.881 -14.977  19.490  1.00  0.00    -0.384 OA
ATOM     34  H   UNL     1     -14.123 -14.758  18.551  1.00  0.00     0.211 HD
ENDBRANCH  28  33
BRANCH  30  35
ATOM     35  O   UNL     1     -12.546 -18.062  20.837  1.00  0.00    -0.387 OA
ATOM     36  H   UNL     1     -13.465 -18.433  20.878  1.00  0.00     0.211 HD
ENDBRANCH  30  35
BRANCH  31  37
ATOM     37  C   UNL     1      -9.405 -15.918  18.807  1.00  0.00     0.191 C 
BRANCH  37  38
ATOM     38  O   UNL     1      -8.760 -15.993  20.052  1.00  0.00    -0.394 OA
ATOM     39  H   UNL     1      -9.411 -16.383  20.697  1.00  0.00     0.210 HD
ENDBRANCH  37  38
ENDBRANCH  31  37
BRANCH  32  40
ATOM     40  O   UNL     1     -11.297 -14.727  21.092  1.00  0.00    -0.387 OA
ATOM     41  H   UNL     1     -11.182 -14.073  20.354  1.00  0.00     0.211 HD
ENDBRANCH  32  40
ENDBRANCH   1  27
TORSDOF 12
ENDMDL
MODEL 7
REMARK VINA RESULT:    -6.752      4.341      6.605
REMARK INTER + INTRA:         -11.267
REMARK INTER:                  -9.934
REMARK INTRA:                  -1.333
REMARK UNBOUND:                -1.357
REMARK SMILES O=c1c(O[C@@H]2O[C@H](CO)[C@@H](O)[C@H](O)[C@H]2O)c(-c2ccc(O)c(O)c2)oc2cc(O)cc(O)c12
REMARK SMILES IDX 4 1 3 2 16 3 25 4 2 5 26 6 1 7 33 8 27 9 31 10 28 11 30 12
REMARK SMILES IDX 17 13 18 14 19 15 20 16 24 17 22 18 21 19 23 21 32 23 29 25
REMARK SMILES IDX 5 27 14 28 6 29 12 30 7 31 10 32 15 33 13 35 8 37 9 38 11 40
REMARK H PARENT 21 20 23 22 32 24 29 26 15 34 13 36 9 39 11 41
REMARK Flexibility Score: inf
ROOT
ATOM      1  O   UNL     1     -11.938 -16.969  20.495  1.00  0.00    -0.454 OA
ENDROOT
BRANCH   1   2
ATOM      2  C   UNL     1     -11.094 -18.094  20.410  1.00  0.00     0.214 A 
ATOM      3  C   UNL     1     -11.705 -19.345  20.228  1.00  0.00     0.180 A 
ATOM      4  O   UNL     1     -10.973 -20.433  20.013  1.00  0.00    -0.452 OA
ATOM      5  C   UNL     1      -9.680 -18.038  20.442  1.00  0.00     0.239 A 
ATOM      6  C   UNL     1      -9.648 -20.421  19.998  1.00  0.00     0.146 A 
ATOM      7  O   UNL     1      -9.085 -16.949  20.653  1.00  0.00    -0.285 OA
ATOM      8  C   UNL     1      -8.935 -19.221  20.227  1.00  0.00     0.111 A 
ATOM      9  C   UNL     1      -8.965 -21.617  19.760  1.00  0.00     0.094 A 
ATOM     10  C   UNL     1      -7.517 -19.255  20.221  1.00  0.00     0.134 A 
ATOM     11  C   UNL     1      -7.569 -21.645  19.746  1.00  0.00     0.123 A 
ATOM     12  C   UNL     1      -6.848 -20.467  19.978  1.00  0.00     0.093 A 
BRANCH   3  13
ATOM     13  C   UNL     1     -13.172 -19.489  20.281  1.00  0.00     0.025 A 
ATOM     14  C   UNL     1     -13.879 -19.892  19.142  1.00  0.00     0.016 A 
ATOM     15  C   UNL     1     -15.264 -20.069  19.201  1.00  0.00     0.051 A 
ATOM     16  C   UNL     1     -15.955 -19.884  20.405  1.00  0.00     0.157 A 
ATOM     17  C   UNL     1     -13.857 -19.300  21.491  1.00  0.00     0.062 A 
ATOM     18  C   UNL     1     -15.238 -19.516  21.571  1.00  0.00     0.158 A 
BRANCH  16  19
ATOM     19  O   UNL     1     -17.336 -20.089  20.403  1.00  0.00    -0.504 OA
ATOM     20  H   UNL     1     -17.781 -20.913  20.034  1.00  0.00     0.293 HD
ENDBRANCH  16  19
BRANCH  18  21
ATOM     21  O   UNL     1     -15.846 -19.382  22.817  1.00  0.00    -0.504 OA
ATOM     22  H   UNL     1     -15.366 -19.063  23.646  1.00  0.00     0.293 HD
ENDBRANCH  18  21
ENDBRANCH   3  13
BRANCH  10  23
ATOM     23  O   UNL     1      -6.768 -18.100  20.455  1.00  0.00    -0.507 OA
ATOM     24  H   UNL     1      -6.494 -17.484  19.697  1.00  0.00     0.293 HD
ENDBRANCH  10  23
BRANCH  11  25
ATOM     25  O   UNL     1      -6.909 -22.847  19.497  1.00  0.00    -0.508 OA
ATOM     26  H   UNL     1      -5.991 -23.038  19.882  1.00  0.00     0.293 HD
ENDBRANCH  11  25
ENDBRANCH   1   2
BRANCH   1  27
ATOM     27  C   UNL     1     -12.346 -16.094  19.448  1.00  0.00     0.339 C 
ATOM     28  C   UNL     1     -12.434 -14.654  20.040  1.00  0.00     0.214 C 
ATOM     29  O   UNL     1     -11.413 -16.206  18.376  1.00  0.00    -0.332 OA
ATOM     30  C   UNL     1     -11.198 -13.828  19.646  1.00  0.00     0.180 C 
ATOM     31  C   UNL     1     -11.554 -15.126  17.471  1.00  0.00     0.179 C 
ATOM     32  C   UNL     1     -11.009 -13.819  18.111  1.00  0.00     0.177 C 
BRANCH  28  33
ATOM     33  O   UNL     1     -13.602 -14.024  19.570  1.00  0.00    -0.384 OA
ATOM     34  H   UNL     1     -13.953 -13.471  20.318  1.00  0.00     0.211 HD
ENDBRANCH  28  33
BRANCH  30  35
ATOM     35  O   UNL     1     -10.067 -14.384  20.271  1.00  0.00    -0.387 OA
ATOM     36  H   UNL     1      -9.894 -13.842  21.085  1.00  0.00     0.211 HD
ENDBRANCH  30  35
BRANCH  31  37
ATOM     37  C   UNL     1     -10.820 -15.456  16.165  1.00  0.00     0.191 C 
BRANCH  37  38
ATOM     38  O   UNL     1     -11.661 -16.218  15.337  1.00  0.00    -0.394 OA
ATOM     39  H   UNL     1     -12.398 -15.619  15.039  1.00  0.00     0.210 HD
ENDBRANCH  37  38
ENDBRANCH  31  37
BRANCH  32  40
ATOM     40  O   UNL     1     -11.704 -12.724  17.567  1.00  0.00    -0.387 OA
ATOM     41  H   UNL     1     -11.630 -12.779  16.579  1.00  0.00     0.211 HD
ENDBRANCH  32  40
ENDBRANCH   1  27
TORSDOF 12
ENDMDL
MODEL 8
REMARK VINA RESULT:    -6.745      1.658      5.493
REMARK INTER + INTRA:         -11.258
REMARK INTER:                  -9.739
REMARK INTRA:                  -1.519
REMARK UNBOUND:                -1.357
REMARK SMILES O=c1c(O[C@@H]2O[C@H](CO)[C@@H](O)[C@H](O)[C@H]2O)c(-c2ccc(O)c(O)c2)oc2cc(O)cc(O)c12
REMARK SMILES IDX 4 1 3 2 16 3 25 4 2 5 26 6 1 7 33 8 27 9 31 10 28 11 30 12
REMARK SMILES IDX 17 13 18 14 19 15 20 16 24 17 22 18 21 19 23 21 32 23 29 25
REMARK SMILES IDX 5 27 14 28 6 29 12 30 7 31 10 32 15 33 13 35 8 37 9 38 11 40
REMARK H PARENT 21 20 23 22 32 24 29 26 15 34 13 36 9 39 11 41
REMARK Flexibility Score: inf
ROOT
ATOM      1  O   UNL     1      -7.623 -15.740  20.604  1.00  0.00    -0.454 OA
ENDROOT
BRANCH   1   2
ATOM      2  C   UNL     1      -7.428 -15.647  19.211  1.00  0.00     0.214 A 
ATOM      3  C   UNL     1      -7.749 -16.776  18.439  1.00  0.00     0.180 A 
ATOM      4  O   UNL     1      -7.712 -16.722  17.112  1.00  0.00    -0.452 OA
ATOM      5  C   UNL     1      -6.986 -14.481  18.541  1.00  0.00     0.239 A 
ATOM      6  C   UNL     1      -7.340 -15.642  16.442  1.00  0.00     0.146 A 
ATOM      7  O   UNL     1      -6.638 -13.461  19.191  1.00  0.00    -0.285 OA
ATOM      8  C   UNL     1      -6.943 -14.470  17.127  1.00  0.00     0.111 A 
ATOM      9  C   UNL     1      -7.336 -15.681  15.045  1.00  0.00     0.094 A 
ATOM     10  C   UNL     1      -6.534 -13.341  16.373  1.00  0.00     0.134 A 
ATOM     11  C   UNL     1      -6.941 -14.565  14.306  1.00  0.00     0.123 A 
ATOM     12  C   UNL     1      -6.539 -13.398  14.969  1.00  0.00     0.093 A 
BRANCH   3  13
ATOM     13  C   UNL     1      -8.124 -18.051  19.078  1.00  0.00     0.025 A 
ATOM     14  C   UNL     1      -9.470 -18.425  19.161  1.00  0.00     0.016 A 
ATOM     15  C   UNL     1      -9.824 -19.652  19.729  1.00  0.00     0.051 A 
ATOM     16  C   UNL     1      -8.839 -20.538  20.183  1.00  0.00     0.157 A 
ATOM     17  C   UNL     1      -7.130 -18.932  19.533  1.00  0.00     0.062 A 
ATOM     18  C   UNL     1      -7.472 -20.181  20.063  1.00  0.00     0.158 A 
BRANCH  16  19
ATOM     19  O   UNL     1      -9.255 -21.754  20.728  1.00  0.00    -0.504 OA
ATOM     20  H   UNL     1      -8.889 -22.141  21.583  1.00  0.00     0.293 HD
ENDBRANCH  16  19
BRANCH  18  21
ATOM     21  O   UNL     1      -6.437 -21.038  20.429  1.00  0.00    -0.504 OA
ATOM     22  H   UNL     1      -6.001 -21.037  21.340  1.00  0.00     0.293 HD
ENDBRANCH  18  21
ENDBRANCH   3  13
BRANCH  10  23
ATOM     23  O   UNL     1      -6.120 -12.165  17.002  1.00  0.00    -0.507 OA
ATOM     24  H   UNL     1      -5.139 -11.972  17.174  1.00  0.00     0.293 HD
ENDBRANCH  10  23
BRANCH  11  25
ATOM     25  O   UNL     1      -6.956 -14.624  12.913  1.00  0.00    -0.508 OA
ATOM     26  H   UNL     1      -7.452 -15.357  12.419  1.00  0.00     0.293 HD
ENDBRANCH  11  25
ENDBRANCH   1   2
BRANCH   1  27
ATOM     27  C   UNL     1      -8.810 -15.477  21.346  1.00  0.00     0.339 C 
ATOM     28  C   UNL     1      -8.398 -14.721  22.646  1.00  0.00     0.214 C 
ATOM     29  O   UNL     1      -9.703 -14.734  20.521  1.00  0.00    -0.332 OA
ATOM     30  C   UNL     1      -8.681 -13.215  22.511  1.00  0.00     0.180 C 
ATOM     31  C   UNL     1     -10.731 -14.144  21.296  1.00  0.00     0.179 C 
ATOM     32  C   UNL     1     -10.160 -12.965  22.131  1.00  0.00     0.177 C 
BRANCH  28  33
ATOM     33  O   UNL     1      -9.111 -15.246  23.740  1.00  0.00    -0.384 OA
ATOM     34  H   UNL     1      -9.599 -14.487  24.157  1.00  0.00     0.211 HD
ENDBRANCH  28  33
BRANCH  30  35
ATOM     35  O   UNL     1      -7.829 -12.684  21.525  1.00  0.00    -0.387 OA
ATOM     36  H   UNL     1      -7.455 -11.841  21.892  1.00  0.00     0.211 HD
ENDBRANCH  30  35
BRANCH  31  37
ATOM     37  C   UNL     1     -11.862 -13.676  20.371  1.00  0.00     0.191 C 
BRANCH  37  38
ATOM     38  O   UNL     1     -11.364 -12.717  19.474  1.00  0.00    -0.394 OA
ATOM     39  H   UNL     1     -10.893 -12.027  20.014  1.00  0.00     0.210 HD
ENDBRANCH  37  38
ENDBRANCH  31  37
BRANCH  32  40
ATOM     40  O   UNL     1     -10.920 -12.829  23.305  1.00  0.00    -0.387 OA
ATOM     41  H   UNL     1     -11.683 -13.463  23.247  1.00  0.00     0.211 HD
ENDBRANCH  32  40
ENDBRANCH   1  27
TORSDOF 12
ENDMDL
MODEL 9
REMARK VINA RESULT:    -6.699      7.080      9.352
REMARK INTER + INTRA:         -11.189
REMARK INTER:                  -9.723
REMARK INTRA:                  -1.466
REMARK UNBOUND:                -1.357
REMARK SMILES O=c1c(O[C@@H]2O[C@H](CO)[C@@H](O)[C@H](O)[C@H]2O)c(-c2ccc(O)c(O)c2)oc2cc(O)cc(O)c12
REMARK SMILES IDX 4 1 3 2 16 3 25 4 2 5 26 6 1 7 33 8 27 9 31 10 28 11 30 12
REMARK SMILES IDX 17 13 18 14 19 15 20 16 24 17 22 18 21 19 23 21 32 23 29 25
REMARK SMILES IDX 5 27 14 28 6 29 12 30 7 31 10 32 15 33 13 35 8 37 9 38 11 40
REMARK H PARENT 21 20 23 22 32 24 29 26 15 34 13 36 9 39 11 41
REMARK Flexibility Score: inf
ROOT
ATOM      1  O   UNL     1     -14.392 -18.846  17.183  1.00  0.00    -0.454 OA
ENDROOT
BRANCH   1   2
ATOM      2  C   UNL     1     -13.238 -18.097  17.486  1.00  0.00     0.214 A 
ATOM      3  C   UNL     1     -12.688 -18.250  18.770  1.00  0.00     0.180 A 
ATOM      4  O   UNL     1     -11.533 -17.676  19.087  1.00  0.00    -0.452 OA
ATOM      5  C   UNL     1     -12.571 -17.247  16.571  1.00  0.00     0.239 A 
ATOM      6  C   UNL     1     -10.856 -16.903  18.250  1.00  0.00     0.146 A 
ATOM      7  O   UNL     1     -13.050 -17.036  15.426  1.00  0.00    -0.285 OA
ATOM      8  C   UNL     1     -11.353 -16.638  16.952  1.00  0.00     0.111 A 
ATOM      9  C   UNL     1      -9.647 -16.344  18.673  1.00  0.00     0.094 A 
ATOM     10  C   UNL     1     -10.607 -15.791  16.093  1.00  0.00     0.134 A 
ATOM     11  C   UNL     1      -8.912 -15.517  17.822  1.00  0.00     0.123 A 
ATOM     12  C   UNL     1      -9.393 -15.240  16.536  1.00  0.00     0.093 A 
BRANCH   3  13
ATOM     13  C   UNL     1     -13.381 -19.043  19.803  1.00  0.00     0.025 A 
ATOM     14  C   UNL     1     -13.351 -20.442  19.752  1.00  0.00     0.016 A 
ATOM     15  C   UNL     1     -13.972 -21.195  20.753  1.00  0.00     0.051 A 
ATOM     16  C   UNL     1     -14.596 -20.563  21.835  1.00  0.00     0.157 A 
ATOM     17  C   UNL     1     -14.006 -18.402  20.884  1.00  0.00     0.062 A 
ATOM     18  C   UNL     1     -14.594 -19.147  21.913  1.00  0.00     0.158 A 
BRANCH  16  19
ATOM     19  O   UNL     1     -15.187 -21.370  22.810  1.00  0.00    -0.504 OA
ATOM     20  H   UNL     1     -15.380 -22.350  22.685  1.00  0.00     0.293 HD
ENDBRANCH  16  19
BRANCH  18  21
ATOM     21  O   UNL     1     -15.133 -18.453  22.993  1.00  0.00    -0.504 OA
ATOM     22  H   UNL     1     -16.065 -18.064  23.003  1.00  0.00     0.293 HD
ENDBRANCH  18  21
ENDBRANCH   3  13
BRANCH  10  23
ATOM     23  O   UNL     1     -11.061 -15.489  14.807  1.00  0.00    -0.507 OA
ATOM     24  H   UNL     1     -10.634 -15.902  13.984  1.00  0.00     0.293 HD
ENDBRANCH  10  23
BRANCH  11  25
ATOM     25  O   UNL     1      -7.704 -14.980  18.263  1.00  0.00    -0.508 OA
ATOM     26  H   UNL     1      -6.843 -15.117  17.746  1.00  0.00     0.293 HD
ENDBRANCH  11  25
ENDBRANCH   1   2
BRANCH   1  27
ATOM     27  C   UNL     1     -15.730 -18.610  17.609  1.00  0.00     0.339 C 
ATOM     28  C   UNL     1     -15.923 -17.067  17.731  1.00  0.00     0.214 C 
ATOM     29  O   UNL     1     -16.616 -19.216  16.672  1.00  0.00    -0.332 OA
ATOM     30  C   UNL     1     -16.685 -16.517  16.513  1.00  0.00     0.180 C 
ATOM     31  C   UNL     1     -17.935 -18.726  16.836  1.00  0.00     0.179 C 
ATOM     32  C   UNL     1     -18.027 -17.263  16.322  1.00  0.00     0.177 C 
BRANCH  28  33
ATOM     33  O   UNL     1     -16.632 -16.774  18.911  1.00  0.00    -0.384 OA
ATOM     34  H   UNL     1     -16.838 -17.644  19.347  1.00  0.00     0.211 HD
ENDBRANCH  28  33
BRANCH  30  35
ATOM     35  O   UNL     1     -15.878 -16.670  15.371  1.00  0.00    -0.387 OA
ATOM     36  H   UNL     1     -15.095 -16.073  15.491  1.00  0.00     0.211 HD
ENDBRANCH  30  35
BRANCH  31  37
ATOM     37  C   UNL     1     -18.915 -19.642  16.093  1.00  0.00     0.191 C 
BRANCH  37  38
ATOM     38  O   UNL     1     -19.631 -18.890  15.148  1.00  0.00    -0.394 OA
ATOM     39  H   UNL     1     -20.518 -18.682  15.549  1.00  0.00     0.210 HD
ENDBRANCH  37  38
ENDBRANCH  31  37
BRANCH  32  40
ATOM     40  O   UNL     1     -19.033 -16.592  17.040  1.00  0.00    -0.387 OA
ATOM     41  H   UNL     1     -19.045 -16.961  17.962  1.00  0.00     0.211 HD
ENDBRANCH  32  40
ENDBRANCH   1  27
TORSDOF 12
ENDMDL
