MODEL 1
REMARK VINA RESULT:    -3.683      0.000      0.000
REMARK INTER + INTRA:          -3.683
REMARK INTER:                  -3.683
REMARK INTRA:                   0.000
REMARK UNBOUND:                 0.000
REMARK SMILES CC1=CC(=O)[C@@H]2C[C@H]1C2(C)C
REMARK SMILES IDX 1 1 2 2 3 3 4 4 5 5 6 6 7 7 8 8 9 9 10 10 11 11
REMARK H PARENT
REMARK Flexibility Score: inf
ROOT
ATOM      1  C   UNL     1      63.485  15.488  -3.751  1.00  0.00     0.040 C 
ATOM      2  C   UNL     1      63.242  14.936  -2.383  1.00  0.00    -0.066 C 
ATOM      3  C   UNL     1      63.907  15.418  -1.295  1.00  0.00     0.047 C 
ATOM      4  C   UNL     1      63.552  14.802   0.024  1.00  0.00     0.159 C 
ATOM      5  O   UNL     1      64.068  15.188   1.106  1.00  0.00    -0.295 OA
ATOM      6  C   UNL     1      62.520  13.675  -0.035  1.00  0.00     0.067 C 
ATOM      7  C   UNL     1      62.989  12.795  -1.214  1.00  0.00     0.021 C 
ATOM      8  C   UNL     1      62.243  13.785  -2.136  1.00  0.00     0.022 C 
ATOM      9  C   UNL     1      61.332  14.139  -0.926  1.00  0.00    -0.019 C 
ATOM     10  C   UNL     1      60.108  13.196  -0.814  1.00  0.00     0.012 C 
ATOM     11  C   UNL     1      60.833  15.605  -0.786  1.00  0.00     0.012 C 
ENDROOT
TORSDOF 0
ENDMDL
MODEL 2
REMARK VINA RESULT:    -3.618      1.548      2.592
REMARK INTER + INTRA:          -3.618
REMARK INTER:                  -3.618
REMARK INTRA:                   0.000
REMARK UNBOUND:                 0.000
REMARK SMILES CC1=CC(=O)[C@@H]2C[C@H]1C2(C)C
REMARK SMILES IDX 1 1 2 2 3 3 4 4 5 5 6 6 7 7 8 8 9 9 10 10 11 11
REMARK H PARENT
REMARK Flexibility Score: inf
ROOT
ATOM      1  C   UNL     1      63.432  15.451  -3.660  1.00  0.00     0.040 C 
ATOM      2  C   UNL     1      62.979  14.931  -2.333  1.00  0.00    -0.066 C 
ATOM      3  C   UNL     1      63.223  13.645  -1.955  1.00  0.00     0.047 C 
ATOM      4  C   UNL     1      62.745  13.254  -0.589  1.00  0.00     0.159 C 
ATOM      5  O   UNL     1      62.945  12.108  -0.110  1.00  0.00    -0.295 OA
ATOM      6  C   UNL     1      62.000  14.345   0.181  1.00  0.00     0.067 C 
ATOM      7  C   UNL     1      61.021  14.938  -0.855  1.00  0.00     0.021 C 
ATOM      8  C   UNL     1      62.199  15.815  -1.336  1.00  0.00     0.022 C 
ATOM      9  C   UNL     1      62.817  15.665   0.083  1.00  0.00    -0.019 C 
ATOM     10  C   UNL     1      62.306  16.749   1.067  1.00  0.00     0.012 C 
ATOM     11  C   UNL     1      64.365  15.587   0.206  1.00  0.00     0.012 C 
ENDROOT
TORSDOF 0
ENDMDL
MODEL 3
REMARK VINA RESULT:    -3.287      1.535      2.278
REMARK INTER + INTRA:          -3.287
REMARK INTER:                  -3.287
REMARK INTRA:                   0.000
REMARK UNBOUND:                 0.000
REMARK SMILES CC1=CC(=O)[C@@H]2C[C@H]1C2(C)C
REMARK SMILES IDX 1 1 2 2 3 3 4 4 5 5 6 6 7 7 8 8 9 9 10 10 11 11
REMARK H PARENT
REMARK Flexibility Score: inf
ROOT
ATOM      1  C   UNL     1      63.508  15.468  -3.674  1.00  0.00     0.040 C 
ATOM      2  C   UNL     1      62.912  15.010  -2.381  1.00  0.00    -0.066 C 
ATOM      3  C   UNL     1      61.816  15.620  -1.850  1.00  0.00     0.047 C 
ATOM      4  C   UNL     1      61.296  15.048  -0.566  1.00  0.00     0.159 C 
ATOM      5  O   UNL     1      60.267  15.497   0.002  1.00  0.00    -0.295 OA
ATOM      6  C   UNL     1      62.101  13.880   0.004  1.00  0.00     0.067 C 
ATOM      7  C   UNL     1      63.571  14.340  -0.115  1.00  0.00     0.021 C 
ATOM      8  C   UNL     1      63.518  13.840  -1.577  1.00  0.00     0.022 C 
ATOM      9  C   UNL     1      62.384  12.867  -1.143  1.00  0.00    -0.019 C 
ATOM     10  C   UNL     1      62.933  11.517  -0.616  1.00  0.00     0.012 C 
ATOM     11  C   UNL     1      61.246  12.566  -2.159  1.00  0.00     0.012 C 
ENDROOT
TORSDOF 0
ENDMDL
MODEL 4
REMARK VINA RESULT:    -3.257      1.706      2.902
REMARK INTER + INTRA:          -3.257
REMARK INTER:                  -3.257
REMARK INTRA:                   0.000
REMARK UNBOUND:                 0.000
REMARK SMILES CC1=CC(=O)[C@@H]2C[C@H]1C2(C)C
REMARK SMILES IDX 1 1 2 2 3 3 4 4 5 5 6 6 7 7 8 8 9 9 10 10 11 11
REMARK H PARENT
REMARK Flexibility Score: inf
ROOT
ATOM      1  C   UNL     1      65.066  15.443   0.898  1.00  0.00     0.040 C 
ATOM      2  C   UNL     1      63.683  15.439   0.329  1.00  0.00    -0.066 C 
ATOM      3  C   UNL     1      62.987  16.596   0.147  1.00  0.00     0.047 C 
ATOM      4  C   UNL     1      61.623  16.461  -0.460  1.00  0.00     0.159 C 
ATOM      5  O   UNL     1      60.899  17.458  -0.714  1.00  0.00    -0.295 OA
ATOM      6  C   UNL     1      61.174  15.028  -0.749  1.00  0.00     0.067 C 
ATOM      7  C   UNL     1      61.547  14.249   0.532  1.00  0.00     0.021 C 
ATOM      8  C   UNL     1      62.969  14.127  -0.062  1.00  0.00     0.022 C 
ATOM      9  C   UNL     1      62.333  14.283  -1.473  1.00  0.00    -0.019 C 
ATOM     10  C   UNL     1      61.880  12.927  -2.069  1.00  0.00     0.012 C 
ATOM     11  C   UNL     1      63.137  15.049  -2.561  1.00  0.00     0.012 C 
ENDROOT
TORSDOF 0
ENDMDL
MODEL 5
REMARK VINA RESULT:    -3.240      2.062      3.647
REMARK INTER + INTRA:          -3.240
REMARK INTER:                  -3.240
REMARK INTRA:                   0.000
REMARK UNBOUND:                 0.000
REMARK SMILES CC1=CC(=O)[C@@H]2C[C@H]1C2(C)C
REMARK SMILES IDX 1 1 2 2 3 3 4 4 5 5 6 6 7 7 8 8 9 9 10 10 11 11
REMARK H PARENT
REMARK Flexibility Score: inf
ROOT
ATOM      1  C   UNL     1      61.117  17.672  -0.343  1.00  0.00     0.040 C 
ATOM      2  C   UNL     1      62.014  16.475  -0.354  1.00  0.00    -0.066 C 
ATOM      3  C   UNL     1      62.081  15.650  -1.436  1.00  0.00     0.047 C 
ATOM      4  C   UNL     1      63.039  14.502  -1.336  1.00  0.00     0.159 C 
ATOM      5  O   UNL     1      63.221  13.693  -2.282  1.00  0.00    -0.295 OA
ATOM      6  C   UNL     1      63.783  14.384  -0.005  1.00  0.00     0.067 C 
ATOM      7  C   UNL     1      62.684  14.588   1.062  1.00  0.00     0.021 C 
ATOM      8  C   UNL     1      62.892  16.106   0.861  1.00  0.00     0.022 C 
ATOM      9  C   UNL     1      64.336  15.787   0.379  1.00  0.00    -0.019 C 
ATOM     10  C   UNL     1      65.348  15.722   1.551  1.00  0.00     0.012 C 
ATOM     11  C   UNL     1      64.948  16.671  -0.744  1.00  0.00     0.012 C 
ENDROOT
TORSDOF 0
ENDMDL
MODEL 6
REMARK VINA RESULT:    -3.172      1.224      3.188
REMARK INTER + INTRA:          -3.172
REMARK INTER:                  -3.172
REMARK INTRA:                   0.000
REMARK UNBOUND:                 0.000
REMARK SMILES CC1=CC(=O)[C@@H]2C[C@H]1C2(C)C
REMARK SMILES IDX 1 1 2 2 3 3 4 4 5 5 6 6 7 7 8 8 9 9 10 10 11 11
REMARK H PARENT
REMARK Flexibility Score: inf
ROOT
ATOM      1  C   UNL     1      59.253  15.159  -0.018  1.00  0.00     0.040 C 
ATOM      2  C   UNL     1      60.740  14.999  -0.063  1.00  0.00    -0.066 C 
ATOM      3  C   UNL     1      61.400  14.244   0.859  1.00  0.00     0.047 C 
ATOM      4  C   UNL     1      62.885  14.137   0.688  1.00  0.00     0.159 C 
ATOM      5  O   UNL     1      63.601  13.438   1.451  1.00  0.00    -0.295 OA
ATOM      6  C   UNL     1      63.468  14.935  -0.478  1.00  0.00     0.067 C 
ATOM      7  C   UNL     1      62.785  16.317  -0.371  1.00  0.00     0.021 C 
ATOM      8  C   UNL     1      61.599  15.693  -1.141  1.00  0.00     0.022 C 
ATOM      9  C   UNL     1      62.602  14.668  -1.743  1.00  0.00    -0.019 C 
ATOM     10  C   UNL     1      63.273  15.191  -3.038  1.00  0.00     0.012 C 
ATOM     11  C   UNL     1      62.104  13.218  -2.004  1.00  0.00     0.012 C 
ENDROOT
TORSDOF 0
ENDMDL
MODEL 7
REMARK VINA RESULT:    -3.141      1.256      2.463
REMARK INTER + INTRA:          -3.141
REMARK INTER:                  -3.141
REMARK INTRA:                   0.000
REMARK UNBOUND:                 0.000
REMARK SMILES CC1=CC(=O)[C@@H]2C[C@H]1C2(C)C
REMARK SMILES IDX 1 1 2 2 3 3 4 4 5 5 6 6 7 7 8 8 9 9 10 10 11 11
REMARK H PARENT
REMARK Flexibility Score: inf
ROOT
ATOM      1  C   UNL     1      60.728  17.436  -0.134  1.00  0.00     0.040 C 
ATOM      2  C   UNL     1      61.839  16.493  -0.472  1.00  0.00    -0.066 C 
ATOM      3  C   UNL     1      63.056  16.584   0.134  1.00  0.00     0.047 C 
ATOM      4  C   UNL     1      64.075  15.561  -0.270  1.00  0.00     0.159 C 
ATOM      5  O   UNL     1      65.222  15.516   0.247  1.00  0.00    -0.295 OA
ATOM      6  C   UNL     1      63.624  14.578  -1.350  1.00  0.00     0.067 C 
ATOM      7  C   UNL     1      62.939  15.468  -2.410  1.00  0.00     0.021 C 
ATOM      8  C   UNL     1      61.669  15.385  -1.534  1.00  0.00     0.022 C 
ATOM      9  C   UNL     1      62.213  14.040  -0.972  1.00  0.00    -0.019 C 
ATOM     10  C   UNL     1      61.794  12.826  -1.838  1.00  0.00     0.012 C 
ATOM     11  C   UNL     1      61.929  13.698   0.518  1.00  0.00     0.012 C 
ENDROOT
TORSDOF 0
ENDMDL
MODEL 8
REMARK VINA RESULT:    -3.097      1.886      2.933
REMARK INTER + INTRA:          -3.097
REMARK INTER:                  -3.097
REMARK INTRA:                   0.000
REMARK UNBOUND:                 0.000
REMARK SMILES CC1=CC(=O)[C@@H]2C[C@H]1C2(C)C
REMARK SMILES IDX 1 1 2 2 3 3 4 4 5 5 6 6 7 7 8 8 9 9 10 10 11 11
REMARK H PARENT
REMARK Flexibility Score: inf
ROOT
ATOM      1  C   UNL     1      65.117  16.632  -0.789  1.00  0.00     0.040 C 
ATOM      2  C   UNL     1      63.844  15.850  -0.869  1.00  0.00    -0.066 C 
ATOM      3  C   UNL     1      63.756  14.715  -1.616  1.00  0.00     0.047 C 
ATOM      4  C   UNL     1      62.436  14.006  -1.590  1.00  0.00     0.159 C 
ATOM      5  O   UNL     1      62.241  12.926  -2.206  1.00  0.00    -0.295 OA
ATOM      6  C   UNL     1      61.345  14.683  -0.760  1.00  0.00     0.067 C 
ATOM      7  C   UNL     1      61.431  16.171  -1.165  1.00  0.00     0.021 C 
ATOM      8  C   UNL     1      62.568  16.298  -0.126  1.00  0.00     0.022 C 
ATOM      9  C   UNL     1      61.947  15.081   0.618  1.00  0.00    -0.019 C 
ATOM     10  C   UNL     1      60.858  15.505   1.637  1.00  0.00     0.012 C 
ATOM     11  C   UNL     1      62.908  14.081   1.321  1.00  0.00     0.012 C 
ENDROOT
TORSDOF 0
ENDMDL
MODEL 9
REMARK VINA RESULT:    -3.030      1.731      2.708
REMARK INTER + INTRA:          -3.030
REMARK INTER:                  -3.030
REMARK INTRA:                   0.000
REMARK UNBOUND:                 0.000
REMARK SMILES CC1=CC(=O)[C@@H]2C[C@H]1C2(C)C
REMARK SMILES IDX 1 1 2 2 3 3 4 4 5 5 6 6 7 7 8 8 9 9 10 10 11 11
REMARK H PARENT
REMARK Flexibility Score: inf
ROOT
ATOM      1  C   UNL     1      62.169  13.317  -1.880  1.00  0.00     0.040 C 
ATOM      2  C   UNL     1      62.829  14.365  -1.041  1.00  0.00    -0.066 C 
ATOM      3  C   UNL     1      63.815  15.158  -1.544  1.00  0.00     0.047 C 
ATOM      4  C   UNL     1      64.376  16.190  -0.613  1.00  0.00     0.159 C 
ATOM      5  O   UNL     1      65.262  17.009  -0.971  1.00  0.00    -0.295 OA
ATOM      6  C   UNL     1      63.794  16.181   0.802  1.00  0.00     0.067 C 
ATOM      7  C   UNL     1      63.783  14.687   1.196  1.00  0.00     0.021 C 
ATOM      8  C   UNL     1      62.440  14.587   0.437  1.00  0.00     0.022 C 
ATOM      9  C   UNL     1      62.243  16.107   0.698  1.00  0.00    -0.019 C 
ATOM     10  C   UNL     1      61.548  16.387   2.054  1.00  0.00     0.012 C 
ATOM     11  C   UNL     1      61.535  16.955  -0.396  1.00  0.00     0.012 C 
ENDROOT
TORSDOF 0
ENDMDL
