MODEL 1
REMARK VINA RESULT:    -4.605      0.000      0.000
REMARK INTER + INTRA:          -5.282
REMARK INTER:                  -5.144
REMARK INTRA:                  -0.138
REMARK UNBOUND:                -0.138
REMARK SMILES O=C([O-])C=Cc1ccccc1
REMARK SMILES IDX 4 1 5 2 2 3 1 4 3 5 6 6 7 7 11 8 8 9 10 10 9 11
REMARK H PARENT
REMARK Flexibility Score: inf
ROOT
ATOM      1  C   UNL     1      43.571   8.780 117.193  1.00  0.00     0.025 C 
ATOM      2  C   UNL     1      43.332   8.624 118.503  1.00  0.00     0.010 C 
ENDROOT
BRANCH   1   3
ATOM      3  C   UNL     1      44.073   7.677 116.358  1.00  0.00     0.064 C 
ATOM      4  O   UNL     1      43.329   7.176 115.475  1.00  0.00    -0.545 OA
ATOM      5  O   UNL     1      45.360   7.176 116.529  1.00  0.00    -0.545 OA
ENDBRANCH   1   3
BRANCH   2   6
ATOM      6  C   UNL     1      42.824   9.692 119.407  1.00  0.00    -0.026 A 
ATOM      7  C   UNL     1      41.832   9.473 120.387  1.00  0.00     0.008 A 
ATOM      8  C   UNL     1      43.365  10.984 119.275  1.00  0.00     0.008 A 
ATOM      9  C   UNL     1      41.400  10.523 121.205  1.00  0.00     0.001 A 
ATOM     10  C   UNL     1      42.930  12.029 120.096  1.00  0.00     0.001 A 
ATOM     11  C   UNL     1      41.948  11.798 121.060  1.00  0.00     0.000 A 
ENDBRANCH   2   6
TORSDOF 2
ENDMDL
MODEL 2
REMARK VINA RESULT:    -4.597      5.847      9.382
REMARK INTER + INTRA:          -5.273
REMARK INTER:                  -5.141
REMARK INTRA:                  -0.132
REMARK UNBOUND:                -0.138
REMARK SMILES O=C([O-])C=Cc1ccccc1
REMARK SMILES IDX 4 1 5 2 2 3 1 4 3 5 6 6 7 7 11 8 8 9 10 10 9 11
REMARK H PARENT
REMARK Flexibility Score: inf
ROOT
ATOM      1  C   UNL     1      45.996   7.336 113.544  1.00  0.00     0.025 C 
ATOM      2  C   UNL     1      47.049   7.549 112.741  1.00  0.00     0.010 C 
ENDROOT
BRANCH   1   3
ATOM      3  C   UNL     1      45.166   8.441 114.048  1.00  0.00     0.064 C 
ATOM      4  O   UNL     1      44.137   8.787 113.410  1.00  0.00    -0.545 OA
ATOM      5  O   UNL     1      45.499   9.113 115.220  1.00  0.00    -0.545 OA
ENDBRANCH   1   3
BRANCH   2   6
ATOM      6  C   UNL     1      47.931   6.483 112.194  1.00  0.00    -0.026 A 
ATOM      7  C   UNL     1      47.862   5.133 112.602  1.00  0.00     0.008 A 
ATOM      8  C   UNL     1      48.882   6.844 111.221  1.00  0.00     0.008 A 
ATOM      9  C   UNL     1      48.723   4.180 112.047  1.00  0.00     0.001 A 
ATOM     10  C   UNL     1      49.739   5.886 110.670  1.00  0.00     0.001 A 
ATOM     11  C   UNL     1      49.659   4.556 111.083  1.00  0.00     0.000 A 
ENDBRANCH   2   6
TORSDOF 2
ENDMDL
MODEL 3
REMARK VINA RESULT:    -4.579      0.131      1.463
REMARK INTER + INTRA:          -5.252
REMARK INTER:                  -5.122
REMARK INTRA:                  -0.130
REMARK UNBOUND:                -0.138
REMARK SMILES O=C([O-])C=Cc1ccccc1
REMARK SMILES IDX 4 1 5 2 2 3 1 4 3 5 6 6 7 7 11 8 8 9 10 10 9 11
REMARK H PARENT
REMARK Flexibility Score: inf
ROOT
ATOM      1  C   UNL     1      43.713   8.858 117.218  1.00  0.00     0.025 C 
ATOM      2  C   UNL     1      43.301   8.722 118.488  1.00  0.00     0.010 C 
ENDROOT
BRANCH   1   3
ATOM      3  C   UNL     1      44.130   7.701 116.410  1.00  0.00     0.064 C 
ATOM      4  O   UNL     1      43.330   7.204 115.575  1.00  0.00    -0.545 OA
ATOM      5  O   UNL     1      45.398   7.146 116.552  1.00  0.00    -0.545 OA
ENDBRANCH   1   3
BRANCH   2   6
ATOM      6  C   UNL     1      42.866   9.844 119.364  1.00  0.00    -0.026 A 
ATOM      7  C   UNL     1      43.331  11.169 119.219  1.00  0.00     0.008 A 
ATOM      8  C   UNL     1      41.942   9.563 120.388  1.00  0.00     0.008 A 
ATOM      9  C   UNL     1      42.879  12.176 120.078  1.00  0.00     0.001 A 
ATOM     10  C   UNL     1      41.494  10.575 121.243  1.00  0.00     0.001 A 
ATOM     11  C   UNL     1      41.963  11.880 121.088  1.00  0.00     0.000 A 
ENDBRANCH   2   6
TORSDOF 2
ENDMDL
MODEL 4
REMARK VINA RESULT:    -4.531      5.710      9.440
REMARK INTER + INTRA:          -5.199
REMARK INTER:                  -5.052
REMARK INTRA:                  -0.147
REMARK UNBOUND:                -0.138
REMARK SMILES O=C([O-])C=Cc1ccccc1
REMARK SMILES IDX 4 1 5 2 2 3 1 4 3 5 6 6 7 7 11 8 8 9 10 10 9 11
REMARK H PARENT
REMARK Flexibility Score: inf
ROOT
ATOM      1  C   UNL     1      45.800   6.842 113.611  1.00  0.00     0.025 C 
ATOM      2  C   UNL     1      46.836   7.293 112.889  1.00  0.00     0.010 C 
ENDROOT
BRANCH   1   3
ATOM      3  C   UNL     1      44.831   7.757 114.237  1.00  0.00     0.064 C 
ATOM      4  O   UNL     1      44.518   8.826 113.651  1.00  0.00    -0.545 OA
ATOM      5  O   UNL     1      44.255   7.460 115.467  1.00  0.00    -0.545 OA
ENDBRANCH   1   3
BRANCH   2   6
ATOM      6  C   UNL     1      47.852   6.429 112.229  1.00  0.00    -0.026 A 
ATOM      7  C   UNL     1      48.799   6.915 111.302  1.00  0.00     0.008 A 
ATOM      8  C   UNL     1      47.865   5.059 112.550  1.00  0.00     0.008 A 
ATOM      9  C   UNL     1      49.728   6.046 110.718  1.00  0.00     0.001 A 
ATOM     10  C   UNL     1      48.796   4.197 111.963  1.00  0.00     0.001 A 
ATOM     11  C   UNL     1      49.727   4.690 111.048  1.00  0.00     0.000 A 
ENDBRANCH   2   6
TORSDOF 2
ENDMDL
MODEL 5
REMARK VINA RESULT:    -4.460      4.547      6.035
REMARK INTER + INTRA:          -5.119
REMARK INTER:                  -4.988
REMARK INTRA:                  -0.131
REMARK UNBOUND:                -0.138
REMARK SMILES O=C([O-])C=Cc1ccccc1
REMARK SMILES IDX 4 1 5 2 2 3 1 4 3 5 6 6 7 7 11 8 8 9 10 10 9 11
REMARK H PARENT
REMARK Flexibility Score: inf
ROOT
ATOM      1  C   UNL     1      47.131   7.635 112.709  1.00  0.00     0.025 C 
ATOM      2  C   UNL     1      46.072   7.349 113.481  1.00  0.00     0.010 C 
ENDROOT
BRANCH   1   3
ATOM      3  C   UNL     1      47.928   6.582 112.061  1.00  0.00     0.064 C 
ATOM      4  O   UNL     1      47.838   5.394 112.468  1.00  0.00    -0.545 OA
ATOM      5  O   UNL     1      48.780   6.876 111.002  1.00  0.00    -0.545 OA
ENDBRANCH   1   3
BRANCH   2   6
ATOM      6  C   UNL     1      45.223   8.360 114.168  1.00  0.00    -0.026 A 
ATOM      7  C   UNL     1      44.060   8.916 113.592  1.00  0.00     0.008 A 
ATOM      8  C   UNL     1      45.602   8.779 115.456  1.00  0.00     0.008 A 
ATOM      9  C   UNL     1      43.306   9.863 114.294  1.00  0.00     0.001 A 
ATOM     10  C   UNL     1      44.844   9.726 116.152  1.00  0.00     0.001 A 
ATOM     11  C   UNL     1      43.697  10.267 115.571  1.00  0.00     0.000 A 
ENDBRANCH   2   6
TORSDOF 2
ENDMDL
MODEL 6
REMARK VINA RESULT:    -4.456      7.842     11.122
REMARK INTER + INTRA:          -5.115
REMARK INTER:                  -4.973
REMARK INTRA:                  -0.142
REMARK UNBOUND:                -0.138
REMARK SMILES O=C([O-])C=Cc1ccccc1
REMARK SMILES IDX 4 1 5 2 2 3 1 4 3 5 6 6 7 7 11 8 8 9 10 10 9 11
REMARK H PARENT
REMARK Flexibility Score: inf
ROOT
ATOM      1  C   UNL     1      43.326   2.982 112.798  1.00  0.00     0.025 C 
ATOM      2  C   UNL     1      42.594   1.971 113.288  1.00  0.00     0.010 C 
ENDROOT
BRANCH   1   3
ATOM      3  C   UNL     1      43.138   4.369 113.254  1.00  0.00     0.064 C 
ATOM      4  O   UNL     1      41.980   4.862 113.286  1.00  0.00    -0.545 OA
ATOM      5  O   UNL     1      44.221   5.147 113.650  1.00  0.00    -0.545 OA
ENDBRANCH   1   3
BRANCH   2   6
ATOM      6  C   UNL     1      42.728   0.547 112.875  1.00  0.00    -0.026 A 
ATOM      7  C   UNL     1      41.653  -0.368 112.882  1.00  0.00     0.008 A 
ATOM      8  C   UNL     1      43.994   0.095 112.458  1.00  0.00     0.008 A 
ATOM      9  C   UNL     1      41.849  -1.694 112.480  1.00  0.00     0.001 A 
ATOM     10  C   UNL     1      44.182  -1.232 112.058  1.00  0.00     0.001 A 
ATOM     11  C   UNL     1      43.111  -2.125 112.070  1.00  0.00     0.000 A 
ENDBRANCH   2   6
TORSDOF 2
ENDMDL
MODEL 7
REMARK VINA RESULT:    -4.453      4.539      6.036
REMARK INTER + INTRA:          -5.112
REMARK INTER:                  -4.981
REMARK INTRA:                  -0.131
REMARK UNBOUND:                -0.138
REMARK SMILES O=C([O-])C=Cc1ccccc1
REMARK SMILES IDX 4 1 5 2 2 3 1 4 3 5 6 6 7 7 11 8 8 9 10 10 9 11
REMARK H PARENT
REMARK Flexibility Score: inf
ROOT
ATOM      1  C   UNL     1      47.122   7.647 112.726  1.00  0.00     0.025 C 
ATOM      2  C   UNL     1      46.071   7.363 113.509  1.00  0.00     0.010 C 
ENDROOT
BRANCH   1   3
ATOM      3  C   UNL     1      47.900   6.593 112.056  1.00  0.00     0.064 C 
ATOM      4  O   UNL     1      47.810   5.403 112.458  1.00  0.00    -0.545 OA
ATOM      5  O   UNL     1      48.735   6.889 110.984  1.00  0.00    -0.545 OA
ENDBRANCH   1   3
BRANCH   2   6
ATOM      6  C   UNL     1      45.239   8.374 114.216  1.00  0.00    -0.026 A 
ATOM      7  C   UNL     1      45.541   8.863 115.506  1.00  0.00     0.008 A 
ATOM      8  C   UNL     1      44.094   8.864 113.562  1.00  0.00     0.008 A 
ATOM      9  C   UNL     1      44.716   9.815 116.114  1.00  0.00     0.001 A 
ATOM     10  C   UNL     1      43.273   9.816 114.175  1.00  0.00     0.001 A 
ATOM     11  C   UNL     1      43.584  10.291 115.450  1.00  0.00     0.000 A 
ENDBRANCH   2   6
TORSDOF 2
ENDMDL
MODEL 8
REMARK VINA RESULT:    -4.345      7.979      9.302
REMARK INTER + INTRA:          -4.991
REMARK INTER:                  -4.854
REMARK INTRA:                  -0.137
REMARK UNBOUND:                -0.138
REMARK SMILES O=C([O-])C=Cc1ccccc1
REMARK SMILES IDX 4 1 5 2 2 3 1 4 3 5 6 6 7 7 11 8 8 9 10 10 9 11
REMARK H PARENT
REMARK Flexibility Score: inf
ROOT
ATOM      1  C   UNL     1      40.968  16.146 114.033  1.00  0.00     0.025 C 
ATOM      2  C   UNL     1      41.596  14.967 114.148  1.00  0.00     0.010 C 
ENDROOT
BRANCH   1   3
ATOM      3  C   UNL     1      40.601  16.949 115.210  1.00  0.00     0.064 C 
ATOM      4  O   UNL     1      39.403  16.972 115.598  1.00  0.00    -0.545 OA
ATOM      5  O   UNL     1      41.556  17.685 115.904  1.00  0.00    -0.545 OA
ENDBRANCH   1   3
BRANCH   2   6
ATOM      6  C   UNL     1      41.997  14.102 113.004  1.00  0.00    -0.026 A 
ATOM      7  C   UNL     1      41.782  12.707 112.973  1.00  0.00     0.008 A 
ATOM      8  C   UNL     1      42.622  14.712 111.901  1.00  0.00     0.008 A 
ATOM      9  C   UNL     1      42.184  11.954 111.865  1.00  0.00     0.001 A 
ATOM     10  C   UNL     1      43.022  13.953 110.797  1.00  0.00     0.001 A 
ATOM     11  C   UNL     1      42.803  12.575 110.779  1.00  0.00     0.000 A 
ENDBRANCH   2   6
TORSDOF 2
ENDMDL
