MODEL 1
REMARK VINA RESULT:    -3.887      0.000      0.000
REMARK INTER + INTRA:          -4.450
REMARK INTER:                  -4.228
REMARK INTRA:                  -0.223
REMARK UNBOUND:                -0.223
REMARK SMILES O=C([O-])c1ccccc1O
REMARK SMILES IDX 4 1 9 2 5 3 8 4 6 5 7 6 2 7 1 8 3 9 10 10
REMARK H PARENT 10 11
REMARK Flexibility Score: inf
ROOT
ATOM      1  C   UNL     1      29.044  11.053  28.711  1.00  0.00     0.039 A 
ATOM      2  C   UNL     1      29.710   9.843  29.019  1.00  0.00     0.124 A 
ATOM      3  C   UNL     1      28.159  11.080  27.614  1.00  0.00     0.014 A 
ATOM      4  C   UNL     1      29.484   8.701  28.234  1.00  0.00     0.047 A 
ATOM      5  C   UNL     1      27.943   9.936  26.843  1.00  0.00     0.001 A 
ATOM      6  C   UNL     1      28.604   8.749  27.152  1.00  0.00     0.004 A 
ENDROOT
BRANCH   1   7
ATOM      7  C   UNL     1      29.254  12.285  29.514  1.00  0.00     0.075 C 
ATOM      8  O   UNL     1      28.353  13.164  29.576  1.00  0.00    -0.545 OA
ATOM      9  O   UNL     1      30.438  12.496  30.210  1.00  0.00    -0.545 OA
ENDBRANCH   1   7
BRANCH   2  10
ATOM     10  O   UNL     1      30.594   9.767  30.094  1.00  0.00    -0.507 OA
ATOM     11  H   UNL     1      30.655  10.503  30.788  1.00  0.00     0.293 HD
ENDBRANCH   2  10
TORSDOF 2
ENDMDL
MODEL 2
REMARK VINA RESULT:    -3.860     14.605     16.053
REMARK INTER + INTRA:          -4.421
REMARK INTER:                  -4.203
REMARK INTRA:                  -0.218
REMARK UNBOUND:                -0.223
REMARK SMILES O=C([O-])c1ccccc1O
REMARK SMILES IDX 4 1 9 2 5 3 8 4 6 5 7 6 2 7 1 8 3 9 10 10
REMARK H PARENT 10 11
REMARK Flexibility Score: inf
ROOT
ATOM      1  C   UNL     1      18.105  16.389  18.748  1.00  0.00     0.039 A 
ATOM      2  C   UNL     1      17.510  16.562  20.020  1.00  0.00     0.124 A 
ATOM      3  C   UNL     1      19.217  15.530  18.630  1.00  0.00     0.014 A 
ATOM      4  C   UNL     1      18.030  15.884  21.134  1.00  0.00     0.047 A 
ATOM      5  C   UNL     1      19.724  14.862  19.747  1.00  0.00     0.001 A 
ATOM      6  C   UNL     1      19.131  15.038  20.997  1.00  0.00     0.004 A 
ENDROOT
BRANCH   1   7
ATOM      7  C   UNL     1      17.588  17.086  17.543  1.00  0.00     0.075 C 
ATOM      8  O   UNL     1      17.663  18.341  17.453  1.00  0.00    -0.545 OA
ATOM      9  O   UNL     1      17.013  16.378  16.494  1.00  0.00    -0.545 OA
ENDBRANCH   1   7
BRANCH   2  10
ATOM     10  O   UNL     1      16.408  17.401  20.186  1.00  0.00    -0.507 OA
ATOM     11  H   UNL     1      16.237  18.185  19.568  1.00  0.00     0.293 HD
ENDBRANCH   2  10
TORSDOF 2
ENDMDL
MODEL 3
REMARK VINA RESULT:    -3.715     15.481     16.758
REMARK INTER + INTRA:          -4.263
REMARK INTER:                  -4.063
REMARK INTRA:                  -0.200
REMARK UNBOUND:                -0.223
REMARK SMILES O=C([O-])c1ccccc1O
REMARK SMILES IDX 4 1 9 2 5 3 8 4 6 5 7 6 2 7 1 8 3 9 10 10
REMARK H PARENT 10 11
REMARK Flexibility Score: inf
ROOT
ATOM      1  C   UNL     1      18.237  15.985  17.634  1.00  0.00     0.039 A 
ATOM      2  C   UNL     1      17.439  15.452  16.594  1.00  0.00     0.124 A 
ATOM      3  C   UNL     1      19.470  15.368  17.926  1.00  0.00     0.014 A 
ATOM      4  C   UNL     1      17.881  14.328  15.878  1.00  0.00     0.047 A 
ATOM      5  C   UNL     1      19.898  14.251  17.205  1.00  0.00     0.001 A 
ATOM      6  C   UNL     1      19.105  13.732  16.183  1.00  0.00     0.004 A 
ENDROOT
BRANCH   1   7
ATOM      7  C   UNL     1      17.808  17.172  18.417  1.00  0.00     0.075 C 
ATOM      8  O   UNL     1      17.774  18.311  17.879  1.00  0.00    -0.545 OA
ATOM      9  O   UNL     1      17.436  17.056  19.751  1.00  0.00    -0.545 OA
ENDBRANCH   1   7
BRANCH   2  10
ATOM     10  O   UNL     1      16.211  16.028  16.268  1.00  0.00    -0.507 OA
ATOM     11  H   UNL     1      15.738  16.666  16.897  1.00  0.00     0.293 HD
ENDBRANCH   2  10
TORSDOF 2
ENDMDL
MODEL 4
REMARK VINA RESULT:    -3.604     15.042     16.573
REMARK INTER + INTRA:          -4.143
REMARK INTER:                  -3.895
REMARK INTRA:                  -0.248
REMARK UNBOUND:                -0.223
REMARK SMILES O=C([O-])c1ccccc1O
REMARK SMILES IDX 4 1 9 2 5 3 8 4 6 5 7 6 2 7 1 8 3 9 10 10
REMARK H PARENT 10 11
REMARK Flexibility Score: inf
ROOT
ATOM      1  C   UNL     1      18.571  14.660  16.508  1.00  0.00     0.039 A 
ATOM      2  C   UNL     1      19.157  15.352  17.595  1.00  0.00     0.124 A 
ATOM      3  C   UNL     1      19.018  13.355  16.214  1.00  0.00     0.014 A 
ATOM      4  C   UNL     1      20.163  14.736  18.356  1.00  0.00     0.047 A 
ATOM      5  C   UNL     1      20.020  12.755  16.980  1.00  0.00     0.001 A 
ATOM      6  C   UNL     1      20.591  13.444  18.049  1.00  0.00     0.004 A 
ENDROOT
BRANCH   1   7
ATOM      7  C   UNL     1      17.504  15.273  15.676  1.00  0.00     0.075 C 
ATOM      8  O   UNL     1      16.458  15.724  16.215  1.00  0.00    -0.545 OA
ATOM      9  O   UNL     1      17.632  15.364  14.295  1.00  0.00    -0.545 OA
ENDBRANCH   1   7
BRANCH   2  10
ATOM     10  O   UNL     1      18.748  16.644  17.924  1.00  0.00    -0.507 OA
ATOM     11  H   UNL     1      17.949  16.814  18.523  1.00  0.00     0.293 HD
ENDBRANCH   2  10
TORSDOF 2
ENDMDL
MODEL 5
REMARK VINA RESULT:    -3.570     14.772     16.311
REMARK INTER + INTRA:          -4.105
REMARK INTER:                  -3.850
REMARK INTRA:                  -0.255
REMARK UNBOUND:                -0.223
REMARK SMILES O=C([O-])c1ccccc1O
REMARK SMILES IDX 4 1 9 2 5 3 8 4 6 5 7 6 2 7 1 8 3 9 10 10
REMARK H PARENT 10 11
REMARK Flexibility Score: inf
ROOT
ATOM      1  C   UNL     1      18.734  15.623  17.942  1.00  0.00     0.039 A 
ATOM      2  C   UNL     1      17.594  16.399  17.621  1.00  0.00     0.124 A 
ATOM      3  C   UNL     1      19.215  14.699  16.992  1.00  0.00     0.014 A 
ATOM      4  C   UNL     1      16.966  16.237  16.376  1.00  0.00     0.047 A 
ATOM      5  C   UNL     1      18.580  14.549  15.757  1.00  0.00     0.001 A 
ATOM      6  C   UNL     1      17.458  15.317  15.450  1.00  0.00     0.004 A 
ENDROOT
BRANCH   1   7
ATOM      7  C   UNL     1      19.430  15.762  19.247  1.00  0.00     0.075 C 
ATOM      8  O   UNL     1      19.740  14.738  19.914  1.00  0.00    -0.545 OA
ATOM      9  O   UNL     1      19.753  17.012  19.760  1.00  0.00    -0.545 OA
ENDBRANCH   1   7
BRANCH   2  10
ATOM     10  O   UNL     1      17.082  17.325  18.528  1.00  0.00    -0.507 OA
ATOM     11  H   UNL     1      17.128  18.323  18.355  1.00  0.00     0.293 HD
ENDBRANCH   2  10
TORSDOF 2
ENDMDL
MODEL 6
REMARK VINA RESULT:    -3.554     15.098     16.463
REMARK INTER + INTRA:          -4.088
REMARK INTER:                  -3.845
REMARK INTRA:                  -0.242
REMARK UNBOUND:                -0.223
REMARK SMILES O=C([O-])c1ccccc1O
REMARK SMILES IDX 4 1 9 2 5 3 8 4 6 5 7 6 2 7 1 8 3 9 10 10
REMARK H PARENT 10 11
REMARK Flexibility Score: inf
ROOT
ATOM      1  C   UNL     1      19.029  14.416  16.686  1.00  0.00     0.039 A 
ATOM      2  C   UNL     1      19.269  15.558  17.488  1.00  0.00     0.124 A 
ATOM      3  C   UNL     1      17.929  14.426  15.804  1.00  0.00     0.014 A 
ATOM      4  C   UNL     1      18.418  16.670  17.395  1.00  0.00     0.047 A 
ATOM      5  C   UNL     1      17.091  15.540  15.722  1.00  0.00     0.001 A 
ATOM      6  C   UNL     1      17.335  16.660  16.516  1.00  0.00     0.004 A 
ENDROOT
BRANCH   1   7
ATOM      7  C   UNL     1      19.904  13.218  16.752  1.00  0.00     0.075 C 
ATOM      8  O   UNL     1      21.137  13.316  16.510  1.00  0.00    -0.545 OA
ATOM      9  O   UNL     1      19.389  11.969  17.081  1.00  0.00    -0.545 OA
ENDBRANCH   1   7
BRANCH   2  10
ATOM     10  O   UNL     1      20.345  15.594  18.375  1.00  0.00    -0.507 OA
ATOM     11  H   UNL     1      20.278  16.053  19.276  1.00  0.00     0.293 HD
ENDBRANCH   2  10
TORSDOF 2
ENDMDL
MODEL 7
REMARK VINA RESULT:    -3.539      1.031      2.596
REMARK INTER + INTRA:          -4.072
REMARK INTER:                  -3.862
REMARK INTRA:                  -0.210
REMARK UNBOUND:                -0.223
REMARK SMILES O=C([O-])c1ccccc1O
REMARK SMILES IDX 4 1 9 2 5 3 8 4 6 5 7 6 2 7 1 8 3 9 10 10
REMARK H PARENT 10 11
REMARK Flexibility Score: inf
ROOT
ATOM      1  C   UNL     1      29.614  10.962  29.322  1.00  0.00     0.039 A 
ATOM      2  C   UNL     1      28.954  12.031  28.669  1.00  0.00     0.124 A 
ATOM      3  C   UNL     1      29.532   9.671  28.761  1.00  0.00     0.014 A 
ATOM      4  C   UNL     1      28.235  11.793  27.487  1.00  0.00     0.047 A 
ATOM      5  C   UNL     1      28.813   9.449  27.584  1.00  0.00     0.001 A 
ATOM      6  C   UNL     1      28.166  10.508  26.949  1.00  0.00     0.004 A 
ENDROOT
BRANCH   1   7
ATOM      7  C   UNL     1      30.385  11.169  30.574  1.00  0.00     0.075 C 
ATOM      8  O   UNL     1      31.283  10.352  30.910  1.00  0.00    -0.545 OA
ATOM      9  O   UNL     1      30.138  12.261  31.399  1.00  0.00    -0.545 OA
ENDBRANCH   1   7
BRANCH   2  10
ATOM     10  O   UNL     1      29.007  13.325  29.186  1.00  0.00    -0.507 OA
ATOM     11  H   UNL     1      28.354  14.043  28.894  1.00  0.00     0.293 HD
ENDBRANCH   2  10
TORSDOF 2
ENDMDL
MODEL 8
REMARK VINA RESULT:    -3.525      1.442      2.194
REMARK INTER + INTRA:          -4.056
REMARK INTER:                  -3.817
REMARK INTRA:                  -0.239
REMARK UNBOUND:                -0.223
REMARK SMILES O=C([O-])c1ccccc1O
REMARK SMILES IDX 4 1 9 2 5 3 8 4 6 5 7 6 2 7 1 8 3 9 10 10
REMARK H PARENT 10 11
REMARK Flexibility Score: inf
ROOT
ATOM      1  C   UNL     1      29.704  10.284  28.612  1.00  0.00     0.039 A 
ATOM      2  C   UNL     1      29.564  10.728  27.275  1.00  0.00     0.124 A 
ATOM      3  C   UNL     1      29.459   8.926  28.905  1.00  0.00     0.014 A 
ATOM      4  C   UNL     1      29.186   9.820  26.272  1.00  0.00     0.047 A 
ATOM      5  C   UNL     1      29.085   8.035  27.897  1.00  0.00     0.001 A 
ATOM      6  C   UNL     1      28.949   8.481  26.583  1.00  0.00     0.004 A 
ENDROOT
BRANCH   1   7
ATOM      7  C   UNL     1      30.101  11.209  29.704  1.00  0.00     0.075 C 
ATOM      8  O   UNL     1      29.661  12.390  29.729  1.00  0.00    -0.545 OA
ATOM      9  O   UNL     1      30.960  10.798  30.717  1.00  0.00    -0.545 OA
ENDBRANCH   1   7
BRANCH   2  10
ATOM     10  O   UNL     1      29.795  12.061  26.937  1.00  0.00    -0.507 OA
ATOM     11  H   UNL     1      29.442  12.824  27.502  1.00  0.00     0.293 HD
ENDBRANCH   2  10
TORSDOF 2
ENDMDL
MODEL 9
REMARK VINA RESULT:    -3.477     15.327     16.602
REMARK INTER + INTRA:          -4.004
REMARK INTER:                  -3.782
REMARK INTRA:                  -0.222
REMARK UNBOUND:                -0.223
REMARK SMILES O=C([O-])c1ccccc1O
REMARK SMILES IDX 4 1 9 2 5 3 8 4 6 5 7 6 2 7 1 8 3 9 10 10
REMARK H PARENT 10 11
REMARK Flexibility Score: inf
ROOT
ATOM      1  C   UNL     1      18.055  16.366  17.402  1.00  0.00     0.039 A 
ATOM      2  C   UNL     1      19.126  15.510  17.751  1.00  0.00     0.124 A 
ATOM      3  C   UNL     1      17.250  16.030  16.295  1.00  0.00     0.014 A 
ATOM      4  C   UNL     1      19.369  14.351  16.997  1.00  0.00     0.047 A 
ATOM      5  C   UNL     1      17.503  14.873  15.554  1.00  0.00     0.001 A 
ATOM      6  C   UNL     1      18.561  14.035  15.905  1.00  0.00     0.004 A 
ENDROOT
BRANCH   1   7
ATOM      7  C   UNL     1      17.762  17.603  18.172  1.00  0.00     0.075 C 
ATOM      8  O   UNL     1      17.820  18.730  17.612  1.00  0.00    -0.545 OA
ATOM      9  O   UNL     1      17.418  17.547  19.518  1.00  0.00    -0.545 OA
ENDBRANCH   1   7
BRANCH   2  10
ATOM     10  O   UNL     1      19.950  15.801  18.837  1.00  0.00    -0.507 OA
ATOM     11  H   UNL     1      20.400  15.071  19.377  1.00  0.00     0.293 HD
ENDBRANCH   2  10
TORSDOF 2
ENDMDL
