MODEL 1
REMARK VINA RESULT:    -3.530      0.000      0.000
REMARK INTER + INTRA:          -8.926
REMARK INTER:                  -6.419
REMARK INTRA:                  -2.507
REMARK UNBOUND:                -2.507
REMARK SMILES CCCCCCCCCCCCCCCC(=O)[O-]
REMARK SMILES IDX 9 1 10 2 11 3 12 4 13 5 14 6 15 7 16 8 17 9 18 10 8 11 7 12
REMARK SMILES IDX 6 13 5 14 4 15 3 16 2 17 1 18
REMARK H PARENT
REMARK Flexibility Score: inf
ROOT
ATOM      1  C   UNL     1     136.649 132.179 149.697  1.00  0.00     0.000 C 
ENDROOT
BRANCH   1   2
ATOM      2  C   UNL     1     137.545 131.110 149.060  1.00  0.00     0.000 C 
BRANCH   2   3
ATOM      3  C   UNL     1     137.607 131.282 147.534  1.00  0.00     0.000 C 
BRANCH   3   4
ATOM      4  C   UNL     1     138.891 131.989 147.065  1.00  0.00     0.000 C 
BRANCH   4   5
ATOM      5  C   UNL     1     138.723 133.479 146.703  1.00  0.00     0.000 C 
BRANCH   5   6
ATOM      6  C   UNL     1     137.271 133.932 146.462  1.00  0.00     0.006 C 
BRANCH   6   7
ATOM      7  C   UNL     1     137.099 134.705 145.150  1.00  0.00     0.053 C 
BRANCH   7   8
ATOM      8  C   UNL     1     136.950 133.758 144.001  1.00  0.00     0.041 C 
ATOM      9  O   UNL     1     137.486 134.018 142.893  1.00  0.00    -0.550 OA
ATOM     10  O   UNL     1     136.263 132.563 144.171  1.00  0.00    -0.550 OA
ENDBRANCH   7   8
ENDBRANCH   6   7
ENDBRANCH   5   6
ENDBRANCH   4   5
ENDBRANCH   3   4
ENDBRANCH   2   3
ENDBRANCH   1   2
BRANCH   1  11
ATOM     11  C   UNL     1     137.488 133.340 150.251  1.00  0.00     0.000 C 
BRANCH  11  12
ATOM     12  C   UNL     1     138.422 132.913 151.398  1.00  0.00    -0.000 C 
BRANCH  12  13
ATOM     13  C   UNL     1     139.770 133.655 151.446  1.00  0.00    -0.000 C 
BRANCH  13  14
ATOM     14  C   UNL     1     140.159 134.274 150.092  1.00  0.00    -0.000 C 
BRANCH  14  15
ATOM     15  C   UNL     1     141.349 133.557 149.433  1.00  0.00    -0.000 C 
BRANCH  15  16
ATOM     16  C   UNL     1     141.828 132.341 150.246  1.00  0.00    -0.000 C 
BRANCH  16  17
ATOM     17  C   UNL     1     141.419 131.006 149.605  1.00  0.00    -0.003 C 
ATOM     18  C   UNL     1     140.765 130.047 150.598  1.00  0.00     0.004 C 
ENDBRANCH  16  17
ENDBRANCH  15  16
ENDBRANCH  14  15
ENDBRANCH  13  14
ENDBRANCH  12  13
ENDBRANCH  11  12
ENDBRANCH   1  11
TORSDOF 14
ENDMDL
MODEL 2
REMARK VINA RESULT:    -3.476      1.271      2.356
REMARK INTER + INTRA:          -8.827
REMARK INTER:                  -6.215
REMARK INTRA:                  -2.612
REMARK UNBOUND:                -2.507
REMARK SMILES CCCCCCCCCCCCCCCC(=O)[O-]
REMARK SMILES IDX 9 1 10 2 11 3 12 4 13 5 14 6 15 7 16 8 17 9 18 10 8 11 7 12
REMARK SMILES IDX 6 13 5 14 4 15 3 16 2 17 1 18
REMARK H PARENT
REMARK Flexibility Score: inf
ROOT
ATOM      1  C   UNL     1     136.785 131.075 149.096  1.00  0.00     0.000 C 
ENDROOT
BRANCH   1   2
ATOM      2  C   UNL     1     137.960 130.136 149.393  1.00  0.00     0.000 C 
BRANCH   2   3
ATOM      3  C   UNL     1     139.197 130.523 148.568  1.00  0.00     0.000 C 
BRANCH   3   4
ATOM      4  C   UNL     1     138.837 131.194 147.231  1.00  0.00     0.000 C 
BRANCH   4   5
ATOM      5  C   UNL     1     139.735 132.382 146.833  1.00  0.00     0.000 C 
BRANCH   5   6
ATOM      6  C   UNL     1     139.004 133.727 146.667  1.00  0.00     0.006 C 
BRANCH   6   7
ATOM      7  C   UNL     1     137.504 133.559 146.397  1.00  0.00     0.053 C 
BRANCH   7   8
ATOM      8  C   UNL     1     137.124 134.243 145.121  1.00  0.00     0.041 C 
ATOM      9  O   UNL     1     136.475 133.622 144.240  1.00  0.00    -0.550 OA
ATOM     10  O   UNL     1     137.441 135.581 144.929  1.00  0.00    -0.550 OA
ENDBRANCH   7   8
ENDBRANCH   6   7
ENDBRANCH   5   6
ENDBRANCH   4   5
ENDBRANCH   3   4
ENDBRANCH   2   3
ENDBRANCH   1   2
BRANCH   1  11
ATOM     11  C   UNL     1     136.570 132.068 150.248  1.00  0.00     0.000 C 
BRANCH  11  12
ATOM     12  C   UNL     1     137.437 133.334 150.119  1.00  0.00    -0.000 C 
BRANCH  12  13
ATOM     13  C   UNL     1     138.676 133.366 151.031  1.00  0.00    -0.000 C 
BRANCH  13  14
ATOM     14  C   UNL     1     139.886 134.052 150.370  1.00  0.00    -0.000 C 
BRANCH  14  15
ATOM     15  C   UNL     1     141.114 133.131 150.283  1.00  0.00    -0.000 C 
BRANCH  15  16
ATOM     16  C   UNL     1     142.216 133.702 149.374  1.00  0.00    -0.000 C 
BRANCH  16  17
ATOM     17  C   UNL     1     141.800 135.019 148.702  1.00  0.00    -0.003 C 
ATOM     18  C   UNL     1     142.516 135.260 147.373  1.00  0.00     0.004 C 
ENDBRANCH  16  17
ENDBRANCH  15  16
ENDBRANCH  14  15
ENDBRANCH  13  14
ENDBRANCH  12  13
ENDBRANCH  11  12
ENDBRANCH   1  11
TORSDOF 14
ENDMDL
MODEL 3
REMARK VINA RESULT:    -3.449      1.138      2.201
REMARK INTER + INTRA:          -8.778
REMARK INTER:                  -6.364
REMARK INTRA:                  -2.414
REMARK UNBOUND:                -2.507
REMARK SMILES CCCCCCCCCCCCCCCC(=O)[O-]
REMARK SMILES IDX 9 1 10 2 11 3 12 4 13 5 14 6 15 7 16 8 17 9 18 10 8 11 7 12
REMARK SMILES IDX 6 13 5 14 4 15 3 16 2 17 1 18
REMARK H PARENT
REMARK Flexibility Score: inf
ROOT
ATOM      1  C   UNL     1     137.226 130.602 147.973  1.00  0.00     0.000 C 
ENDROOT
BRANCH   1   2
ATOM      2  C   UNL     1     138.655 130.217 147.573  1.00  0.00     0.000 C 
BRANCH   2   3
ATOM      3  C   UNL     1     139.606 131.416 147.705  1.00  0.00     0.000 C 
BRANCH   3   4
ATOM      4  C   UNL     1     139.594 132.328 146.465  1.00  0.00     0.000 C 
BRANCH   4   5
ATOM      5  C   UNL     1     138.935 133.706 146.673  1.00  0.00     0.000 C 
BRANCH   5   6
ATOM      6  C   UNL     1     137.432 133.766 146.346  1.00  0.00     0.006 C 
BRANCH   6   7
ATOM      7  C   UNL     1     137.127 134.602 145.097  1.00  0.00     0.053 C 
BRANCH   7   8
ATOM      8  C   UNL     1     137.174 133.745 143.871  1.00  0.00     0.041 C 
ATOM      9  O   UNL     1     136.180 133.042 143.552  1.00  0.00    -0.550 OA
ATOM     10  O   UNL     1     138.297 133.763 143.054  1.00  0.00    -0.550 OA
ENDBRANCH   7   8
ENDBRANCH   6   7
ENDBRANCH   5   6
ENDBRANCH   4   5
ENDBRANCH   3   4
ENDBRANCH   2   3
ENDBRANCH   1   2
BRANCH   1  11
ATOM     11  C   UNL     1     137.148 130.951 149.466  1.00  0.00     0.000 C 
BRANCH  11  12
ATOM     12  C   UNL     1     136.620 132.374 149.723  1.00  0.00    -0.000 C 
BRANCH  12  13
ATOM     13  C   UNL     1     137.672 133.373 150.238  1.00  0.00    -0.000 C 
BRANCH  13  14
ATOM     14  C   UNL     1     138.619 132.756 151.283  1.00  0.00    -0.000 C 
BRANCH  14  15
ATOM     15  C   UNL     1     140.038 133.342 151.215  1.00  0.00    -0.000 C 
BRANCH  15  16
ATOM     16  C   UNL     1     140.151 134.500 150.209  1.00  0.00    -0.000 C 
BRANCH  16  17
ATOM     17  C   UNL     1     141.422 134.413 149.350  1.00  0.00    -0.003 C 
ATOM     18  C   UNL     1     142.287 133.200 149.692  1.00  0.00     0.004 C 
ENDBRANCH  16  17
ENDBRANCH  15  16
ENDBRANCH  14  15
ENDBRANCH  13  14
ENDBRANCH  12  13
ENDBRANCH  11  12
ENDBRANCH   1  11
TORSDOF 14
ENDMDL
MODEL 4
REMARK VINA RESULT:    -3.440      1.304      2.625
REMARK INTER + INTRA:          -8.763
REMARK INTER:                  -6.446
REMARK INTRA:                  -2.317
REMARK UNBOUND:                -2.507
REMARK SMILES CCCCCCCCCCCCCCCC(=O)[O-]
REMARK SMILES IDX 9 1 10 2 11 3 12 4 13 5 14 6 15 7 16 8 17 9 18 10 8 11 7 12
REMARK SMILES IDX 6 13 5 14 4 15 3 16 2 17 1 18
REMARK H PARENT
REMARK Flexibility Score: inf
ROOT
ATOM      1  C   UNL     1     138.790 133.434 150.366  1.00  0.00     0.000 C 
ENDROOT
BRANCH   1   2
ATOM      2  C   UNL     1     137.332 133.048 150.637  1.00  0.00     0.000 C 
BRANCH   2   3
ATOM      3  C   UNL     1     136.732 132.290 149.443  1.00  0.00     0.000 C 
BRANCH   3   4
ATOM      4  C   UNL     1     137.800 131.611 148.568  1.00  0.00     0.000 C 
BRANCH   4   5
ATOM      5  C   UNL     1     137.841 132.084 147.101  1.00  0.00     0.000 C 
BRANCH   5   6
ATOM      6  C   UNL     1     137.585 133.588 146.892  1.00  0.00     0.006 C 
BRANCH   6   7
ATOM      7  C   UNL     1     138.129 134.105 145.555  1.00  0.00     0.053 C 
BRANCH   7   8
ATOM      8  C   UNL     1     137.006 134.538 144.666  1.00  0.00     0.041 C 
ATOM      9  O   UNL     1     136.570 135.717 144.726  1.00  0.00    -0.550 OA
ATOM     10  O   UNL     1     136.476 133.654 143.736  1.00  0.00    -0.550 OA
ENDBRANCH   7   8
ENDBRANCH   6   7
ENDBRANCH   5   6
ENDBRANCH   4   5
ENDBRANCH   3   4
ENDBRANCH   2   3
ENDBRANCH   1   2
BRANCH   1  11
ATOM     11  C   UNL     1     139.614 133.420 151.663  1.00  0.00     0.000 C 
BRANCH  11  12
ATOM     12  C   UNL     1     140.934 132.640 151.527  1.00  0.00    -0.000 C 
BRANCH  12  13
ATOM     13  C   UNL     1     140.827 131.314 150.751  1.00  0.00    -0.000 C 
BRANCH  13  14
ATOM     14  C   UNL     1     141.874 131.193 149.629  1.00  0.00    -0.000 C 
BRANCH  14  15
ATOM     15  C   UNL     1     141.361 131.723 148.281  1.00  0.00    -0.000 C 
BRANCH  15  16
ATOM     16  C   UNL     1     142.123 132.973 147.809  1.00  0.00    -0.000 C 
BRANCH  16  17
ATOM     17  C   UNL     1     141.228 134.221 147.751  1.00  0.00    -0.003 C 
ATOM     18  C   UNL     1     141.507 135.205 148.886  1.00  0.00     0.004 C 
ENDBRANCH  16  17
ENDBRANCH  15  16
ENDBRANCH  14  15
ENDBRANCH  13  14
ENDBRANCH  12  13
ENDBRANCH  11  12
ENDBRANCH   1  11
TORSDOF 14
ENDMDL
MODEL 5
REMARK VINA RESULT:    -3.388      2.637      5.775
REMARK INTER + INTRA:          -8.668
REMARK INTER:                  -6.613
REMARK INTRA:                  -2.054
REMARK UNBOUND:                -2.507
REMARK SMILES CCCCCCCCCCCCCCCC(=O)[O-]
REMARK SMILES IDX 9 1 10 2 11 3 12 4 13 5 14 6 15 7 16 8 17 9 18 10 8 11 7 12
REMARK SMILES IDX 6 13 5 14 4 15 3 16 2 17 1 18
REMARK H PARENT
REMARK Flexibility Score: inf
ROOT
ATOM      1  C   UNL     1     137.638 131.147 148.835  1.00  0.00     0.000 C 
ENDROOT
BRANCH   1   2
ATOM      2  C   UNL     1     136.688 132.110 149.557  1.00  0.00     0.000 C 
BRANCH   2   3
ATOM      3  C   UNL     1     137.463 133.274 150.194  1.00  0.00     0.000 C 
BRANCH   3   4
ATOM      4  C   UNL     1     138.400 132.819 151.327  1.00  0.00     0.000 C 
BRANCH   4   5
ATOM      5  C   UNL     1     139.718 133.610 151.443  1.00  0.00     0.000 C 
BRANCH   5   6
ATOM      6  C   UNL     1     140.617 133.567 150.194  1.00  0.00     0.006 C 
BRANCH   6   7
ATOM      7  C   UNL     1     140.857 134.953 149.585  1.00  0.00     0.053 C 
BRANCH   7   8
ATOM      8  C   UNL     1     142.033 134.921 148.660  1.00  0.00     0.041 C 
ATOM      9  O   UNL     1     143.110 134.382 149.023  1.00  0.00    -0.550 OA
ATOM     10  O   UNL     1     141.920 135.440 147.376  1.00  0.00    -0.550 OA
ENDBRANCH   7   8
ENDBRANCH   6   7
ENDBRANCH   5   6
ENDBRANCH   4   5
ENDBRANCH   3   4
ENDBRANCH   2   3
ENDBRANCH   1   2
BRANCH   1  11
ATOM     11  C   UNL     1     137.777 131.522 147.352  1.00  0.00     0.000 C 
BRANCH  11  12
ATOM     12  C   UNL     1     139.054 132.329 147.054  1.00  0.00    -0.000 C 
BRANCH  12  13
ATOM     13  C   UNL     1     138.811 133.752 146.517  1.00  0.00    -0.000 C 
BRANCH  13  14
ATOM     14  C   UNL     1     137.318 134.059 146.298  1.00  0.00    -0.000 C 
BRANCH  14  15
ATOM     15  C   UNL     1     137.033 134.652 144.909  1.00  0.00    -0.000 C 
BRANCH  15  16
ATOM     16  C   UNL     1     136.648 133.577 143.877  1.00  0.00    -0.000 C 
BRANCH  16  17
ATOM     17  C   UNL     1     137.795 133.254 142.908  1.00  0.00    -0.003 C 
ATOM     18  C   UNL     1     138.520 131.955 143.257  1.00  0.00     0.004 C 
ENDBRANCH  16  17
ENDBRANCH  15  16
ENDBRANCH  14  15
ENDBRANCH  13  14
ENDBRANCH  12  13
ENDBRANCH  11  12
ENDBRANCH   1  11
TORSDOF 14
ENDMDL
MODEL 6
REMARK VINA RESULT:    -3.369      1.492      3.143
REMARK INTER + INTRA:          -8.634
REMARK INTER:                  -6.539
REMARK INTRA:                  -2.095
REMARK UNBOUND:                -2.507
REMARK SMILES CCCCCCCCCCCCCCCC(=O)[O-]
REMARK SMILES IDX 9 1 10 2 11 3 12 4 13 5 14 6 15 7 16 8 17 9 18 10 8 11 7 12
REMARK SMILES IDX 6 13 5 14 4 15 3 16 2 17 1 18
REMARK H PARENT
REMARK Flexibility Score: inf
ROOT
ATOM      1  C   UNL     1     137.688 130.991 146.635  1.00  0.00     0.000 C 
ENDROOT
BRANCH   1   2
ATOM      2  C   UNL     1     138.913 131.792 147.092  1.00  0.00     0.000 C 
BRANCH   2   3
ATOM      3  C   UNL     1     138.811 133.257 146.641  1.00  0.00     0.000 C 
BRANCH   3   4
ATOM      4  C   UNL     1     137.358 133.754 146.544  1.00  0.00     0.000 C 
BRANCH   4   5
ATOM      5  C   UNL     1     137.085 134.762 145.409  1.00  0.00     0.000 C 
BRANCH   5   6
ATOM      6  C   UNL     1     137.177 134.183 143.986  1.00  0.00     0.006 C 
BRANCH   6   7
ATOM      7  C   UNL     1     136.343 132.909 143.807  1.00  0.00     0.053 C 
BRANCH   7   8
ATOM      8  C   UNL     1     136.774 132.171 142.579  1.00  0.00     0.041 C 
ATOM      9  O   UNL     1     137.996 131.957 142.364  1.00  0.00    -0.550 OA
ATOM     10  O   UNL     1     135.823 131.673 141.697  1.00  0.00    -0.550 OA
ENDBRANCH   7   8
ENDBRANCH   6   7
ENDBRANCH   5   6
ENDBRANCH   4   5
ENDBRANCH   3   4
ENDBRANCH   2   3
ENDBRANCH   1   2
BRANCH   1  11
ATOM     11  C   UNL     1     137.020 130.282 147.823  1.00  0.00     0.000 C 
BRANCH  11  12
ATOM     12  C   UNL     1     137.887 130.296 149.095  1.00  0.00    -0.000 C 
BRANCH  12  13
ATOM     13  C   UNL     1     137.200 130.886 150.341  1.00  0.00    -0.000 C 
BRANCH  13  14
ATOM     14  C   UNL     1     136.640 132.300 150.100  1.00  0.00    -0.000 C 
BRANCH  14  15
ATOM     15  C   UNL     1     137.716 133.391 150.221  1.00  0.00    -0.000 C 
BRANCH  15  16
ATOM     16  C   UNL     1     138.681 133.140 151.393  1.00  0.00    -0.000 C 
BRANCH  16  17
ATOM     17  C   UNL     1     140.153 133.310 150.989  1.00  0.00    -0.003 C 
ATOM     18  C   UNL     1     140.356 134.383 149.920  1.00  0.00     0.004 C 
ENDBRANCH  16  17
ENDBRANCH  15  16
ENDBRANCH  14  15
ENDBRANCH  13  14
ENDBRANCH  12  13
ENDBRANCH  11  12
ENDBRANCH   1  11
TORSDOF 14
ENDMDL
MODEL 7
REMARK VINA RESULT:    -3.349      4.002      5.821
REMARK INTER + INTRA:          -8.596
REMARK INTER:                  -6.387
REMARK INTRA:                  -2.209
REMARK UNBOUND:                -2.507
REMARK SMILES CCCCCCCCCCCCCCCC(=O)[O-]
REMARK SMILES IDX 9 1 10 2 11 3 12 4 13 5 14 6 15 7 16 8 17 9 18 10 8 11 7 12
REMARK SMILES IDX 6 13 5 14 4 15 3 16 2 17 1 18
REMARK H PARENT
REMARK Flexibility Score: inf
ROOT
ATOM      1  C   UNL     1     138.938 133.741 146.391  1.00  0.00     0.000 C 
ENDROOT
BRANCH   1   2
ATOM      2  C   UNL     1     139.991 132.659 146.654  1.00  0.00     0.000 C 
BRANCH   2   3
ATOM      3  C   UNL     1     141.342 133.286 147.033  1.00  0.00     0.000 C 
BRANCH   3   4
ATOM      4  C   UNL     1     141.228 134.776 147.399  1.00  0.00     0.000 C 
BRANCH   4   5
ATOM      5  C   UNL     1     142.219 135.263 148.475  1.00  0.00     0.000 C 
BRANCH   5   6
ATOM      6  C   UNL     1     143.695 134.919 148.206  1.00  0.00     0.006 C 
BRANCH   6   7
ATOM      7  C   UNL     1     144.632 135.409 149.316  1.00  0.00     0.053 C 
BRANCH   7   8
ATOM      8  C   UNL     1     144.929 136.865 149.144  1.00  0.00     0.041 C 
ATOM      9  O   UNL     1     145.453 137.283 148.079  1.00  0.00    -0.550 OA
ATOM     10  O   UNL     1     144.579 137.768 150.140  1.00  0.00    -0.550 OA
ENDBRANCH   7   8
ENDBRANCH   6   7
ENDBRANCH   5   6
ENDBRANCH   4   5
ENDBRANCH   3   4
ENDBRANCH   2   3
ENDBRANCH   1   2
BRANCH   1  11
ATOM     11  C   UNL     1     137.610 133.396 147.082  1.00  0.00     0.000 C 
BRANCH  11  12
ATOM     12  C   UNL     1     137.641 132.032 147.795  1.00  0.00    -0.000 C 
BRANCH  12  13
ATOM     13  C   UNL     1     137.035 132.026 149.210  1.00  0.00    -0.000 C 
BRANCH  13  14
ATOM     14  C   UNL     1     137.315 133.327 149.984  1.00  0.00    -0.000 C 
BRANCH  14  15
ATOM     15  C   UNL     1     138.378 133.147 151.080  1.00  0.00    -0.000 C 
BRANCH  15  16
ATOM     16  C   UNL     1     139.719 133.808 150.715  1.00  0.00    -0.000 C 
BRANCH  16  17
ATOM     17  C   UNL     1     140.906 132.841 150.846  1.00  0.00    -0.003 C 
ATOM     18  C   UNL     1     140.638 131.482 150.201  1.00  0.00     0.004 C 
ENDBRANCH  16  17
ENDBRANCH  15  16
ENDBRANCH  14  15
ENDBRANCH  13  14
ENDBRANCH  12  13
ENDBRANCH  11  12
ENDBRANCH   1  11
TORSDOF 14
ENDMDL
MODEL 8
REMARK VINA RESULT:    -3.330      1.254      3.321
REMARK INTER + INTRA:          -8.562
REMARK INTER:                  -6.249
REMARK INTRA:                  -2.313
REMARK UNBOUND:                -2.507
REMARK SMILES CCCCCCCCCCCCCCCC(=O)[O-]
REMARK SMILES IDX 9 1 10 2 11 3 12 4 13 5 14 6 15 7 16 8 17 9 18 10 8 11 7 12
REMARK SMILES IDX 6 13 5 14 4 15 3 16 2 17 1 18
REMARK H PARENT
REMARK Flexibility Score: inf
ROOT
ATOM      1  C   UNL     1     138.668 133.000 151.437  1.00  0.00     0.000 C 
ENDROOT
BRANCH   1   2
ATOM      2  C   UNL     1     140.048 133.559 151.071  1.00  0.00     0.000 C 
BRANCH   2   3
ATOM      3  C   UNL     1     140.036 134.178 149.665  1.00  0.00     0.000 C 
BRANCH   3   4
ATOM      4  C   UNL     1     140.876 133.380 148.653  1.00  0.00     0.000 C 
BRANCH   4   5
ATOM      5  C   UNL     1     140.065 132.605 147.596  1.00  0.00     0.000 C 
BRANCH   5   6
ATOM      6  C   UNL     1     139.486 133.465 146.458  1.00  0.00     0.006 C 
BRANCH   6   7
ATOM      7  C   UNL     1     137.968 133.647 146.562  1.00  0.00     0.053 C 
BRANCH   7   8
ATOM      8  C   UNL     1     137.422 134.221 145.292  1.00  0.00     0.041 C 
ATOM      9  O   UNL     1     136.577 133.577 144.618  1.00  0.00    -0.550 OA
ATOM     10  O   UNL     1     137.808 135.490 144.881  1.00  0.00    -0.550 OA
ENDBRANCH   7   8
ENDBRANCH   6   7
ENDBRANCH   5   6
ENDBRANCH   4   5
ENDBRANCH   3   4
ENDBRANCH   2   3
ENDBRANCH   1   2
BRANCH   1  11
ATOM     11  C   UNL     1     137.633 133.334 150.352  1.00  0.00     0.000 C 
BRANCH  11  12
ATOM     12  C   UNL     1     136.592 132.218 150.151  1.00  0.00    -0.000 C 
BRANCH  12  13
ATOM     13  C   UNL     1     136.888 131.257 148.985  1.00  0.00    -0.000 C 
BRANCH  13  14
ATOM     14  C   UNL     1     136.918 129.781 149.422  1.00  0.00    -0.000 C 
BRANCH  14  15
ATOM     15  C   UNL     1     137.309 129.608 150.898  1.00  0.00    -0.000 C 
BRANCH  15  16
ATOM     16  C   UNL     1     138.719 129.017 151.070  1.00  0.00    -0.000 C 
BRANCH  16  17
ATOM     17  C   UNL     1     139.730 129.606 150.074  1.00  0.00    -0.003 C 
ATOM     18  C   UNL     1     141.040 130.027 150.737  1.00  0.00     0.004 C 
ENDBRANCH  16  17
ENDBRANCH  15  16
ENDBRANCH  14  15
ENDBRANCH  13  14
ENDBRANCH  12  13
ENDBRANCH  11  12
ENDBRANCH   1  11
TORSDOF 14
ENDMDL
MODEL 9
REMARK VINA RESULT:    -3.264      3.068      5.129
REMARK INTER + INTRA:          -8.443
REMARK INTER:                  -5.720
REMARK INTRA:                  -2.722
REMARK UNBOUND:                -2.507
REMARK SMILES CCCCCCCCCCCCCCCC(=O)[O-]
REMARK SMILES IDX 9 1 10 2 11 3 12 4 13 5 14 6 15 7 16 8 17 9 18 10 8 11 7 12
REMARK SMILES IDX 6 13 5 14 4 15 3 16 2 17 1 18
REMARK H PARENT
REMARK Flexibility Score: inf
ROOT
ATOM      1  C   UNL     1     136.520 132.341 149.839  1.00  0.00     0.000 C 
ENDROOT
BRANCH   1   2
ATOM      2  C   UNL     1     137.581 133.390 150.189  1.00  0.00     0.000 C 
BRANCH   2   3
ATOM      3  C   UNL     1     138.633 132.811 151.146  1.00  0.00     0.000 C 
BRANCH   3   4
ATOM      4  C   UNL     1     140.005 133.497 151.013  1.00  0.00     0.000 C 
BRANCH   4   5
ATOM      5  C   UNL     1     140.100 134.559 149.899  1.00  0.00     0.000 C 
BRANCH   5   6
ATOM      6  C   UNL     1     141.530 134.996 149.534  1.00  0.00     0.006 C 
BRANCH   6   7
ATOM      7  C   UNL     1     141.920 134.616 148.101  1.00  0.00     0.053 C 
BRANCH   7   8
ATOM      8  C   UNL     1     143.177 133.803 148.100  1.00  0.00     0.041 C 
ATOM      9  O   UNL     1     144.199 134.218 147.494  1.00  0.00    -0.550 OA
ATOM     10  O   UNL     1     143.234 132.612 148.812  1.00  0.00    -0.550 OA
ENDBRANCH   7   8
ENDBRANCH   6   7
ENDBRANCH   5   6
ENDBRANCH   4   5
ENDBRANCH   3   4
ENDBRANCH   2   3
ENDBRANCH   1   2
BRANCH   1  11
ATOM     11  C   UNL     1     136.965 130.939 150.282  1.00  0.00     0.000 C 
BRANCH  11  12
ATOM     12  C   UNL     1     136.791 129.877 149.181  1.00  0.00    -0.000 C 
BRANCH  12  13
ATOM     13  C   UNL     1     137.803 129.972 148.024  1.00  0.00    -0.000 C 
BRANCH  13  14
ATOM     14  C   UNL     1     139.244 130.207 148.511  1.00  0.00    -0.000 C 
BRANCH  14  15
ATOM     15  C   UNL     1     139.897 131.435 147.856  1.00  0.00    -0.000 C 
BRANCH  15  16
ATOM     16  C   UNL     1     139.132 131.916 146.611  1.00  0.00    -0.000 C 
BRANCH  16  17
ATOM     17  C   UNL     1     138.834 133.423 146.648  1.00  0.00    -0.003 C 
ATOM     18  C   UNL     1     137.356 133.741 146.423  1.00  0.00     0.004 C 
ENDBRANCH  16  17
ENDBRANCH  15  16
ENDBRANCH  14  15
ENDBRANCH  13  14
ENDBRANCH  12  13
ENDBRANCH  11  12
ENDBRANCH   1  11
TORSDOF 14
ENDMDL
