MODEL 1
REMARK VINA RESULT:    -6.431      0.000      0.000
REMARK INTER + INTRA:         -10.373
REMARK INTER:                  -8.687
REMARK INTRA:                  -1.687
REMARK UNBOUND:                -1.687
REMARK SMILES CC[C@@H](CC[C@H](C)[C@@H]1CC[C@H]2[C@H]3CC(=O)C4=CC(=O)CC[C@@]4(C)[C@@H]3CC[C@]21C)C(C)C
REMARK SMILES IDX 4 1 3 2 2 3 1 4 29 5 30 6 31 7 5 8 6 9 7 10 8 11 9 12 27 13
REMARK SMILES IDX 10 14 11 15 26 16 28 17 12 18 25 19 24 20 13 21 22 22 14 23
REMARK SMILES IDX 16 24 21 25 23 26 15 27 17 28 20 29 18 30 19 31
REMARK H PARENT
REMARK Flexibility Score: inf
ROOT
ATOM      1  C   UNL     1     134.133 180.315 184.882  1.00  0.00     0.004 C 
ENDROOT
BRANCH   1   2
ATOM      2  C   UNL     1     133.546 181.320 183.846  1.00  0.00    -0.009 C 
BRANCH   2   3
ATOM      3  C   UNL     1     134.626 182.140 183.088  1.00  0.00     0.000 C 
ATOM      4  C   UNL     1     134.582 181.950 181.570  1.00  0.00     0.004 C 
ENDBRANCH   2   3
BRANCH   2   5
ATOM      5  C   UNL     1     132.373 182.224 184.356  1.00  0.00    -0.014 C 
ATOM      6  C   UNL     1     132.729 183.707 184.572  1.00  0.00     0.007 C 
ATOM      7  C   UNL     1     131.684 181.653 185.603  1.00  0.00     0.007 C 
ENDBRANCH   2   5
ENDBRANCH   1   2
BRANCH   1   8
ATOM      8  C   UNL     1     135.303 180.837 185.744  1.00  0.00     0.004 C 
BRANCH   8   9
ATOM      9  C   UNL     1     135.235 180.378 187.230  1.00  0.00    -0.011 C 
ATOM     10  C   UNL     1     134.100 179.345 187.393  1.00  0.00     0.008 C 
BRANCH   9  11
ATOM     11  C   UNL     1     135.025 181.597 188.206  1.00  0.00    -0.002 C 
ATOM     12  C   UNL     1     134.673 182.901 187.481  1.00  0.00     0.005 C 
ATOM     13  C   UNL     1     136.207 181.994 189.176  1.00  0.00    -0.026 C 
ATOM     14  C   UNL     1     134.922 184.000 188.487  1.00  0.00     0.005 C 
ATOM     15  C   UNL     1     136.186 183.560 189.224  1.00  0.00    -0.001 C 
ATOM     16  C   UNL     1     136.000 181.383 190.601  1.00  0.00     0.007 C 
ATOM     17  C   UNL     1     137.600 181.558 188.649  1.00  0.00     0.012 C 
ATOM     18  C   UNL     1     136.349 184.144 190.655  1.00  0.00     0.004 C 
ATOM     19  C   UNL     1     134.947 182.125 191.439  1.00  0.00     0.005 C 
ATOM     20  C   UNL     1     135.262 183.638 191.646  1.00  0.00     0.003 C 
ATOM     21  C   UNL     1     136.401 185.676 190.649  1.00  0.00     0.085 C 
ATOM     22  C   UNL     1     135.576 184.056 193.136  1.00  0.00    -0.000 C 
ATOM     23  C   UNL     1     136.601 186.204 192.036  1.00  0.00     0.159 C 
ATOM     24  C   UNL     1     135.935 185.552 193.195  1.00  0.00     0.005 C 
ATOM     25  C   UNL     1     134.305 183.812 194.016  1.00  0.00     0.020 C 
ATOM     26  C   UNL     1     136.774 183.252 193.710  1.00  0.00     0.017 C 
ATOM     27  O   UNL     1     137.281 187.253 192.197  1.00  0.00    -0.295 OA
ATOM     28  C   UNL     1     135.719 186.274 194.311  1.00  0.00     0.055 C 
ATOM     29  C   UNL     1     134.458 184.328 195.453  1.00  0.00     0.081 C 
ATOM     30  C   UNL     1     135.011 185.719 195.476  1.00  0.00     0.156 C 
ATOM     31  O   UNL     1     134.887 186.419 196.516  1.00  0.00    -0.295 OA
ENDBRANCH   9  11
ENDBRANCH   8   9
ENDBRANCH   1   8
TORSDOF 6
ENDMDL
MODEL 2
REMARK VINA RESULT:    -6.347      1.308      2.052
REMARK INTER + INTRA:         -10.260
REMARK INTER:                  -8.719
REMARK INTRA:                  -1.541
REMARK UNBOUND:                -1.687
REMARK SMILES CC[C@@H](CC[C@H](C)[C@@H]1CC[C@H]2[C@H]3CC(=O)C4=CC(=O)CC[C@@]4(C)[C@@H]3CC[C@]21C)C(C)C
REMARK SMILES IDX 4 1 3 2 2 3 1 4 29 5 30 6 31 7 5 8 6 9 7 10 8 11 9 12 27 13
REMARK SMILES IDX 10 14 11 15 26 16 28 17 12 18 25 19 24 20 13 21 22 22 14 23
REMARK SMILES IDX 16 24 21 25 23 26 15 27 17 28 20 29 18 30 19 31
REMARK H PARENT
REMARK Flexibility Score: inf
ROOT
ATOM      1  C   UNL     1     133.549 181.831 185.206  1.00  0.00     0.004 C 
ENDROOT
BRANCH   1   2
ATOM      2  C   UNL     1     132.835 183.215 185.134  1.00  0.00    -0.009 C 
BRANCH   2   3
ATOM      3  C   UNL     1     131.439 183.235 185.816  1.00  0.00     0.000 C 
ATOM      4  C   UNL     1     131.497 183.540 187.314  1.00  0.00     0.004 C 
ENDBRANCH   2   3
BRANCH   2   5
ATOM      5  C   UNL     1     132.811 183.903 183.727  1.00  0.00    -0.014 C 
ATOM      6  C   UNL     1     131.409 184.181 183.153  1.00  0.00     0.007 C 
ATOM      7  C   UNL     1     133.675 183.166 182.693  1.00  0.00     0.007 C 
ENDBRANCH   2   5
ENDBRANCH   1   2
BRANCH   1   8
ATOM      8  C   UNL     1     134.882 181.798 185.984  1.00  0.00     0.004 C 
BRANCH   8   9
ATOM      9  C   UNL     1     134.777 181.096 187.369  1.00  0.00    -0.011 C 
ATOM     10  C   UNL     1     133.438 180.332 187.454  1.00  0.00     0.008 C 
BRANCH   9  11
ATOM     11  C   UNL     1     134.908 182.125 188.555  1.00  0.00    -0.002 C 
ATOM     12  C   UNL     1     134.970 183.583 188.087  1.00  0.00     0.005 C 
ATOM     13  C   UNL     1     136.129 181.977 189.546  1.00  0.00    -0.026 C 
ATOM     14  C   UNL     1     135.505 184.361 189.267  1.00  0.00     0.005 C 
ATOM     15  C   UNL     1     136.566 183.446 189.876  1.00  0.00    -0.001 C 
ATOM     16  C   UNL     1     135.717 181.206 190.842  1.00  0.00     0.007 C 
ATOM     17  C   UNL     1     137.347 181.257 188.908  1.00  0.00     0.012 C 
ATOM     18  C   UNL     1     136.856 183.688 191.383  1.00  0.00     0.004 C 
ATOM     19  C   UNL     1     134.906 182.059 191.831  1.00  0.00     0.005 C 
ATOM     20  C   UNL     1     135.644 183.351 192.298  1.00  0.00     0.003 C 
ATOM     21  C   UNL     1     137.354 185.112 191.651  1.00  0.00     0.085 C 
ATOM     22  C   UNL     1     136.029 183.382 193.829  1.00  0.00    -0.000 C 
ATOM     23  C   UNL     1     137.665 185.299 193.104  1.00  0.00     0.159 C 
ATOM     24  C   UNL     1     136.808 184.672 194.146  1.00  0.00     0.005 C 
ATOM     25  C   UNL     1     134.721 183.365 194.687  1.00  0.00     0.020 C 
ATOM     26  C   UNL     1     136.925 182.173 194.213  1.00  0.00     0.017 C 
ATOM     27  O   UNL     1     138.617 186.057 193.432  1.00  0.00    -0.295 OA
ATOM     28  C   UNL     1     136.785 185.211 195.380  1.00  0.00     0.055 C 
ATOM     29  C   UNL     1     134.981 183.546 196.189  1.00  0.00     0.081 C 
ATOM     30  C   UNL     1     135.917 184.686 196.446  1.00  0.00     0.156 C 
ATOM     31  O   UNL     1     135.976 185.191 197.598  1.00  0.00    -0.295 OA
ENDBRANCH   9  11
ENDBRANCH   8   9
ENDBRANCH   1   8
TORSDOF 6
ENDMDL
MODEL 3
REMARK VINA RESULT:    -6.339      1.534      3.388
REMARK INTER + INTRA:         -10.249
REMARK INTER:                  -8.601
REMARK INTRA:                  -1.649
REMARK UNBOUND:                -1.687
REMARK SMILES CC[C@@H](CC[C@H](C)[C@@H]1CC[C@H]2[C@H]3CC(=O)C4=CC(=O)CC[C@@]4(C)[C@@H]3CC[C@]21C)C(C)C
REMARK SMILES IDX 4 1 3 2 2 3 1 4 29 5 30 6 31 7 5 8 6 9 7 10 8 11 9 12 27 13
REMARK SMILES IDX 10 14 11 15 26 16 28 17 12 18 25 19 24 20 13 21 22 22 14 23
REMARK SMILES IDX 16 24 21 25 23 26 15 27 17 28 20 29 18 30 19 31
REMARK H PARENT
REMARK Flexibility Score: inf
ROOT
ATOM      1  C   UNL     1     134.155 180.741 187.195  1.00  0.00     0.004 C 
ENDROOT
BRANCH   1   2
ATOM      2  C   UNL     1     134.565 181.684 186.023  1.00  0.00    -0.009 C 
BRANCH   2   3
ATOM      3  C   UNL     1     133.663 182.941 185.887  1.00  0.00     0.000 C 
ATOM      4  C   UNL     1     132.196 182.679 186.232  1.00  0.00     0.004 C 
ENDBRANCH   2   3
BRANCH   2   5
ATOM      5  C   UNL     1     134.819 180.990 184.641  1.00  0.00    -0.014 C 
ATOM      6  C   UNL     1     136.093 180.129 184.561  1.00  0.00     0.007 C 
ATOM      7  C   UNL     1     134.766 181.976 183.465  1.00  0.00     0.007 C 
ENDBRANCH   2   5
ENDBRANCH   1   2
BRANCH   1   8
ATOM      8  C   UNL     1     135.299 180.282 188.125  1.00  0.00     0.004 C 
BRANCH   8   9
ATOM      9  C   UNL     1     136.355 181.389 188.406  1.00  0.00    -0.011 C 
ATOM     10  C   UNL     1     137.762 180.850 188.069  1.00  0.00     0.008 C 
BRANCH   9  11
ATOM     11  C   UNL     1     136.292 181.888 189.899  1.00  0.00    -0.002 C 
ATOM     12  C   UNL     1     135.393 181.023 190.789  1.00  0.00     0.005 C 
ATOM     13  C   UNL     1     135.814 183.368 190.177  1.00  0.00    -0.026 C 
ATOM     14  C   UNL     1     135.122 181.859 192.018  1.00  0.00     0.005 C 
ATOM     15  C   UNL     1     134.952 183.279 191.482  1.00  0.00    -0.001 C 
ATOM     16  C   UNL     1     137.031 184.330 190.368  1.00  0.00     0.007 C 
ATOM     17  C   UNL     1     134.906 183.935 189.052  1.00  0.00     0.012 C 
ATOM     18  C   UNL     1     135.251 184.408 192.506  1.00  0.00     0.004 C 
ATOM     19  C   UNL     1     137.707 184.199 191.743  1.00  0.00     0.005 C 
ATOM     20  C   UNL     1     136.743 184.455 192.943  1.00  0.00     0.003 C 
ATOM     21  C   UNL     1     134.334 184.330 193.733  1.00  0.00     0.085 C 
ATOM     22  C   UNL     1     137.072 185.741 193.798  1.00  0.00    -0.000 C 
ATOM     23  C   UNL     1     134.619 185.457 194.678  1.00  0.00     0.159 C 
ATOM     24  C   UNL     1     136.015 185.919 194.903  1.00  0.00     0.005 C 
ATOM     25  C   UNL     1     138.473 185.565 194.471  1.00  0.00     0.020 C 
ATOM     26  C   UNL     1     137.069 187.022 192.920  1.00  0.00     0.017 C 
ATOM     27  O   UNL     1     133.667 185.955 195.338  1.00  0.00    -0.295 OA
ATOM     28  C   UNL     1     136.314 186.552 196.053  1.00  0.00     0.055 C 
ATOM     29  C   UNL     1     138.821 186.696 195.447  1.00  0.00     0.081 C 
ATOM     30  C   UNL     1     137.682 186.984 196.375  1.00  0.00     0.156 C 
ATOM     31  O   UNL     1     137.896 187.624 197.439  1.00  0.00    -0.295 OA
ENDBRANCH   9  11
ENDBRANCH   8   9
ENDBRANCH   1   8
TORSDOF 6
ENDMDL
MODEL 4
REMARK VINA RESULT:    -6.257      3.205      8.785
REMARK INTER + INTRA:         -10.138
REMARK INTER:                  -7.907
REMARK INTRA:                  -2.231
REMARK UNBOUND:                -1.687
REMARK SMILES CC[C@@H](CC[C@H](C)[C@@H]1CC[C@H]2[C@H]3CC(=O)C4=CC(=O)CC[C@@]4(C)[C@@H]3CC[C@]21C)C(C)C
REMARK SMILES IDX 4 1 3 2 2 3 1 4 29 5 30 6 31 7 5 8 6 9 7 10 8 11 9 12 27 13
REMARK SMILES IDX 10 14 11 15 26 16 28 17 12 18 25 19 24 20 13 21 22 22 14 23
REMARK SMILES IDX 16 24 21 25 23 26 15 27 17 28 20 29 18 30 19 31
REMARK H PARENT
REMARK Flexibility Score: inf
ROOT
ATOM      1  C   UNL     1     137.848 185.988 195.236  1.00  0.00     0.004 C 
ENDROOT
BRANCH   1   2
ATOM      2  C   UNL     1     136.812 185.209 196.102  1.00  0.00    -0.009 C 
BRANCH   2   3
ATOM      3  C   UNL     1     136.980 183.666 196.041  1.00  0.00     0.000 C 
ATOM      4  C   UNL     1     138.325 183.222 195.463  1.00  0.00     0.004 C 
ENDBRANCH   2   3
BRANCH   2   5
ATOM      5  C   UNL     1     135.316 185.645 195.941  1.00  0.00    -0.014 C 
ATOM      6  C   UNL     1     134.754 186.508 197.085  1.00  0.00     0.007 C 
ATOM      7  C   UNL     1     134.382 184.460 195.657  1.00  0.00     0.007 C 
ENDBRANCH   2   5
ENDBRANCH   1   2
BRANCH   1   8
ATOM      8  C   UNL     1     137.307 186.607 193.929  1.00  0.00     0.004 C 
BRANCH   8   9
ATOM      9  C   UNL     1     137.484 185.687 192.686  1.00  0.00    -0.011 C 
ATOM     10  C   UNL     1     138.611 186.249 191.792  1.00  0.00     0.008 C 
BRANCH   9  11
ATOM     11  C   UNL     1     136.143 185.547 191.870  1.00  0.00    -0.002 C 
ATOM     12  C   UNL     1     134.955 186.252 192.532  1.00  0.00     0.005 C 
ATOM     13  C   UNL     1     135.610 184.096 191.546  1.00  0.00    -0.026 C 
ATOM     14  C   UNL     1     133.726 185.675 191.869  1.00  0.00     0.005 C 
ATOM     15  C   UNL     1     134.052 184.194 191.687  1.00  0.00    -0.001 C 
ATOM     16  C   UNL     1     136.020 183.650 190.105  1.00  0.00     0.007 C 
ATOM     17  C   UNL     1     136.107 183.026 192.556  1.00  0.00     0.012 C 
ATOM     18  C   UNL     1     133.276 183.485 190.543  1.00  0.00     0.004 C 
ATOM     19  C   UNL     1     135.175 184.301 188.998  1.00  0.00     0.005 C 
ATOM     20  C   UNL     1     133.646 184.024 189.131  1.00  0.00     0.003 C 
ATOM     21  C   UNL     1     131.759 183.538 190.759  1.00  0.00     0.085 C 
ATOM     22  C   UNL     1     133.024 183.144 187.977  1.00  0.00    -0.000 C 
ATOM     23  C   UNL     1     131.044 182.810 189.662  1.00  0.00     0.159 C 
ATOM     24  C   UNL     1     131.533 182.888 188.260  1.00  0.00     0.005 C 
ATOM     25  C   UNL     1     133.152 183.912 186.621  1.00  0.00     0.020 C 
ATOM     26  C   UNL     1     133.735 181.767 187.870  1.00  0.00     0.017 C 
ATOM     27  O   UNL     1     129.978 182.194 189.934  1.00  0.00    -0.295 OA
ATOM     28  C   UNL     1     130.665 182.663 187.255  1.00  0.00     0.055 C 
ATOM     29  C   UNL     1     132.441 183.207 185.458  1.00  0.00     0.081 C 
ATOM     30  C   UNL     1     131.057 182.783 185.842  1.00  0.00     0.156 C 
ATOM     31  O   UNL     1     130.222 182.505 184.942  1.00  0.00    -0.295 OA
ENDBRANCH   9  11
ENDBRANCH   8   9
ENDBRANCH   1   8
TORSDOF 6
ENDMDL
MODEL 5
REMARK VINA RESULT:    -6.245      3.321      9.581
REMARK INTER + INTRA:         -10.122
REMARK INTER:                  -8.926
REMARK INTRA:                  -1.196
REMARK UNBOUND:                -1.687
REMARK SMILES CC[C@@H](CC[C@H](C)[C@@H]1CC[C@H]2[C@H]3CC(=O)C4=CC(=O)CC[C@@]4(C)[C@@H]3CC[C@]21C)C(C)C
REMARK SMILES IDX 4 1 3 2 2 3 1 4 29 5 30 6 31 7 5 8 6 9 7 10 8 11 9 12 27 13
REMARK SMILES IDX 10 14 11 15 26 16 28 17 12 18 25 19 24 20 13 21 22 22 14 23
REMARK SMILES IDX 16 24 21 25 23 26 15 27 17 28 20 29 18 30 19 31
REMARK H PARENT
REMARK Flexibility Score: inf
ROOT
ATOM      1  C   UNL     1     136.876 186.348 195.722  1.00  0.00     0.004 C 
ENDROOT
BRANCH   1   2
ATOM      2  C   UNL     1     137.896 186.679 196.854  1.00  0.00    -0.009 C 
BRANCH   2   3
ATOM      3  C   UNL     1     138.812 187.893 196.537  1.00  0.00     0.000 C 
ATOM      4  C   UNL     1     138.456 189.149 197.335  1.00  0.00     0.004 C 
ENDBRANCH   2   3
BRANCH   2   5
ATOM      5  C   UNL     1     138.707 185.464 197.423  1.00  0.00    -0.014 C 
ATOM      6  C   UNL     1     137.886 184.450 198.241  1.00  0.00     0.007 C 
ATOM      7  C   UNL     1     139.953 185.899 198.207  1.00  0.00     0.007 C 
ENDBRANCH   2   5
ENDBRANCH   1   2
BRANCH   1   8
ATOM      8  C   UNL     1     137.472 185.759 194.426  1.00  0.00     0.004 C 
BRANCH   8   9
ATOM      9  C   UNL     1     136.840 184.398 194.013  1.00  0.00    -0.011 C 
ATOM     10  C   UNL     1     137.697 183.245 194.580  1.00  0.00     0.008 C 
BRANCH   9  11
ATOM     11  C   UNL     1     136.701 184.272 192.448  1.00  0.00    -0.002 C 
ATOM     12  C   UNL     1     136.686 185.625 191.730  1.00  0.00     0.005 C 
ATOM     13  C   UNL     1     135.449 183.504 191.866  1.00  0.00    -0.026 C 
ATOM     14  C   UNL     1     136.137 185.342 190.351  1.00  0.00     0.005 C 
ATOM     15  C   UNL     1     135.038 184.307 190.585  1.00  0.00    -0.001 C 
ATOM     16  C   UNL     1     135.806 182.023 191.513  1.00  0.00     0.007 C 
ATOM     17  C   UNL     1     134.233 183.503 192.831  1.00  0.00     0.012 C 
ATOM     18  C   UNL     1     134.711 183.408 189.362  1.00  0.00     0.004 C 
ATOM     19  C   UNL     1     136.609 181.880 190.210  1.00  0.00     0.005 C 
ATOM     20  C   UNL     1     135.889 182.473 188.961  1.00  0.00     0.003 C 
ATOM     21  C   UNL     1     134.240 184.227 188.155  1.00  0.00     0.085 C 
ATOM     22  C   UNL     1     135.462 181.413 187.871  1.00  0.00    -0.000 C 
ATOM     23  C   UNL     1     133.893 183.328 187.008  1.00  0.00     0.159 C 
ATOM     24  C   UNL     1     134.705 182.114 186.729  1.00  0.00     0.005 C 
ATOM     25  C   UNL     1     136.744 180.739 187.282  1.00  0.00     0.020 C 
ATOM     26  C   UNL     1     134.528 180.328 188.472  1.00  0.00     0.017 C 
ATOM     27  O   UNL     1     132.950 183.657 186.239  1.00  0.00    -0.295 OA
ATOM     28  C   UNL     1     134.707 181.605 185.481  1.00  0.00     0.055 C 
ATOM     29  C   UNL     1     136.447 179.800 186.106  1.00  0.00     0.081 C 
ATOM     30  C   UNL     1     135.532 180.445 185.112  1.00  0.00     0.156 C 
ATOM     31  O   UNL     1     135.452 179.974 183.946  1.00  0.00    -0.295 OA
ENDBRANCH   9  11
ENDBRANCH   8   9
ENDBRANCH   1   8
TORSDOF 6
ENDMDL
MODEL 6
REMARK VINA RESULT:    -6.239      3.766      8.805
REMARK INTER + INTRA:         -10.114
REMARK INTER:                  -7.878
REMARK INTRA:                  -2.236
REMARK UNBOUND:                -1.687
REMARK SMILES CC[C@@H](CC[C@H](C)[C@@H]1CC[C@H]2[C@H]3CC(=O)C4=CC(=O)CC[C@@]4(C)[C@@H]3CC[C@]21C)C(C)C
REMARK SMILES IDX 4 1 3 2 2 3 1 4 29 5 30 6 31 7 5 8 6 9 7 10 8 11 9 12 27 13
REMARK SMILES IDX 10 14 11 15 26 16 28 17 12 18 25 19 24 20 13 21 22 22 14 23
REMARK SMILES IDX 16 24 21 25 23 26 15 27 17 28 20 29 18 30 19 31
REMARK H PARENT
REMARK Flexibility Score: inf
ROOT
ATOM      1  C   UNL     1     135.357 186.208 191.775  1.00  0.00     0.004 C 
ENDROOT
BRANCH   1   2
ATOM      2  C   UNL     1     134.512 185.043 192.376  1.00  0.00    -0.009 C 
BRANCH   2   3
ATOM      3  C   UNL     1     132.990 185.160 192.087  1.00  0.00     0.000 C 
ATOM      4  C   UNL     1     132.463 184.073 191.149  1.00  0.00     0.004 C 
ENDBRANCH   2   3
BRANCH   2   5
ATOM      5  C   UNL     1     134.801 184.689 193.874  1.00  0.00    -0.014 C 
ATOM      6  C   UNL     1     134.695 185.867 194.861  1.00  0.00     0.007 C 
ATOM      7  C   UNL     1     136.134 183.952 194.062  1.00  0.00     0.007 C 
ENDBRANCH   2   5
ENDBRANCH   1   2
BRANCH   1   8
ATOM      8  C   UNL     1     136.216 185.853 190.542  1.00  0.00     0.004 C 
BRANCH   8   9
ATOM      9  C   UNL     1     136.740 184.387 190.550  1.00  0.00    -0.011 C 
ATOM     10  C   UNL     1     138.284 184.396 190.576  1.00  0.00     0.008 C 
BRANCH   9  11
ATOM     11  C   UNL     1     136.207 183.573 189.310  1.00  0.00    -0.002 C 
ATOM     12  C   UNL     1     134.988 184.217 188.641  1.00  0.00     0.005 C 
ATOM     13  C   UNL     1     135.788 182.066 189.526  1.00  0.00    -0.026 C 
ATOM     14  C   UNL     1     134.381 183.131 187.784  1.00  0.00     0.005 C 
ATOM     15  C   UNL     1     134.525 181.861 188.621  1.00  0.00    -0.001 C 
ATOM     16  C   UNL     1     136.941 181.092 189.114  1.00  0.00     0.007 C 
ATOM     17  C   UNL     1     135.374 181.752 190.989  1.00  0.00     0.012 C 
ATOM     18  C   UNL     1     134.546 180.537 187.809  1.00  0.00     0.004 C 
ATOM     19  C   UNL     1     137.087 180.924 187.593  1.00  0.00     0.005 C 
ATOM     20  C   UNL     1     135.795 180.405 186.891  1.00  0.00     0.003 C 
ATOM     21  C   UNL     1     133.260 180.339 186.999  1.00  0.00     0.085 C 
ATOM     22  C   UNL     1     135.915 178.965 186.254  1.00  0.00    -0.000 C 
ATOM     23  C   UNL     1     133.294 179.035 186.262  1.00  0.00     0.159 C 
ATOM     24  C   UNL     1     134.560 178.544 185.657  1.00  0.00     0.005 C 
ATOM     25  C   UNL     1     136.978 178.999 185.108  1.00  0.00     0.020 C 
ATOM     26  C   UNL     1     136.321 177.908 187.316  1.00  0.00     0.017 C 
ATOM     27  O   UNL     1     132.218 178.399 186.098  1.00  0.00    -0.295 OA
ATOM     28  C   UNL     1     134.496 177.675 184.629  1.00  0.00     0.055 C 
ATOM     29  C   UNL     1     137.062 177.683 184.322  1.00  0.00     0.081 C 
ATOM     30  C   UNL     1     135.701 177.192 183.937  1.00  0.00     0.156 C 
ATOM     31  O   UNL     1     135.587 176.336 183.020  1.00  0.00    -0.295 OA
ENDBRANCH   9  11
ENDBRANCH   8   9
ENDBRANCH   1   8
TORSDOF 6
ENDMDL
MODEL 7
REMARK VINA RESULT:    -6.239      3.662      9.196
REMARK INTER + INTRA:         -10.114
REMARK INTER:                  -9.191
REMARK INTRA:                  -0.923
REMARK UNBOUND:                -1.687
REMARK SMILES CC[C@@H](CC[C@H](C)[C@@H]1CC[C@H]2[C@H]3CC(=O)C4=CC(=O)CC[C@@]4(C)[C@@H]3CC[C@]21C)C(C)C
REMARK SMILES IDX 4 1 3 2 2 3 1 4 29 5 30 6 31 7 5 8 6 9 7 10 8 11 9 12 27 13
REMARK SMILES IDX 10 14 11 15 26 16 28 17 12 18 25 19 24 20 13 21 22 22 14 23
REMARK SMILES IDX 16 24 21 25 23 26 15 27 17 28 20 29 18 30 19 31
REMARK H PARENT
REMARK Flexibility Score: inf
ROOT
ATOM      1  C   UNL     1     136.893 183.679 191.347  1.00  0.00     0.004 C 
ENDROOT
BRANCH   1   2
ATOM      2  C   UNL     1     136.687 185.186 191.687  1.00  0.00    -0.009 C 
BRANCH   2   3
ATOM      3  C   UNL     1     138.011 185.955 191.950  1.00  0.00     0.000 C 
ATOM      4  C   UNL     1     138.473 186.797 190.759  1.00  0.00     0.004 C 
ENDBRANCH   2   3
BRANCH   2   5
ATOM      5  C   UNL     1     135.599 185.503 192.770  1.00  0.00    -0.014 C 
ATOM      6  C   UNL     1     134.355 186.249 192.254  1.00  0.00     0.007 C 
ATOM      7  C   UNL     1     136.178 186.216 194.000  1.00  0.00     0.007 C 
ENDBRANCH   2   5
ENDBRANCH   1   2
BRANCH   1   8
ATOM      8  C   UNL     1     137.476 183.375 189.950  1.00  0.00     0.004 C 
BRANCH   8   9
ATOM      9  C   UNL     1     136.759 182.204 189.217  1.00  0.00    -0.011 C 
ATOM     10  C   UNL     1     137.816 181.274 188.585  1.00  0.00     0.008 C 
BRANCH   9  11
ATOM     11  C   UNL     1     135.754 182.731 188.123  1.00  0.00    -0.002 C 
ATOM     12  C   UNL     1     134.976 183.976 188.564  1.00  0.00     0.005 C 
ATOM     13  C   UNL     1     134.645 181.744 187.586  1.00  0.00    -0.026 C 
ATOM     14  C   UNL     1     133.809 184.078 187.611  1.00  0.00     0.005 C 
ATOM     15  C   UNL     1     133.368 182.632 187.394  1.00  0.00    -0.001 C 
ATOM     16  C   UNL     1     135.080 181.082 186.238  1.00  0.00     0.007 C 
ATOM     17  C   UNL     1     134.288 180.620 188.596  1.00  0.00     0.012 C 
ATOM     18  C   UNL     1     132.617 182.366 186.061  1.00  0.00     0.004 C 
ATOM     19  C   UNL     1     134.955 182.020 185.026  1.00  0.00     0.005 C 
ATOM     20  C   UNL     1     133.513 182.572 184.806  1.00  0.00     0.003 C 
ATOM     21  C   UNL     1     131.334 183.198 185.948  1.00  0.00     0.085 C 
ATOM     22  C   UNL     1     132.805 182.079 183.483  1.00  0.00    -0.000 C 
ATOM     23  C   UNL     1     130.613 182.887 184.672  1.00  0.00     0.159 C 
ATOM     24  C   UNL     1     131.372 182.637 183.418  1.00  0.00     0.005 C 
ATOM     25  C   UNL     1     133.604 182.608 182.247  1.00  0.00     0.020 C 
ATOM     26  C   UNL     1     132.720 180.530 183.429  1.00  0.00     0.017 C 
ATOM     27  O   UNL     1     129.353 182.917 184.661  1.00  0.00    -0.295 OA
ATOM     28  C   UNL     1     130.760 182.840 182.235  1.00  0.00     0.055 C 
ATOM     29  C   UNL     1     132.914 182.311 180.909  1.00  0.00     0.081 C 
ATOM     30  C   UNL     1     131.462 182.674 180.953  1.00  0.00     0.156 C 
ATOM     31  O   UNL     1     130.826 182.820 179.876  1.00  0.00    -0.295 OA
ENDBRANCH   9  11
ENDBRANCH   8   9
ENDBRANCH   1   8
TORSDOF 6
ENDMDL
MODEL 8
REMARK VINA RESULT:    -6.157      3.568      8.678
REMARK INTER + INTRA:         -10.004
REMARK INTER:                  -8.335
REMARK INTRA:                  -1.669
REMARK UNBOUND:                -1.687
REMARK SMILES CC[C@@H](CC[C@H](C)[C@@H]1CC[C@H]2[C@H]3CC(=O)C4=CC(=O)CC[C@@]4(C)[C@@H]3CC[C@]21C)C(C)C
REMARK SMILES IDX 4 1 3 2 2 3 1 4 29 5 30 6 31 7 5 8 6 9 7 10 8 11 9 12 27 13
REMARK SMILES IDX 10 14 11 15 26 16 28 17 12 18 25 19 24 20 13 21 22 22 14 23
REMARK SMILES IDX 16 24 21 25 23 26 15 27 17 28 20 29 18 30 19 31
REMARK H PARENT
REMARK Flexibility Score: inf
ROOT
ATOM      1  C   UNL     1     135.469 185.764 193.778  1.00  0.00     0.004 C 
ENDROOT
BRANCH   1   2
ATOM      2  C   UNL     1     136.777 186.540 193.436  1.00  0.00    -0.009 C 
BRANCH   2   3
ATOM      3  C   UNL     1     136.864 186.998 191.954  1.00  0.00     0.000 C 
ATOM      4  C   UNL     1     138.112 186.487 191.232  1.00  0.00     0.004 C 
ENDBRANCH   2   3
BRANCH   2   5
ATOM      5  C   UNL     1     138.112 185.884 193.928  1.00  0.00    -0.014 C 
ATOM      6  C   UNL     1     138.041 184.370 194.200  1.00  0.00     0.007 C 
ATOM      7  C   UNL     1     138.722 186.615 195.133  1.00  0.00     0.007 C 
ENDBRANCH   2   5
ENDBRANCH   1   2
BRANCH   1   8
ATOM      8  C   UNL     1     134.502 185.517 192.600  1.00  0.00     0.004 C 
BRANCH   8   9
ATOM      9  C   UNL     1     134.230 184.010 192.324  1.00  0.00    -0.011 C 
ATOM     10  C   UNL     1     134.742 183.172 193.515  1.00  0.00     0.008 C 
BRANCH   9  11
ATOM     11  C   UNL     1     134.899 183.534 190.978  1.00  0.00    -0.002 C 
ATOM     12  C   UNL     1     135.096 184.668 189.966  1.00  0.00     0.005 C 
ATOM     13  C   UNL     1     134.193 182.388 190.153  1.00  0.00    -0.026 C 
ATOM     14  C   UNL     1     135.339 183.985 188.641  1.00  0.00     0.005 C 
ATOM     15  C   UNL     1     134.388 182.789 188.650  1.00  0.00    -0.001 C 
ATOM     16  C   UNL     1     134.837 180.995 190.453  1.00  0.00     0.007 C 
ATOM     17  C   UNL     1     132.667 182.296 190.421  1.00  0.00     0.012 C 
ATOM     18  C   UNL     1     134.811 181.606 187.738  1.00  0.00     0.004 C 
ATOM     19  C   UNL     1     136.191 180.782 189.756  1.00  0.00     0.005 C 
ATOM     20  C   UNL     1     136.126 180.916 188.204  1.00  0.00     0.003 C 
ATOM     21  C   UNL     1     134.916 182.023 186.266  1.00  0.00     0.085 C 
ATOM     22  C   UNL     1     136.414 179.584 187.407  1.00  0.00    -0.000 C 
ATOM     23  C   UNL     1     135.283 180.851 185.409  1.00  0.00     0.159 C 
ATOM     24  C   UNL     1     136.253 179.834 185.896  1.00  0.00     0.005 C 
ATOM     25  C   UNL     1     137.884 179.128 187.684  1.00  0.00     0.020 C 
ATOM     26  C   UNL     1     135.428 178.456 187.815  1.00  0.00     0.017 C 
ATOM     27  O   UNL     1     134.817 180.781 184.240  1.00  0.00    -0.295 OA
ATOM     28  C   UNL     1     136.929 179.095 184.995  1.00  0.00     0.055 C 
ATOM     29  C   UNL     1     138.313 177.923 186.836  1.00  0.00     0.081 C 
ATOM     30  C   UNL     1     137.948 178.114 185.397  1.00  0.00     0.156 C 
ATOM     31  O   UNL     1     138.509 177.408 184.517  1.00  0.00    -0.295 OA
ENDBRANCH   9  11
ENDBRANCH   8   9
ENDBRANCH   1   8
TORSDOF 6
ENDMDL
MODEL 9
REMARK VINA RESULT:    -6.087      1.587      2.859
REMARK INTER + INTRA:          -9.909
REMARK INTER:                  -8.254
REMARK INTRA:                  -1.655
REMARK UNBOUND:                -1.687
REMARK SMILES CC[C@@H](CC[C@H](C)[C@@H]1CC[C@H]2[C@H]3CC(=O)C4=CC(=O)CC[C@@]4(C)[C@@H]3CC[C@]21C)C(C)C
REMARK SMILES IDX 4 1 3 2 2 3 1 4 29 5 30 6 31 7 5 8 6 9 7 10 8 11 9 12 27 13
REMARK SMILES IDX 10 14 11 15 26 16 28 17 12 18 25 19 24 20 13 21 22 22 14 23
REMARK SMILES IDX 16 24 21 25 23 26 15 27 17 28 20 29 18 30 19 31
REMARK H PARENT
REMARK Flexibility Score: inf
ROOT
ATOM      1  C   UNL     1     136.502 180.192 185.132  1.00  0.00     0.004 C 
ENDROOT
BRANCH   1   2
ATOM      2  C   UNL     1     136.713 178.678 185.440  1.00  0.00    -0.009 C 
BRANCH   2   3
ATOM      3  C   UNL     1     137.926 178.391 186.366  1.00  0.00     0.000 C 
ATOM      4  C   UNL     1     137.537 177.740 187.695  1.00  0.00     0.004 C 
ENDBRANCH   2   3
BRANCH   2   5
ATOM      5  C   UNL     1     136.675 177.715 184.205  1.00  0.00    -0.014 C 
ATOM      6  C   UNL     1     137.221 178.305 182.892  1.00  0.00     0.007 C 
ATOM      7  C   UNL     1     135.287 177.098 183.978  1.00  0.00     0.007 C 
ENDBRANCH   2   5
ENDBRANCH   1   2
BRANCH   1   8
ATOM      8  C   UNL     1     135.231 180.833 185.729  1.00  0.00     0.004 C 
BRANCH   8   9
ATOM      9  C   UNL     1     134.938 180.388 187.191  1.00  0.00    -0.011 C 
ATOM     10  C   UNL     1     133.659 179.522 187.214  1.00  0.00     0.008 C 
BRANCH   9  11
ATOM     11  C   UNL     1     134.792 181.624 188.158  1.00  0.00    -0.002 C 
ATOM     12  C   UNL     1     134.536 182.943 187.421  1.00  0.00     0.005 C 
ATOM     13  C   UNL     1     135.982 181.948 189.145  1.00  0.00    -0.026 C 
ATOM     14  C   UNL     1     134.841 184.029 188.426  1.00  0.00     0.005 C 
ATOM     15  C   UNL     1     136.063 183.513 189.185  1.00  0.00    -0.001 C 
ATOM     16  C   UNL     1     135.715 181.360 190.569  1.00  0.00     0.007 C 
ATOM     17  C   UNL     1     137.352 181.420 188.641  1.00  0.00     0.012 C 
ATOM     18  C   UNL     1     136.241 184.093 190.614  1.00  0.00     0.004 C 
ATOM     19  C   UNL     1     134.699 182.174 191.387  1.00  0.00     0.005 C 
ATOM     20  C   UNL     1     135.109 183.665 191.591  1.00  0.00     0.003 C 
ATOM     21  C   UNL     1     136.393 185.619 190.601  1.00  0.00     0.085 C 
ATOM     22  C   UNL     1     135.427 184.071 193.084  1.00  0.00    -0.000 C 
ATOM     23  C   UNL     1     136.606 186.141 191.989  1.00  0.00     0.159 C 
ATOM     24  C   UNL     1     135.881 185.540 193.141  1.00  0.00     0.005 C 
ATOM     25  C   UNL     1     134.130 183.915 193.945  1.00  0.00     0.020 C 
ATOM     26  C   UNL     1     136.561 183.194 193.680  1.00  0.00     0.017 C 
ATOM     27  O   UNL     1     137.349 187.145 192.155  1.00  0.00    -0.295 OA
ATOM     28  C   UNL     1     135.695 186.282 194.250  1.00  0.00     0.055 C 
ATOM     29  C   UNL     1     134.293 184.429 195.381  1.00  0.00     0.081 C 
ATOM     30  C   UNL     1     134.936 185.781 195.406  1.00  0.00     0.156 C 
ATOM     31  O   UNL     1     134.842 186.493 196.441  1.00  0.00    -0.295 OA
ENDBRANCH   9  11
ENDBRANCH   8   9
ENDBRANCH   1   8
TORSDOF 6
ENDMDL
