MODEL 1
REMARK VINA RESULT:    -4.772      0.000      0.000
REMARK INTER + INTRA:          -5.783
REMARK INTER:                  -5.748
REMARK INTRA:                  -0.034
REMARK UNBOUND:                -0.034
REMARK SMILES CC[C@H](C)[C@@H]([NH3+])C(=O)[O-]
REMARK SMILES IDX 3 1 4 2 5 3 6 4 7 8 8 9 9 10 2 11 1 12
REMARK H PARENT 6 5 6 6 6 7
REMARK Flexibility Score: inf
ROOT
ATOM      1  C   UNL     1      -4.289  -2.413  -3.601  1.00  0.00     0.050 C 
ATOM      2  C   UNL     1      -4.283  -2.519  -5.139  1.00  0.00     0.014 C 
ENDROOT
BRANCH   1   3
ATOM      3  C   UNL     1      -2.867  -2.063  -3.052  1.00  0.00     0.230 C 
BRANCH   3   4
ATOM      4  N   UNL     1      -1.815  -2.270  -4.059  1.00  0.00    -0.350 N 
ATOM      5  H   UNL     1      -1.049  -2.866  -3.665  1.00  0.00     0.345 HD
ATOM      6  H   UNL     1      -2.201  -2.782  -4.886  1.00  0.00     0.345 HD
ATOM      7  H   UNL     1      -1.411  -1.356  -4.367  1.00  0.00     0.345 HD
ENDBRANCH   3   4
BRANCH   3   8
ATOM      8  C   UNL     1      -2.812  -0.635  -2.566  1.00  0.00     0.099 C 
ATOM      9  O   UNL     1      -1.949  -0.283  -1.718  1.00  0.00    -0.544 OA
ATOM     10  O   UNL     1      -3.720   0.300  -3.048  1.00  0.00    -0.544 OA
ENDBRANCH   3   8
ENDBRANCH   1   3
BRANCH   1  11
ATOM     11  C   UNL     1      -4.809  -3.735  -2.974  1.00  0.00     0.006 C 
ATOM     12  C   UNL     1      -3.687  -4.675  -2.528  1.00  0.00     0.004 C 
ENDBRANCH   1  11
TORSDOF 4
ENDMDL
MODEL 2
REMARK VINA RESULT:    -4.764      1.661      2.726
REMARK INTER + INTRA:          -5.773
REMARK INTER:                  -5.641
REMARK INTRA:                  -0.132
REMARK UNBOUND:                -0.034
REMARK SMILES CC[C@H](C)[C@@H]([NH3+])C(=O)[O-]
REMARK SMILES IDX 3 1 4 2 5 3 6 4 7 8 8 9 9 10 2 11 1 12
REMARK H PARENT 6 5 6 6 6 7
REMARK Flexibility Score: inf
ROOT
ATOM      1  C   UNL     1      -3.494  -2.119  -4.608  1.00  0.00     0.050 C 
ATOM      2  C   UNL     1      -3.398  -3.647  -4.432  1.00  0.00     0.014 C 
ENDROOT
BRANCH   1   3
ATOM      3  C   UNL     1      -3.618  -1.396  -3.227  1.00  0.00     0.230 C 
BRANCH   3   4
ATOM      4  N   UNL     1      -3.790  -2.345  -2.116  1.00  0.00    -0.350 N 
ATOM      5  H   UNL     1      -4.063  -1.835  -1.243  1.00  0.00     0.345 HD
ATOM      6  H   UNL     1      -4.565  -3.015  -2.329  1.00  0.00     0.345 HD
ATOM      7  H   UNL     1      -2.905  -2.873  -1.939  1.00  0.00     0.345 HD
ENDBRANCH   3   4
BRANCH   3   8
ATOM      8  C   UNL     1      -2.409  -0.533  -2.958  1.00  0.00     0.099 C 
ATOM      9  O   UNL     1      -1.828   0.063  -3.904  1.00  0.00    -0.544 OA
ATOM     10  O   UNL     1      -1.928  -0.395  -1.663  1.00  0.00    -0.544 OA
ENDBRANCH   3   8
ENDBRANCH   1   3
BRANCH   1  11
ATOM     11  C   UNL     1      -4.695  -1.758  -5.525  1.00  0.00     0.006 C 
ATOM     12  C   UNL     1      -4.544  -0.398  -6.210  1.00  0.00     0.004 C 
ENDBRANCH   1  11
TORSDOF 4
ENDMDL
MODEL 3
REMARK VINA RESULT:    -4.757      1.275      1.652
REMARK INTER + INTRA:          -5.765
REMARK INTER:                  -5.621
REMARK INTRA:                  -0.144
REMARK UNBOUND:                -0.034
REMARK SMILES CC[C@H](C)[C@@H]([NH3+])C(=O)[O-]
REMARK SMILES IDX 3 1 4 2 5 3 6 4 7 8 8 9 9 10 2 11 1 12
REMARK H PARENT 6 5 6 6 6 7
REMARK Flexibility Score: inf
ROOT
ATOM      1  C   UNL     1      -4.512  -2.041  -4.281  1.00  0.00     0.050 C 
ATOM      2  C   UNL     1      -4.719  -2.515  -5.734  1.00  0.00     0.014 C 
ENDROOT
BRANCH   1   3
ATOM      3  C   UNL     1      -3.262  -1.109  -4.162  1.00  0.00     0.230 C 
BRANCH   3   4
ATOM      4  N   UNL     1      -3.051  -0.304  -5.376  1.00  0.00    -0.350 N 
ATOM      5  H   UNL     1      -2.107  -0.505  -5.783  1.00  0.00     0.345 HD
ATOM      6  H   UNL     1      -3.756  -0.558  -6.105  1.00  0.00     0.345 HD
ATOM      7  H   UNL     1      -3.117   0.717  -5.160  1.00  0.00     0.345 HD
ENDBRANCH   3   4
BRANCH   3   8
ATOM      8  C   UNL     1      -3.387  -0.188  -2.973  1.00  0.00     0.099 C 
ATOM      9  O   UNL     1      -4.141   0.820  -3.023  1.00  0.00    -0.544 OA
ATOM     10  O   UNL     1      -2.663  -0.445  -1.815  1.00  0.00    -0.544 OA
ENDBRANCH   3   8
ENDBRANCH   1   3
BRANCH   1  11
ATOM     11  C   UNL     1      -4.377  -3.263  -3.332  1.00  0.00     0.006 C 
ATOM     12  C   UNL     1      -2.996  -3.921  -3.387  1.00  0.00     0.004 C 
ENDBRANCH   1  11
TORSDOF 4
ENDMDL
MODEL 4
REMARK VINA RESULT:    -4.740      1.338      1.377
REMARK INTER + INTRA:          -5.745
REMARK INTER:                  -5.639
REMARK INTRA:                  -0.106
REMARK UNBOUND:                -0.034
REMARK SMILES CC[C@H](C)[C@@H]([NH3+])C(=O)[O-]
REMARK SMILES IDX 3 1 4 2 5 3 6 4 7 8 8 9 9 10 2 11 1 12
REMARK H PARENT 6 5 6 6 6 7
REMARK Flexibility Score: inf
ROOT
ATOM      1  C   UNL     1      -4.049  -2.219  -4.259  1.00  0.00     0.050 C 
ATOM      2  C   UNL     1      -4.734  -2.171  -5.640  1.00  0.00     0.014 C 
ENDROOT
BRANCH   1   3
ATOM      3  C   UNL     1      -3.065  -1.019  -4.072  1.00  0.00     0.230 C 
BRANCH   3   4
ATOM      4  N   UNL     1      -2.962  -0.190  -5.284  1.00  0.00    -0.350 N 
ATOM      5  H   UNL     1      -2.987   0.825  -5.030  1.00  0.00     0.345 HD
ATOM      6  H   UNL     1      -2.047  -0.361  -5.762  1.00  0.00     0.345 HD
ATOM      7  H   UNL     1      -3.749  -0.396  -5.942  1.00  0.00     0.345 HD
ENDBRANCH   3   4
BRANCH   3   8
ATOM      8  C   UNL     1      -3.486  -0.150  -2.912  1.00  0.00     0.099 C 
ATOM      9  O   UNL     1      -3.074  -0.397  -1.747  1.00  0.00    -0.544 OA
ATOM     10  O   UNL     1      -4.336   0.928  -3.123  1.00  0.00    -0.544 OA
ENDBRANCH   3   8
ENDBRANCH   1   3
BRANCH   1  11
ATOM     11  C   UNL     1      -3.308  -3.571  -4.075  1.00  0.00     0.006 C 
ATOM     12  C   UNL     1      -3.506  -4.184  -2.687  1.00  0.00     0.004 C 
ENDBRANCH   1  11
TORSDOF 4
ENDMDL
MODEL 5
REMARK VINA RESULT:    -4.680      1.636      2.357
REMARK INTER + INTRA:          -5.671
REMARK INTER:                  -5.582
REMARK INTRA:                  -0.089
REMARK UNBOUND:                -0.034
REMARK SMILES CC[C@H](C)[C@@H]([NH3+])C(=O)[O-]
REMARK SMILES IDX 3 1 4 2 5 3 6 4 7 8 8 9 9 10 2 11 1 12
REMARK H PARENT 6 5 6 6 6 7
REMARK Flexibility Score: inf
ROOT
ATOM      1  C   UNL     1      -3.010  -2.679  -3.746  1.00  0.00     0.050 C 
ATOM      2  C   UNL     1      -3.824  -3.357  -2.626  1.00  0.00     0.014 C 
ENDROOT
BRANCH   1   3
ATOM      3  C   UNL     1      -3.249  -1.134  -3.765  1.00  0.00     0.230 C 
BRANCH   3   4
ATOM      4  N   UNL     1      -4.478  -0.753  -3.053  1.00  0.00    -0.350 N 
ATOM      5  H   UNL     1      -4.684   0.262  -3.205  1.00  0.00     0.345 HD
ATOM      6  H   UNL     1      -5.295  -1.287  -3.429  1.00  0.00     0.345 HD
ATOM      7  H   UNL     1      -4.382  -0.930  -2.026  1.00  0.00     0.345 HD
ENDBRANCH   3   4
BRANCH   3   8
ATOM      8  C   UNL     1      -2.078  -0.398  -3.161  1.00  0.00     0.099 C 
ATOM      9  O   UNL     1      -1.290   0.259  -3.894  1.00  0.00    -0.544 OA
ATOM     10  O   UNL     1      -1.859  -0.445  -1.790  1.00  0.00    -0.544 OA
ENDBRANCH   3   8
ENDBRANCH   1   3
BRANCH   1  11
ATOM     11  C   UNL     1      -3.363  -3.307  -5.122  1.00  0.00     0.006 C 
ATOM     12  C   UNL     1      -4.858  -3.585  -5.292  1.00  0.00     0.004 C 
ENDBRANCH   1  11
TORSDOF 4
ENDMDL
MODEL 6
REMARK VINA RESULT:    -4.569      2.457      3.445
REMARK INTER + INTRA:          -5.538
REMARK INTER:                  -5.403
REMARK INTRA:                  -0.135
REMARK UNBOUND:                -0.034
REMARK SMILES CC[C@H](C)[C@@H]([NH3+])C(=O)[O-]
REMARK SMILES IDX 3 1 4 2 5 3 6 4 7 8 8 9 9 10 2 11 1 12
REMARK H PARENT 6 5 6 6 6 7
REMARK Flexibility Score: inf
ROOT
ATOM      1  C   UNL     1      -3.310  -1.468  -3.081  1.00  0.00     0.050 C 
ATOM      2  C   UNL     1      -1.899  -0.849  -3.106  1.00  0.00     0.014 C 
ENDROOT
BRANCH   1   3
ATOM      3  C   UNL     1      -3.330  -2.863  -3.787  1.00  0.00     0.230 C 
BRANCH   3   4
ATOM      4  N   UNL     1      -1.981  -3.317  -4.159  1.00  0.00    -0.350 N 
ATOM      5  H   UNL     1      -1.807  -4.279  -3.786  1.00  0.00     0.345 HD
ATOM      6  H   UNL     1      -1.893  -3.375  -5.200  1.00  0.00     0.345 HD
ATOM      7  H   UNL     1      -1.253  -2.668  -3.779  1.00  0.00     0.345 HD
ENDBRANCH   3   4
BRANCH   3   8
ATOM      8  C   UNL     1      -3.978  -3.905  -2.907  1.00  0.00     0.099 C 
ATOM      9  O   UNL     1      -3.275  -4.774  -2.325  1.00  0.00    -0.544 OA
ATOM     10  O   UNL     1      -5.357  -3.912  -2.738  1.00  0.00    -0.544 OA
ENDBRANCH   3   8
ENDBRANCH   1   3
BRANCH   1  11
ATOM     11  C   UNL     1      -4.331  -0.503  -3.744  1.00  0.00     0.006 C 
ATOM     12  C   UNL     1      -4.536  -0.774  -5.236  1.00  0.00     0.004 C 
ENDBRANCH   1  11
TORSDOF 4
ENDMDL
MODEL 7
REMARK VINA RESULT:    -4.229      2.339      3.316
REMARK INTER + INTRA:          -5.128
REMARK INTER:                  -5.236
REMARK INTRA:                   0.108
REMARK UNBOUND:                -0.034
REMARK SMILES CC[C@H](C)[C@@H]([NH3+])C(=O)[O-]
REMARK SMILES IDX 3 1 4 2 5 3 6 4 7 8 8 9 9 10 2 11 1 12
REMARK H PARENT 6 5 6 6 6 7
REMARK Flexibility Score: inf
ROOT
ATOM      1  C   UNL     1      -3.318  -1.606  -4.278  1.00  0.00     0.050 C 
ATOM      2  C   UNL     1      -4.468  -0.815  -3.624  1.00  0.00     0.014 C 
ENDROOT
BRANCH   1   3
ATOM      3  C   UNL     1      -3.692  -3.115  -4.447  1.00  0.00     0.230 C 
BRANCH   3   4
ATOM      4  N   UNL     1      -2.569  -3.911  -4.966  1.00  0.00    -0.350 N 
ATOM      5  H   UNL     1      -1.659  -3.507  -4.643  1.00  0.00     0.345 HD
ATOM      6  H   UNL     1      -2.616  -4.888  -4.595  1.00  0.00     0.345 HD
ATOM      7  H   UNL     1      -2.580  -3.930  -6.012  1.00  0.00     0.345 HD
ENDBRANCH   3   4
BRANCH   3   8
ATOM      8  C   UNL     1      -4.156  -3.707  -3.139  1.00  0.00     0.099 C 
ATOM      9  O   UNL     1      -3.319  -4.058  -2.265  1.00  0.00    -0.544 OA
ATOM     10  O   UNL     1      -5.513  -3.872  -2.893  1.00  0.00    -0.544 OA
ENDBRANCH   3   8
ENDBRANCH   1   3
BRANCH   1  11
ATOM     11  C   UNL     1      -2.018  -1.454  -3.443  1.00  0.00     0.006 C 
ATOM     12  C   UNL     1      -2.061  -0.275  -2.468  1.00  0.00     0.004 C 
ENDBRANCH   1  11
TORSDOF 4
ENDMDL
MODEL 8
REMARK VINA RESULT:    -4.205      2.632      3.316
REMARK INTER + INTRA:          -5.100
REMARK INTER:                  -4.955
REMARK INTRA:                  -0.145
REMARK UNBOUND:                -0.034
REMARK SMILES CC[C@H](C)[C@@H]([NH3+])C(=O)[O-]
REMARK SMILES IDX 3 1 4 2 5 3 6 4 7 8 8 9 9 10 2 11 1 12
REMARK H PARENT 6 5 6 6 6 7
REMARK Flexibility Score: inf
ROOT
ATOM      1  C   UNL     1      -2.722  -1.236  -3.810  1.00  0.00     0.050 C 
ATOM      2  C   UNL     1      -2.009  -0.407  -2.724  1.00  0.00     0.014 C 
ENDROOT
BRANCH   1   3
ATOM      3  C   UNL     1      -4.202  -0.770  -3.999  1.00  0.00     0.230 C 
BRANCH   3   4
ATOM      4  N   UNL     1      -4.444   0.562  -3.422  1.00  0.00    -0.350 N 
ATOM      5  H   UNL     1      -4.992   0.477  -2.533  1.00  0.00     0.345 HD
ATOM      6  H   UNL     1      -3.536   1.020  -3.175  1.00  0.00     0.345 HD
ATOM      7  H   UNL     1      -4.974   1.166  -4.091  1.00  0.00     0.345 HD
ENDBRANCH   3   4
BRANCH   3   8
ATOM      8  C   UNL     1      -4.582  -0.752  -5.460  1.00  0.00     0.099 C 
ATOM      9  O   UNL     1      -4.941  -1.812  -6.038  1.00  0.00    -0.544 OA
ATOM     10  O   UNL     1      -4.532   0.437  -6.177  1.00  0.00    -0.544 OA
ENDBRANCH   3   8
ENDBRANCH   1   3
BRANCH   1  11
ATOM     11  C   UNL     1      -2.663  -2.747  -3.458  1.00  0.00     0.006 C 
ATOM     12  C   UNL     1      -3.926  -3.253  -2.756  1.00  0.00     0.004 C 
ENDBRANCH   1  11
TORSDOF 4
ENDMDL
MODEL 9
REMARK VINA RESULT:    -4.117      3.318      4.197
REMARK INTER + INTRA:          -4.993
REMARK INTER:                  -4.893
REMARK INTRA:                  -0.101
REMARK UNBOUND:                -0.034
REMARK SMILES CC[C@H](C)[C@@H]([NH3+])C(=O)[O-]
REMARK SMILES IDX 3 1 4 2 5 3 6 4 7 8 8 9 9 10 2 11 1 12
REMARK H PARENT 6 5 6 6 6 7
REMARK Flexibility Score: inf
ROOT
ATOM      1  C   UNL     1      -3.602  -3.388  -4.163  1.00  0.00     0.050 C 
ATOM      2  C   UNL     1      -4.630  -2.265  -3.924  1.00  0.00     0.014 C 
ENDROOT
BRANCH   1   3
ATOM      3  C   UNL     1      -3.996  -4.691  -3.394  1.00  0.00     0.230 C 
BRANCH   3   4
ATOM      4  N   UNL     1      -3.808  -4.556  -1.940  1.00  0.00    -0.350 N 
ATOM      5  H   UNL     1      -4.471  -5.186  -1.430  1.00  0.00     0.345 HD
ATOM      6  H   UNL     1      -2.841  -4.852  -1.672  1.00  0.00     0.345 HD
ATOM      7  H   UNL     1      -3.973  -3.570  -1.635  1.00  0.00     0.345 HD
ENDBRANCH   3   4
BRANCH   3   8
ATOM      8  C   UNL     1      -5.429  -5.073  -3.674  1.00  0.00     0.099 C 
ATOM      9  O   UNL     1      -6.284  -5.067  -2.748  1.00  0.00    -0.544 OA
ATOM     10  O   UNL     1      -5.813  -5.437  -4.959  1.00  0.00    -0.544 OA
ENDBRANCH   3   8
ENDBRANCH   1   3
BRANCH   1  11
ATOM     11  C   UNL     1      -2.182  -2.914  -3.749  1.00  0.00     0.006 C 
ATOM     12  C   UNL     1      -2.136  -1.445  -3.325  1.00  0.00     0.004 C 
ENDBRANCH   1  11
TORSDOF 4
ENDMDL
