MODEL 1
REMARK VINA RESULT:    -5.027      0.000      0.000
REMARK INTER + INTRA:          -8.486
REMARK INTER:                  -7.672
REMARK INTRA:                  -0.814
REMARK UNBOUND:                -0.814
REMARK SMILES C[C@@H]1O[C@@H](Oc2c(-c3ccc(O)cc3)oc3cc(O[C@@H]4O[C@H](C)[C@@H](O)[C@H](O)[C@H]4O)cc(O)c3c2=O)[C@H](O)[C@H](O)[C@@H]1O
REMARK SMILES IDX 18 1 30 2 31 3 33 4 16 5 17 6 15 7 7 8 6 9 34 10 35 11 19 12
REMARK SMILES IDX 20 13 23 14 22 15 24 16 21 17 26 18 28 19 25 20 27 22 29 24
REMARK SMILES IDX 32 26 8 28 9 29 14 30 10 31 13 32 11 33 12 34 5 36 4 37
REMARK SMILES IDX 36 38 3 39 38 40 2 41 40 42 1 43 37 44 39 46 41 48
REMARK H PARENT 25 21 27 23 29 25 32 27 12 35 37 45 39 47 41 49
REMARK Flexibility Score: inf
ROOT
ATOM      1  C   UNL     1      -5.053   0.377  18.478  1.00  0.00     0.130 A 
ATOM      2  C   UNL     1      -3.742   0.758  18.769  1.00  0.00     0.093 A 
ATOM      3  C   UNL     1      -3.124   1.828  18.107  1.00  0.00     0.134 A 
ATOM      4  C   UNL     1      -3.827   2.514  17.070  1.00  0.00     0.111 A 
ATOM      5  C   UNL     1      -5.169   2.132  16.806  1.00  0.00     0.146 A 
ATOM      6  C   UNL     1      -5.766   1.078  17.498  1.00  0.00     0.094 A 
ATOM      7  O   UNL     1      -5.892   2.771  15.898  1.00  0.00    -0.452 OA
ATOM      8  C   UNL     1      -5.427   3.777  15.168  1.00  0.00     0.180 A 
ATOM      9  C   UNL     1      -4.080   4.167  15.288  1.00  0.00     0.214 A 
ATOM     10  C   UNL     1      -3.271   3.528  16.252  1.00  0.00     0.239 A 
ATOM     11  O   UNL     1      -2.063   3.857  16.356  1.00  0.00    -0.285 OA
ENDROOT
BRANCH   1  12
ATOM     12  O   UNL     1      -5.611  -0.698  19.190  1.00  0.00    -0.462 OA
BRANCH  12  13
ATOM     13  C   UNL     1      -7.011  -0.900  19.403  1.00  0.00     0.339 C 
ATOM     14  C   UNL     1      -5.401  -3.501  19.979  1.00  0.00     0.042 C 
ATOM     15  C   UNL     1      -6.914  -3.227  19.939  1.00  0.00     0.151 C 
ATOM     16  C   UNL     1      -7.589  -3.642  18.611  1.00  0.00     0.174 C 
ATOM     17  O   UNL     1      -7.252  -1.915  20.370  1.00  0.00    -0.335 OA
ATOM     18  C   UNL     1      -7.423  -2.570  17.517  1.00  0.00     0.180 C 
ATOM     19  C   UNL     1      -7.734  -1.168  18.064  1.00  0.00     0.214 C 
BRANCH  16  20
ATOM     20  O   UNL     1      -8.956  -3.875  18.850  1.00  0.00    -0.388 OA
ATOM     21  H   UNL     1      -9.448  -3.082  18.511  1.00  0.00     0.211 HD
ENDBRANCH  16  20
BRANCH  18  22
ATOM     22  O   UNL     1      -6.115  -2.589  17.005  1.00  0.00    -0.387 OA
ATOM     23  H   UNL     1      -5.717  -1.697  17.190  1.00  0.00     0.211 HD
ENDBRANCH  18  22
BRANCH  19  24
ATOM     24  O   UNL     1      -9.125  -0.972  18.179  1.00  0.00    -0.384 OA
ATOM     25  H   UNL     1      -9.524  -1.782  18.590  1.00  0.00     0.211 HD
ENDBRANCH  19  24
ENDBRANCH  12  13
ENDBRANCH   1  12
BRANCH   3  26
ATOM     26  O   UNL     1      -1.841   2.169  18.544  1.00  0.00    -0.507 OA
ATOM     27  H   UNL     1      -1.011   2.154  17.975  1.00  0.00     0.293 HD
ENDBRANCH   3  26
BRANCH   8  28
ATOM     28  C   UNL     1      -6.349   4.417  14.202  1.00  0.00     0.021 A 
ATOM     29  C   UNL     1      -5.974   4.506  12.850  1.00  0.00     0.016 A 
ATOM     30  C   UNL     1      -7.618   4.885  14.594  1.00  0.00     0.016 A 
ATOM     31  C   UNL     1      -6.841   5.073  11.914  1.00  0.00     0.047 A 
ATOM     32  C   UNL     1      -8.483   5.453  13.654  1.00  0.00     0.047 A 
ATOM     33  C   UNL     1      -8.096   5.549  12.311  1.00  0.00     0.115 A 
BRANCH  33  34
ATOM     34  O   UNL     1      -8.949   6.108  11.364  1.00  0.00    -0.508 OA
ATOM     35  H   UNL     1      -9.401   7.003  11.518  1.00  0.00     0.293 HD
ENDBRANCH  33  34
ENDBRANCH   8  28
BRANCH   9  36
ATOM     36  O   UNL     1      -3.591   5.161  14.420  1.00  0.00    -0.454 OA
BRANCH  36  37
ATOM     37  C   UNL     1      -3.082   6.439  14.823  1.00  0.00     0.339 C 
ATOM     38  C   UNL     1      -2.542   7.189  13.579  1.00  0.00     0.214 C 
ATOM     39  O   UNL     1      -4.066   7.201  15.511  1.00  0.00    -0.335 OA
ATOM     40  C   UNL     1      -3.699   7.669  12.676  1.00  0.00     0.180 C 
ATOM     41  C   UNL     1      -5.190   7.467  14.687  1.00  0.00     0.151 C 
ATOM     42  C   UNL     1      -4.799   8.370  13.499  1.00  0.00     0.174 C 
ATOM     43  C   UNL     1      -6.279   8.125  15.541  1.00  0.00     0.042 C 
BRANCH  38  44
ATOM     44  O   UNL     1      -1.692   8.258  13.937  1.00  0.00    -0.384 OA
ATOM     45  H   UNL     1      -2.225   8.946  14.417  1.00  0.00     0.211 HD
ENDBRANCH  38  44
BRANCH  40  46
ATOM     46  O   UNL     1      -3.221   8.533  11.675  1.00  0.00    -0.387 OA
ATOM     47  H   UNL     1      -2.238   8.409  11.632  1.00  0.00     0.211 HD
ENDBRANCH  40  46
BRANCH  42  48
ATOM     48  O   UNL     1      -4.350   9.620  13.967  1.00  0.00    -0.388 OA
ATOM     49  H   UNL     1      -4.927   9.861  14.735  1.00  0.00     0.211 HD
ENDBRANCH  42  48
ENDBRANCH  36  37
ENDBRANCH   9  36
TORSDOF 13
ENDMDL
MODEL 2
REMARK VINA RESULT:    -4.931      1.419      2.404
REMARK INTER + INTRA:          -8.339
REMARK INTER:                  -6.881
REMARK INTRA:                  -1.458
REMARK UNBOUND:                -0.814
REMARK SMILES C[C@@H]1O[C@@H](Oc2c(-c3ccc(O)cc3)oc3cc(O[C@@H]4O[C@H](C)[C@@H](O)[C@H](O)[C@H]4O)cc(O)c3c2=O)[C@H](O)[C@H](O)[C@@H]1O
REMARK SMILES IDX 18 1 30 2 31 3 33 4 16 5 17 6 15 7 7 8 6 9 34 10 35 11 19 12
REMARK SMILES IDX 20 13 23 14 22 15 24 16 21 17 26 18 28 19 25 20 27 22 29 24
REMARK SMILES IDX 32 26 8 28 9 29 14 30 10 31 13 32 11 33 12 34 5 36 4 37
REMARK SMILES IDX 36 38 3 39 38 40 2 41 40 42 1 43 37 44 39 46 41 48
REMARK H PARENT 25 21 27 23 29 25 32 27 12 35 37 45 39 47 41 49
REMARK Flexibility Score: inf
ROOT
ATOM      1  C   UNL     1      -5.277   0.966  17.910  1.00  0.00     0.130 A 
ATOM      2  C   UNL     1      -3.896   1.113  18.051  1.00  0.00     0.093 A 
ATOM      3  C   UNL     1      -3.227   2.254  17.583  1.00  0.00     0.134 A 
ATOM      4  C   UNL     1      -3.962   3.268  16.897  1.00  0.00     0.111 A 
ATOM      5  C   UNL     1      -5.369   3.116  16.788  1.00  0.00     0.146 A 
ATOM      6  C   UNL     1      -6.011   1.980  17.283  1.00  0.00     0.094 A 
ATOM      7  O   UNL     1      -6.113   4.052  16.215  1.00  0.00    -0.452 OA
ATOM      8  C   UNL     1      -5.612   5.165  15.694  1.00  0.00     0.180 A 
ATOM      9  C   UNL     1      -4.220   5.364  15.667  1.00  0.00     0.214 A 
ATOM     10  C   UNL     1      -3.385   4.404  16.278  1.00  0.00     0.239 A 
ATOM     11  O   UNL     1      -2.139   4.563  16.246  1.00  0.00    -0.285 OA
ENDROOT
BRANCH   1  12
ATOM     12  O   UNL     1      -5.880  -0.198  18.414  1.00  0.00    -0.462 OA
BRANCH  12  13
ATOM     13  C   UNL     1      -6.673  -1.107  17.644  1.00  0.00     0.339 C 
ATOM     14  C   UNL     1      -8.080  -0.378  20.325  1.00  0.00     0.042 C 
ATOM     15  C   UNL     1      -8.446  -1.387  19.223  1.00  0.00     0.151 C 
ATOM     16  C   UNL     1      -8.035  -2.843  19.546  1.00  0.00     0.174 C 
ATOM     17  O   UNL     1      -8.060  -0.956  17.924  1.00  0.00    -0.335 OA
ATOM     18  C   UNL     1      -6.553  -3.111  19.220  1.00  0.00     0.180 C 
ATOM     19  C   UNL     1      -6.181  -2.559  17.835  1.00  0.00     0.214 C 
BRANCH  16  20
ATOM     20  O   UNL     1      -8.853  -3.719  18.811  1.00  0.00    -0.388 OA
ATOM     21  H   UNL     1      -8.358  -4.576  18.727  1.00  0.00     0.211 HD
ENDBRANCH  16  20
BRANCH  18  22
ATOM     22  O   UNL     1      -5.723  -2.526  20.192  1.00  0.00    -0.387 OA
ATOM     23  H   UNL     1      -5.989  -2.909  21.070  1.00  0.00     0.211 HD
ENDBRANCH  18  22
BRANCH  19  24
ATOM     24  O   UNL     1      -6.658  -3.404  16.814  1.00  0.00    -0.384 OA
ATOM     25  H   UNL     1      -5.989  -3.420  16.081  1.00  0.00     0.211 HD
ENDBRANCH  19  24
ENDBRANCH  12  13
ENDBRANCH   1  12
BRANCH   3  26
ATOM     26  O   UNL     1      -1.858   2.325  17.857  1.00  0.00    -0.507 OA
ATOM     27  H   UNL     1      -1.428   2.972  18.497  1.00  0.00     0.293 HD
ENDBRANCH   3  26
BRANCH   8  28
ATOM     28  C   UNL     1      -6.558   6.139  15.102  1.00  0.00     0.021 A 
ATOM     29  C   UNL     1      -6.656   7.427  15.658  1.00  0.00     0.016 A 
ATOM     30  C   UNL     1      -7.317   5.828  13.958  1.00  0.00     0.016 A 
ATOM     31  C   UNL     1      -7.514   8.375  15.096  1.00  0.00     0.047 A 
ATOM     32  C   UNL     1      -8.176   6.779  13.398  1.00  0.00     0.047 A 
ATOM     33  C   UNL     1      -8.276   8.056  13.968  1.00  0.00     0.115 A 
BRANCH  33  34
ATOM     34  O   UNL     1      -9.124   9.014  13.419  1.00  0.00    -0.508 OA
ATOM     35  H   UNL     1      -9.058   9.285  12.444  1.00  0.00     0.293 HD
ENDBRANCH  33  34
ENDBRANCH   8  28
BRANCH   9  36
ATOM     36  O   UNL     1      -3.718   6.502  15.008  1.00  0.00    -0.454 OA
BRANCH  36  37
ATOM     37  C   UNL     1      -3.172   6.523  13.684  1.00  0.00     0.339 C 
ATOM     38  C   UNL     1      -4.291   6.882  12.675  1.00  0.00     0.214 C 
ATOM     39  O   UNL     1      -2.069   7.417  13.587  1.00  0.00    -0.335 OA
ATOM     40  C   UNL     1      -4.687   8.371  12.791  1.00  0.00     0.180 C 
ATOM     41  C   UNL     1      -2.453   8.752  13.876  1.00  0.00     0.151 C 
ATOM     42  C   UNL     1      -3.441   9.281  12.816  1.00  0.00     0.174 C 
ATOM     43  C   UNL     1      -1.193   9.623  13.934  1.00  0.00     0.042 C 
BRANCH  38  44
ATOM     44  O   UNL     1      -3.934   6.548  11.351  1.00  0.00    -0.384 OA
ATOM     45  H   UNL     1      -4.579   6.974  10.725  1.00  0.00     0.211 HD
ENDBRANCH  38  44
BRANCH  40  46
ATOM     46  O   UNL     1      -5.535   8.743  11.734  1.00  0.00    -0.387 OA
ATOM     47  H   UNL     1      -5.193   9.604  11.379  1.00  0.00     0.211 HD
ENDBRANCH  40  46
BRANCH  42  48
ATOM     48  O   UNL     1      -2.825   9.314  11.551  1.00  0.00    -0.388 OA
ATOM     49  H   UNL     1      -3.326   8.685  10.973  1.00  0.00     0.211 HD
ENDBRANCH  42  48
ENDBRANCH  36  37
ENDBRANCH   9  36
TORSDOF 13
ENDMDL
MODEL 3
REMARK VINA RESULT:    -4.929      9.636     15.365
REMARK INTER + INTRA:          -8.336
REMARK INTER:                  -7.782
REMARK INTRA:                  -0.554
REMARK UNBOUND:                -0.814
REMARK SMILES C[C@@H]1O[C@@H](Oc2c(-c3ccc(O)cc3)oc3cc(O[C@@H]4O[C@H](C)[C@@H](O)[C@H](O)[C@H]4O)cc(O)c3c2=O)[C@H](O)[C@H](O)[C@@H]1O
REMARK SMILES IDX 18 1 30 2 31 3 33 4 16 5 17 6 15 7 7 8 6 9 34 10 35 11 19 12
REMARK SMILES IDX 20 13 23 14 22 15 24 16 21 17 26 18 28 19 25 20 27 22 29 24
REMARK SMILES IDX 32 26 8 28 9 29 14 30 10 31 13 32 11 33 12 34 5 36 4 37
REMARK SMILES IDX 36 38 3 39 38 40 2 41 40 42 1 43 37 44 39 46 41 48
REMARK H PARENT 25 21 27 23 29 25 32 27 12 35 37 45 39 47 41 49
REMARK Flexibility Score: inf
ROOT
ATOM      1  C   UNL     1      -1.651  -7.626  27.791  1.00  0.00     0.130 A 
ATOM      2  C   UNL     1      -2.466  -8.669  28.232  1.00  0.00     0.093 A 
ATOM      3  C   UNL     1      -3.651  -9.009  27.563  1.00  0.00     0.134 A 
ATOM      4  C   UNL     1      -4.066  -8.239  26.435  1.00  0.00     0.111 A 
ATOM      5  C   UNL     1      -3.211  -7.201  25.981  1.00  0.00     0.146 A 
ATOM      6  C   UNL     1      -2.027  -6.900  26.654  1.00  0.00     0.094 A 
ATOM      7  O   UNL     1      -3.514  -6.491  24.904  1.00  0.00    -0.452 OA
ATOM      8  C   UNL     1      -4.620  -6.676  24.194  1.00  0.00     0.180 A 
ATOM      9  C   UNL     1      -5.577  -7.617  24.616  1.00  0.00     0.214 A 
ATOM     10  C   UNL     1      -5.295  -8.409  25.750  1.00  0.00     0.239 A 
ATOM     11  O   UNL     1      -6.150  -9.241  26.147  1.00  0.00    -0.285 OA
ENDROOT
BRANCH   1  12
ATOM     12  O   UNL     1      -0.473  -7.350  28.504  1.00  0.00    -0.462 OA
BRANCH  12  13
ATOM     13  C   UNL     1       0.556  -6.455  28.071  1.00  0.00     0.339 C 
ATOM     14  C   UNL     1       1.135  -9.369  27.139  1.00  0.00     0.042 C 
ATOM     15  C   UNL     1       1.973  -8.082  27.042  1.00  0.00     0.151 C 
ATOM     16  C   UNL     1       3.052  -7.955  28.142  1.00  0.00     0.174 C 
ATOM     17  O   UNL     1       1.179  -6.914  26.877  1.00  0.00    -0.335 OA
ATOM     18  C   UNL     1       2.472  -7.410  29.462  1.00  0.00     0.180 C 
ATOM     19  C   UNL     1       1.568  -6.193  29.209  1.00  0.00     0.214 C 
BRANCH  16  20
ATOM     20  O   UNL     1       4.073  -7.104  27.680  1.00  0.00    -0.388 OA
ATOM     21  H   UNL     1       4.405  -7.487  26.827  1.00  0.00     0.211 HD
ENDBRANCH  16  20
BRANCH  18  22
ATOM     22  O   UNL     1       1.735  -8.407  30.123  1.00  0.00    -0.387 OA
ATOM     23  H   UNL     1       2.355  -9.166  30.287  1.00  0.00     0.211 HD
ENDBRANCH  18  22
BRANCH  19  24
ATOM     24  O   UNL     1       2.338  -5.040  28.960  1.00  0.00    -0.384 OA
ATOM     25  H   UNL     1       2.165  -4.383  29.684  1.00  0.00     0.211 HD
ENDBRANCH  19  24
ENDBRANCH  12  13
ENDBRANCH   1  12
BRANCH   3  26
ATOM     26  O   UNL     1      -4.338 -10.125  28.049  1.00  0.00    -0.507 OA
ATOM     27  H   UNL     1      -4.994 -10.115  28.813  1.00  0.00     0.293 HD
ENDBRANCH   3  26
BRANCH   8  28
ATOM     28  C   UNL     1      -4.825  -5.827  22.998  1.00  0.00     0.021 A 
ATOM     29  C   UNL     1      -6.011  -5.083  22.879  1.00  0.00     0.016 A 
ATOM     30  C   UNL     1      -3.835  -5.700  22.005  1.00  0.00     0.016 A 
ATOM     31  C   UNL     1      -6.213  -4.247  21.778  1.00  0.00     0.047 A 
ATOM     32  C   UNL     1      -4.041  -4.863  20.904  1.00  0.00     0.047 A 
ATOM     33  C   UNL     1      -5.232  -4.135  20.788  1.00  0.00     0.115 A 
BRANCH  33  34
ATOM     34  O   UNL     1      -5.448  -3.296  19.699  1.00  0.00    -0.508 OA
ATOM     35  H   UNL     1      -6.090  -2.512  19.751  1.00  0.00     0.293 HD
ENDBRANCH  33  34
ENDBRANCH   8  28
BRANCH   9  36
ATOM     36  O   UNL     1      -6.787  -7.708  23.904  1.00  0.00    -0.454 OA
BRANCH  36  37
ATOM     37  C   UNL     1      -7.213  -8.836  23.130  1.00  0.00     0.339 C 
ATOM     38  C   UNL     1      -8.419  -8.425  22.249  1.00  0.00     0.214 C 
ATOM     39  O   UNL     1      -6.149  -9.369  22.351  1.00  0.00    -0.335 OA
ATOM     40  C   UNL     1      -7.973  -7.502  21.094  1.00  0.00     0.180 C 
ATOM     41  C   UNL     1      -5.657  -8.417  21.421  1.00  0.00     0.151 C 
ATOM     42  C   UNL     1      -6.733  -8.067  20.372  1.00  0.00     0.174 C 
ATOM     43  C   UNL     1      -4.403  -8.989  20.750  1.00  0.00     0.042 C 
BRANCH  38  44
ATOM     44  O   UNL     1      -9.125  -9.548  21.765  1.00  0.00    -0.384 OA
ATOM     45  H   UNL     1      -9.148  -9.511  20.772  1.00  0.00     0.211 HD
ENDBRANCH  38  44
BRANCH  40  46
ATOM     46  O   UNL     1      -9.021  -7.314  20.176  1.00  0.00    -0.387 OA
ATOM     47  H   UNL     1      -9.815  -7.781  20.545  1.00  0.00     0.211 HD
ENDBRANCH  40  46
BRANCH  42  48
ATOM     48  O   UNL     1      -7.071  -9.210  19.623  1.00  0.00    -0.388 OA
ATOM     49  H   UNL     1      -6.979  -8.963  18.668  1.00  0.00     0.211 HD
ENDBRANCH  42  48
ENDBRANCH  36  37
ENDBRANCH   9  36
TORSDOF 13
ENDMDL
MODEL 4
REMARK VINA RESULT:    -4.905      9.036     14.761
REMARK INTER + INTRA:          -8.300
REMARK INTER:                  -7.870
REMARK INTRA:                  -0.431
REMARK UNBOUND:                -0.814
REMARK SMILES C[C@@H]1O[C@@H](Oc2c(-c3ccc(O)cc3)oc3cc(O[C@@H]4O[C@H](C)[C@@H](O)[C@H](O)[C@H]4O)cc(O)c3c2=O)[C@H](O)[C@H](O)[C@@H]1O
REMARK SMILES IDX 18 1 30 2 31 3 33 4 16 5 17 6 15 7 7 8 6 9 34 10 35 11 19 12
REMARK SMILES IDX 20 13 23 14 22 15 24 16 21 17 26 18 28 19 25 20 27 22 29 24
REMARK SMILES IDX 32 26 8 28 9 29 14 30 10 31 13 32 11 33 12 34 5 36 4 37
REMARK SMILES IDX 36 38 3 39 38 40 2 41 40 42 1 43 37 44 39 46 41 48
REMARK H PARENT 25 21 27 23 29 25 32 27 12 35 37 45 39 47 41 49
REMARK Flexibility Score: inf
ROOT
ATOM      1  C   UNL     1      -2.954  -7.278  27.389  1.00  0.00     0.130 A 
ATOM      2  C   UNL     1      -3.655  -8.465  27.607  1.00  0.00     0.093 A 
ATOM      3  C   UNL     1      -4.698  -8.869  26.761  1.00  0.00     0.134 A 
ATOM      4  C   UNL     1      -5.094  -8.023  25.680  1.00  0.00     0.111 A 
ATOM      5  C   UNL     1      -4.353  -6.833  25.456  1.00  0.00     0.146 A 
ATOM      6  C   UNL     1      -3.305  -6.468  26.301  1.00  0.00     0.094 A 
ATOM      7  O   UNL     1      -4.635  -6.038  24.433  1.00  0.00    -0.452 OA
ATOM      8  C   UNL     1      -5.618  -6.274  23.574  1.00  0.00     0.180 A 
ATOM      9  C   UNL     1      -6.470  -7.377  23.766  1.00  0.00     0.214 A 
ATOM     10  C   UNL     1      -6.203  -8.262  24.832  1.00  0.00     0.239 A 
ATOM     11  O   UNL     1      -6.967  -9.242  25.024  1.00  0.00    -0.285 OA
ENDROOT
BRANCH   1  12
ATOM     12  O   UNL     1      -1.914  -6.944  28.271  1.00  0.00    -0.462 OA
BRANCH  12  13
ATOM     13  C   UNL     1      -1.389  -7.809  29.282  1.00  0.00     0.339 C 
ATOM     14  C   UNL     1       0.631  -5.546  28.579  1.00  0.00     0.042 C 
ATOM     15  C   UNL     1       0.758  -6.778  29.492  1.00  0.00     0.151 C 
ATOM     16  C   UNL     1       1.484  -7.974  28.832  1.00  0.00     0.174 C 
ATOM     17  O   UNL     1      -0.467  -7.128  30.125  1.00  0.00    -0.335 OA
ATOM     18  C   UNL     1       0.540  -8.803  27.939  1.00  0.00     0.180 C 
ATOM     19  C   UNL     1      -0.790  -9.086  28.653  1.00  0.00     0.214 C 
BRANCH  16  20
ATOM     20  O   UNL     1       2.027  -8.789  29.842  1.00  0.00    -0.388 OA
ATOM     21  H   UNL     1       2.205  -8.202  30.623  1.00  0.00     0.211 HD
ENDBRANCH  16  20
BRANCH  18  22
ATOM     22  O   UNL     1       0.287  -8.127  26.733  1.00  0.00    -0.387 OA
ATOM     23  H   UNL     1      -0.663  -8.302  26.496  1.00  0.00     0.211 HD
ENDBRANCH  18  22
BRANCH  19  24
ATOM     24  O   UNL     1      -0.638 -10.111  29.608  1.00  0.00    -0.384 OA
ATOM     25  H   UNL     1       0.230  -9.983  30.072  1.00  0.00     0.211 HD
ENDBRANCH  19  24
ENDBRANCH  12  13
ENDBRANCH   1  12
BRANCH   3  26
ATOM     26  O   UNL     1      -5.266 -10.117  27.030  1.00  0.00    -0.507 OA
ATOM     27  H   UNL     1      -6.226 -10.366  26.859  1.00  0.00     0.293 HD
ENDBRANCH   3  26
BRANCH   8  28
ATOM     28  C   UNL     1      -5.812  -5.314  22.463  1.00  0.00     0.021 A 
ATOM     29  C   UNL     1      -4.757  -5.083  21.563  1.00  0.00     0.016 A 
ATOM     30  C   UNL     1      -7.047  -4.674  22.248  1.00  0.00     0.016 A 
ATOM     31  C   UNL     1      -4.926  -4.210  20.486  1.00  0.00     0.047 A 
ATOM     32  C   UNL     1      -7.213  -3.800  21.169  1.00  0.00     0.047 A 
ATOM     33  C   UNL     1      -6.152  -3.566  20.286  1.00  0.00     0.115 A 
BRANCH  33  34
ATOM     34  O   UNL     1      -6.305  -2.702  19.205  1.00  0.00    -0.508 OA
ATOM     35  H   UNL     1      -6.368  -1.698  19.332  1.00  0.00     0.293 HD
ENDBRANCH  33  34
ENDBRANCH   8  28
BRANCH   9  36
ATOM     36  O   UNL     1      -7.569  -7.533  22.902  1.00  0.00    -0.454 OA
BRANCH  36  37
ATOM     37  C   UNL     1      -7.774  -8.634  22.008  1.00  0.00     0.339 C 
ATOM     38  C   UNL     1      -8.542  -8.142  20.757  1.00  0.00     0.214 C 
ATOM     39  O   UNL     1      -6.545  -9.260  21.659  1.00  0.00    -0.335 OA
ATOM     40  C   UNL     1      -7.637  -7.272  19.857  1.00  0.00     0.180 C 
ATOM     41  C   UNL     1      -5.676  -8.363  20.985  1.00  0.00     0.151 C 
ATOM     42  C   UNL     1      -6.268  -7.943  19.624  1.00  0.00     0.174 C 
ATOM     43  C   UNL     1      -4.314  -9.041  20.805  1.00  0.00     0.042 C 
BRANCH  38  44
ATOM     44  O   UNL     1      -9.111  -9.212  20.032  1.00  0.00    -0.384 OA
ATOM     45  H   UNL     1      -9.741  -8.844  19.357  1.00  0.00     0.211 HD
ENDBRANCH  38  44
BRANCH  40  46
ATOM     46  O   UNL     1      -8.263  -7.014  18.625  1.00  0.00    -0.387 OA
ATOM     47  H   UNL     1      -8.760  -6.161  18.727  1.00  0.00     0.211 HD
ENDBRANCH  40  46
BRANCH  42  48
ATOM     48  O   UNL     1      -6.401  -9.066  18.785  1.00  0.00    -0.388 OA
ATOM     49  H   UNL     1      -5.960  -9.822  19.249  1.00  0.00     0.211 HD
ENDBRANCH  42  48
ENDBRANCH  36  37
ENDBRANCH   9  36
TORSDOF 13
ENDMDL
MODEL 5
REMARK VINA RESULT:    -4.834      8.243     15.485
REMARK INTER + INTRA:          -8.192
REMARK INTER:                  -8.024
REMARK INTRA:                  -0.168
REMARK UNBOUND:                -0.814
REMARK SMILES C[C@@H]1O[C@@H](Oc2c(-c3ccc(O)cc3)oc3cc(O[C@@H]4O[C@H](C)[C@@H](O)[C@H](O)[C@H]4O)cc(O)c3c2=O)[C@H](O)[C@H](O)[C@@H]1O
REMARK SMILES IDX 18 1 30 2 31 3 33 4 16 5 17 6 15 7 7 8 6 9 34 10 35 11 19 12
REMARK SMILES IDX 20 13 23 14 22 15 24 16 21 17 26 18 28 19 25 20 27 22 29 24
REMARK SMILES IDX 32 26 8 28 9 29 14 30 10 31 13 32 11 33 12 34 5 36 4 37
REMARK SMILES IDX 36 38 3 39 38 40 2 41 40 42 1 43 37 44 39 46 41 48
REMARK H PARENT 25 21 27 23 29 25 32 27 12 35 37 45 39 47 41 49
REMARK Flexibility Score: inf
ROOT
ATOM      1  C   UNL     1      -6.151  -5.987  21.140  1.00  0.00     0.130 A 
ATOM      2  C   UNL     1      -4.888  -6.452  20.771  1.00  0.00     0.093 A 
ATOM      3  C   UNL     1      -4.125  -7.261  21.625  1.00  0.00     0.134 A 
ATOM      4  C   UNL     1      -4.623  -7.577  22.926  1.00  0.00     0.111 A 
ATOM      5  C   UNL     1      -5.921  -7.120  23.274  1.00  0.00     0.146 A 
ATOM      6  C   UNL     1      -6.667  -6.334  22.394  1.00  0.00     0.094 A 
ATOM      7  O   UNL     1      -6.462  -7.431  24.443  1.00  0.00    -0.452 OA
ATOM      8  C   UNL     1      -5.842  -8.156  25.365  1.00  0.00     0.180 A 
ATOM      9  C   UNL     1      -4.516  -8.576  25.154  1.00  0.00     0.214 A 
ATOM     10  C   UNL     1      -3.900  -8.283  23.918  1.00  0.00     0.239 A 
ATOM     11  O   UNL     1      -2.710  -8.639  23.725  1.00  0.00    -0.285 OA
ENDROOT
BRANCH   1  12
ATOM     12  O   UNL     1      -6.862  -5.190  20.228  1.00  0.00    -0.462 OA
BRANCH  12  13
ATOM     13  C   UNL     1      -6.420  -3.924  19.729  1.00  0.00     0.339 C 
ATOM     14  C   UNL     1      -8.974  -3.611  21.483  1.00  0.00     0.042 C 
ATOM     15  C   UNL     1      -8.192  -2.596  20.632  1.00  0.00     0.151 C 
ATOM     16  C   UNL     1      -8.813  -2.337  19.239  1.00  0.00     0.174 C 
ATOM     17  O   UNL     1      -6.795  -2.861  20.597  1.00  0.00    -0.335 OA
ATOM     18  C   UNL     1      -8.413  -3.418  18.216  1.00  0.00     0.180 C 
ATOM     19  C   UNL     1      -6.905  -3.708  18.279  1.00  0.00     0.214 C 
BRANCH  16  20
ATOM     20  O   UNL     1      -8.399  -1.071  18.786  1.00  0.00    -0.388 OA
ATOM     21  H   UNL     1      -9.181  -0.654  18.338  1.00  0.00     0.211 HD
ENDBRANCH  16  20
BRANCH  18  22
ATOM     22  O   UNL     1      -9.125  -4.606  18.453  1.00  0.00    -0.387 OA
ATOM     23  H   UNL     1     -10.042  -4.344  18.734  1.00  0.00     0.211 HD
ENDBRANCH  18  22
BRANCH  19  24
ATOM     24  O   UNL     1      -6.172  -2.691  17.635  1.00  0.00    -0.384 OA
ATOM     25  H   UNL     1      -6.660  -2.423  16.813  1.00  0.00     0.211 HD
ENDBRANCH  19  24
ENDBRANCH  12  13
ENDBRANCH   1  12
BRANCH   3  26
ATOM     26  O   UNL     1      -2.914  -7.735  21.112  1.00  0.00    -0.507 OA
ATOM     27  H   UNL     1      -2.811  -8.543  20.522  1.00  0.00     0.293 HD
ENDBRANCH   3  26
BRANCH   8  28
ATOM     28  C   UNL     1      -6.569  -8.449  26.621  1.00  0.00     0.021 A 
ATOM     29  C   UNL     1      -7.798  -7.813  26.869  1.00  0.00     0.016 A 
ATOM     30  C   UNL     1      -6.090  -9.396  27.547  1.00  0.00     0.016 A 
ATOM     31  C   UNL     1      -8.520  -8.099  28.029  1.00  0.00     0.047 A 
ATOM     32  C   UNL     1      -6.815  -9.680  28.708  1.00  0.00     0.047 A 
ATOM     33  C   UNL     1      -8.032  -9.030  28.952  1.00  0.00     0.115 A 
BRANCH  33  34
ATOM     34  O   UNL     1      -8.766  -9.306  30.102  1.00  0.00    -0.508 OA
ATOM     35  H   UNL     1      -8.377  -9.165  31.028  1.00  0.00     0.293 HD
ENDBRANCH  33  34
ENDBRANCH   8  28
BRANCH   9  36
ATOM     36  O   UNL     1      -3.851  -9.248  26.197  1.00  0.00    -0.454 OA
BRANCH  36  37
ATOM     37  C   UNL     1      -2.477  -9.068  26.559  1.00  0.00     0.339 C 
ATOM     38  C   UNL     1      -2.160  -7.553  26.628  1.00  0.00     0.214 C 
ATOM     39  O   UNL     1      -2.167  -9.726  27.782  1.00  0.00    -0.335 OA
ATOM     40  C   UNL     1      -2.818  -6.904  27.866  1.00  0.00     0.180 C 
ATOM     41  C   UNL     1      -2.930  -9.208  28.860  1.00  0.00     0.151 C 
ATOM     42  C   UNL     1      -2.559  -7.737  29.138  1.00  0.00     0.174 C 
ATOM     43  C   UNL     1      -2.685 -10.079  30.097  1.00  0.00     0.042 C 
BRANCH  38  44
ATOM     44  O   UNL     1      -0.771  -7.303  26.594  1.00  0.00    -0.384 OA
ATOM     45  H   UNL     1      -0.305  -8.002  27.127  1.00  0.00     0.211 HD
ENDBRANCH  38  44
BRANCH  40  46
ATOM     46  O   UNL     1      -2.350  -5.591  28.046  1.00  0.00    -0.387 OA
ATOM     47  H   UNL     1      -1.455  -5.659  28.469  1.00  0.00     0.211 HD
ENDBRANCH  40  46
BRANCH  42  48
ATOM     48  O   UNL     1      -1.210  -7.642  29.529  1.00  0.00    -0.388 OA
ATOM     49  H   UNL     1      -1.127  -6.813  30.065  1.00  0.00     0.211 HD
ENDBRANCH  42  48
ENDBRANCH  36  37
ENDBRANCH   9  36
TORSDOF 13
ENDMDL
MODEL 6
REMARK VINA RESULT:    -4.367      2.525      3.809
REMARK INTER + INTRA:          -7.479
REMARK INTER:                  -7.850
REMARK INTRA:                   0.372
REMARK UNBOUND:                -0.814
REMARK SMILES C[C@@H]1O[C@@H](Oc2c(-c3ccc(O)cc3)oc3cc(O[C@@H]4O[C@H](C)[C@@H](O)[C@H](O)[C@H]4O)cc(O)c3c2=O)[C@H](O)[C@H](O)[C@@H]1O
REMARK SMILES IDX 18 1 30 2 31 3 33 4 16 5 17 6 15 7 7 8 6 9 34 10 35 11 19 12
REMARK SMILES IDX 20 13 23 14 22 15 24 16 21 17 26 18 28 19 25 20 27 22 29 24
REMARK SMILES IDX 32 26 8 28 9 29 14 30 10 31 13 32 11 33 12 34 5 36 4 37
REMARK SMILES IDX 36 38 3 39 38 40 2 41 40 42 1 43 37 44 39 46 41 48
REMARK H PARENT 25 21 27 23 29 25 32 27 12 35 37 45 39 47 41 49
REMARK Flexibility Score: inf
ROOT
ATOM      1  C   UNL     1      -5.190   0.766  18.350  1.00  0.00     0.130 A 
ATOM      2  C   UNL     1      -3.931   0.483  18.884  1.00  0.00     0.093 A 
ATOM      3  C   UNL     1      -2.841   1.344  18.689  1.00  0.00     0.134 A 
ATOM      4  C   UNL     1      -3.002   2.510  17.881  1.00  0.00     0.111 A 
ATOM      5  C   UNL     1      -4.295   2.798  17.370  1.00  0.00     0.146 A 
ATOM      6  C   UNL     1      -5.367   1.934  17.599  1.00  0.00     0.094 A 
ATOM      7  O   UNL     1      -4.519   3.897  16.665  1.00  0.00    -0.452 OA
ATOM      8  C   UNL     1      -3.575   4.781  16.370  1.00  0.00     0.180 A 
ATOM      9  C   UNL     1      -2.242   4.539  16.749  1.00  0.00     0.214 A 
ATOM     10  C   UNL     1      -1.953   3.390  17.516  1.00  0.00     0.239 A 
ATOM     11  O   UNL     1      -0.763   3.155  17.847  1.00  0.00    -0.285 OA
ENDROOT
BRANCH   1  12
ATOM     12  O   UNL     1      -6.238  -0.137  18.596  1.00  0.00    -0.462 OA
BRANCH  12  13
ATOM     13  C   UNL     1      -6.853  -0.966  17.606  1.00  0.00     0.339 C 
ATOM     14  C   UNL     1      -8.417  -1.079  20.296  1.00  0.00     0.042 C 
ATOM     15  C   UNL     1      -8.587  -1.864  18.984  1.00  0.00     0.151 C 
ATOM     16  C   UNL     1      -7.946  -3.272  19.010  1.00  0.00     0.174 C 
ATOM     17  O   UNL     1      -8.251  -1.101  17.832  1.00  0.00    -0.335 OA
ATOM     18  C   UNL     1      -6.434  -3.225  18.719  1.00  0.00     0.180 C 
ATOM     19  C   UNL     1      -6.131  -2.328  17.508  1.00  0.00     0.214 C 
BRANCH  16  20
ATOM     20  O   UNL     1      -8.592  -4.082  18.059  1.00  0.00    -0.388 OA
ATOM     21  H   UNL     1      -7.895  -4.656  17.646  1.00  0.00     0.211 HD
ENDBRANCH  16  20
BRANCH  18  22
ATOM     22  O   UNL     1      -5.733  -2.746  19.840  1.00  0.00    -0.387 OA
ATOM     23  H   UNL     1      -6.407  -2.565  20.548  1.00  0.00     0.211 HD
ENDBRANCH  18  22
BRANCH  19  24
ATOM     24  O   UNL     1      -6.439  -2.992  16.304  1.00  0.00    -0.384 OA
ATOM     25  H   UNL     1      -7.395  -3.257  16.327  1.00  0.00     0.211 HD
ENDBRANCH  19  24
ENDBRANCH  12  13
ENDBRANCH   1  12
BRANCH   3  26
ATOM     26  O   UNL     1      -1.655   0.998  19.343  1.00  0.00    -0.507 OA
ATOM     27  H   UNL     1      -1.204   0.101  19.289  1.00  0.00     0.293 HD
ENDBRANCH   3  26
BRANCH   8  28
ATOM     28  C   UNL     1      -3.966   5.978  15.591  1.00  0.00     0.021 A 
ATOM     29  C   UNL     1      -3.227   6.326  14.447  1.00  0.00     0.016 A 
ATOM     30  C   UNL     1      -5.098   6.743  15.933  1.00  0.00     0.016 A 
ATOM     31  C   UNL     1      -3.598   7.429  13.675  1.00  0.00     0.047 A 
ATOM     32  C   UNL     1      -5.466   7.848  15.159  1.00  0.00     0.047 A 
ATOM     33  C   UNL     1      -4.715   8.194  14.027  1.00  0.00     0.115 A 
BRANCH  33  34
ATOM     34  O   UNL     1      -5.072   9.288  13.246  1.00  0.00    -0.508 OA
ATOM     35  H   UNL     1      -5.237  10.202  13.654  1.00  0.00     0.293 HD
ENDBRANCH  33  34
ENDBRANCH   8  28
BRANCH   9  36
ATOM     36  O   UNL     1      -1.250   5.442  16.324  1.00  0.00    -0.454 OA
BRANCH  36  37
ATOM     37  C   UNL     1       0.123   5.422  16.733  1.00  0.00     0.339 C 
ATOM     38  C   UNL     1       0.890   6.554  16.005  1.00  0.00     0.214 C 
ATOM     39  O   UNL     1       0.250   5.525  18.146  1.00  0.00    -0.335 OA
ATOM     40  C   UNL     1       0.497   7.939  16.564  1.00  0.00     0.180 C 
ATOM     41  C   UNL     1      -0.287   6.745  18.631  1.00  0.00     0.151 C 
ATOM     42  C   UNL     1       0.524   7.949  18.106  1.00  0.00     0.174 C 
ATOM     43  C   UNL     1      -0.286   6.709  20.163  1.00  0.00     0.042 C 
BRANCH  38  44
ATOM     44  O   UNL     1       2.288   6.358  16.053  1.00  0.00    -0.384 OA
ATOM     45  H   UNL     1       2.519   5.893  16.901  1.00  0.00     0.211 HD
ENDBRANCH  38  44
BRANCH  40  46
ATOM     46  O   UNL     1       1.350   8.937  16.061  1.00  0.00    -0.387 OA
ATOM     47  H   UNL     1       1.712   8.601  15.201  1.00  0.00     0.211 HD
ENDBRANCH  40  46
BRANCH  42  48
ATOM     48  O   UNL     1       1.847   7.885  18.582  1.00  0.00    -0.388 OA
ATOM     49  H   UNL     1       2.371   7.390  17.902  1.00  0.00     0.211 HD
ENDBRANCH  42  48
ENDBRANCH  36  37
ENDBRANCH   9  36
TORSDOF 13
ENDMDL
MODEL 7
REMARK VINA RESULT:    -2.636      6.714     14.569
REMARK INTER + INTRA:          -4.838
REMARK INTER:                  -8.661
REMARK INTRA:                   3.823
REMARK UNBOUND:                -0.814
REMARK SMILES C[C@@H]1O[C@@H](Oc2c(-c3ccc(O)cc3)oc3cc(O[C@@H]4O[C@H](C)[C@@H](O)[C@H](O)[C@H]4O)cc(O)c3c2=O)[C@H](O)[C@H](O)[C@@H]1O
REMARK SMILES IDX 18 1 30 2 31 3 33 4 16 5 17 6 15 7 7 8 6 9 34 10 35 11 19 12
REMARK SMILES IDX 20 13 23 14 22 15 24 16 21 17 26 18 28 19 25 20 27 22 29 24
REMARK SMILES IDX 32 26 8 28 9 29 14 30 10 31 13 32 11 33 12 34 5 36 4 37
REMARK SMILES IDX 36 38 3 39 38 40 2 41 40 42 1 43 37 44 39 46 41 48
REMARK H PARENT 25 21 27 23 29 25 32 27 12 35 37 45 39 47 41 49
REMARK Flexibility Score: inf
ROOT
ATOM      1  C   UNL     1      -5.954  -4.761  19.852  1.00  0.00     0.130 A 
ATOM      2  C   UNL     1      -6.544  -5.941  19.396  1.00  0.00     0.093 A 
ATOM      3  C   UNL     1      -6.510  -7.120  20.154  1.00  0.00     0.134 A 
ATOM      4  C   UNL     1      -5.810  -7.135  21.399  1.00  0.00     0.111 A 
ATOM      5  C   UNL     1      -5.241  -5.919  21.862  1.00  0.00     0.146 A 
ATOM      6  C   UNL     1      -5.310  -4.756  21.095  1.00  0.00     0.094 A 
ATOM      7  O   UNL     1      -4.632  -5.857  23.037  1.00  0.00    -0.452 OA
ATOM      8  C   UNL     1      -4.491  -6.901  23.843  1.00  0.00     0.180 A 
ATOM      9  C   UNL     1      -4.937  -8.171  23.434  1.00  0.00     0.214 A 
ATOM     10  C   UNL     1      -5.606  -8.288  22.196  1.00  0.00     0.239 A 
ATOM     11  O   UNL     1      -5.994  -9.420  21.813  1.00  0.00    -0.285 OA
ENDROOT
BRANCH   1  12
ATOM     12  O   UNL     1      -6.038  -3.616  19.043  1.00  0.00    -0.462 OA
BRANCH  12  13
ATOM     13  C   UNL     1      -6.303  -2.294  19.521  1.00  0.00     0.339 C 
ATOM     14  C   UNL     1      -8.940  -3.907  19.157  1.00  0.00     0.042 C 
ATOM     15  C   UNL     1      -8.689  -2.433  19.520  1.00  0.00     0.151 C 
ATOM     16  C   UNL     1      -8.825  -1.463  18.324  1.00  0.00     0.174 C 
ATOM     17  O   UNL     1      -7.503  -2.244  20.282  1.00  0.00    -0.335 OA
ATOM     18  C   UNL     1      -7.542  -1.412  17.471  1.00  0.00     0.180 C 
ATOM     19  C   UNL     1      -6.293  -1.279  18.356  1.00  0.00     0.214 C 
BRANCH  16  20
ATOM     20  O   UNL     1      -9.125  -0.179  18.814  1.00  0.00    -0.388 OA
ATOM     21  H   UNL     1      -8.827  -0.153  19.761  1.00  0.00     0.211 HD
ENDBRANCH  16  20
BRANCH  18  22
ATOM     22  O   UNL     1      -7.432  -2.570  16.682  1.00  0.00    -0.387 OA
ATOM     23  H   UNL     1      -8.054  -3.243  17.065  1.00  0.00     0.211 HD
ENDBRANCH  18  22
BRANCH  19  24
ATOM     24  O   UNL     1      -6.149   0.042  18.823  1.00  0.00    -0.384 OA
ATOM     25  H   UNL     1      -6.225   0.660  18.050  1.00  0.00     0.211 HD
ENDBRANCH  19  24
ENDBRANCH  12  13
ENDBRANCH   1  12
BRANCH   3  26
ATOM     26  O   UNL     1      -7.207  -8.213  19.633  1.00  0.00    -0.507 OA
ATOM     27  H   UNL     1      -6.944  -8.731  18.811  1.00  0.00     0.293 HD
ENDBRANCH   3  26
BRANCH   8  28
ATOM     28  C   UNL     1      -3.807  -6.688  25.139  1.00  0.00     0.021 A 
ATOM     29  C   UNL     1      -4.270  -5.681  26.004  1.00  0.00     0.016 A 
ATOM     30  C   UNL     1      -2.741  -7.510  25.555  1.00  0.00     0.016 A 
ATOM     31  C   UNL     1      -3.665  -5.484  27.247  1.00  0.00     0.047 A 
ATOM     32  C   UNL     1      -2.137  -7.309  26.800  1.00  0.00     0.047 A 
ATOM     33  C   UNL     1      -2.598  -6.294  27.649  1.00  0.00     0.115 A 
BRANCH  33  34
ATOM     34  O   UNL     1      -2.008  -6.086  28.892  1.00  0.00    -0.508 OA
ATOM     35  H   UNL     1      -2.546  -5.760  29.688  1.00  0.00     0.293 HD
ENDBRANCH  33  34
ENDBRANCH   8  28
BRANCH   9  36
ATOM     36  O   UNL     1      -4.671  -9.274  24.265  1.00  0.00    -0.454 OA
BRANCH  36  37
ATOM     37  C   UNL     1      -5.647  -9.992  25.032  1.00  0.00     0.339 C 
ATOM     38  C   UNL     1      -5.846  -9.285  26.396  1.00  0.00     0.214 C 
ATOM     39  O   UNL     1      -6.873 -10.125  24.324  1.00  0.00    -0.335 OA
ATOM     40  C   UNL     1      -6.611  -7.954  26.225  1.00  0.00     0.180 C 
ATOM     41  C   UNL     1      -7.450  -8.861  24.037  1.00  0.00     0.151 C 
ATOM     42  C   UNL     1      -7.859  -8.136  25.336  1.00  0.00     0.174 C 
ATOM     43  C   UNL     1      -8.661  -9.070  23.121  1.00  0.00     0.042 C 
BRANCH  38  44
ATOM     44  O   UNL     1      -6.480 -10.125  27.337  1.00  0.00    -0.384 OA
ATOM     45  H   UNL     1      -5.951 -10.123  28.178  1.00  0.00     0.211 HD
ENDBRANCH  38  44
BRANCH  40  46
ATOM     46  O   UNL     1      -6.982  -7.431  27.475  1.00  0.00    -0.387 OA
ATOM     47  H   UNL     1      -6.560  -8.006  28.165  1.00  0.00     0.211 HD
ENDBRANCH  40  46
BRANCH  42  48
ATOM     48  O   UNL     1      -8.848  -8.875  26.013  1.00  0.00    -0.388 OA
ATOM     49  H   UNL     1      -9.526  -9.130  25.337  1.00  0.00     0.211 HD
ENDBRANCH  42  48
ENDBRANCH  36  37
ENDBRANCH   9  36
TORSDOF 13
ENDMDL
MODEL 8
REMARK VINA RESULT:    -2.251     12.317     17.279
REMARK INTER + INTRA:          -4.250
REMARK INTER:                  -5.503
REMARK INTRA:                   1.254
REMARK UNBOUND:                -0.814
REMARK SMILES C[C@@H]1O[C@@H](Oc2c(-c3ccc(O)cc3)oc3cc(O[C@@H]4O[C@H](C)[C@@H](O)[C@H](O)[C@H]4O)cc(O)c3c2=O)[C@H](O)[C@H](O)[C@@H]1O
REMARK SMILES IDX 18 1 30 2 31 3 33 4 16 5 17 6 15 7 7 8 6 9 34 10 35 11 19 12
REMARK SMILES IDX 20 13 23 14 22 15 24 16 21 17 26 18 28 19 25 20 27 22 29 24
REMARK SMILES IDX 32 26 8 28 9 29 14 30 10 31 13 32 11 33 12 34 5 36 4 37
REMARK SMILES IDX 36 38 3 39 38 40 2 41 40 42 1 43 37 44 39 46 41 48
REMARK H PARENT 25 21 27 23 29 25 32 27 12 35 37 45 39 47 41 49
REMARK Flexibility Score: inf
ROOT
ATOM      1  C   UNL     1       0.343  -9.089  27.060  1.00  0.00     0.130 A 
ATOM      2  C   UNL     1       0.405  -8.774  25.701  1.00  0.00     0.093 A 
ATOM      3  C   UNL     1      -0.756  -8.640  24.925  1.00  0.00     0.134 A 
ATOM      4  C   UNL     1      -2.031  -8.883  25.520  1.00  0.00     0.111 A 
ATOM      5  C   UNL     1      -2.078  -9.174  26.909  1.00  0.00     0.146 A 
ATOM      6  C   UNL     1      -0.907  -9.279  27.661  1.00  0.00     0.094 A 
ATOM      7  O   UNL     1      -3.235  -9.350  27.529  1.00  0.00    -0.452 OA
ATOM      8  C   UNL     1      -4.410  -9.290  26.915  1.00  0.00     0.180 A 
ATOM      9  C   UNL     1      -4.466  -9.102  25.522  1.00  0.00     0.214 A 
ATOM     10  C   UNL     1      -3.261  -8.895  24.817  1.00  0.00     0.239 A 
ATOM     11  O   UNL     1      -3.297  -8.741  23.570  1.00  0.00    -0.285 OA
ENDROOT
BRANCH   1  12
ATOM     12  O   UNL     1       1.547  -9.196  27.776  1.00  0.00    -0.462 OA
BRANCH  12  13
ATOM     13  C   UNL     1       2.812  -8.701  27.329  1.00  0.00     0.339 C 
ATOM     14  C   UNL     1       3.073 -10.125  30.085  1.00  0.00     0.042 C 
ATOM     15  C   UNL     1       4.091  -9.331  29.248  1.00  0.00     0.151 C 
ATOM     16  C   UNL     1       4.271  -7.866  29.708  1.00  0.00     0.174 C 
ATOM     17  O   UNL     1       3.888  -9.474  27.848  1.00  0.00    -0.335 OA
ATOM     18  C   UNL     1       3.173  -6.943  29.144  1.00  0.00     0.180 C 
ATOM     19  C   UNL     1       2.954  -7.196  27.644  1.00  0.00     0.214 C 
BRANCH  16  20
ATOM     20  O   UNL     1       5.537  -7.413  29.293  1.00  0.00    -0.388 OA
ATOM     21  H   UNL     1       5.517  -6.421  29.335  1.00  0.00     0.211 HD
ENDBRANCH  16  20
BRANCH  18  22
ATOM     22  O   UNL     1       1.963  -7.143  29.831  1.00  0.00    -0.387 OA
ATOM     23  H   UNL     1       2.062  -6.717  30.723  1.00  0.00     0.211 HD
ENDBRANCH  18  22
BRANCH  19  24
ATOM     24  O   UNL     1       3.978  -6.602  26.881  1.00  0.00    -0.384 OA
ATOM     25  H   UNL     1       3.588  -6.277  26.027  1.00  0.00     0.211 HD
ENDBRANCH  19  24
ENDBRANCH  12  13
ENDBRANCH   1  12
BRANCH   3  26
ATOM     26  O   UNL     1      -0.571  -8.239  23.599  1.00  0.00    -0.507 OA
ATOM     27  H   UNL     1      -0.773  -7.322  23.237  1.00  0.00     0.293 HD
ENDBRANCH   3  26
BRANCH   8  28
ATOM     28  C   UNL     1      -5.630  -9.485  27.732  1.00  0.00     0.021 A 
ATOM     29  C   UNL     1      -5.554  -9.332  29.128  1.00  0.00     0.016 A 
ATOM     30  C   UNL     1      -6.878  -9.759  27.140  1.00  0.00     0.016 A 
ATOM     31  C   UNL     1      -6.698  -9.476  29.916  1.00  0.00     0.047 A 
ATOM     32  C   UNL     1      -8.020  -9.902  27.933  1.00  0.00     0.047 A 
ATOM     33  C   UNL     1      -7.932  -9.761  29.324  1.00  0.00     0.115 A 
BRANCH  33  34
ATOM     34  O   UNL     1      -9.062  -9.897  30.125  1.00  0.00    -0.508 OA
ATOM     35  H   UNL     1      -9.997  -9.878  29.732  1.00  0.00     0.293 HD
ENDBRANCH  33  34
ENDBRANCH   8  28
BRANCH   9  36
ATOM     36  O   UNL     1      -5.721  -9.155  24.889  1.00  0.00    -0.454 OA
BRANCH  36  37
ATOM     37  C   UNL     1      -6.663  -8.078  24.817  1.00  0.00     0.339 C 
ATOM     38  C   UNL     1      -6.020  -6.796  25.405  1.00  0.00     0.214 C 
ATOM     39  O   UNL     1      -7.122  -7.873  23.486  1.00  0.00    -0.335 OA
ATOM     40  C   UNL     1      -4.941  -6.231  24.456  1.00  0.00     0.180 C 
ATOM     41  C   UNL     1      -6.058  -7.524  22.614  1.00  0.00     0.151 C 
ATOM     42  C   UNL     1      -5.455  -6.158  23.003  1.00  0.00     0.174 C 
ATOM     43  C   UNL     1      -6.589  -7.500  21.177  1.00  0.00     0.042 C 
BRANCH  38  44
ATOM     44  O   UNL     1      -6.989  -5.819  25.722  1.00  0.00    -0.384 OA
ATOM     45  H   UNL     1      -7.690  -5.821  25.017  1.00  0.00     0.211 HD
ENDBRANCH  38  44
BRANCH  40  46
ATOM     46  O   UNL     1      -4.521  -4.959  24.883  1.00  0.00    -0.387 OA
ATOM     47  H   UNL     1      -5.035  -4.747  25.704  1.00  0.00     0.211 HD
ENDBRANCH  40  46
BRANCH  42  48
ATOM     48  O   UNL     1      -6.421  -5.144  22.868  1.00  0.00    -0.388 OA
ATOM     49  H   UNL     1      -6.602  -4.799  23.779  1.00  0.00     0.211 HD
ENDBRANCH  42  48
ENDBRANCH  36  37
ENDBRANCH   9  36
TORSDOF 13
ENDMDL
MODEL 9
REMARK VINA RESULT:    -2.205     12.802     17.484
REMARK INTER + INTRA:          -4.180
REMARK INTER:                  -4.505
REMARK INTRA:                   0.326
REMARK UNBOUND:                -0.814
REMARK SMILES C[C@@H]1O[C@@H](Oc2c(-c3ccc(O)cc3)oc3cc(O[C@@H]4O[C@H](C)[C@@H](O)[C@H](O)[C@H]4O)cc(O)c3c2=O)[C@H](O)[C@H](O)[C@@H]1O
REMARK SMILES IDX 18 1 30 2 31 3 33 4 16 5 17 6 15 7 7 8 6 9 34 10 35 11 19 12
REMARK SMILES IDX 20 13 23 14 22 15 24 16 21 17 26 18 28 19 25 20 27 22 29 24
REMARK SMILES IDX 32 26 8 28 9 29 14 30 10 31 13 32 11 33 12 34 5 36 4 37
REMARK SMILES IDX 36 38 3 39 38 40 2 41 40 42 1 43 37 44 39 46 41 48
REMARK H PARENT 25 21 27 23 29 25 32 27 12 35 37 45 39 47 41 49
REMARK Flexibility Score: inf
ROOT
ATOM      1  C   UNL     1       0.972  -8.149  27.236  1.00  0.00     0.130 A 
ATOM      2  C   UNL     1       1.055  -8.172  25.843  1.00  0.00     0.093 A 
ATOM      3  C   UNL     1      -0.079  -8.372  25.042  1.00  0.00     0.134 A 
ATOM      4  C   UNL     1      -1.343  -8.613  25.662  1.00  0.00     0.111 A 
ATOM      5  C   UNL     1      -1.415  -8.558  27.078  1.00  0.00     0.146 A 
ATOM      6  C   UNL     1      -0.274  -8.335  27.849  1.00  0.00     0.094 A 
ATOM      7  O   UNL     1      -2.571  -8.715  27.707  1.00  0.00    -0.452 OA
ATOM      8  C   UNL     1      -3.718  -8.949  27.082  1.00  0.00     0.180 A 
ATOM      9  C   UNL     1      -3.735  -9.115  25.685  1.00  0.00     0.214 A 
ATOM     10  C   UNL     1      -2.532  -8.944  24.967  1.00  0.00     0.239 A 
ATOM     11  O   UNL     1      -2.532  -9.106  23.720  1.00  0.00    -0.285 OA
ENDROOT
BRANCH   1  12
ATOM     12  O   UNL     1       2.148  -7.932  27.973  1.00  0.00    -0.462 OA
BRANCH  12  13
ATOM     13  C   UNL     1       3.305  -7.249  27.484  1.00  0.00     0.339 C 
ATOM     14  C   UNL     1       3.933  -8.773  30.125  1.00  0.00     0.042 C 
ATOM     15  C   UNL     1       4.780  -7.806  29.280  1.00  0.00     0.151 C 
ATOM     16  C   UNL     1       4.798  -6.357  29.821  1.00  0.00     0.174 C 
ATOM     17  O   UNL     1       4.505  -7.898  27.889  1.00  0.00    -0.335 OA
ATOM     18  C   UNL     1       3.554  -5.560  29.382  1.00  0.00     0.180 C 
ATOM     19  C   UNL     1       3.270  -5.757  27.884  1.00  0.00     0.214 C 
BRANCH  16  20
ATOM     20  O   UNL     1       5.964  -5.717  29.362  1.00  0.00    -0.388 OA
ATOM     21  H   UNL     1       6.163  -6.088  28.462  1.00  0.00     0.211 HD
ENDBRANCH  16  20
BRANCH  18  22
ATOM     22  O   UNL     1       2.430  -5.958  30.125  1.00  0.00    -0.387 OA
ATOM     23  H   UNL     1       2.194  -5.200  30.723  1.00  0.00     0.211 HD
ENDBRANCH  18  22
BRANCH  19  24
ATOM     24  O   UNL     1       4.155  -4.991  27.101  1.00  0.00    -0.384 OA
ATOM     25  H   UNL     1       5.071  -5.357  27.211  1.00  0.00     0.211 HD
ENDBRANCH  19  24
ENDBRANCH  12  13
ENDBRANCH   1  12
BRANCH   3  26
ATOM     26  O   UNL     1       0.116  -8.289  23.661  1.00  0.00    -0.507 OA
ATOM     27  H   UNL     1      -0.043  -7.468  23.101  1.00  0.00     0.293 HD
ENDBRANCH   3  26
BRANCH   8  28
ATOM     28  C   UNL     1      -4.942  -9.082  27.905  1.00  0.00     0.021 A 
ATOM     29  C   UNL     1      -6.193  -8.812  27.325  1.00  0.00     0.016 A 
ATOM     30  C   UNL     1      -4.888  -9.533  29.238  1.00  0.00     0.016 A 
ATOM     31  C   UNL     1      -7.364  -8.965  28.070  1.00  0.00     0.047 A 
ATOM     32  C   UNL     1      -6.063  -9.685  29.981  1.00  0.00     0.047 A 
ATOM     33  C   UNL     1      -7.304  -9.399  29.398  1.00  0.00     0.115 A 
BRANCH  33  34
ATOM     34  O   UNL     1      -8.482  -9.550  30.125  1.00  0.00    -0.508 OA
ATOM     35  H   UNL     1      -8.582 -10.271  30.830  1.00  0.00     0.293 HD
ENDBRANCH  33  34
ENDBRANCH   8  28
BRANCH   9  36
ATOM     36  O   UNL     1      -4.948  -9.472  25.068  1.00  0.00    -0.454 OA
BRANCH  36  37
ATOM     37  C   UNL     1      -5.337  -9.122  23.734  1.00  0.00     0.339 C 
ATOM     38  C   UNL     1      -6.854  -9.385  23.558  1.00  0.00     0.214 C 
ATOM     39  O   UNL     1      -4.997  -7.775  23.427  1.00  0.00    -0.335 OA
ATOM     40  C   UNL     1      -7.691  -8.342  24.330  1.00  0.00     0.180 C 
ATOM     41  C   UNL     1      -5.662  -6.860  24.284  1.00  0.00     0.151 C 
ATOM     42  C   UNL     1      -7.188  -6.909  24.060  1.00  0.00     0.174 C 
ATOM     43  C   UNL     1      -5.114  -5.454  24.022  1.00  0.00     0.042 C 
BRANCH  38  44
ATOM     44  O   UNL     1      -7.225  -9.435  22.196  1.00  0.00    -0.384 OA
ATOM     45  H   UNL     1      -6.404  -9.382  21.637  1.00  0.00     0.211 HD
ENDBRANCH  38  44
BRANCH  40  46
ATOM     46  O   UNL     1      -9.051  -8.447  23.991  1.00  0.00    -0.387 OA
ATOM     47  H   UNL     1      -9.153  -9.284  23.468  1.00  0.00     0.211 HD
ENDBRANCH  40  46
BRANCH  42  48
ATOM     48  O   UNL     1      -7.499  -6.512  22.746  1.00  0.00    -0.388 OA
ATOM     49  H   UNL     1      -8.265  -5.887  22.810  1.00  0.00     0.211 HD
ENDBRANCH  42  48
ENDBRANCH  36  37
ENDBRANCH   9  36
TORSDOF 13
ENDMDL
