MODEL 1
REMARK VINA RESULT:    -4.628      0.000      0.000
REMARK INTER + INTRA:          -4.628
REMARK INTER:                  -4.628
REMARK INTRA:                   0.000
REMARK UNBOUND:                 0.000
REMARK SMILES CC(C)=C1CC[C@@H](C)CC1=O
REMARK SMILES IDX 8 1 7 2 6 3 5 4 4 5 2 6 1 7 3 8 10 9 11 10 9 11
REMARK H PARENT
REMARK Flexibility Score: inf
ROOT
ATOM      1  C   UNL     1       4.886  12.885  24.418  1.00  0.00     0.008 C 
ATOM      2  C   UNL     1       4.250  13.984  23.560  1.00  0.00    -0.006 C 
ATOM      3  C   UNL     1       3.131  14.698  24.337  1.00  0.00     0.008 C 
ATOM      4  C   UNL     1       2.553  15.868  23.531  1.00  0.00     0.039 C 
ATOM      5  C   UNL     1       2.120  15.455  22.131  1.00  0.00    -0.006 C 
ATOM      6  C   UNL     1       1.069  16.062  21.505  1.00  0.00    -0.070 C 
ATOM      7  C   UNL     1       0.301  17.181  22.170  1.00  0.00     0.039 C 
ATOM      8  C   UNL     1       0.596  15.623  20.138  1.00  0.00     0.039 C 
ATOM      9  C   UNL     1       2.982  14.442  21.450  1.00  0.00     0.159 C 
ATOM     10  O   UNL     1       3.137  14.448  20.199  1.00  0.00    -0.295 OA
ATOM     11  C   UNL     1       3.690  13.394  22.258  1.00  0.00     0.084 C 
ENDROOT
TORSDOF 0
ENDMDL
MODEL 2
REMARK VINA RESULT:    -4.612      6.201      7.739
REMARK INTER + INTRA:          -4.612
REMARK INTER:                  -4.612
REMARK INTRA:                   0.000
REMARK UNBOUND:                 0.000
REMARK SMILES CC(C)=C1CC[C@@H](C)CC1=O
REMARK SMILES IDX 8 1 7 2 6 3 5 4 4 5 2 6 1 7 3 8 10 9 11 10 9 11
REMARK H PARENT
REMARK Flexibility Score: inf
ROOT
ATOM      1  C   UNL     1       2.666  12.107  14.496  1.00  0.00     0.008 C 
ATOM      2  C   UNL     1       2.414  11.475  15.869  1.00  0.00    -0.006 C 
ATOM      3  C   UNL     1       2.053   9.987  15.722  1.00  0.00     0.008 C 
ATOM      4  C   UNL     1       1.897   9.314  17.092  1.00  0.00     0.039 C 
ATOM      5  C   UNL     1       0.933  10.062  18.004  1.00  0.00    -0.006 C 
ATOM      6  C   UNL     1       0.170   9.401  18.923  1.00  0.00    -0.070 C 
ATOM      7  C   UNL     1       0.261   7.901  19.086  1.00  0.00     0.039 C 
ATOM      8  C   UNL     1      -0.830  10.126  19.795  1.00  0.00     0.039 C 
ATOM      9  C   UNL     1       0.966  11.552  17.911  1.00  0.00     0.159 C 
ATOM     10  O   UNL     1       0.733  12.276  18.916  1.00  0.00    -0.295 OA
ATOM     11  C   UNL     1       1.288  12.217  16.605  1.00  0.00     0.084 C 
ENDROOT
TORSDOF 0
ENDMDL
MODEL 3
REMARK VINA RESULT:    -4.577      6.301      7.416
REMARK INTER + INTRA:          -4.577
REMARK INTER:                  -4.577
REMARK INTRA:                   0.000
REMARK UNBOUND:                 0.000
REMARK SMILES CC(C)=C1CC[C@@H](C)CC1=O
REMARK SMILES IDX 8 1 7 2 6 3 5 4 4 5 2 6 1 7 3 8 10 9 11 10 9 11
REMARK H PARENT
REMARK Flexibility Score: inf
ROOT
ATOM      1  C   UNL     1       0.748   8.034  19.267  1.00  0.00     0.008 C 
ATOM      2  C   UNL     1       0.776   9.063  18.131  1.00  0.00    -0.006 C 
ATOM      3  C   UNL     1       2.002   8.839  17.229  1.00  0.00     0.008 C 
ATOM      4  C   UNL     1       1.992   9.794  16.028  1.00  0.00     0.039 C 
ATOM      5  C   UNL     1       1.830  11.250  16.443  1.00  0.00    -0.006 C 
ATOM      6  C   UNL     1       2.402  12.260  15.723  1.00  0.00    -0.070 C 
ATOM      7  C   UNL     1       3.206  11.976  14.475  1.00  0.00     0.039 C 
ATOM      8  C   UNL     1       2.295  13.704  16.156  1.00  0.00     0.039 C 
ATOM      9  C   UNL     1       0.920  11.506  17.599  1.00  0.00     0.159 C 
ATOM     10  O   UNL     1       0.239  12.564  17.676  1.00  0.00    -0.295 OA
ATOM     11  C   UNL     1       0.797  10.490  18.697  1.00  0.00     0.084 C 
ENDROOT
TORSDOF 0
ENDMDL
MODEL 4
REMARK VINA RESULT:    -4.448      1.804      4.316
REMARK INTER + INTRA:          -4.448
REMARK INTER:                  -4.448
REMARK INTRA:                   0.000
REMARK UNBOUND:                 0.000
REMARK SMILES CC(C)=C1CC[C@@H](C)CC1=O
REMARK SMILES IDX 8 1 7 2 6 3 5 4 4 5 2 6 1 7 3 8 10 9 11 10 9 11
REMARK H PARENT
REMARK Flexibility Score: inf
ROOT
ATOM      1  C   UNL     1       0.622  17.161  21.369  1.00  0.00     0.008 C 
ATOM      2  C   UNL     1       1.108  16.115  22.378  1.00  0.00    -0.006 C 
ATOM      3  C   UNL     1       2.609  16.293  22.662  1.00  0.00     0.008 C 
ATOM      4  C   UNL     1       3.091  15.320  23.746  1.00  0.00     0.039 C 
ATOM      5  C   UNL     1       2.721  13.875  23.439  1.00  0.00    -0.006 C 
ATOM      6  C   UNL     1       3.518  12.840  23.838  1.00  0.00    -0.070 C 
ATOM      7  C   UNL     1       4.790  13.084  24.616  1.00  0.00     0.039 C 
ATOM      8  C   UNL     1       3.190  11.405  23.492  1.00  0.00     0.039 C 
ATOM      9  C   UNL     1       1.393  13.661  22.790  1.00  0.00     0.159 C 
ATOM     10  O   UNL     1       0.714  12.623  23.013  1.00  0.00    -0.295 OA
ATOM     11  C   UNL     1       0.839  14.696  21.856  1.00  0.00     0.084 C 
ENDROOT
TORSDOF 0
ENDMDL
MODEL 5
REMARK VINA RESULT:    -4.431      6.299      7.140
REMARK INTER + INTRA:          -4.431
REMARK INTER:                  -4.431
REMARK INTRA:                   0.000
REMARK UNBOUND:                 0.000
REMARK SMILES CC(C)=C1CC[C@@H](C)CC1=O
REMARK SMILES IDX 8 1 7 2 6 3 5 4 4 5 2 6 1 7 3 8 10 9 11 10 9 11
REMARK H PARENT
REMARK Flexibility Score: inf
ROOT
ATOM      1  C   UNL     1       0.258   8.081  20.579  1.00  0.00     0.008 C 
ATOM      2  C   UNL     1       0.973   9.078  19.660  1.00  0.00    -0.006 C 
ATOM      3  C   UNL     1       0.006  10.184  19.205  1.00  0.00     0.008 C 
ATOM      4  C   UNL     1       0.729  11.247  18.368  1.00  0.00     0.039 C 
ATOM      5  C   UNL     1       1.512  10.643  17.209  1.00  0.00    -0.006 C 
ATOM      6  C   UNL     1       1.677  11.321  16.035  1.00  0.00    -0.070 C 
ATOM      7  C   UNL     1       1.103  12.706  15.842  1.00  0.00     0.039 C 
ATOM      8  C   UNL     1       2.405  10.710  14.860  1.00  0.00     0.039 C 
ATOM      9  C   UNL     1       2.179   9.334  17.480  1.00  0.00     0.159 C 
ATOM     10  O   UNL     1       3.267   9.026  16.924  1.00  0.00    -0.295 OA
ATOM     11  C   UNL     1       1.557   8.358  18.436  1.00  0.00     0.084 C 
ENDROOT
TORSDOF 0
ENDMDL
MODEL 6
REMARK VINA RESULT:    -4.384      1.941      3.032
REMARK INTER + INTRA:          -4.384
REMARK INTER:                  -4.384
REMARK INTRA:                   0.000
REMARK UNBOUND:                 0.000
REMARK SMILES CC(C)=C1CC[C@@H](C)CC1=O
REMARK SMILES IDX 8 1 7 2 6 3 5 4 4 5 2 6 1 7 3 8 10 9 11 10 9 11
REMARK H PARENT
REMARK Flexibility Score: inf
ROOT
ATOM      1  C   UNL     1       3.640  14.616  24.330  1.00  0.00     0.008 C 
ATOM      2  C   UNL     1       2.834  14.744  23.032  1.00  0.00    -0.006 C 
ATOM      3  C   UNL     1       3.401  13.810  21.949  1.00  0.00     0.008 C 
ATOM      4  C   UNL     1       2.545  13.848  20.677  1.00  0.00     0.039 C 
ATOM      5  C   UNL     1       2.322  15.266  20.167  1.00  0.00    -0.006 C 
ATOM      6  C   UNL     1       2.187  15.527  18.833  1.00  0.00    -0.070 C 
ATOM      7  C   UNL     1       2.237  14.417  17.808  1.00  0.00     0.039 C 
ATOM      8  C   UNL     1       2.020  16.935  18.311  1.00  0.00     0.039 C 
ATOM      9  C   UNL     1       2.142  16.318  21.211  1.00  0.00     0.159 C 
ATOM     10  O   UNL     1       1.400  17.317  21.014  1.00  0.00    -0.295 OA
ATOM     11  C   UNL     1       2.848  16.195  22.530  1.00  0.00     0.084 C 
ENDROOT
TORSDOF 0
ENDMDL
MODEL 7
REMARK VINA RESULT:    -4.318      6.059      7.202
REMARK INTER + INTRA:          -4.318
REMARK INTER:                  -4.318
REMARK INTRA:                   0.000
REMARK UNBOUND:                 0.000
REMARK SMILES CC(C)=C1CC[C@@H](C)CC1=O
REMARK SMILES IDX 8 1 7 2 6 3 5 4 4 5 2 6 1 7 3 8 10 9 11 10 9 11
REMARK H PARENT
REMARK Flexibility Score: inf
ROOT
ATOM      1  C   UNL     1      -1.028   8.846  22.328  1.00  0.00     0.008 C 
ATOM      2  C   UNL     1      -0.789   9.110  20.837  1.00  0.00    -0.006 C 
ATOM      3  C   UNL     1       0.292   8.164  20.287  1.00  0.00     0.008 C 
ATOM      4  C   UNL     1       0.471   8.344  18.774  1.00  0.00     0.039 C 
ATOM      5  C   UNL     1       0.712   9.796  18.383  1.00  0.00    -0.006 C 
ATOM      6  C   UNL     1       1.490  10.122  17.310  1.00  0.00    -0.070 C 
ATOM      7  C   UNL     1       2.132   9.055  16.454  1.00  0.00     0.039 C 
ATOM      8  C   UNL     1       1.781  11.560  16.946  1.00  0.00     0.039 C 
ATOM      9  C   UNL     1      -0.044  10.820  19.166  1.00  0.00     0.159 C 
ATOM     10  O   UNL     1      -0.424  11.899  18.638  1.00  0.00    -0.295 OA
ATOM     11  C   UNL     1      -0.372  10.570  20.609  1.00  0.00     0.084 C 
ENDROOT
TORSDOF 0
ENDMDL
MODEL 8
REMARK VINA RESULT:    -4.311      1.728      3.135
REMARK INTER + INTRA:          -4.311
REMARK INTER:                  -4.311
REMARK INTRA:                   0.000
REMARK UNBOUND:                 0.000
REMARK SMILES CC(C)=C1CC[C@@H](C)CC1=O
REMARK SMILES IDX 8 1 7 2 6 3 5 4 4 5 2 6 1 7 3 8 10 9 11 10 9 11
REMARK H PARENT
REMARK Flexibility Score: inf
ROOT
ATOM      1  C   UNL     1       2.744  15.488  23.450  1.00  0.00     0.008 C 
ATOM      2  C   UNL     1       2.332  16.121  22.116  1.00  0.00    -0.006 C 
ATOM      3  C   UNL     1       0.921  16.723  22.216  1.00  0.00     0.008 C 
ATOM      4  C   UNL     1       0.532  17.451  20.922  1.00  0.00     0.039 C 
ATOM      5  C   UNL     1       0.709  16.578  19.687  1.00  0.00    -0.006 C 
ATOM      6  C   UNL     1      -0.106  16.715  18.599  1.00  0.00    -0.070 C 
ATOM      7  C   UNL     1      -1.206  17.751  18.570  1.00  0.00     0.039 C 
ATOM      8  C   UNL     1       0.025  15.819  17.390  1.00  0.00     0.039 C 
ATOM      9  C   UNL     1       1.888  15.661  19.695  1.00  0.00     0.159 C 
ATOM     10  O   UNL     1       2.493  15.363  18.630  1.00  0.00    -0.295 OA
ATOM     11  C   UNL     1       2.378  15.080  20.989  1.00  0.00     0.084 C 
ENDROOT
TORSDOF 0
ENDMDL
MODEL 9
REMARK VINA RESULT:    -4.277      1.545      2.170
REMARK INTER + INTRA:          -4.277
REMARK INTER:                  -4.277
REMARK INTRA:                   0.000
REMARK UNBOUND:                 0.000
REMARK SMILES CC(C)=C1CC[C@@H](C)CC1=O
REMARK SMILES IDX 8 1 7 2 6 3 5 4 4 5 2 6 1 7 3 8 10 9 11 10 9 11
REMARK H PARENT
REMARK Flexibility Score: inf
ROOT
ATOM      1  C   UNL     1       3.241  14.230  24.636  1.00  0.00     0.008 C 
ATOM      2  C   UNL     1       3.428  14.687  23.184  1.00  0.00    -0.006 C 
ATOM      3  C   UNL     1       2.438  15.812  22.839  1.00  0.00     0.008 C 
ATOM      4  C   UNL     1       2.680  16.352  21.423  1.00  0.00     0.039 C 
ATOM      5  C   UNL     1       2.700  15.249  20.374  1.00  0.00    -0.006 C 
ATOM      6  C   UNL     1       2.268  15.475  19.099  1.00  0.00    -0.070 C 
ATOM      7  C   UNL     1       1.766  16.835  18.671  1.00  0.00     0.039 C 
ATOM      8  C   UNL     1       2.232  14.375  18.064  1.00  0.00     0.039 C 
ATOM      9  C   UNL     1       3.327  13.959  20.791  1.00  0.00     0.159 C 
ATOM     10  O   UNL     1       3.940  13.231  19.965  1.00  0.00    -0.295 OA
ATOM     11  C   UNL     1       3.239  13.508  22.220  1.00  0.00     0.084 C 
ENDROOT
TORSDOF 0
ENDMDL
