MODEL 1
REMARK VINA RESULT:    -4.038      0.000      0.000
REMARK INTER + INTRA:          -7.324
REMARK INTER:                  -6.044
REMARK INTRA:                  -1.280
REMARK UNBOUND:                -1.280
REMARK SMILES C=C(CC[C@@H](C(=O)[O-])[C@@H]1[C@@H](O)C[C@]2(C)C3=C(CC[C@]12C)[C@]1(C)CC[C@H](OC(C)=O)C(C)(C)[C@@H]1CC3)C(C)C
REMARK SMILES IDX 4 1 5 2 6 3 7 4 8 5 9 6 10 7 19 8 12 9 13 10 18 11 20 12
REMARK SMILES IDX 14 13 15 14 17 15 16 16 35 17 21 18 34 19 33 20 23 21 22 22
REMARK SMILES IDX 30 23 24 24 25 25 31 26 32 27 11 28 26 30 27 31 29 32 28 33
REMARK SMILES IDX 3 34 2 35 1 36 36 37 37 38 38 39
REMARK H PARENT 11 29
REMARK Flexibility Score: inf
ROOT
ATOM      1  C   UNL     1      15.937 -28.333  23.402  1.00  0.00     0.014 C 
ENDROOT
BRANCH   1   2
ATOM      2  C   UNL     1      17.021 -27.399  22.801  1.00  0.00     0.042 C 
BRANCH   2   3
ATOM      3  C   UNL     1      16.346 -26.231  22.109  1.00  0.00     0.045 C 
ATOM      4  O   UNL     1      15.557 -26.434  21.143  1.00  0.00    -0.550 OA
ATOM      5  O   UNL     1      16.550 -24.924  22.548  1.00  0.00    -0.550 OA
ENDBRANCH   2   3
BRANCH   2   6
ATOM      6  C   UNL     1      18.069 -26.989  23.908  1.00  0.00     0.033 C 
ATOM      7  C   UNL     1      19.398 -26.388  23.388  1.00  0.00     0.119 C 
ATOM      8  C   UNL     1      18.440 -28.041  25.002  1.00  0.00    -0.017 C 
ATOM      9  C   UNL     1      20.496 -26.888  24.332  1.00  0.00     0.043 C 
ATOM     10  C   UNL     1      19.805 -27.508  25.567  1.00  0.00    -0.003 C 
ATOM     11  C   UNL     1      18.660 -29.446  24.395  1.00  0.00     0.012 C 
ATOM     12  C   UNL     1      17.315 -28.129  26.076  1.00  0.00     0.013 C 
ATOM     13  C   UNL     1      19.591 -26.389  26.634  1.00  0.00     0.017 C 
ATOM     14  C   UNL     1      20.719 -28.591  26.182  1.00  0.00    -0.064 C 
ATOM     15  C   UNL     1      19.219 -30.439  25.408  1.00  0.00     0.032 C 
ATOM     16  C   UNL     1      20.445 -29.929  26.147  1.00  0.00    -0.064 C 
ATOM     17  C   UNL     1      22.055 -28.163  26.750  1.00  0.00     0.032 C 
ATOM     18  C   UNL     1      21.286 -30.893  27.043  1.00  0.00    -0.008 C 
ATOM     19  C   UNL     1      23.116 -29.164  26.328  1.00  0.00     0.009 C 
ATOM     20  C   UNL     1      22.854 -30.588  26.919  1.00  0.00     0.009 C 
ATOM     21  C   UNL     1      20.742 -30.685  28.491  1.00  0.00     0.015 C 
ATOM     22  C   UNL     1      21.020 -32.369  26.630  1.00  0.00     0.016 C 
ATOM     23  C   UNL     1      23.754 -30.992  28.185  1.00  0.00     0.005 C 
ATOM     24  C   UNL     1      21.619 -31.287  29.582  1.00  0.00     0.047 C 
ATOM     25  C   UNL     1      23.035 -30.707  29.540  1.00  0.00     0.182 C 
ATOM     26  C   UNL     1      25.125 -30.255  28.195  1.00  0.00     0.015 C 
ATOM     27  C   UNL     1      24.138 -32.504  28.122  1.00  0.00     0.015 C 
BRANCH   7  28
ATOM     28  O   UNL     1      19.330 -24.985  23.420  1.00  0.00    -0.393 OA
ATOM     29  H   UNL     1      20.232 -24.656  23.675  1.00  0.00     0.210 HD
ENDBRANCH   7  28
BRANCH  25  30
ATOM     30  O   UNL     1      22.954 -29.299  29.794  1.00  0.00    -0.462 OA
BRANCH  30  31
ATOM     31  C   UNL     1      22.994 -28.709  31.061  1.00  0.00     0.302 C 
ATOM     32  O   UNL     1      22.490 -27.571  31.270  1.00  0.00    -0.253 OA
ATOM     33  C   UNL     1      23.660 -29.435  32.178  1.00  0.00     0.139 C 
ENDBRANCH  30  31
ENDBRANCH  25  30
ENDBRANCH   2   6
ENDBRANCH   1   2
BRANCH   1  34
ATOM     34  C   UNL     1      15.787 -29.669  22.629  1.00  0.00     0.031 C 
BRANCH  34  35
ATOM     35  C   UNL     1      15.783 -30.895  23.532  1.00  0.00    -0.075 C 
ATOM     36  C   UNL     1      15.432 -30.787  24.833  1.00  0.00     0.008 C 
BRANCH  35  37
ATOM     37  C   UNL     1      16.138 -32.270  22.973  1.00  0.00     0.008 C 
ATOM     38  C   UNL     1      16.877 -33.120  24.011  1.00  0.00     0.012 C 
ATOM     39  C   UNL     1      16.956 -32.146  21.683  1.00  0.00     0.012 C 
ENDBRANCH  35  37
ENDBRANCH  34  35
ENDBRANCH   1  34
TORSDOF 9
ENDMDL
MODEL 2
REMARK VINA RESULT:    -3.803      2.299      4.511
REMARK INTER + INTRA:          -6.972
REMARK INTER:                  -7.244
REMARK INTRA:                   0.272
REMARK UNBOUND:                -1.280
REMARK SMILES C=C(CC[C@@H](C(=O)[O-])[C@@H]1[C@@H](O)C[C@]2(C)C3=C(CC[C@]12C)[C@]1(C)CC[C@H](OC(C)=O)C(C)(C)[C@@H]1CC3)C(C)C
REMARK SMILES IDX 4 1 5 2 6 3 7 4 8 5 9 6 10 7 19 8 12 9 13 10 18 11 20 12
REMARK SMILES IDX 14 13 15 14 17 15 16 16 35 17 21 18 34 19 33 20 23 21 22 22
REMARK SMILES IDX 30 23 24 24 25 25 31 26 32 27 11 28 26 30 27 31 29 32 28 33
REMARK SMILES IDX 3 34 2 35 1 36 36 37 37 38 38 39
REMARK H PARENT 11 29
REMARK Flexibility Score: inf
ROOT
ATOM      1  C   UNL     1      16.107 -27.738  22.251  1.00  0.00     0.014 C 
ENDROOT
BRANCH   1   2
ATOM      2  C   UNL     1      16.256 -28.457  23.618  1.00  0.00     0.042 C 
BRANCH   2   3
ATOM      3  C   UNL     1      15.124 -29.451  23.786  1.00  0.00     0.045 C 
ATOM      4  O   UNL     1      14.604 -29.638  24.922  1.00  0.00    -0.550 OA
ATOM      5  O   UNL     1      14.610 -30.142  22.689  1.00  0.00    -0.550 OA
ENDBRANCH   2   3
BRANCH   2   6
ATOM      6  C   UNL     1      17.700 -29.078  23.760  1.00  0.00     0.033 C 
ATOM      7  C   UNL     1      17.756 -30.578  24.144  1.00  0.00     0.119 C 
ATOM      8  C   UNL     1      18.740 -28.336  24.661  1.00  0.00    -0.017 C 
ATOM      9  C   UNL     1      18.972 -30.743  25.059  1.00  0.00     0.043 C 
ATOM     10  C   UNL     1      19.807 -29.447  24.968  1.00  0.00    -0.003 C 
ATOM     11  C   UNL     1      18.109 -27.862  25.991  1.00  0.00     0.012 C 
ATOM     12  C   UNL     1      19.325 -27.101  23.914  1.00  0.00     0.013 C 
ATOM     13  C   UNL     1      20.837 -29.595  23.805  1.00  0.00     0.017 C 
ATOM     14  C   UNL     1      20.592 -29.244  26.283  1.00  0.00    -0.064 C 
ATOM     15  C   UNL     1      19.146 -27.320  26.968  1.00  0.00     0.032 C 
ATOM     16  C   UNL     1      20.323 -28.256  27.187  1.00  0.00    -0.064 C 
ATOM     17  C   UNL     1      21.642 -30.270  26.656  1.00  0.00     0.032 C 
ATOM     18  C   UNL     1      21.356 -27.975  28.325  1.00  0.00    -0.008 C 
ATOM     19  C   UNL     1      21.526 -30.580  28.139  1.00  0.00     0.009 C 
ATOM     20  C   UNL     1      21.833 -29.332  29.029  1.00  0.00     0.009 C 
ATOM     21  C   UNL     1      22.527 -27.208  27.635  1.00  0.00     0.015 C 
ATOM     22  C   UNL     1      20.724 -27.040  29.396  1.00  0.00     0.016 C 
ATOM     23  C   UNL     1      23.288 -29.303  29.707  1.00  0.00     0.005 C 
ATOM     24  C   UNL     1      23.790 -27.103  28.480  1.00  0.00     0.047 C 
ATOM     25  C   UNL     1      24.319 -28.487  28.866  1.00  0.00     0.182 C 
ATOM     26  C   UNL     1      23.864 -30.731  29.933  1.00  0.00     0.015 C 
ATOM     27  C   UNL     1      23.210 -28.694  31.142  1.00  0.00     0.015 C 
BRANCH   7  28
ATOM     28  O   UNL     1      17.907 -31.359  22.985  1.00  0.00    -0.393 OA
ATOM     29  H   UNL     1      18.689 -31.952  23.136  1.00  0.00     0.210 HD
ENDBRANCH   7  28
BRANCH  25  30
ATOM     30  O   UNL     1      24.671 -29.185  27.665  1.00  0.00    -0.462 OA
BRANCH  30  31
ATOM     31  C   UNL     1      24.864 -28.587  26.416  1.00  0.00     0.302 C 
ATOM     32  O   UNL     1      25.118 -27.354  26.313  1.00  0.00    -0.253 OA
ATOM     33  C   UNL     1      24.749 -29.419  25.187  1.00  0.00     0.139 C 
ENDBRANCH  30  31
ENDBRANCH  25  30
ENDBRANCH   2   6
ENDBRANCH   1   2
BRANCH   1  34
ATOM     34  C   UNL     1      16.435 -26.225  22.319  1.00  0.00     0.031 C 
BRANCH  34  35
ATOM     35  C   UNL     1      15.362 -25.343  21.696  1.00  0.00    -0.075 C 
ATOM     36  C   UNL     1      15.137 -24.098  22.171  1.00  0.00     0.008 C 
BRANCH  35  37
ATOM     37  C   UNL     1      14.552 -25.835  20.500  1.00  0.00     0.008 C 
ATOM     38  C   UNL     1      15.314 -25.629  19.187  1.00  0.00     0.012 C 
ATOM     39  C   UNL     1      13.178 -25.157  20.449  1.00  0.00     0.012 C 
ENDBRANCH  35  37
ENDBRANCH  34  35
ENDBRANCH   1  34
TORSDOF 9
ENDMDL
MODEL 3
REMARK VINA RESULT:    -3.191      2.249      4.599
REMARK INTER + INTRA:          -6.056
REMARK INTER:                  -7.322
REMARK INTRA:                   1.266
REMARK UNBOUND:                -1.280
REMARK SMILES C=C(CC[C@@H](C(=O)[O-])[C@@H]1[C@@H](O)C[C@]2(C)C3=C(CC[C@]12C)[C@]1(C)CC[C@H](OC(C)=O)C(C)(C)[C@@H]1CC3)C(C)C
REMARK SMILES IDX 4 1 5 2 6 3 7 4 8 5 9 6 10 7 19 8 12 9 13 10 18 11 20 12
REMARK SMILES IDX 14 13 15 14 17 15 16 16 35 17 21 18 34 19 33 20 23 21 22 22
REMARK SMILES IDX 30 23 24 24 25 25 31 26 32 27 11 28 26 30 27 31 29 32 28 33
REMARK SMILES IDX 3 34 2 35 1 36 36 37 37 38 38 39
REMARK H PARENT 11 29
REMARK Flexibility Score: inf
ROOT
ATOM      1  C   UNL     1      16.767 -26.492  23.220  1.00  0.00     0.014 C 
ENDROOT
BRANCH   1   2
ATOM      2  C   UNL     1      18.310 -26.641  23.148  1.00  0.00     0.042 C 
BRANCH   2   3
ATOM      3  C   UNL     1      18.959 -25.359  23.631  1.00  0.00     0.045 C 
ATOM      4  O   UNL     1      20.193 -25.162  23.448  1.00  0.00    -0.550 OA
ATOM      5  O   UNL     1      18.202 -24.361  24.244  1.00  0.00    -0.550 OA
ENDBRANCH   2   3
BRANCH   2   6
ATOM      6  C   UNL     1      18.774 -27.940  23.915  1.00  0.00     0.033 C 
ATOM      7  C   UNL     1      17.675 -28.676  24.721  1.00  0.00     0.119 C 
ATOM      8  C   UNL     1      20.032 -27.846  24.837  1.00  0.00    -0.017 C 
ATOM      9  C   UNL     1      18.356 -29.221  25.980  1.00  0.00     0.043 C 
ATOM     10  C   UNL     1      19.882 -29.094  25.779  1.00  0.00    -0.003 C 
ATOM     11  C   UNL     1      20.017 -26.561  25.697  1.00  0.00     0.012 C 
ATOM     12  C   UNL     1      21.335 -27.864  23.985  1.00  0.00     0.013 C 
ATOM     13  C   UNL     1      20.408 -30.396  25.100  1.00  0.00     0.017 C 
ATOM     14  C   UNL     1      20.575 -28.955  27.153  1.00  0.00    -0.064 C 
ATOM     15  C   UNL     1      21.123 -26.547  26.746  1.00  0.00     0.032 C 
ATOM     16  C   UNL     1      21.175 -27.809  27.591  1.00  0.00    -0.064 C 
ATOM     17  C   UNL     1      20.480 -30.113  28.124  1.00  0.00     0.032 C 
ATOM     18  C   UNL     1      22.083 -27.873  28.861  1.00  0.00    -0.008 C 
ATOM     19  C   UNL     1      20.202 -29.571  29.515  1.00  0.00     0.009 C 
ATOM     20  C   UNL     1      21.373 -28.681  30.048  1.00  0.00     0.009 C 
ATOM     21  C   UNL     1      23.409 -28.542  28.383  1.00  0.00     0.015 C 
ATOM     22  C   UNL     1      22.413 -26.433  29.352  1.00  0.00     0.016 C 
ATOM     23  C   UNL     1      22.352 -29.382  31.110  1.00  0.00     0.005 C 
ATOM     24  C   UNL     1      24.326 -28.994  29.513  1.00  0.00     0.047 C 
ATOM     25  C   UNL     1      23.621 -29.991  30.436  1.00  0.00     0.182 C 
ATOM     26  C   UNL     1      21.641 -30.506  31.917  1.00  0.00     0.015 C 
ATOM     27  C   UNL     1      22.799 -28.358  32.200  1.00  0.00     0.015 C 
BRANCH   7  28
ATOM     28  O   UNL     1      17.150 -29.731  23.955  1.00  0.00    -0.393 OA
ATOM     29  H   UNL     1      17.606 -30.561  24.255  1.00  0.00     0.210 HD
ENDBRANCH   7  28
BRANCH  25  30
ATOM     30  O   UNL     1      23.288 -31.156  29.671  1.00  0.00    -0.462 OA
BRANCH  30  31
ATOM     31  C   UNL     1      24.216 -32.012  29.068  1.00  0.00     0.302 C 
ATOM     32  O   UNL     1      25.111 -32.590  29.746  1.00  0.00    -0.253 OA
ATOM     33  C   UNL     1      24.155 -32.227  27.596  1.00  0.00     0.139 C 
ENDBRANCH  30  31
ENDBRANCH  25  30
ENDBRANCH   2   6
ENDBRANCH   1   2
BRANCH   1  34
ATOM     34  C   UNL     1      16.095 -26.429  21.824  1.00  0.00     0.031 C 
BRANCH  34  35
ATOM     35  C   UNL     1      15.379 -25.113  21.553  1.00  0.00    -0.075 C 
ATOM     36  C   UNL     1      15.410 -24.116  22.465  1.00  0.00     0.008 C 
BRANCH  35  37
ATOM     37  C   UNL     1      14.648 -24.886  20.233  1.00  0.00     0.008 C 
ATOM     38  C   UNL     1      15.327 -25.636  19.083  1.00  0.00     0.012 C 
ATOM     39  C   UNL     1      14.532 -23.390  19.919  1.00  0.00     0.012 C 
ENDBRANCH  35  37
ENDBRANCH  34  35
ENDBRANCH   1  34
TORSDOF 9
ENDMDL
MODEL 4
REMARK VINA RESULT:    -2.797      2.128      4.605
REMARK INTER + INTRA:          -5.467
REMARK INTER:                  -6.076
REMARK INTRA:                   0.609
REMARK UNBOUND:                -1.280
REMARK SMILES C=C(CC[C@@H](C(=O)[O-])[C@@H]1[C@@H](O)C[C@]2(C)C3=C(CC[C@]12C)[C@]1(C)CC[C@H](OC(C)=O)C(C)(C)[C@@H]1CC3)C(C)C
REMARK SMILES IDX 4 1 5 2 6 3 7 4 8 5 9 6 10 7 19 8 12 9 13 10 18 11 20 12
REMARK SMILES IDX 14 13 15 14 17 15 16 16 35 17 21 18 34 19 33 20 23 21 22 22
REMARK SMILES IDX 30 23 24 24 25 25 31 26 32 27 11 28 26 30 27 31 29 32 28 33
REMARK SMILES IDX 3 34 2 35 1 36 36 37 37 38 38 39
REMARK H PARENT 11 29
REMARK Flexibility Score: inf
ROOT
ATOM      1  C   UNL     1      16.782 -27.314  22.296  1.00  0.00     0.014 C 
ENDROOT
BRANCH   1   2
ATOM      2  C   UNL     1      16.556 -28.082  23.626  1.00  0.00     0.042 C 
BRANCH   2   3
ATOM      3  C   UNL     1      15.212 -28.782  23.576  1.00  0.00     0.045 C 
ATOM      4  O   UNL     1      14.597 -28.902  22.479  1.00  0.00    -0.550 OA
ATOM      5  O   UNL     1      14.652 -29.339  24.725  1.00  0.00    -0.550 OA
ENDBRANCH   2   3
BRANCH   2   6
ATOM      6  C   UNL     1      17.779 -29.032  23.928  1.00  0.00     0.033 C 
ATOM      7  C   UNL     1      17.423 -30.444  24.453  1.00  0.00     0.119 C 
ATOM      8  C   UNL     1      18.934 -28.487  24.829  1.00  0.00    -0.017 C 
ATOM      9  C   UNL     1      18.511 -30.815  25.466  1.00  0.00     0.043 C 
ATOM     10  C   UNL     1      19.659 -29.793  25.314  1.00  0.00    -0.003 C 
ATOM     11  C   UNL     1      18.390 -27.725  26.060  1.00  0.00     0.012 C 
ATOM     12  C   UNL     1      19.856 -27.531  24.015  1.00  0.00     0.013 C 
ATOM     13  C   UNL     1      20.666 -30.325  24.248  1.00  0.00     0.017 C 
ATOM     14  C   UNL     1      20.409 -29.656  26.658  1.00  0.00    -0.064 C 
ATOM     15  C   UNL     1      19.488 -27.363  27.054  1.00  0.00     0.032 C 
ATOM     16  C   UNL     1      20.367 -28.539  27.444  1.00  0.00    -0.064 C 
ATOM     17  C   UNL     1      21.136 -30.868  27.200  1.00  0.00     0.032 C 
ATOM     18  C   UNL     1      21.385 -28.410  28.622  1.00  0.00    -0.008 C 
ATOM     19  C   UNL     1      20.876 -30.976  28.692  1.00  0.00     0.009 C 
ATOM     20  C   UNL     1      21.458 -29.759  29.483  1.00  0.00     0.009 C 
ATOM     21  C   UNL     1      22.746 -28.047  27.950  1.00  0.00     0.015 C 
ATOM     22  C   UNL     1      20.972 -27.233  29.554  1.00  0.00     0.016 C 
ATOM     23  C   UNL     1      22.838 -30.028  30.258  1.00  0.00     0.005 C 
ATOM     24  C   UNL     1      23.953 -28.177  28.871  1.00  0.00     0.047 C 
ATOM     25  C   UNL     1      24.083 -29.600  29.420  1.00  0.00     0.182 C 
ATOM     26  C   UNL     1      23.009 -31.523  30.657  1.00  0.00     0.015 C 
ATOM     27  C   UNL     1      22.856 -29.268  31.621  1.00  0.00     0.015 C 
BRANCH   7  28
ATOM     28  O   UNL     1      17.417 -31.359  23.387  1.00  0.00    -0.393 OA
ATOM     29  H   UNL     1      17.484 -30.829  22.549  1.00  0.00     0.210 HD
ENDBRANCH   7  28
BRANCH  25  30
ATOM     30  O   UNL     1      24.295 -30.491  28.319  1.00  0.00    -0.462 OA
BRANCH  30  31
ATOM     31  C   UNL     1      24.763 -31.804  28.428  1.00  0.00     0.302 C 
ATOM     32  O   UNL     1      25.124 -32.280  29.540  1.00  0.00    -0.253 OA
ATOM     33  C   UNL     1      24.852 -32.646  27.203  1.00  0.00     0.139 C 
ENDBRANCH  30  31
ENDBRANCH  25  30
ENDBRANCH   2   6
ENDBRANCH   1   2
BRANCH   1  34
ATOM     34  C   UNL     1      16.427 -25.808  22.395  1.00  0.00     0.031 C 
BRANCH  34  35
ATOM     35  C   UNL     1      15.336 -25.377  21.424  1.00  0.00    -0.075 C 
ATOM     36  C   UNL     1      15.130 -26.060  20.277  1.00  0.00     0.008 C 
BRANCH  35  37
ATOM     37  C   UNL     1      14.433 -24.190  21.750  1.00  0.00     0.008 C 
ATOM     38  C   UNL     1      13.901 -23.527  20.475  1.00  0.00     0.012 C 
ATOM     39  C   UNL     1      15.161 -23.171  22.635  1.00  0.00     0.012 C 
ENDBRANCH  35  37
ENDBRANCH  34  35
ENDBRANCH   1  34
TORSDOF 9
ENDMDL
