MODEL 1
REMARK VINA RESULT:    -3.741      0.000      0.000
REMARK INTER + INTRA:          -3.741
REMARK INTER:                  -3.741
REMARK INTRA:                   0.000
REMARK UNBOUND:                 0.000
REMARK SMILES C[C@@H]1C(=O)CC[C@@H]2[C@@]1(C)CC[C@H]1[C@]2(C)CC[C@@]2(C)[C@H]3CC(C)(C)CC[C@]3(C)CC[C@]12C
REMARK SMILES IDX 1 1 2 2 3 3 4 4 5 5 6 6 7 7 8 8 10 9 11 10 12 11 13 12 15 13
REMARK SMILES IDX 16 14 17 15 30 16 29 17 28 18 26 19 19 20 20 21 21 22 24 23
REMARK SMILES IDX 25 24 22 25 23 26 27 27 31 28 18 29 14 30 9 31
REMARK H PARENT
REMARK Flexibility Score: inf
ROOT
ATOM      1  C   UNL     1     129.273 124.250 118.847  1.00  0.00     0.016 C 
ATOM      2  C   UNL     1     128.369 125.479 118.613  1.00  0.00     0.059 C 
ATOM      3  C   UNL     1     128.418 125.947 117.172  1.00  0.00     0.136 C 
ATOM      4  O   UNL     1     129.033 125.316 116.324  1.00  0.00    -0.299 OA
ATOM      5  C   UNL     1     127.631 127.159 116.758  1.00  0.00     0.076 C 
ATOM      6  C   UNL     1     127.715 128.293 117.796  1.00  0.00     0.012 C 
ATOM      7  C   UNL     1     127.639 127.834 119.289  1.00  0.00     0.002 C 
ATOM      8  C   UNL     1     128.657 126.683 119.577  1.00  0.00    -0.020 C 
ATOM      9  C   UNL     1     128.558 126.348 121.080  1.00  0.00     0.008 C 
ATOM     10  C   UNL     1     127.210 125.783 121.458  1.00  0.00     0.005 C 
ATOM     11  C   UNL     1     126.012 126.747 121.194  1.00  0.00     0.002 C 
ATOM     12  C   UNL     1     126.146 127.741 119.918  1.00  0.00    -0.026 C 
ATOM     13  C   UNL     1     125.059 127.370 118.867  1.00  0.00     0.008 C 
ATOM     14  C   UNL     1     123.596 127.212 119.395  1.00  0.00     0.008 C 
ATOM     15  C   UNL     1     123.388 126.799 120.905  1.00  0.00    -0.024 C 
ATOM     16  C   UNL     1     124.622 125.925 121.337  1.00  0.00    -0.024 C 
ATOM     17  C   UNL     1     124.426 125.475 122.842  1.00  0.00     0.008 C 
ATOM     18  C   UNL     1     122.970 125.228 123.349  1.00  0.00     0.007 C 
ATOM     19  C   UNL     1     121.951 124.886 122.238  1.00  0.00    -0.029 C 
ATOM     20  C   UNL     1     121.980 126.032 121.148  1.00  0.00     0.002 C 
ATOM     21  C   UNL     1     121.044 125.696 119.957  1.00  0.00     0.011 C 
ATOM     22  C   UNL     1     119.564 125.418 120.412  1.00  0.00    -0.035 C 
ATOM     23  C   UNL     1     119.473 124.530 121.699  1.00  0.00     0.007 C 
ATOM     24  C   UNL     1     120.500 124.882 122.805  1.00  0.00     0.007 C 
ATOM     25  C   UNL     1     118.837 124.690 119.261  1.00  0.00     0.011 C 
ATOM     26  C   UNL     1     118.813 126.751 120.663  1.00  0.00     0.011 C 
ATOM     27  C   UNL     1     122.232 123.414 121.771  1.00  0.00     0.011 C 
ATOM     28  C   UNL     1     124.693 124.648 120.422  1.00  0.00     0.012 C 
ATOM     29  C   UNL     1     123.310 128.103 121.799  1.00  0.00     0.012 C 
ATOM     30  C   UNL     1     125.836 129.233 120.317  1.00  0.00     0.012 C 
ATOM     31  C   UNL     1     130.121 127.187 119.355  1.00  0.00     0.012 C 
ENDROOT
TORSDOF 0
ENDMDL
MODEL 2
REMARK VINA RESULT:    -3.717     10.563     12.939
REMARK INTER + INTRA:          -3.717
REMARK INTER:                  -3.717
REMARK INTRA:                   0.000
REMARK UNBOUND:                 0.000
REMARK SMILES C[C@@H]1C(=O)CC[C@@H]2[C@@]1(C)CC[C@H]1[C@]2(C)CC[C@@]2(C)[C@H]3CC(C)(C)CC[C@]3(C)CC[C@]12C
REMARK SMILES IDX 1 1 2 2 3 3 4 4 5 5 6 6 7 7 8 8 10 9 11 10 12 11 13 12 15 13
REMARK SMILES IDX 16 14 17 15 30 16 29 17 28 18 26 19 19 20 20 21 21 22 24 23
REMARK SMILES IDX 25 24 22 25 23 26 27 27 31 28 18 29 14 30 9 31
REMARK H PARENT
REMARK Flexibility Score: inf
ROOT
ATOM      1  C   UNL     1     114.841 129.148 118.606  1.00  0.00     0.016 C 
ATOM      2  C   UNL     1     113.588 128.259 118.455  1.00  0.00     0.059 C 
ATOM      3  C   UNL     1     113.042 128.292 117.041  1.00  0.00     0.136 C 
ATOM      4  O   UNL     1     113.634 128.883 116.149  1.00  0.00    -0.299 OA
ATOM      5  C   UNL     1     111.798 127.517 116.708  1.00  0.00     0.076 C 
ATOM      6  C   UNL     1     110.724 127.634 117.804  1.00  0.00     0.012 C 
ATOM      7  C   UNL     1     111.264 127.575 119.272  1.00  0.00     0.002 C 
ATOM      8  C   UNL     1     112.443 128.581 119.478  1.00  0.00    -0.020 C 
ATOM      9  C   UNL     1     112.859 128.501 120.963  1.00  0.00     0.008 C 
ATOM     10  C   UNL     1     113.424 127.151 121.332  1.00  0.00     0.005 C 
ATOM     11  C   UNL     1     112.431 125.963 121.141  1.00  0.00     0.002 C 
ATOM     12  C   UNL     1     111.369 126.092 119.920  1.00  0.00    -0.026 C 
ATOM     13  C   UNL     1     111.667 124.982 118.869  1.00  0.00     0.008 C 
ATOM     14  C   UNL     1     111.833 123.526 119.413  1.00  0.00     0.008 C 
ATOM     15  C   UNL     1     112.325 123.337 120.900  1.00  0.00    -0.024 C 
ATOM     16  C   UNL     1     113.239 124.564 121.263  1.00  0.00    -0.024 C 
ATOM     17  C   UNL     1     113.768 124.386 122.744  1.00  0.00     0.008 C 
ATOM     18  C   UNL     1     114.022 122.935 123.262  1.00  0.00     0.007 C 
ATOM     19  C   UNL     1     114.289 121.892 122.151  1.00  0.00    -0.029 C 
ATOM     20  C   UNL     1     113.085 121.921 121.126  1.00  0.00     0.002 C 
ATOM     21  C   UNL     1     113.341 120.961 119.934  1.00  0.00     0.011 C 
ATOM     22  C   UNL     1     113.623 119.484 120.398  1.00  0.00    -0.035 C 
ATOM     23  C   UNL     1     114.579 119.401 121.636  1.00  0.00     0.007 C 
ATOM     24  C   UNL     1     114.303 120.451 122.741  1.00  0.00     0.007 C 
ATOM     25  C   UNL     1     114.277 118.728 119.222  1.00  0.00     0.011 C 
ATOM     26  C   UNL     1     112.295 118.758 120.734  1.00  0.00     0.011 C 
ATOM     27  C   UNL     1     115.736 122.143 121.600  1.00  0.00     0.011 C 
ATOM     28  C   UNL     1     114.465 124.600 120.278  1.00  0.00     0.012 C 
ATOM     29  C   UNL     1     111.072 123.292 121.866  1.00  0.00     0.012 C 
ATOM     30  C   UNL     1     109.898 125.811 120.405  1.00  0.00     0.012 C 
ATOM     31  C   UNL     1     111.948 130.048 119.260  1.00  0.00     0.012 C 
ENDROOT
TORSDOF 0
ENDMDL
MODEL 3
REMARK VINA RESULT:    -3.622      2.215      7.382
REMARK INTER + INTRA:          -3.622
REMARK INTER:                  -3.622
REMARK INTRA:                   0.000
REMARK UNBOUND:                 0.000
REMARK SMILES C[C@@H]1C(=O)CC[C@@H]2[C@@]1(C)CC[C@H]1[C@]2(C)CC[C@@]2(C)[C@H]3CC(C)(C)CC[C@]3(C)CC[C@]12C
REMARK SMILES IDX 1 1 2 2 3 3 4 4 5 5 6 6 7 7 8 8 10 9 11 10 12 11 13 12 15 13
REMARK SMILES IDX 16 14 17 15 30 16 29 17 28 18 26 19 19 20 20 21 21 22 24 23
REMARK SMILES IDX 25 24 22 25 23 26 27 27 31 28 18 29 14 30 9 31
REMARK H PARENT
REMARK Flexibility Score: inf
ROOT
ATOM      1  C   UNL     1     119.457 124.901 119.102  1.00  0.00     0.016 C 
ATOM      2  C   UNL     1     120.738 124.269 119.686  1.00  0.00     0.059 C 
ATOM      3  C   UNL     1     120.916 122.833 119.231  1.00  0.00     0.136 C 
ATOM      4  O   UNL     1     120.158 122.332 118.412  1.00  0.00    -0.299 OA
ATOM      5  C   UNL     1     122.089 122.036 119.728  1.00  0.00     0.076 C 
ATOM      6  C   UNL     1     122.357 122.263 121.226  1.00  0.00     0.012 C 
ATOM      7  C   UNL     1     122.207 123.742 121.712  1.00  0.00     0.002 C 
ATOM      8  C   UNL     1     120.843 124.350 121.249  1.00  0.00    -0.020 C 
ATOM      9  C   UNL     1     120.755 125.777 121.831  1.00  0.00     0.008 C 
ATOM     10  C   UNL     1     121.809 126.698 121.262  1.00  0.00     0.005 C 
ATOM     11  C   UNL     1     123.276 126.249 121.546  1.00  0.00     0.002 C 
ATOM     12  C   UNL     1     123.547 124.650 121.617  1.00  0.00    -0.026 C 
ATOM     13  C   UNL     1     124.484 124.242 120.441  1.00  0.00     0.008 C 
ATOM     14  C   UNL     1     125.779 125.096 120.245  1.00  0.00     0.008 C 
ATOM     15  C   UNL     1     125.766 126.594 120.742  1.00  0.00    -0.024 C 
ATOM     16  C   UNL     1     124.290 127.124 120.633  1.00  0.00    -0.024 C 
ATOM     17  C   UNL     1     124.253 128.635 121.101  1.00  0.00     0.008 C 
ATOM     18  C   UNL     1     125.512 129.517 120.825  1.00  0.00     0.007 C 
ATOM     19  C   UNL     1     126.397 129.029 119.656  1.00  0.00    -0.029 C 
ATOM     20  C   UNL     1     126.812 127.526 119.923  1.00  0.00     0.002 C 
ATOM     21  C   UNL     1     127.625 126.949 118.734  1.00  0.00     0.011 C 
ATOM     22  C   UNL     1     128.897 127.811 118.398  1.00  0.00    -0.035 C 
ATOM     23  C   UNL     1     128.621 129.352 118.428  1.00  0.00     0.007 C 
ATOM     24  C   UNL     1     127.733 129.830 119.604  1.00  0.00     0.007 C 
ATOM     25  C   UNL     1     129.377 127.426 116.982  1.00  0.00     0.011 C 
ATOM     26  C   UNL     1     130.050 127.484 119.381  1.00  0.00     0.011 C 
ATOM     27  C   UNL     1     125.646 129.362 118.319  1.00  0.00     0.011 C 
ATOM     28  C   UNL     1     123.822 127.037 119.134  1.00  0.00     0.012 C 
ATOM     29  C   UNL     1     126.251 126.652 122.247  1.00  0.00     0.012 C 
ATOM     30  C   UNL     1     124.335 124.258 122.922  1.00  0.00     0.012 C 
ATOM     31  C   UNL     1     119.654 123.562 121.891  1.00  0.00     0.012 C 
ENDROOT
TORSDOF 0
ENDMDL
MODEL 4
REMARK VINA RESULT:    -3.569      1.219      1.422
REMARK INTER + INTRA:          -3.569
REMARK INTER:                  -3.569
REMARK INTRA:                   0.000
REMARK UNBOUND:                 0.000
REMARK SMILES C[C@@H]1C(=O)CC[C@@H]2[C@@]1(C)CC[C@H]1[C@]2(C)CC[C@@]2(C)[C@H]3CC(C)(C)CC[C@]3(C)CC[C@]12C
REMARK SMILES IDX 1 1 2 2 3 3 4 4 5 5 6 6 7 7 8 8 10 9 11 10 12 11 13 12 15 13
REMARK SMILES IDX 16 14 17 15 30 16 29 17 28 18 26 19 19 20 20 21 21 22 24 23
REMARK SMILES IDX 25 24 22 25 23 26 27 27 31 28 18 29 14 30 9 31
REMARK H PARENT
REMARK Flexibility Score: inf
ROOT
ATOM      1  C   UNL     1     129.352 125.217 119.746  1.00  0.00     0.016 C 
ATOM      2  C   UNL     1     128.198 126.172 119.375  1.00  0.00     0.059 C 
ATOM      3  C   UNL     1     128.374 126.757 117.987  1.00  0.00     0.136 C 
ATOM      4  O   UNL     1     129.285 126.389 117.259  1.00  0.00    -0.299 OA
ATOM      5  C   UNL     1     127.368 127.742 117.463  1.00  0.00     0.076 C 
ATOM      6  C   UNL     1     126.940 128.765 118.531  1.00  0.00     0.012 C 
ATOM      7  C   UNL     1     126.725 128.177 119.965  1.00  0.00     0.002 C 
ATOM      8  C   UNL     1     127.956 127.323 120.413  1.00  0.00    -0.020 C 
ATOM      9  C   UNL     1     127.684 126.848 121.857  1.00  0.00     0.008 C 
ATOM     10  C   UNL     1     126.503 125.911 121.943  1.00  0.00     0.005 C 
ATOM     11  C   UNL     1     125.151 126.535 121.475  1.00  0.00     0.002 C 
ATOM     12  C   UNL     1     125.231 127.633 120.283  1.00  0.00    -0.026 C 
ATOM     13  C   UNL     1     124.501 127.073 119.027  1.00  0.00     0.008 C 
ATOM     14  C   UNL     1     123.070 126.483 119.249  1.00  0.00     0.008 C 
ATOM     15  C   UNL     1     122.717 125.903 120.674  1.00  0.00    -0.024 C 
ATOM     16  C   UNL     1     124.046 125.360 121.315  1.00  0.00    -0.024 C 
ATOM     17  C   UNL     1     123.714 124.749 122.737  1.00  0.00     0.008 C 
ATOM     18  C   UNL     1     122.319 124.077 122.938  1.00  0.00     0.007 C 
ATOM     19  C   UNL     1     121.656 123.567 121.637  1.00  0.00    -0.029 C 
ATOM     20  C   UNL     1     121.561 124.767 120.611  1.00  0.00     0.002 C 
ATOM     21  C   UNL     1     120.989 124.294 119.248  1.00  0.00     0.011 C 
ATOM     22  C   UNL     1     119.589 123.589 119.392  1.00  0.00    -0.035 C 
ATOM     23  C   UNL     1     119.519 122.604 120.607  1.00  0.00     0.007 C 
ATOM     24  C   UNL     1     120.187 123.125 121.905  1.00  0.00     0.007 C 
ATOM     25  C   UNL     1     119.318 122.792 118.098  1.00  0.00     0.011 C 
ATOM     26  C   UNL     1     118.462 124.645 119.530  1.00  0.00     0.011 C 
ATOM     27  C   UNL     1     122.419 122.271 121.190  1.00  0.00     0.011 C 
ATOM     28  C   UNL     1     124.637 124.232 120.393  1.00  0.00     0.012 C 
ATOM     29  C   UNL     1     122.114 127.057 121.575  1.00  0.00     0.012 C 
ATOM     30  C   UNL     1     124.447 128.947 120.658  1.00  0.00     0.012 C 
ATOM     31  C   UNL     1     129.234 128.220 120.501  1.00  0.00     0.012 C 
ENDROOT
TORSDOF 0
ENDMDL
MODEL 5
REMARK VINA RESULT:    -3.564      9.999     12.998
REMARK INTER + INTRA:          -3.564
REMARK INTER:                  -3.564
REMARK INTRA:                   0.000
REMARK UNBOUND:                 0.000
REMARK SMILES C[C@@H]1C(=O)CC[C@@H]2[C@@]1(C)CC[C@H]1[C@]2(C)CC[C@@]2(C)[C@H]3CC(C)(C)CC[C@]3(C)CC[C@]12C
REMARK SMILES IDX 1 1 2 2 3 3 4 4 5 5 6 6 7 7 8 8 10 9 11 10 12 11 13 12 15 13
REMARK SMILES IDX 16 14 17 15 30 16 29 17 28 18 26 19 19 20 20 21 21 22 24 23
REMARK SMILES IDX 25 24 22 25 23 26 27 27 31 28 18 29 14 30 9 31
REMARK H PARENT
REMARK Flexibility Score: inf
ROOT
ATOM      1  C   UNL     1     113.895 129.318 119.815  1.00  0.00     0.016 C 
ATOM      2  C   UNL     1     112.925 128.182 119.428  1.00  0.00     0.059 C 
ATOM      3  C   UNL     1     112.372 128.366 118.028  1.00  0.00     0.136 C 
ATOM      4  O   UNL     1     112.773 129.267 117.305  1.00  0.00    -0.299 OA
ATOM      5  C   UNL     1     111.378 127.378 117.486  1.00  0.00     0.076 C 
ATOM      6  C   UNL     1     110.326 126.973 118.534  1.00  0.00     0.012 C 
ATOM      7  C   UNL     1     110.879 126.751 119.981  1.00  0.00     0.002 C 
ATOM      8  C   UNL     1     111.748 127.966 120.443  1.00  0.00    -0.020 C 
ATOM      9  C   UNL     1     112.188 127.689 121.897  1.00  0.00     0.008 C 
ATOM     10  C   UNL     1     113.100 126.490 122.005  1.00  0.00     0.005 C 
ATOM     11  C   UNL     1     112.459 125.149 121.528  1.00  0.00     0.002 C 
ATOM     12  C   UNL     1     111.386 125.247 120.313  1.00  0.00    -0.026 C 
ATOM     13  C   UNL     1     111.958 124.503 119.071  1.00  0.00     0.008 C 
ATOM     14  C   UNL     1     112.515 123.061 119.309  1.00  0.00     0.008 C 
ATOM     15  C   UNL     1     113.058 122.700 120.746  1.00  0.00    -0.024 C 
ATOM     16  C   UNL     1     113.614 124.020 121.395  1.00  0.00    -0.024 C 
ATOM     17  C   UNL     1     114.190 123.681 122.830  1.00  0.00     0.008 C 
ATOM     18  C   UNL     1     114.829 122.273 123.048  1.00  0.00     0.007 C 
ATOM     19  C   UNL     1     115.352 121.597 121.760  1.00  0.00    -0.029 C 
ATOM     20  C   UNL     1     114.172 121.522 120.709  1.00  0.00     0.002 C 
ATOM     21  C   UNL     1     114.661 120.937 119.357  1.00  0.00     0.011 C 
ATOM     22  C   UNL     1     115.335 119.524 119.520  1.00  0.00    -0.035 C 
ATOM     23  C   UNL     1     116.293 119.438 120.755  1.00  0.00     0.007 C 
ATOM     24  C   UNL     1     115.759 120.120 122.040  1.00  0.00     0.007 C 
ATOM     25  C   UNL     1     116.152 119.233 118.243  1.00  0.00     0.011 C 
ATOM     26  C   UNL     1     114.254 118.418 119.638  1.00  0.00     0.011 C 
ATOM     27  C   UNL     1     116.672 122.332 121.337  1.00  0.00     0.011 C 
ATOM     28  C   UNL     1     114.772 124.587 120.495  1.00  0.00     0.012 C 
ATOM     29  C   UNL     1     111.874 122.124 121.625  1.00  0.00     0.012 C 
ATOM     30  C   UNL     1     110.050 124.491 120.663  1.00  0.00     0.012 C 
ATOM     31  C   UNL     1     110.875 129.262 120.510  1.00  0.00     0.012 C 
ENDROOT
TORSDOF 0
ENDMDL
MODEL 6
REMARK VINA RESULT:    -3.527     12.797     17.629
REMARK INTER + INTRA:          -3.527
REMARK INTER:                  -3.527
REMARK INTRA:                   0.000
REMARK UNBOUND:                 0.000
REMARK SMILES C[C@@H]1C(=O)CC[C@@H]2[C@@]1(C)CC[C@H]1[C@]2(C)CC[C@@]2(C)[C@H]3CC(C)(C)CC[C@]3(C)CC[C@]12C
REMARK SMILES IDX 1 1 2 2 3 3 4 4 5 5 6 6 7 7 8 8 10 9 11 10 12 11 13 12 15 13
REMARK SMILES IDX 16 14 17 15 30 16 29 17 28 18 26 19 19 20 20 21 21 22 24 23
REMARK SMILES IDX 25 24 22 25 23 26 27 27 31 28 18 29 14 30 9 31
REMARK H PARENT
REMARK Flexibility Score: inf
ROOT
ATOM      1  C   UNL     1     109.875 113.923 119.657  1.00  0.00     0.016 C 
ATOM      2  C   UNL     1     111.047 112.971 119.338  1.00  0.00     0.059 C 
ATOM      3  C   UNL     1     110.921 112.369 117.951  1.00  0.00     0.136 C 
ATOM      4  O   UNL     1     110.034 112.723 117.188  1.00  0.00    -0.299 OA
ATOM      5  C   UNL     1     111.951 111.384 117.473  1.00  0.00     0.076 C 
ATOM      6  C   UNL     1     112.349 110.377 118.567  1.00  0.00     0.012 C 
ATOM      7  C   UNL     1     112.511 110.981 120.000  1.00  0.00     0.002 C 
ATOM      8  C   UNL     1     111.260 111.833 120.396  1.00  0.00    -0.020 C 
ATOM      9  C   UNL     1     111.480 112.326 121.843  1.00  0.00     0.008 C 
ATOM     10  C   UNL     1     112.652 113.271 121.958  1.00  0.00     0.005 C 
ATOM     11  C   UNL     1     114.022 112.651 121.544  1.00  0.00     0.002 C 
ATOM     12  C   UNL     1     113.990 111.539 120.362  1.00  0.00    -0.026 C 
ATOM     13  C   UNL     1     114.759 112.090 119.125  1.00  0.00     0.008 C 
ATOM     14  C   UNL     1     116.178 112.691 119.390  1.00  0.00     0.008 C 
ATOM     15  C   UNL     1     116.479 113.289 120.819  1.00  0.00    -0.024 C 
ATOM     16  C   UNL     1     115.126 113.831 121.408  1.00  0.00    -0.024 C 
ATOM     17  C   UNL     1     115.404 114.461 122.833  1.00  0.00     0.008 C 
ATOM     18  C   UNL     1     116.788 115.144 123.073  1.00  0.00     0.007 C 
ATOM     19  C   UNL     1     117.492 115.643 121.790  1.00  0.00    -0.029 C 
ATOM     20  C   UNL     1     117.630 114.432 120.781  1.00  0.00     0.002 C 
ATOM     21  C   UNL     1     118.245 114.894 119.434  1.00  0.00     0.011 C 
ATOM     22  C   UNL     1     119.634 115.609 119.617  1.00  0.00    -0.035 C 
ATOM     23  C   UNL     1     119.657 116.608 120.823  1.00  0.00     0.007 C 
ATOM     24  C   UNL     1     118.948 116.097 122.102  1.00  0.00     0.007 C 
ATOM     25  C   UNL     1     119.944 116.393 118.324  1.00  0.00     0.011 C 
ATOM     26  C   UNL     1     120.763 114.562 119.805  1.00  0.00     0.011 C 
ATOM     27  C   UNL     1     116.737 116.929 121.302  1.00  0.00     0.011 C 
ATOM     28  C   UNL     1     114.559 114.945 120.454  1.00  0.00     0.012 C 
ATOM     29  C   UNL     1     117.057 112.150 121.753  1.00  0.00     0.012 C 
ATOM     30  C   UNL     1     114.768 110.234 120.779  1.00  0.00     0.012 C 
ATOM     31  C   UNL     1     109.986 110.929 120.451  1.00  0.00     0.012 C 
ENDROOT
TORSDOF 0
ENDMDL
MODEL 7
REMARK VINA RESULT:    -3.430     10.055     12.662
REMARK INTER + INTRA:          -3.430
REMARK INTER:                  -3.430
REMARK INTRA:                   0.000
REMARK UNBOUND:                 0.000
REMARK SMILES C[C@@H]1C(=O)CC[C@@H]2[C@@]1(C)CC[C@H]1[C@]2(C)CC[C@@]2(C)[C@H]3CC(C)(C)CC[C@]3(C)CC[C@]12C
REMARK SMILES IDX 1 1 2 2 3 3 4 4 5 5 6 6 7 7 8 8 10 9 11 10 12 11 13 12 15 13
REMARK SMILES IDX 16 14 17 15 30 16 29 17 28 18 26 19 19 20 20 21 21 22 24 23
REMARK SMILES IDX 25 24 22 25 23 26 27 27 31 28 18 29 14 30 9 31
REMARK H PARENT
REMARK Flexibility Score: inf
ROOT
ATOM      1  C   UNL     1     113.697 118.924 118.482  1.00  0.00     0.016 C 
ATOM      2  C   UNL     1     114.530 120.064 119.104  1.00  0.00     0.059 C 
ATOM      3  C   UNL     1     115.930 120.120 118.523  1.00  0.00     0.136 C 
ATOM      4  O   UNL     1     116.259 119.391 117.597  1.00  0.00    -0.299 OA
ATOM      5  C   UNL     1     116.906 121.143 119.034  1.00  0.00     0.076 C 
ATOM      6  C   UNL     1     116.849 121.292 120.564  1.00  0.00     0.012 C 
ATOM      7  C   UNL     1     115.412 121.265 121.182  1.00  0.00     0.002 C 
ATOM      8  C   UNL     1     114.603 120.028 120.671  1.00  0.00    -0.020 C 
ATOM      9  C   UNL     1     113.234 120.049 121.384  1.00  0.00     0.008 C 
ATOM     10  C   UNL     1     112.402 121.248 121.001  1.00  0.00     0.005 C 
ATOM     11  C   UNL     1     113.049 122.622 121.360  1.00  0.00     0.002 C 
ATOM     12  C   UNL     1     114.669 122.702 121.291  1.00  0.00    -0.026 C 
ATOM     13  C   UNL     1     115.081 123.694 120.163  1.00  0.00     0.008 C 
ATOM     14  C   UNL     1     114.377 125.090 120.162  1.00  0.00     0.008 C 
ATOM     15  C   UNL     1     112.939 125.200 120.804  1.00  0.00    -0.024 C 
ATOM     16  C   UNL     1     112.226 123.810 120.626  1.00  0.00    -0.024 C 
ATOM     17  C   UNL     1     110.770 123.901 121.240  1.00  0.00     0.008 C 
ATOM     18  C   UNL     1     110.026 125.272 121.160  1.00  0.00     0.007 C 
ATOM     19  C   UNL     1     110.511 126.203 120.025  1.00  0.00    -0.029 C 
ATOM     20  C   UNL     1     112.072 126.417 120.174  1.00  0.00     0.002 C 
ATOM     21  C   UNL     1     112.634 127.269 119.005  1.00  0.00     0.011 C 
ATOM     22  C   UNL     1     111.906 128.657 118.864  1.00  0.00    -0.035 C 
ATOM     23  C   UNL     1     110.352 128.555 119.026  1.00  0.00     0.007 C 
ATOM     24  C   UNL     1     109.878 127.619 120.166  1.00  0.00     0.007 C 
ATOM     25  C   UNL     1     112.218 129.222 117.462  1.00  0.00     0.011 C 
ATOM     26  C   UNL     1     112.459 129.667 119.903  1.00  0.00     0.011 C 
ATOM     27  C   UNL     1     109.970 125.625 118.670  1.00  0.00     0.011 C 
ATOM     28  C   UNL     1     112.120 123.480 119.092  1.00  0.00     0.012 C 
ATOM     29  C   UNL     1     113.077 125.544 122.344  1.00  0.00     0.012 C 
ATOM     30  C   UNL     1     115.271 123.314 122.612  1.00  0.00     0.012 C 
ATOM     31  C   UNL     1     115.295 118.702 121.128  1.00  0.00     0.012 C 
ENDROOT
TORSDOF 0
ENDMDL
MODEL 8
REMARK VINA RESULT:    -3.340      9.836     12.010
REMARK INTER + INTRA:          -3.340
REMARK INTER:                  -3.340
REMARK INTRA:                   0.000
REMARK UNBOUND:                 0.000
REMARK SMILES C[C@@H]1C(=O)CC[C@@H]2[C@@]1(C)CC[C@H]1[C@]2(C)CC[C@@]2(C)[C@H]3CC(C)(C)CC[C@]3(C)CC[C@]12C
REMARK SMILES IDX 1 1 2 2 3 3 4 4 5 5 6 6 7 7 8 8 10 9 11 10 12 11 13 12 15 13
REMARK SMILES IDX 16 14 17 15 30 16 29 17 28 18 26 19 19 20 20 21 21 22 24 23
REMARK SMILES IDX 25 24 22 25 23 26 27 27 31 28 18 29 14 30 9 31
REMARK H PARENT
REMARK Flexibility Score: inf
ROOT
ATOM      1  C   UNL     1     125.607 109.876 119.835  1.00  0.00     0.016 C 
ATOM      2  C   UNL     1     126.487 111.105 119.524  1.00  0.00     0.059 C 
ATOM      3  C   UNL     1     127.226 110.950 118.209  1.00  0.00     0.136 C 
ATOM      4  O   UNL     1     127.021 109.991 117.479  1.00  0.00    -0.299 OA
ATOM      5  C   UNL     1     128.166 112.032 117.754  1.00  0.00     0.076 C 
ATOM      6  C   UNL     1     129.028 112.580 118.905  1.00  0.00     0.012 C 
ATOM      7  C   UNL     1     128.277 112.774 120.264  1.00  0.00     0.002 C 
ATOM      8  C   UNL     1     127.496 111.480 120.664  1.00  0.00    -0.020 C 
ATOM      9  C   UNL     1     126.850 111.742 122.042  1.00  0.00     0.008 C 
ATOM     10  C   UNL     1     125.806 112.830 121.992  1.00  0.00     0.005 C 
ATOM     11  C   UNL     1     126.349 114.223 121.544  1.00  0.00     0.002 C 
ATOM     12  C   UNL     1     127.569 114.218 120.473  1.00  0.00    -0.026 C 
ATOM     13  C   UNL     1     127.078 114.860 119.142  1.00  0.00     0.008 C 
ATOM     14  C   UNL     1     126.340 116.234 119.255  1.00  0.00     0.008 C 
ATOM     15  C   UNL     1     125.585 116.567 120.600  1.00  0.00    -0.024 C 
ATOM     16  C   UNL     1     125.102 115.209 121.228  1.00  0.00    -0.024 C 
ATOM     17  C   UNL     1     124.318 115.516 122.569  1.00  0.00     0.008 C 
ATOM     18  C   UNL     1     123.504 116.846 122.652  1.00  0.00     0.007 C 
ATOM     19  C   UNL     1     123.075 117.426 121.284  1.00  0.00    -0.029 C 
ATOM     20  C   UNL     1     124.361 117.609 120.382  1.00  0.00     0.002 C 
ATOM     21  C   UNL     1     123.983 118.100 118.960  1.00  0.00     0.011 C 
ATOM     22  C   UNL     1     123.142 119.430 118.983  1.00  0.00    -0.035 C 
ATOM     23  C   UNL     1     122.034 119.436 120.089  1.00  0.00     0.007 C 
ATOM     24  C   UNL     1     122.475 118.853 121.455  1.00  0.00     0.007 C 
ATOM     25  C   UNL     1     122.463 119.593 117.606  1.00  0.00     0.011 C 
ATOM     26  C   UNL     1     124.071 120.655 119.189  1.00  0.00     0.011 C 
ATOM     27  C   UNL     1     121.907 116.533 120.734  1.00  0.00     0.011 C 
ATOM     28  C   UNL     1     124.135 114.491 120.217  1.00  0.00     0.012 C 
ATOM     29  C   UNL     1     126.579 117.297 121.593  1.00  0.00     0.012 C 
ATOM     30  C   UNL     1     128.759 115.130 120.952  1.00  0.00     0.012 C 
ATOM     31  C   UNL     1     128.492 110.294 120.887  1.00  0.00     0.012 C 
ENDROOT
TORSDOF 0
ENDMDL
MODEL 9
REMARK VINA RESULT:    -3.283      2.971      8.018
REMARK INTER + INTRA:          -3.283
REMARK INTER:                  -3.283
REMARK INTRA:                   0.000
REMARK UNBOUND:                 0.000
REMARK SMILES C[C@@H]1C(=O)CC[C@@H]2[C@@]1(C)CC[C@H]1[C@]2(C)CC[C@@]2(C)[C@H]3CC(C)(C)CC[C@]3(C)CC[C@]12C
REMARK SMILES IDX 1 1 2 2 3 3 4 4 5 5 6 6 7 7 8 8 10 9 11 10 12 11 13 12 15 13
REMARK SMILES IDX 16 14 17 15 30 16 29 17 28 18 26 19 19 20 20 21 21 22 24 23
REMARK SMILES IDX 25 24 22 25 23 26 27 27 31 28 18 29 14 30 9 31
REMARK H PARENT
REMARK Flexibility Score: inf
ROOT
ATOM      1  C   UNL     1     117.311 126.514 123.206  1.00  0.00     0.016 C 
ATOM      2  C   UNL     1     117.925 125.963 121.902  1.00  0.00     0.059 C 
ATOM      3  C   UNL     1     117.051 126.261 120.699  1.00  0.00     0.136 C 
ATOM      4  O   UNL     1     116.049 126.954 120.803  1.00  0.00    -0.299 OA
ATOM      5  C   UNL     1     117.464 125.768 119.340  1.00  0.00     0.076 C 
ATOM      6  C   UNL     1     118.015 124.331 119.382  1.00  0.00     0.012 C 
ATOM      7  C   UNL     1     118.942 124.010 120.601  1.00  0.00     0.002 C 
ATOM      8  C   UNL     1     118.267 124.432 121.947  1.00  0.00    -0.020 C 
ATOM      9  C   UNL     1     119.220 124.015 123.088  1.00  0.00     0.008 C 
ATOM     10  C   UNL     1     120.528 124.767 123.052  1.00  0.00     0.005 C 
ATOM     11  C   UNL     1     121.360 124.549 121.750  1.00  0.00     0.002 C 
ATOM     12  C   UNL     1     120.520 124.315 120.381  1.00  0.00    -0.026 C 
ATOM     13  C   UNL     1     120.786 125.504 119.412  1.00  0.00     0.008 C 
ATOM     14  C   UNL     1     122.281 125.899 119.178  1.00  0.00     0.008 C 
ATOM     15  C   UNL     1     123.324 125.580 120.319  1.00  0.00    -0.024 C 
ATOM     16  C   UNL     1     122.563 125.634 121.694  1.00  0.00    -0.024 C 
ATOM     17  C   UNL     1     123.593 125.342 122.860  1.00  0.00     0.008 C 
ATOM     18  C   UNL     1     125.068 125.816 122.668  1.00  0.00     0.007 C 
ATOM     19  C   UNL     1     125.245 126.987 121.674  1.00  0.00    -0.029 C 
ATOM     20  C   UNL     1     124.600 126.580 120.288  1.00  0.00     0.002 C 
ATOM     21  C   UNL     1     124.663 127.754 119.275  1.00  0.00     0.011 C 
ATOM     22  C   UNL     1     126.127 128.287 119.057  1.00  0.00    -0.035 C 
ATOM     23  C   UNL     1     126.939 128.414 120.390  1.00  0.00     0.007 C 
ATOM     24  C   UNL     1     126.754 127.236 121.378  1.00  0.00     0.007 C 
ATOM     25  C   UNL     1     126.038 129.682 118.402  1.00  0.00     0.011 C 
ATOM     26  C   UNL     1     126.900 127.365 118.079  1.00  0.00     0.011 C 
ATOM     27  C   UNL     1     124.726 128.291 122.376  1.00  0.00     0.011 C 
ATOM     28  C   UNL     1     121.955 127.071 121.889  1.00  0.00     0.012 C 
ATOM     29  C   UNL     1     123.925 124.134 120.091  1.00  0.00     0.012 C 
ATOM     30  C   UNL     1     121.023 123.038 119.608  1.00  0.00     0.012 C 
ATOM     31  C   UNL     1     116.955 123.613 122.175  1.00  0.00     0.012 C 
ENDROOT
TORSDOF 0
ENDMDL
