MODEL 1
REMARK VINA RESULT:    -4.666      0.000      0.000
REMARK INTER + INTRA:          -5.659
REMARK INTER:                  -5.347
REMARK INTRA:                  -0.311
REMARK UNBOUND:                -0.311
REMARK SMILES COc1ccc(C(C)=O)c(O)c1
REMARK SMILES IDX 6 1 10 2 12 3 3 4 4 5 5 6 7 7 8 8 9 9 11 10 2 12 1 13
REMARK H PARENT 11 11
REMARK Flexibility Score: inf
ROOT
ATOM      1  C   UNL     1      69.303  50.850  20.620  1.00  0.00     0.059 A 
ATOM      2  C   UNL     1      70.281  51.851  20.819  1.00  0.00     0.130 A 
ATOM      3  C   UNL     1      70.964  51.931  22.043  1.00  0.00     0.093 A 
ATOM      4  C   UNL     1      70.698  51.012  23.074  1.00  0.00     0.122 A 
ATOM      5  C   UNL     1      69.744  50.014  22.867  1.00  0.00     0.047 A 
ATOM      6  C   UNL     1      69.057  49.929  21.655  1.00  0.00     0.019 A 
ENDROOT
BRANCH   1   7
ATOM      7  C   UNL     1      68.532  50.724  19.353  1.00  0.00     0.163 C 
ATOM      8  C   UNL     1      67.134  50.187  19.312  1.00  0.00     0.093 C 
ATOM      9  O   UNL     1      69.065  51.080  18.268  1.00  0.00    -0.294 OA
ENDBRANCH   1   7
BRANCH   2  10
ATOM     10  O   UNL     1      70.597  52.753  19.804  1.00  0.00    -0.507 OA
ATOM     11  H   UNL     1      71.175  53.568  19.975  1.00  0.00     0.293 HD
ENDBRANCH   2  10
BRANCH   4  12
ATOM     12  O   UNL     1      71.358  51.056  24.311  1.00  0.00    -0.497 OA
ATOM     13  C   UNL     1      71.982  49.935  24.930  1.00  0.00     0.278 C 
ENDBRANCH   4  12
TORSDOF 3
ENDMDL
MODEL 2
REMARK VINA RESULT:    -4.505      3.028      4.582
REMARK INTER + INTRA:          -5.475
REMARK INTER:                  -5.134
REMARK INTRA:                  -0.341
REMARK UNBOUND:                -0.311
REMARK SMILES COc1ccc(C(C)=O)c(O)c1
REMARK SMILES IDX 6 1 10 2 12 3 3 4 4 5 5 6 7 7 8 8 9 9 11 10 2 12 1 13
REMARK H PARENT 11 11
REMARK Flexibility Score: inf
ROOT
ATOM      1  C   UNL     1      68.277  51.496  18.723  1.00  0.00     0.059 A 
ATOM      2  C   UNL     1      69.321  51.305  19.657  1.00  0.00     0.130 A 
ATOM      3  C   UNL     1      70.594  51.842  19.406  1.00  0.00     0.093 A 
ATOM      4  C   UNL     1      70.841  52.587  18.239  1.00  0.00     0.122 A 
ATOM      5  C   UNL     1      69.802  52.789  17.328  1.00  0.00     0.047 A 
ATOM      6  C   UNL     1      68.535  52.255  17.566  1.00  0.00     0.019 A 
ENDROOT
BRANCH   1   7
ATOM      7  C   UNL     1      66.913  50.937  18.922  1.00  0.00     0.163 C 
ATOM      8  C   UNL     1      65.671  51.707  18.588  1.00  0.00     0.093 C 
ATOM      9  O   UNL     1      66.783  49.773  19.389  1.00  0.00    -0.294 OA
ENDBRANCH   1   7
BRANCH   2  10
ATOM     10  O   UNL     1      69.100  50.606  20.843  1.00  0.00    -0.507 OA
ATOM     11  H   UNL     1      69.805  50.550  21.569  1.00  0.00     0.293 HD
ENDBRANCH   2  10
BRANCH   4  12
ATOM     12  O   UNL     1      72.096  53.142  17.950  1.00  0.00    -0.497 OA
ATOM     13  C   UNL     1      72.324  54.154  16.974  1.00  0.00     0.278 C 
ENDBRANCH   4  12
TORSDOF 3
ENDMDL
MODEL 3
REMARK VINA RESULT:    -4.366      4.236      4.736
REMARK INTER + INTRA:          -5.315
REMARK INTER:                  -4.969
REMARK INTRA:                  -0.345
REMARK UNBOUND:                -0.311
REMARK SMILES COc1ccc(C(C)=O)c(O)c1
REMARK SMILES IDX 6 1 10 2 12 3 3 4 4 5 5 6 7 7 8 8 9 9 11 10 2 12 1 13
REMARK H PARENT 11 11
REMARK Flexibility Score: inf
ROOT
ATOM      1  C   UNL     1      67.926  52.088  18.750  1.00  0.00     0.059 A 
ATOM      2  C   UNL     1      67.961  53.389  19.301  1.00  0.00     0.130 A 
ATOM      3  C   UNL     1      69.101  54.192  19.133  1.00  0.00     0.093 A 
ATOM      4  C   UNL     1      70.208  53.722  18.405  1.00  0.00     0.122 A 
ATOM      5  C   UNL     1      70.162  52.444  17.846  1.00  0.00     0.047 A 
ATOM      6  C   UNL     1      69.036  51.636  18.012  1.00  0.00     0.019 A 
ENDROOT
BRANCH   1   7
ATOM      7  C   UNL     1      66.756  51.183  18.908  1.00  0.00     0.163 C 
ATOM      8  C   UNL     1      66.890  49.775  19.404  1.00  0.00     0.093 C 
ATOM      9  O   UNL     1      65.604  51.605  18.618  1.00  0.00    -0.294 OA
ENDBRANCH   1   7
BRANCH   2  10
ATOM     10  O   UNL     1      66.866  53.901  19.995  1.00  0.00    -0.507 OA
ATOM     11  H   UNL     1      66.101  54.367  19.519  1.00  0.00     0.293 HD
ENDBRANCH   2  10
BRANCH   4  12
ATOM     12  O   UNL     1      71.365  54.492  18.212  1.00  0.00    -0.497 OA
ATOM     13  C   UNL     1      72.361  54.217  17.230  1.00  0.00     0.278 C 
ENDBRANCH   4  12
TORSDOF 3
ENDMDL
MODEL 4
REMARK VINA RESULT:    -4.262      1.949      3.016
REMARK INTER + INTRA:          -5.196
REMARK INTER:                  -4.864
REMARK INTRA:                  -0.331
REMARK UNBOUND:                -0.311
REMARK SMILES COc1ccc(C(C)=O)c(O)c1
REMARK SMILES IDX 6 1 10 2 12 3 3 4 4 5 5 6 7 7 8 8 9 9 11 10 2 12 1 13
REMARK H PARENT 11 11
REMARK Flexibility Score: inf
ROOT
ATOM      1  C   UNL     1      70.451  52.236  19.207  1.00  0.00     0.059 A 
ATOM      2  C   UNL     1      69.692  51.053  19.353  1.00  0.00     0.130 A 
ATOM      3  C   UNL     1      69.510  50.488  20.625  1.00  0.00     0.093 A 
ATOM      4  C   UNL     1      70.062  51.098  21.766  1.00  0.00     0.122 A 
ATOM      5  C   UNL     1      70.795  52.276  21.620  1.00  0.00     0.047 A 
ATOM      6  C   UNL     1      70.986  52.843  20.359  1.00  0.00     0.019 A 
ENDROOT
BRANCH   1   7
ATOM      7  C   UNL     1      70.696  52.873  17.885  1.00  0.00     0.163 C 
ATOM      8  C   UNL     1      72.024  53.454  17.505  1.00  0.00     0.093 C 
ATOM      9  O   UNL     1      69.759  52.931  17.044  1.00  0.00    -0.294 OA
ENDBRANCH   1   7
BRANCH   2  10
ATOM     10  O   UNL     1      69.098  50.444  18.248  1.00  0.00    -0.507 OA
ATOM     11  H   UNL     1      69.272  49.473  18.015  1.00  0.00     0.293 HD
ENDBRANCH   2  10
BRANCH   4  12
ATOM     12  O   UNL     1      69.902  50.569  23.055  1.00  0.00    -0.497 OA
ATOM     13  C   UNL     1      70.977  50.155  23.895  1.00  0.00     0.278 C 
ENDBRANCH   4  12
TORSDOF 3
ENDMDL
MODEL 5
REMARK VINA RESULT:    -4.209      1.004      4.624
REMARK INTER + INTRA:          -5.136
REMARK INTER:                  -4.793
REMARK INTRA:                  -0.343
REMARK UNBOUND:                -0.311
REMARK SMILES COc1ccc(C(C)=O)c(O)c1
REMARK SMILES IDX 6 1 10 2 12 3 3 4 4 5 5 6 7 7 8 8 9 9 11 10 2 12 1 13
REMARK H PARENT 11 11
REMARK Flexibility Score: inf
ROOT
ATOM      1  C   UNL     1      70.726  51.134  22.931  1.00  0.00     0.059 A 
ATOM      2  C   UNL     1      70.988  51.999  21.844  1.00  0.00     0.130 A 
ATOM      3  C   UNL     1      70.297  51.834  20.633  1.00  0.00     0.093 A 
ATOM      4  C   UNL     1      69.328  50.824  20.493  1.00  0.00     0.122 A 
ATOM      5  C   UNL     1      69.059  49.984  21.575  1.00  0.00     0.047 A 
ATOM      6  C   UNL     1      69.745  50.137  22.781  1.00  0.00     0.019 A 
ENDROOT
BRANCH   1   7
ATOM      7  C   UNL     1      71.439  51.246  24.233  1.00  0.00     0.163 C 
ATOM      8  C   UNL     1      72.043  50.062  24.923  1.00  0.00     0.093 C 
ATOM      9  O   UNL     1      71.544  52.375  24.785  1.00  0.00    -0.294 OA
ENDBRANCH   1   7
BRANCH   2  10
ATOM     10  O   UNL     1      71.914  53.035  21.962  1.00  0.00    -0.507 OA
ATOM     11  H   UNL     1      72.904  52.888  21.805  1.00  0.00     0.293 HD
ENDBRANCH   2  10
BRANCH   4  12
ATOM     12  O   UNL     1      68.613  50.625  19.302  1.00  0.00    -0.497 OA
ATOM     13  C   UNL     1      67.244  50.236  19.241  1.00  0.00     0.278 C 
ENDBRANCH   4  12
TORSDOF 3
ENDMDL
MODEL 6
REMARK VINA RESULT:    -4.161      1.737      2.611
REMARK INTER + INTRA:          -5.081
REMARK INTER:                  -4.772
REMARK INTRA:                  -0.309
REMARK UNBOUND:                -0.311
REMARK SMILES COc1ccc(C(C)=O)c(O)c1
REMARK SMILES IDX 6 1 10 2 12 3 3 4 4 5 5 6 7 7 8 8 9 9 11 10 2 12 1 13
REMARK H PARENT 11 11
REMARK Flexibility Score: inf
ROOT
ATOM      1  C   UNL     1      69.968  50.910  21.580  1.00  0.00     0.059 A 
ATOM      2  C   UNL     1      69.768  50.061  22.692  1.00  0.00     0.130 A 
ATOM      3  C   UNL     1      70.521  50.247  23.863  1.00  0.00     0.093 A 
ATOM      4  C   UNL     1      71.465  51.286  23.949  1.00  0.00     0.122 A 
ATOM      5  C   UNL     1      71.647  52.133  22.856  1.00  0.00     0.047 A 
ATOM      6  C   UNL     1      70.907  51.953  21.686  1.00  0.00     0.019 A 
ENDROOT
BRANCH   1   7
ATOM      7  C   UNL     1      69.215  50.752  20.306  1.00  0.00     0.163 C 
ATOM      8  C   UNL     1      69.804  51.108  18.975  1.00  0.00     0.093 C 
ATOM      9  O   UNL     1      68.038  50.302  20.336  1.00  0.00    -0.294 OA
ENDBRANCH   1   7
BRANCH   2  10
ATOM     10  O   UNL     1      68.811  49.047  22.655  1.00  0.00    -0.507 OA
ATOM     11  H   UNL     1      68.751  48.398  21.878  1.00  0.00     0.293 HD
ENDBRANCH   2  10
BRANCH   4  12
ATOM     12  O   UNL     1      72.237  51.509  25.099  1.00  0.00    -0.497 OA
ATOM     13  C   UNL     1      71.985  52.538  26.051  1.00  0.00     0.278 C 
ENDBRANCH   4  12
TORSDOF 3
ENDMDL
MODEL 7
REMARK VINA RESULT:    -4.155      1.292      5.008
REMARK INTER + INTRA:          -5.073
REMARK INTER:                  -4.756
REMARK INTRA:                  -0.317
REMARK UNBOUND:                -0.311
REMARK SMILES COc1ccc(C(C)=O)c(O)c1
REMARK SMILES IDX 6 1 10 2 12 3 3 4 4 5 5 6 7 7 8 8 9 9 11 10 2 12 1 13
REMARK H PARENT 11 11
REMARK Flexibility Score: inf
ROOT
ATOM      1  C   UNL     1      70.726  51.501  22.704  1.00  0.00     0.059 A 
ATOM      2  C   UNL     1      69.874  50.405  22.441  1.00  0.00     0.130 A 
ATOM      3  C   UNL     1      69.367  50.205  21.147  1.00  0.00     0.093 A 
ATOM      4  C   UNL     1      69.712  51.077  20.098  1.00  0.00     0.122 A 
ATOM      5  C   UNL     1      70.569  52.147  20.358  1.00  0.00     0.047 A 
ATOM      6  C   UNL     1      71.074  52.358  21.643  1.00  0.00     0.019 A 
ENDROOT
BRANCH   1   7
ATOM      7  C   UNL     1      71.280  51.778  24.057  1.00  0.00     0.163 C 
ATOM      8  C   UNL     1      70.967  53.033  24.813  1.00  0.00     0.093 C 
ATOM      9  O   UNL     1      72.043  50.932  24.597  1.00  0.00    -0.294 OA
ENDBRANCH   1   7
BRANCH   2  10
ATOM     10  O   UNL     1      69.543  49.499  23.447  1.00  0.00    -0.507 OA
ATOM     11  H   UNL     1      69.959  49.551  24.371  1.00  0.00     0.293 HD
ENDBRANCH   2  10
BRANCH   4  12
ATOM     12  O   UNL     1      69.230  50.912  18.791  1.00  0.00    -0.497 OA
ATOM     13  C   UNL     1      67.891  50.549  18.467  1.00  0.00     0.278 C 
ENDBRANCH   4  12
TORSDOF 3
ENDMDL
MODEL 8
REMARK VINA RESULT:    -4.040      2.422      3.769
REMARK INTER + INTRA:          -4.942
REMARK INTER:                  -4.604
REMARK INTRA:                  -0.338
REMARK UNBOUND:                -0.311
REMARK SMILES COc1ccc(C(C)=O)c(O)c1
REMARK SMILES IDX 6 1 10 2 12 3 3 4 4 5 5 6 7 7 8 8 9 9 11 10 2 12 1 13
REMARK H PARENT 11 11
REMARK Flexibility Score: inf
ROOT
ATOM      1  C   UNL     1      70.495  50.847  23.225  1.00  0.00     0.059 A 
ATOM      2  C   UNL     1      71.394  50.110  24.029  1.00  0.00     0.130 A 
ATOM      3  C   UNL     1      72.293  50.781  24.873  1.00  0.00     0.093 A 
ATOM      4  C   UNL     1      72.300  52.186  24.941  1.00  0.00     0.122 A 
ATOM      5  C   UNL     1      71.398  52.909  24.159  1.00  0.00     0.047 A 
ATOM      6  C   UNL     1      70.503  52.251  23.314  1.00  0.00     0.019 A 
ENDROOT
BRANCH   1   7
ATOM      7  C   UNL     1      69.531  50.194  22.298  1.00  0.00     0.163 C 
ATOM      8  C   UNL     1      69.516  50.475  20.826  1.00  0.00     0.093 C 
ATOM      9  O   UNL     1      68.692  49.373  22.756  1.00  0.00    -0.294 OA
ENDBRANCH   1   7
BRANCH   2  10
ATOM     10  O   UNL     1      71.387  48.716  24.016  1.00  0.00    -0.507 OA
ATOM     11  H   UNL     1      71.542  48.189  23.163  1.00  0.00     0.293 HD
ENDBRANCH   2  10
BRANCH   4  12
ATOM     12  O   UNL     1      73.180  52.896  25.771  1.00  0.00    -0.497 OA
ATOM     13  C   UNL     1      73.097  54.296  26.022  1.00  0.00     0.278 C 
ENDBRANCH   4  12
TORSDOF 3
ENDMDL
MODEL 9
REMARK VINA RESULT:    -3.964      2.871      4.893
REMARK INTER + INTRA:          -4.854
REMARK INTER:                  -4.539
REMARK INTRA:                  -0.315
REMARK UNBOUND:                -0.311
REMARK SMILES COc1ccc(C(C)=O)c(O)c1
REMARK SMILES IDX 6 1 10 2 12 3 3 4 4 5 5 6 7 7 8 8 9 9 11 10 2 12 1 13
REMARK H PARENT 11 11
REMARK Flexibility Score: inf
ROOT
ATOM      1  C   UNL     1      70.796  53.303  18.110  1.00  0.00     0.059 A 
ATOM      2  C   UNL     1      71.000  52.913  19.453  1.00  0.00     0.130 A 
ATOM      3  C   UNL     1      70.148  51.969  20.048  1.00  0.00     0.093 A 
ATOM      4  C   UNL     1      69.097  51.390  19.314  1.00  0.00     0.122 A 
ATOM      5  C   UNL     1      68.909  51.765  17.982  1.00  0.00     0.047 A 
ATOM      6  C   UNL     1      69.749  52.706  17.384  1.00  0.00     0.019 A 
ENDROOT
BRANCH   1   7
ATOM      7  C   UNL     1      71.653  54.312  17.430  1.00  0.00     0.163 C 
ATOM      8  C   UNL     1      71.872  54.312  15.948  1.00  0.00     0.093 C 
ATOM      9  O   UNL     1      72.221  55.204  18.117  1.00  0.00    -0.294 OA
ENDBRANCH   1   7
BRANCH   2  10
ATOM     10  O   UNL     1      72.057  53.437  20.197  1.00  0.00    -0.507 OA
ATOM     11  H   UNL     1      71.919  53.820  21.126  1.00  0.00     0.293 HD
ENDBRANCH   2  10
BRANCH   4  12
ATOM     12  O   UNL     1      68.223  50.443  19.868  1.00  0.00    -0.497 OA
ATOM     13  C   UNL     1      66.986  50.047  19.281  1.00  0.00     0.278 C 
ENDBRANCH   4  12
TORSDOF 3
ENDMDL
