MODEL 1
REMARK VINA RESULT:    -3.921      0.000      0.000
REMARK INTER + INTRA:          -7.550
REMARK INTER:                  -6.214
REMARK INTRA:                  -1.337
REMARK UNBOUND:                -1.337
REMARK SMILES CCCCCCCCCCCC(=O)[O-]
REMARK SMILES IDX 7 1 8 2 9 3 10 4 11 5 12 6 13 7 14 8 6 9 5 10 4 11 3 12 2 13
REMARK SMILES IDX 1 14
REMARK H PARENT
REMARK Flexibility Score: inf
ROOT
ATOM      1  C   UNL     1      33.345   9.188  29.977  1.00  0.00     0.000 C 
ENDROOT
BRANCH   1   2
ATOM      2  C   UNL     1      32.968   8.499  28.654  1.00  0.00     0.000 C 
BRANCH   2   3
ATOM      3  C   UNL     1      31.660   9.042  28.057  1.00  0.00     0.000 C 
BRANCH   3   4
ATOM      4  C   UNL     1      31.105  10.246  28.837  1.00  0.00     0.006 C 
BRANCH   4   5
ATOM      5  C   UNL     1      29.644  10.040  29.260  1.00  0.00     0.053 C 
BRANCH   5   6
ATOM      6  C   UNL     1      28.724  11.006  28.579  1.00  0.00     0.041 C 
ATOM      7  O   UNL     1      28.876  11.270  27.358  1.00  0.00    -0.550 OA
ATOM      8  O   UNL     1      27.718  11.636  29.301  1.00  0.00    -0.550 OA
ENDBRANCH   5   6
ENDBRANCH   4   5
ENDBRANCH   3   4
ENDBRANCH   2   3
ENDBRANCH   1   2
BRANCH   1   9
ATOM      9  C   UNL     1      33.776   8.185  31.060  1.00  0.00     0.000 C 
BRANCH   9  10
ATOM     10  C   UNL     1      32.825   8.181  32.271  1.00  0.00    -0.000 C 
BRANCH  10  11
ATOM     11  C   UNL     1      31.349   8.002  31.869  1.00  0.00    -0.000 C 
BRANCH  11  12
ATOM     12  C   UNL     1      30.972   6.595  31.364  1.00  0.00    -0.000 C 
BRANCH  12  13
ATOM     13  C   UNL     1      29.904   6.566  30.256  1.00  0.00    -0.003 C 
ATOM     14  C   UNL     1      29.551   5.150  29.804  1.00  0.00     0.004 C 
ENDBRANCH  12  13
ENDBRANCH  11  12
ENDBRANCH  10  11
ENDBRANCH   9  10
ENDBRANCH   1   9
TORSDOF 10
ENDMDL
MODEL 2
REMARK VINA RESULT:    -3.843      1.170      2.964
REMARK INTER + INTRA:          -7.426
REMARK INTER:                  -5.859
REMARK INTRA:                  -1.567
REMARK UNBOUND:                -1.337
REMARK SMILES CCCCCCCCCCCC(=O)[O-]
REMARK SMILES IDX 7 1 8 2 9 3 10 4 11 5 12 6 13 7 14 8 6 9 5 10 4 11 3 12 2 13
REMARK SMILES IDX 1 14
REMARK H PARENT
REMARK Flexibility Score: inf
ROOT
ATOM      1  C   UNL     1      30.880   6.883  30.669  1.00  0.00     0.000 C 
ENDROOT
BRANCH   1   2
ATOM      2  C   UNL     1      30.258   7.938  29.738  1.00  0.00     0.000 C 
BRANCH   2   3
ATOM      3  C   UNL     1      31.001   8.054  28.397  1.00  0.00     0.000 C 
BRANCH   3   4
ATOM      4  C   UNL     1      30.882   9.455  27.771  1.00  0.00     0.006 C 
BRANCH   4   5
ATOM      5  C   UNL     1      30.256  10.470  28.737  1.00  0.00     0.053 C 
BRANCH   5   6
ATOM      6  C   UNL     1      29.100  11.191  28.116  1.00  0.00     0.041 C 
ATOM      7  O   UNL     1      28.853  11.054  26.889  1.00  0.00    -0.550 OA
ATOM      8  O   UNL     1      28.312  12.038  28.886  1.00  0.00    -0.550 OA
ENDBRANCH   5   6
ENDBRANCH   4   5
ENDBRANCH   3   4
ENDBRANCH   2   3
ENDBRANCH   1   2
BRANCH   1   9
ATOM      9  C   UNL     1      31.302   7.471  32.026  1.00  0.00     0.000 C 
BRANCH   9  10
ATOM     10  C   UNL     1      31.449   9.003  31.984  1.00  0.00    -0.000 C 
BRANCH  10  11
ATOM     11  C   UNL     1      32.919   9.460  31.951  1.00  0.00    -0.000 C 
BRANCH  11  12
ATOM     12  C   UNL     1      33.425   9.946  30.578  1.00  0.00    -0.000 C 
BRANCH  12  13
ATOM     13  C   UNL     1      34.282   8.929  29.804  1.00  0.00    -0.003 C 
ATOM     14  C   UNL     1      35.055   7.981  30.720  1.00  0.00     0.004 C 
ENDBRANCH  12  13
ENDBRANCH  11  12
ENDBRANCH  10  11
ENDBRANCH   9  10
ENDBRANCH   1   9
TORSDOF 10
ENDMDL
MODEL 3
REMARK VINA RESULT:    -3.815      1.431      2.643
REMARK INTER + INTRA:          -7.381
REMARK INTER:                  -5.706
REMARK INTRA:                  -1.675
REMARK UNBOUND:                -1.337
REMARK SMILES CCCCCCCCCCCC(=O)[O-]
REMARK SMILES IDX 7 1 8 2 9 3 10 4 11 5 12 6 13 7 14 8 6 9 5 10 4 11 3 12 2 13
REMARK SMILES IDX 1 14
REMARK H PARENT
REMARK Flexibility Score: inf
ROOT
ATOM      1  C   UNL     1      33.109   9.915  30.380  1.00  0.00     0.000 C 
ENDROOT
BRANCH   1   2
ATOM      2  C   UNL     1      32.626   9.558  31.796  1.00  0.00     0.000 C 
BRANCH   2   3
ATOM      3  C   UNL     1      31.388  10.364  32.219  1.00  0.00     0.000 C 
BRANCH   3   4
ATOM      4  C   UNL     1      30.874  11.293  31.105  1.00  0.00     0.006 C 
BRANCH   4   5
ATOM      5  C   UNL     1      29.362  11.150  30.883  1.00  0.00     0.053 C 
BRANCH   5   6
ATOM      6  C   UNL     1      28.986  11.369  29.449  1.00  0.00     0.041 C 
ATOM      7  O   UNL     1      27.825  11.092  29.050  1.00  0.00    -0.550 OA
ATOM      8  O   UNL     1      29.928  11.852  28.549  1.00  0.00    -0.550 OA
ENDBRANCH   5   6
ENDBRANCH   4   5
ENDBRANCH   3   4
ENDBRANCH   2   3
ENDBRANCH   1   2
BRANCH   1   9
ATOM      9  C   UNL     1      33.780   8.727  29.670  1.00  0.00     0.000 C 
BRANCH   9  10
ATOM     10  C   UNL     1      33.044   8.317  28.383  1.00  0.00    -0.000 C 
BRANCH  10  11
ATOM     11  C   UNL     1      31.606   8.864  28.318  1.00  0.00    -0.000 C 
BRANCH  11  12
ATOM     12  C   UNL     1      30.494   7.813  28.513  1.00  0.00    -0.000 C 
BRANCH  12  13
ATOM     13  C   UNL     1      29.971   7.680  29.954  1.00  0.00    -0.003 C 
ATOM     14  C   UNL     1      30.654   6.558  30.736  1.00  0.00     0.004 C 
ENDBRANCH  12  13
ENDBRANCH  11  12
ENDBRANCH  10  11
ENDBRANCH   9  10
ENDBRANCH   1   9
TORSDOF 10
ENDMDL
MODEL 4
REMARK VINA RESULT:    -3.741      1.770      3.133
REMARK INTER + INTRA:          -7.266
REMARK INTER:                  -5.802
REMARK INTRA:                  -1.463
REMARK UNBOUND:                -1.337
REMARK SMILES CCCCCCCCCCCC(=O)[O-]
REMARK SMILES IDX 7 1 8 2 9 3 10 4 11 5 12 6 13 7 14 8 6 9 5 10 4 11 3 12 2 13
REMARK SMILES IDX 1 14
REMARK H PARENT
REMARK Flexibility Score: inf
ROOT
ATOM      1  C   UNL     1      31.474   8.356  28.623  1.00  0.00     0.000 C 
ENDROOT
BRANCH   1   2
ATOM      2  C   UNL     1      31.101   9.843  28.480  1.00  0.00     0.000 C 
BRANCH   2   3
ATOM      3  C   UNL     1      29.861  10.060  27.598  1.00  0.00     0.000 C 
BRANCH   3   4
ATOM      4  C   UNL     1      28.798  10.943  28.274  1.00  0.00     0.006 C 
BRANCH   4   5
ATOM      5  C   UNL     1      28.637  10.618  29.765  1.00  0.00     0.053 C 
BRANCH   5   6
ATOM      6  C   UNL     1      28.647  11.855  30.610  1.00  0.00     0.041 C 
ATOM      7  O   UNL     1      27.579  12.280  31.121  1.00  0.00    -0.550 OA
ATOM      8  O   UNL     1      29.832  12.554  30.807  1.00  0.00    -0.550 OA
ENDBRANCH   5   6
ENDBRANCH   4   5
ENDBRANCH   3   4
ENDBRANCH   2   3
ENDBRANCH   1   2
BRANCH   1   9
ATOM      9  C   UNL     1      30.238   7.450  28.755  1.00  0.00     0.000 C 
BRANCH   9  10
ATOM     10  C   UNL     1      30.108   6.833  30.159  1.00  0.00    -0.000 C 
BRANCH  10  11
ATOM     11  C   UNL     1      31.345   7.088  31.040  1.00  0.00    -0.000 C 
BRANCH  11  12
ATOM     12  C   UNL     1      31.060   7.782  32.386  1.00  0.00    -0.000 C 
BRANCH  12  13
ATOM     13  C   UNL     1      30.875   9.308  32.305  1.00  0.00    -0.003 C 
ATOM     14  C   UNL     1      32.181  10.053  32.030  1.00  0.00     0.004 C 
ENDBRANCH  12  13
ENDBRANCH  11  12
ENDBRANCH  10  11
ENDBRANCH   9  10
ENDBRANCH   1   9
TORSDOF 10
ENDMDL
MODEL 5
REMARK VINA RESULT:    -3.721      1.629      2.656
REMARK INTER + INTRA:          -7.233
REMARK INTER:                  -6.353
REMARK INTRA:                  -0.880
REMARK UNBOUND:                -1.337
REMARK SMILES CCCCCCCCCCCC(=O)[O-]
REMARK SMILES IDX 7 1 8 2 9 3 10 4 11 5 12 6 13 7 14 8 6 9 5 10 4 11 3 12 2 13
REMARK SMILES IDX 1 14
REMARK H PARENT
REMARK Flexibility Score: inf
ROOT
ATOM      1  C   UNL     1      31.463   9.513  27.709  1.00  0.00     0.000 C 
ENDROOT
BRANCH   1   2
ATOM      2  C   UNL     1      29.925   9.486  27.730  1.00  0.00     0.000 C 
BRANCH   2   3
ATOM      3  C   UNL     1      29.305  10.856  27.409  1.00  0.00     0.000 C 
BRANCH   3   4
ATOM      4  C   UNL     1      28.323  11.333  28.493  1.00  0.00     0.006 C 
BRANCH   4   5
ATOM      5  C   UNL     1      28.628  10.714  29.864  1.00  0.00     0.053 C 
BRANCH   5   6
ATOM      6  C   UNL     1      28.582  11.734  30.959  1.00  0.00     0.041 C 
ATOM      7  O   UNL     1      29.546  11.847  31.760  1.00  0.00    -0.550 OA
ATOM      8  O   UNL     1      27.461  12.541  31.112  1.00  0.00    -0.550 OA
ENDBRANCH   5   6
ENDBRANCH   4   5
ENDBRANCH   3   4
ENDBRANCH   2   3
ENDBRANCH   1   2
BRANCH   1   9
ATOM      9  C   UNL     1      32.081   8.235  28.300  1.00  0.00     0.000 C 
BRANCH   9  10
ATOM     10  C   UNL     1      33.014   8.526  29.489  1.00  0.00    -0.000 C 
BRANCH  10  11
ATOM     11  C   UNL     1      32.252   8.994  30.744  1.00  0.00    -0.000 C 
BRANCH  11  12
ATOM     12  C   UNL     1      30.917   8.270  31.009  1.00  0.00    -0.000 C 
BRANCH  12  13
ATOM     13  C   UNL     1      31.042   6.769  31.324  1.00  0.00    -0.003 C 
ATOM     14  C   UNL     1      30.195   5.893  30.401  1.00  0.00     0.004 C 
ENDBRANCH  12  13
ENDBRANCH  11  12
ENDBRANCH  10  11
ENDBRANCH   9  10
ENDBRANCH   1   9
TORSDOF 10
ENDMDL
MODEL 6
REMARK VINA RESULT:    -3.640      3.812      5.698
REMARK INTER + INTRA:          -7.105
REMARK INTER:                  -5.599
REMARK INTRA:                  -1.505
REMARK UNBOUND:                -1.337
REMARK SMILES CCCCCCCCCCCC(=O)[O-]
REMARK SMILES IDX 7 1 8 2 9 3 10 4 11 5 12 6 13 7 14 8 6 9 5 10 4 11 3 12 2 13
REMARK SMILES IDX 1 14
REMARK H PARENT
REMARK Flexibility Score: inf
ROOT
ATOM      1  C   UNL     1      30.398   8.259  28.588  1.00  0.00     0.000 C 
ENDROOT
BRANCH   1   2
ATOM      2  C   UNL     1      31.683   7.984  29.388  1.00  0.00     0.000 C 
BRANCH   2   3
ATOM      3  C   UNL     1      32.915   8.678  28.786  1.00  0.00     0.000 C 
BRANCH   3   4
ATOM      4  C   UNL     1      34.016   8.945  29.827  1.00  0.00     0.006 C 
BRANCH   4   5
ATOM      5  C   UNL     1      33.714   8.276  31.175  1.00  0.00     0.053 C 
BRANCH   5   6
ATOM      6  C   UNL     1      34.899   7.530  31.706  1.00  0.00     0.041 C 
ATOM      7  O   UNL     1      35.908   7.346  30.977  1.00  0.00    -0.550 OA
ATOM      8  O   UNL     1      34.876   7.013  32.995  1.00  0.00    -0.550 OA
ENDBRANCH   5   6
ENDBRANCH   4   5
ENDBRANCH   3   4
ENDBRANCH   2   3
ENDBRANCH   1   2
BRANCH   1   9
ATOM      9  C   UNL     1      30.548   9.448  27.624  1.00  0.00     0.000 C 
BRANCH   9  10
ATOM     10  C   UNL     1      29.339  10.399  27.668  1.00  0.00    -0.000 C 
BRANCH  10  11
ATOM     11  C   UNL     1      29.330  11.296  28.920  1.00  0.00    -0.000 C 
BRANCH  11  12
ATOM     12  C   UNL     1      30.684  11.943  29.273  1.00  0.00    -0.000 C 
BRANCH  12  13
ATOM     13  C   UNL     1      31.257  11.545  30.645  1.00  0.00    -0.003 C 
ATOM     14  C   UNL     1      30.289  10.701  31.473  1.00  0.00     0.004 C 
ENDBRANCH  12  13
ENDBRANCH  11  12
ENDBRANCH  10  11
ENDBRANCH   9  10
ENDBRANCH   1   9
TORSDOF 10
ENDMDL
MODEL 7
REMARK VINA RESULT:    -3.614      2.841      4.314
REMARK INTER + INTRA:          -7.064
REMARK INTER:                  -5.826
REMARK INTRA:                  -1.238
REMARK UNBOUND:                -1.337
REMARK SMILES CCCCCCCCCCCC(=O)[O-]
REMARK SMILES IDX 7 1 8 2 9 3 10 4 11 5 12 6 13 7 14 8 6 9 5 10 4 11 3 12 2 13
REMARK SMILES IDX 1 14
REMARK H PARENT
REMARK Flexibility Score: inf
ROOT
ATOM      1  C   UNL     1      33.458   9.879  30.523  1.00  0.00     0.000 C 
ENDROOT
BRANCH   1   2
ATOM      2  C   UNL     1      33.369   8.690  29.551  1.00  0.00     0.000 C 
BRANCH   2   3
ATOM      3  C   UNL     1      32.356   8.926  28.419  1.00  0.00     0.000 C 
BRANCH   3   4
ATOM      4  C   UNL     1      31.330   7.786  28.292  1.00  0.00     0.006 C 
BRANCH   4   5
ATOM      5  C   UNL     1      30.263   7.841  29.393  1.00  0.00     0.053 C 
BRANCH   5   6
ATOM      6  C   UNL     1      30.315   6.636  30.281  1.00  0.00     0.041 C 
ATOM      7  O   UNL     1      29.637   5.614  30.000  1.00  0.00    -0.550 OA
ATOM      8  O   UNL     1      31.089   6.655  31.435  1.00  0.00    -0.550 OA
ENDBRANCH   5   6
ENDBRANCH   4   5
ENDBRANCH   3   4
ENDBRANCH   2   3
ENDBRANCH   1   2
BRANCH   1   9
ATOM      9  C   UNL     1      32.086  10.278  31.092  1.00  0.00     0.000 C 
BRANCH   9  10
ATOM     10  C   UNL     1      31.999  11.779  31.421  1.00  0.00    -0.000 C 
BRANCH  10  11
ATOM     11  C   UNL     1      30.991  12.528  30.528  1.00  0.00    -0.000 C 
BRANCH  11  12
ATOM     12  C   UNL     1      30.680  11.850  29.179  1.00  0.00    -0.000 C 
BRANCH  12  13
ATOM     13  C   UNL     1      29.209  11.440  28.982  1.00  0.00    -0.003 C 
ATOM     14  C   UNL     1      28.907  10.972  27.559  1.00  0.00     0.004 C 
ENDBRANCH  12  13
ENDBRANCH  11  12
ENDBRANCH  10  11
ENDBRANCH   9  10
ENDBRANCH   1   9
TORSDOF 10
ENDMDL
MODEL 8
REMARK VINA RESULT:    -3.583      1.425      2.791
REMARK INTER + INTRA:          -7.015
REMARK INTER:                  -5.585
REMARK INTRA:                  -1.430
REMARK UNBOUND:                -1.337
REMARK SMILES CCCCCCCCCCCC(=O)[O-]
REMARK SMILES IDX 7 1 8 2 9 3 10 4 11 5 12 6 13 7 14 8 6 9 5 10 4 11 3 12 2 13
REMARK SMILES IDX 1 14
REMARK H PARENT
REMARK Flexibility Score: inf
ROOT
ATOM      1  C   UNL     1      31.226   8.979  32.059  1.00  0.00     0.000 C 
ENDROOT
BRANCH   1   2
ATOM      2  C   UNL     1      32.586   9.419  31.489  1.00  0.00     0.000 C 
BRANCH   2   3
ATOM      3  C   UNL     1      32.515  10.774  30.767  1.00  0.00     0.000 C 
BRANCH   3   4
ATOM      4  C   UNL     1      31.126  11.428  30.868  1.00  0.00     0.006 C 
BRANCH   4   5
ATOM      5  C   UNL     1      30.590  11.864  29.497  1.00  0.00     0.053 C 
BRANCH   5   6
ATOM      6  C   UNL     1      29.094  11.934  29.480  1.00  0.00     0.041 C 
ATOM      7  O   UNL     1      28.424  11.023  28.927  1.00  0.00    -0.550 OA
ATOM      8  O   UNL     1      28.441  13.021  30.050  1.00  0.00    -0.550 OA
ENDBRANCH   5   6
ENDBRANCH   4   5
ENDBRANCH   3   4
ENDBRANCH   2   3
ENDBRANCH   1   2
BRANCH   1   9
ATOM      9  C   UNL     1      31.156   7.464  32.312  1.00  0.00     0.000 C 
BRANCH   9  10
ATOM     10  C   UNL     1      30.914   6.662  31.021  1.00  0.00    -0.000 C 
BRANCH  10  11
ATOM     11  C   UNL     1      29.856   7.308  30.107  1.00  0.00    -0.000 C 
BRANCH  11  12
ATOM     12  C   UNL     1      30.216   7.342  28.608  1.00  0.00    -0.000 C 
BRANCH  12  13
ATOM     13  C   UNL     1      31.003   8.584  28.156  1.00  0.00    -0.003 C 
ATOM     14  C   UNL     1      32.494   8.307  27.960  1.00  0.00     0.004 C 
ENDBRANCH  12  13
ENDBRANCH  11  12
ENDBRANCH  10  11
ENDBRANCH   9  10
ENDBRANCH   1   9
TORSDOF 10
ENDMDL
MODEL 9
REMARK VINA RESULT:    -3.533      3.352      5.377
REMARK INTER + INTRA:          -6.935
REMARK INTER:                  -5.443
REMARK INTRA:                  -1.492
REMARK UNBOUND:                -1.337
REMARK SMILES CCCCCCCCCCCC(=O)[O-]
REMARK SMILES IDX 7 1 8 2 9 3 10 4 11 5 12 6 13 7 14 8 6 9 5 10 4 11 3 12 2 13
REMARK SMILES IDX 1 14
REMARK H PARENT
REMARK Flexibility Score: inf
ROOT
ATOM      1  C   UNL     1      30.698   6.471  30.762  1.00  0.00     0.000 C 
ENDROOT
BRANCH   1   2
ATOM      2  C   UNL     1      31.132   7.587  31.729  1.00  0.00     0.000 C 
BRANCH   2   3
ATOM      3  C   UNL     1      32.659   7.746  31.802  1.00  0.00     0.000 C 
BRANCH   3   4
ATOM      4  C   UNL     1      33.145   9.090  31.232  1.00  0.00     0.006 C 
BRANCH   4   5
ATOM      5  C   UNL     1      34.034   8.907  29.995  1.00  0.00     0.053 C 
BRANCH   5   6
ATOM      6  C   UNL     1      35.490   8.963  30.341  1.00  0.00     0.041 C 
ATOM      7  O   UNL     1      36.119   7.904  30.599  1.00  0.00    -0.550 OA
ATOM      8  O   UNL     1      36.144  10.187  30.406  1.00  0.00    -0.550 OA
ENDBRANCH   5   6
ENDBRANCH   4   5
ENDBRANCH   3   4
ENDBRANCH   2   3
ENDBRANCH   1   2
BRANCH   1   9
ATOM      9  C   UNL     1      29.922   7.013  29.550  1.00  0.00     0.000 C 
BRANCH   9  10
ATOM     10  C   UNL     1      30.823   7.786  28.571  1.00  0.00    -0.000 C 
BRANCH  10  11
ATOM     11  C   UNL     1      30.207   9.127  28.126  1.00  0.00    -0.000 C 
BRANCH  11  12
ATOM     12  C   UNL     1      30.421  10.303  29.100  1.00  0.00    -0.000 C 
BRANCH  12  13
ATOM     13  C   UNL     1      29.262  10.552  30.082  1.00  0.00    -0.003 C 
ATOM     14  C   UNL     1      29.737  11.002  31.463  1.00  0.00     0.004 C 
ENDBRANCH  12  13
ENDBRANCH  11  12
ENDBRANCH  10  11
ENDBRANCH   9  10
ENDBRANCH   1   9
TORSDOF 10
ENDMDL
