MODEL 1
REMARK VINA RESULT:    -5.520      0.000      0.000
REMARK INTER + INTRA:          -6.900
REMARK INTER:                  -6.811
REMARK INTRA:                  -0.090
REMARK UNBOUND:                -0.090
REMARK SMILES COc1cc(-c2oc3cc(O)cc(O)c3c(=O)c2O)ccc1O
REMARK SMILES IDX 6 1 18 2 16 3 17 4 15 5 13 6 12 7 10 8 9 9 8 10 7 11 5 12
REMARK SMILES IDX 3 13 22 14 4 15 21 16 20 17 2 18 1 19 23 20 19 22 14 24
REMARK SMILES IDX 11 26
REMARK H PARENT 23 21 19 23 14 25 11 27
REMARK Flexibility Score: inf
ROOT
ATOM      1  C   UNL     1       3.243   9.735   5.609  1.00  0.00     0.180 A 
ATOM      2  C   UNL     1       2.631  10.948   5.246  1.00  0.00     0.208 A 
ATOM      3  C   UNL     1       3.403  12.120   5.230  1.00  0.00     0.238 A 
ATOM      4  O   UNL     1       2.838  13.212   4.955  1.00  0.00    -0.285 OA
ATOM      5  C   UNL     1       4.778  12.064   5.562  1.00  0.00     0.111 A 
ATOM      6  C   UNL     1       5.664  13.184   5.541  1.00  0.00     0.134 A 
ATOM      7  C   UNL     1       6.973  13.038   6.015  1.00  0.00     0.093 A 
ATOM      8  C   UNL     1       7.448  11.798   6.448  1.00  0.00     0.123 A 
ATOM      9  C   UNL     1       6.610  10.686   6.416  1.00  0.00     0.094 A 
ATOM     10  C   UNL     1       5.287  10.809   5.983  1.00  0.00     0.146 A 
ATOM     11  O   UNL     1       4.518   9.726   5.980  1.00  0.00    -0.452 OA
ENDROOT
BRANCH   1  12
ATOM     12  C   UNL     1       2.502   8.453   5.626  1.00  0.00     0.025 A 
ATOM     13  C   UNL     1       0.664   7.100   6.505  1.00  0.00     0.161 A 
ATOM     14  C   UNL     1       1.103   6.015   5.733  1.00  0.00     0.157 A 
ATOM     15  C   UNL     1       1.374   8.316   6.452  1.00  0.00     0.062 A 
ATOM     16  C   UNL     1       2.238   6.141   4.924  1.00  0.00     0.051 A 
ATOM     17  C   UNL     1       2.938   7.349   4.875  1.00  0.00     0.016 A 
BRANCH  13  18
ATOM     18  O   UNL     1      -0.474   6.932   7.309  1.00  0.00    -0.493 OA
ATOM     19  C   UNL     1      -0.457   6.396   8.628  1.00  0.00     0.278 C 
ENDBRANCH  13  18
BRANCH  14  20
ATOM     20  O   UNL     1       0.405   4.809   5.780  1.00  0.00    -0.504 OA
ATOM     21  H   UNL     1      -0.530   4.752   6.167  1.00  0.00     0.293 HD
ENDBRANCH  14  20
ENDBRANCH   1  12
BRANCH   2  22
ATOM     22  O   UNL     1       1.268  10.983   4.942  1.00  0.00    -0.502 OA
ATOM     23  H   UNL     1       0.575  11.327   5.596  1.00  0.00     0.293 HD
ENDBRANCH   2  22
BRANCH   6  24
ATOM     24  O   UNL     1       5.316  14.443   5.043  1.00  0.00    -0.507 OA
ATOM     25  H   UNL     1       4.371  14.773   4.920  1.00  0.00     0.293 HD
ENDBRANCH   6  24
BRANCH   8  26
ATOM     26  O   UNL     1       8.758  11.658   6.902  1.00  0.00    -0.508 OA
ATOM     27  H   UNL     1       8.989  11.040   7.671  1.00  0.00     0.293 HD
ENDBRANCH   8  26
TORSDOF 6
ENDMDL
MODEL 2
REMARK VINA RESULT:    -5.507      2.420      7.175
REMARK INTER + INTRA:          -6.884
REMARK INTER:                  -7.233
REMARK INTRA:                   0.349
REMARK UNBOUND:                -0.090
REMARK SMILES COc1cc(-c2oc3cc(O)cc(O)c3c(=O)c2O)ccc1O
REMARK SMILES IDX 6 1 18 2 16 3 17 4 15 5 13 6 12 7 10 8 9 9 8 10 7 11 5 12
REMARK SMILES IDX 3 13 22 14 4 15 21 16 20 17 2 18 1 19 23 20 19 22 14 24
REMARK SMILES IDX 11 26
REMARK H PARENT 23 21 19 23 14 25 11 27
REMARK Flexibility Score: inf
ROOT
ATOM      1  C   UNL     1       4.996   9.307   5.418  1.00  0.00     0.180 A 
ATOM      2  C   UNL     1       6.317   8.841   5.541  1.00  0.00     0.208 A 
ATOM      3  C   UNL     1       6.562   7.462   5.463  1.00  0.00     0.238 A 
ATOM      4  O   UNL     1       7.739   7.046   5.628  1.00  0.00    -0.285 OA
ATOM      5  C   UNL     1       5.487   6.566   5.248  1.00  0.00     0.111 A 
ATOM      6  C   UNL     1       5.625   5.151   5.114  1.00  0.00     0.134 A 
ATOM      7  C   UNL     1       4.480   4.350   5.035  1.00  0.00     0.093 A 
ATOM      8  C   UNL     1       3.203   4.917   5.019  1.00  0.00     0.123 A 
ATOM      9  C   UNL     1       3.060   6.301   5.090  1.00  0.00     0.094 A 
ATOM     10  C   UNL     1       4.183   7.123   5.207  1.00  0.00     0.146 A 
ATOM     11  O   UNL     1       4.001   8.437   5.283  1.00  0.00    -0.452 OA
ENDROOT
BRANCH   1  12
ATOM     12  C   UNL     1       4.660  10.749   5.465  1.00  0.00     0.025 A 
ATOM     13  C   UNL     1       5.233  13.017   6.177  1.00  0.00     0.161 A 
ATOM     14  C   UNL     1       4.031  13.486   5.629  1.00  0.00     0.157 A 
ATOM     15  C   UNL     1       5.538  11.643   6.098  1.00  0.00     0.062 A 
ATOM     16  C   UNL     1       3.144  12.593   5.013  1.00  0.00     0.051 A 
ATOM     17  C   UNL     1       3.452  11.234   4.938  1.00  0.00     0.016 A 
BRANCH  13  18
ATOM     18  O   UNL     1       6.093  13.940   6.791  1.00  0.00    -0.493 OA
ATOM     19  C   UNL     1       6.209  14.122   8.199  1.00  0.00     0.278 C 
ENDBRANCH  13  18
BRANCH  14  20
ATOM     20  O   UNL     1       3.723  14.843   5.702  1.00  0.00    -0.504 OA
ATOM     21  H   UNL     1       4.338  15.548   5.313  1.00  0.00     0.293 HD
ENDBRANCH  14  20
ENDBRANCH   1  12
BRANCH   2  22
ATOM     22  O   UNL     1       7.360   9.742   5.774  1.00  0.00    -0.502 OA
ATOM     23  H   UNL     1       7.323  10.707   5.469  1.00  0.00     0.293 HD
ENDBRANCH   2  22
BRANCH   6  24
ATOM     24  O   UNL     1       6.855   4.492   5.026  1.00  0.00    -0.507 OA
ATOM     25  H   UNL     1       7.741   4.948   4.872  1.00  0.00     0.293 HD
ENDBRANCH   6  24
BRANCH   8  26
ATOM     26  O   UNL     1       2.069   4.113   4.924  1.00  0.00    -0.508 OA
ATOM     27  H   UNL     1       1.138   4.511   4.886  1.00  0.00     0.293 HD
ENDBRANCH   8  26
TORSDOF 6
ENDMDL
MODEL 3
REMARK VINA RESULT:    -5.248      2.521      7.290
REMARK INTER + INTRA:          -6.565
REMARK INTER:                  -6.414
REMARK INTRA:                  -0.151
REMARK UNBOUND:                -0.090
REMARK SMILES COc1cc(-c2oc3cc(O)cc(O)c3c(=O)c2O)ccc1O
REMARK SMILES IDX 6 1 18 2 16 3 17 4 15 5 13 6 12 7 10 8 9 9 8 10 7 11 5 12
REMARK SMILES IDX 3 13 22 14 4 15 21 16 20 17 2 18 1 19 23 20 19 22 14 24
REMARK SMILES IDX 11 26
REMARK H PARENT 23 21 19 23 14 25 11 27
REMARK Flexibility Score: inf
ROOT
ATOM      1  C   UNL     1       6.043  10.861   5.577  1.00  0.00     0.180 A 
ATOM      2  C   UNL     1       4.663  10.983   5.335  1.00  0.00     0.208 A 
ATOM      3  C   UNL     1       3.901   9.820   5.146  1.00  0.00     0.238 A 
ATOM      4  O   UNL     1       2.676   9.937   4.876  1.00  0.00    -0.285 OA
ATOM      5  C   UNL     1       4.522   8.550   5.217  1.00  0.00     0.111 A 
ATOM      6  C   UNL     1       3.839   7.303   5.080  1.00  0.00     0.134 A 
ATOM      7  C   UNL     1       4.575   6.113   5.038  1.00  0.00     0.093 A 
ATOM      8  C   UNL     1       5.963   6.119   5.192  1.00  0.00     0.123 A 
ATOM      9  C   UNL     1       6.633   7.324   5.386  1.00  0.00     0.094 A 
ATOM     10  C   UNL     1       5.930   8.531   5.396  1.00  0.00     0.146 A 
ATOM     11  O   UNL     1       6.609   9.659   5.572  1.00  0.00    -0.452 OA
ENDROOT
BRANCH   1  12
ATOM     12  C   UNL     1       6.909  12.039   5.810  1.00  0.00     0.025 A 
ATOM     13  C   UNL     1       7.511  13.963   7.194  1.00  0.00     0.161 A 
ATOM     14  C   UNL     1       8.493  14.320   6.260  1.00  0.00     0.157 A 
ATOM     15  C   UNL     1       6.716  12.823   6.959  1.00  0.00     0.062 A 
ATOM     16  C   UNL     1       8.676  13.551   5.104  1.00  0.00     0.051 A 
ATOM     17  C   UNL     1       7.885  12.423   4.876  1.00  0.00     0.016 A 
BRANCH  13  18
ATOM     18  O   UNL     1       7.353  14.763   8.337  1.00  0.00    -0.493 OA
ATOM     19  C   UNL     1       6.650  16.000   8.366  1.00  0.00     0.278 C 
ENDBRANCH  13  18
BRANCH  14  20
ATOM     20  O   UNL     1       9.284  15.445   6.487  1.00  0.00    -0.504 OA
ATOM     21  H   UNL     1       9.284  16.232   5.848  1.00  0.00     0.293 HD
ENDBRANCH  14  20
ENDBRANCH   1  12
BRANCH   2  22
ATOM     22  O   UNL     1       4.075  12.247   5.247  1.00  0.00    -0.502 OA
ATOM     23  H   UNL     1       3.212  12.411   4.742  1.00  0.00     0.293 HD
ENDBRANCH   2  22
BRANCH   6  24
ATOM     24  O   UNL     1       2.448   7.180   5.011  1.00  0.00    -0.507 OA
ATOM     25  H   UNL     1       1.867   7.613   4.311  1.00  0.00     0.293 HD
ENDBRANCH   6  24
BRANCH   8  26
ATOM     26  O   UNL     1       6.686   4.928   5.165  1.00  0.00    -0.508 OA
ATOM     27  H   UNL     1       6.230   4.028   5.260  1.00  0.00     0.293 HD
ENDBRANCH   8  26
TORSDOF 6
ENDMDL
MODEL 4
REMARK VINA RESULT:    -5.243      2.331      4.393
REMARK INTER + INTRA:          -6.558
REMARK INTER:                  -6.856
REMARK INTRA:                   0.298
REMARK UNBOUND:                -0.090
REMARK SMILES COc1cc(-c2oc3cc(O)cc(O)c3c(=O)c2O)ccc1O
REMARK SMILES IDX 6 1 18 2 16 3 17 4 15 5 13 6 12 7 10 8 9 9 8 10 7 11 5 12
REMARK SMILES IDX 3 13 22 14 4 15 21 16 20 17 2 18 1 19 23 20 19 22 14 24
REMARK SMILES IDX 11 26
REMARK H PARENT 23 21 19 23 14 25 11 27
REMARK Flexibility Score: inf
ROOT
ATOM      1  C   UNL     1       6.210  10.766   6.297  1.00  0.00     0.180 A 
ATOM      2  C   UNL     1       7.253  11.143   7.161  1.00  0.00     0.208 A 
ATOM      3  C   UNL     1       7.397  12.497   7.503  1.00  0.00     0.238 A 
ATOM      4  O   UNL     1       8.365  12.836   8.234  1.00  0.00    -0.285 OA
ATOM      5  C   UNL     1       6.489  13.454   6.990  1.00  0.00     0.111 A 
ATOM      6  C   UNL     1       6.518  14.848   7.301  1.00  0.00     0.134 A 
ATOM      7  C   UNL     1       5.652  15.722   6.634  1.00  0.00     0.093 A 
ATOM      8  C   UNL     1       4.714  15.246   5.715  1.00  0.00     0.123 A 
ATOM      9  C   UNL     1       4.638  13.881   5.448  1.00  0.00     0.094 A 
ATOM     10  C   UNL     1       5.514  12.988   6.071  1.00  0.00     0.146 A 
ATOM     11  O   UNL     1       5.414  11.696   5.780  1.00  0.00    -0.452 OA
ENDROOT
BRANCH   1  12
ATOM     12  C   UNL     1       5.978   9.355   5.910  1.00  0.00     0.025 A 
ATOM     13  C   UNL     1       4.425   7.590   5.237  1.00  0.00     0.161 A 
ATOM     14  C   UNL     1       5.484   6.671   5.229  1.00  0.00     0.157 A 
ATOM     15  C   UNL     1       4.679   8.932   5.587  1.00  0.00     0.062 A 
ATOM     16  C   UNL     1       6.777   7.086   5.569  1.00  0.00     0.051 A 
ATOM     17  C   UNL     1       7.022   8.417   5.915  1.00  0.00     0.016 A 
BRANCH  13  18
ATOM     18  O   UNL     1       3.142   7.135   4.897  1.00  0.00    -0.493 OA
ATOM     19  C   UNL     1       2.212   6.579   5.820  1.00  0.00     0.278 C 
ENDBRANCH  13  18
BRANCH  14  20
ATOM     20  O   UNL     1       5.241   5.343   4.883  1.00  0.00    -0.504 OA
ATOM     21  H   UNL     1       5.880   4.601   5.146  1.00  0.00     0.293 HD
ENDBRANCH  14  20
ENDBRANCH   1  12
BRANCH   2  22
ATOM     22  O   UNL     1       8.150  10.184   7.639  1.00  0.00    -0.502 OA
ATOM     23  H   UNL     1       8.431   9.381   7.089  1.00  0.00     0.293 HD
ENDBRANCH   2  22
BRANCH   6  24
ATOM     24  O   UNL     1       7.352  15.413   8.270  1.00  0.00    -0.507 OA
ATOM     25  H   UNL     1       7.806  16.309   8.187  1.00  0.00     0.293 HD
ENDBRANCH   6  24
BRANCH   8  26
ATOM     26  O   UNL     1       3.845  16.121   5.068  1.00  0.00    -0.508 OA
ATOM     27  H   UNL     1       3.969  17.126   5.119  1.00  0.00     0.293 HD
ENDBRANCH   8  26
TORSDOF 6
ENDMDL
MODEL 5
REMARK VINA RESULT:    -5.168      2.188      7.542
REMARK INTER + INTRA:          -6.466
REMARK INTER:                  -6.312
REMARK INTRA:                  -0.153
REMARK UNBOUND:                -0.090
REMARK SMILES COc1cc(-c2oc3cc(O)cc(O)c3c(=O)c2O)ccc1O
REMARK SMILES IDX 6 1 18 2 16 3 17 4 15 5 13 6 12 7 10 8 9 9 8 10 7 11 5 12
REMARK SMILES IDX 3 13 22 14 4 15 21 16 20 17 2 18 1 19 23 20 19 22 14 24
REMARK SMILES IDX 11 26
REMARK H PARENT 23 21 19 23 14 25 11 27
REMARK Flexibility Score: inf
ROOT
ATOM      1  C   UNL     1       5.593  10.366   5.732  1.00  0.00     0.180 A 
ATOM      2  C   UNL     1       6.083   9.049   5.748  1.00  0.00     0.208 A 
ATOM      3  C   UNL     1       5.186   7.986   5.562  1.00  0.00     0.238 A 
ATOM      4  O   UNL     1       5.622   6.807   5.630  1.00  0.00    -0.285 OA
ATOM      5  C   UNL     1       3.812   8.253   5.347  1.00  0.00     0.111 A 
ATOM      6  C   UNL     1       2.819   7.254   5.108  1.00  0.00     0.134 A 
ATOM      7  C   UNL     1       1.471   7.624   5.039  1.00  0.00     0.093 A 
ATOM      8  C   UNL     1       1.085   8.963   5.136  1.00  0.00     0.123 A 
ATOM      9  C   UNL     1       2.051   9.951   5.309  1.00  0.00     0.094 A 
ATOM     10  C   UNL     1       3.401   9.609   5.418  1.00  0.00     0.146 A 
ATOM     11  O   UNL     1       4.289  10.582   5.594  1.00  0.00    -0.452 OA
ENDROOT
BRANCH   1  12
ATOM     12  C   UNL     1       6.480  11.540   5.897  1.00  0.00     0.025 A 
ATOM     13  C   UNL     1       7.216  13.445   7.242  1.00  0.00     0.161 A 
ATOM     14  C   UNL     1       8.105  13.813   6.222  1.00  0.00     0.157 A 
ATOM     15  C   UNL     1       6.400  12.309   7.069  1.00  0.00     0.062 A 
ATOM     16  C   UNL     1       8.174  13.060   5.044  1.00  0.00     0.051 A 
ATOM     17  C   UNL     1       7.363  11.936   4.878  1.00  0.00     0.016 A 
BRANCH  13  18
ATOM     18  O   UNL     1       7.171  14.229   8.405  1.00  0.00    -0.493 OA
ATOM     19  C   UNL     1       6.617  15.539   8.474  1.00  0.00     0.278 C 
ENDBRANCH  13  18
BRANCH  14  20
ATOM     20  O   UNL     1       8.916  14.934   6.387  1.00  0.00    -0.504 OA
ATOM     21  H   UNL     1       9.734  15.087   5.808  1.00  0.00     0.293 HD
ENDBRANCH  14  20
ENDBRANCH   1  12
BRANCH   2  22
ATOM     22  O   UNL     1       7.440   8.808   5.983  1.00  0.00    -0.502 OA
ATOM     23  H   UNL     1       8.103   8.661   5.232  1.00  0.00     0.293 HD
ENDBRANCH   2  22
BRANCH   6  24
ATOM     24  O   UNL     1       3.108   5.902   4.905  1.00  0.00    -0.507 OA
ATOM     25  H   UNL     1       3.230   5.468   4.004  1.00  0.00     0.293 HD
ENDBRANCH   6  24
BRANCH   8  26
ATOM     26  O   UNL     1      -0.258   9.323   5.049  1.00  0.00    -0.508 OA
ATOM     27  H   UNL     1      -0.607   9.893   4.287  1.00  0.00     0.293 HD
ENDBRANCH   8  26
TORSDOF 6
ENDMDL
MODEL 6
REMARK VINA RESULT:    -5.078      1.929      3.689
REMARK INTER + INTRA:          -6.355
REMARK INTER:                  -6.756
REMARK INTRA:                   0.401
REMARK UNBOUND:                -0.090
REMARK SMILES COc1cc(-c2oc3cc(O)cc(O)c3c(=O)c2O)ccc1O
REMARK SMILES IDX 6 1 18 2 16 3 17 4 15 5 13 6 12 7 10 8 9 9 8 10 7 11 5 12
REMARK SMILES IDX 3 13 22 14 4 15 21 16 20 17 2 18 1 19 23 20 19 22 14 24
REMARK SMILES IDX 11 26
REMARK H PARENT 23 21 19 23 14 25 11 27
REMARK Flexibility Score: inf
ROOT
ATOM      1  C   UNL     1       4.203   7.983   5.218  1.00  0.00     0.180 A 
ATOM      2  C   UNL     1       5.516   8.469   5.098  1.00  0.00     0.208 A 
ATOM      3  C   UNL     1       5.730   9.856   5.088  1.00  0.00     0.238 A 
ATOM      4  O   UNL     1       6.902  10.287   4.927  1.00  0.00    -0.285 OA
ATOM      5  C   UNL     1       4.631  10.740   5.212  1.00  0.00     0.111 A 
ATOM      6  C   UNL     1       4.735  12.164   5.253  1.00  0.00     0.134 A 
ATOM      7  C   UNL     1       3.571  12.942   5.247  1.00  0.00     0.093 A 
ATOM      8  C   UNL     1       2.307  12.347   5.267  1.00  0.00     0.123 A 
ATOM      9  C   UNL     1       2.195  10.959   5.287  1.00  0.00     0.094 A 
ATOM     10  C   UNL     1       3.338  10.156   5.257  1.00  0.00     0.146 A 
ATOM     11  O   UNL     1       3.186   8.837   5.266  1.00  0.00    -0.452 OA
ENDROOT
BRANCH   1  12
ATOM     12  C   UNL     1       3.899   6.534   5.261  1.00  0.00     0.025 A 
ATOM     13  C   UNL     1       2.255   4.738   5.479  1.00  0.00     0.161 A 
ATOM     14  C   UNL     1       3.287   3.792   5.408  1.00  0.00     0.157 A 
ATOM     15  C   UNL     1       2.569   6.110   5.411  1.00  0.00     0.062 A 
ATOM     16  C   UNL     1       4.617   4.212   5.278  1.00  0.00     0.051 A 
ATOM     17  C   UNL     1       4.923   5.573   5.212  1.00  0.00     0.016 A 
BRANCH  13  18
ATOM     18  O   UNL     1       0.935   4.278   5.616  1.00  0.00    -0.493 OA
ATOM     19  C   UNL     1      -0.062   4.915   6.408  1.00  0.00     0.278 C 
ENDBRANCH  13  18
BRANCH  14  20
ATOM     20  O   UNL     1       2.983   2.434   5.473  1.00  0.00    -0.504 OA
ATOM     21  H   UNL     1       2.773   1.897   4.639  1.00  0.00     0.293 HD
ENDBRANCH  14  20
ENDBRANCH   1  12
BRANCH   2  22
ATOM     22  O   UNL     1       6.584   7.579   4.955  1.00  0.00    -0.502 OA
ATOM     23  H   UNL     1       7.477   7.724   5.411  1.00  0.00     0.293 HD
ENDBRANCH   2  22
BRANCH   6  24
ATOM     24  O   UNL     1       5.948  12.855   5.329  1.00  0.00    -0.507 OA
ATOM     25  H   UNL     1       6.792  12.589   4.845  1.00  0.00     0.293 HD
ENDBRANCH   6  24
BRANCH   8  26
ATOM     26  O   UNL     1       1.154  13.129   5.277  1.00  0.00    -0.508 OA
ATOM     27  H   UNL     1       0.828  13.605   4.444  1.00  0.00     0.293 HD
ENDBRANCH   8  26
TORSDOF 6
ENDMDL
MODEL 7
REMARK VINA RESULT:    -5.048      1.362      2.814
REMARK INTER + INTRA:          -6.319
REMARK INTER:                  -6.679
REMARK INTRA:                   0.361
REMARK UNBOUND:                -0.090
REMARK SMILES COc1cc(-c2oc3cc(O)cc(O)c3c(=O)c2O)ccc1O
REMARK SMILES IDX 6 1 18 2 16 3 17 4 15 5 13 6 12 7 10 8 9 9 8 10 7 11 5 12
REMARK SMILES IDX 3 13 22 14 4 15 21 16 20 17 2 18 1 19 23 20 19 22 14 24
REMARK SMILES IDX 11 26
REMARK H PARENT 23 21 19 23 14 25 11 27
REMARK Flexibility Score: inf
ROOT
ATOM      1  C   UNL     1       3.536   8.808   5.381  1.00  0.00     0.180 A 
ATOM      2  C   UNL     1       4.893   8.466   5.238  1.00  0.00     0.208 A 
ATOM      3  C   UNL     1       5.845   9.492   5.129  1.00  0.00     0.238 A 
ATOM      4  O   UNL     1       7.051   9.181   4.947  1.00  0.00    -0.285 OA
ATOM      5  C   UNL     1       5.432  10.845   5.181  1.00  0.00     0.111 A 
ATOM      6  C   UNL     1       6.315  11.966   5.120  1.00  0.00     0.134 A 
ATOM      7  C   UNL     1       5.786  13.260   5.048  1.00  0.00     0.093 A 
ATOM      8  C   UNL     1       4.407  13.478   5.100  1.00  0.00     0.123 A 
ATOM      9  C   UNL     1       3.539  12.395   5.220  1.00  0.00     0.094 A 
ATOM     10  C   UNL     1       4.036  11.090   5.257  1.00  0.00     0.146 A 
ATOM     11  O   UNL     1       3.173  10.085   5.360  1.00  0.00    -0.452 OA
ENDROOT
BRANCH   1  12
ATOM     12  C   UNL     1       2.477   7.783   5.526  1.00  0.00     0.025 A 
ATOM     13  C   UNL     1       0.375   7.065   6.550  1.00  0.00     0.161 A 
ATOM     14  C   UNL     1       0.474   5.840   5.877  1.00  0.00     0.157 A 
ATOM     15  C   UNL     1       1.386   8.032   6.375  1.00  0.00     0.062 A 
ATOM     16  C   UNL     1       1.570   5.581   5.044  1.00  0.00     0.051 A 
ATOM     17  C   UNL     1       2.569   6.542   4.875  1.00  0.00     0.016 A 
BRANCH  13  18
ATOM     18  O   UNL     1      -0.734   7.285   7.380  1.00  0.00    -0.493 OA
ATOM     19  C   UNL     1      -0.957   6.623   8.621  1.00  0.00     0.278 C 
ENDBRANCH  13  18
BRANCH  14  20
ATOM     20  O   UNL     1      -0.523   4.880   6.043  1.00  0.00    -0.504 OA
ATOM     21  H   UNL     1      -1.013   4.480   5.251  1.00  0.00     0.293 HD
ENDBRANCH  14  20
ENDBRANCH   1  12
BRANCH   2  22
ATOM     22  O   UNL     1       5.276   7.124   5.168  1.00  0.00    -0.502 OA
ATOM     23  H   UNL     1       6.230   6.823   5.322  1.00  0.00     0.293 HD
ENDBRANCH   2  22
BRANCH   6  24
ATOM     24  O   UNL     1       7.709  11.862   5.155  1.00  0.00    -0.507 OA
ATOM     25  H   UNL     1       8.229  11.320   5.827  1.00  0.00     0.293 HD
ENDBRANCH   6  24
BRANCH   8  26
ATOM     26  O   UNL     1       3.889  14.770   5.045  1.00  0.00    -0.508 OA
ATOM     27  H   UNL     1       2.948  14.950   4.714  1.00  0.00     0.293 HD
ENDBRANCH   8  26
TORSDOF 6
ENDMDL
MODEL 8
REMARK VINA RESULT:    -5.039      1.548      7.026
REMARK INTER + INTRA:          -6.307
REMARK INTER:                  -6.468
REMARK INTRA:                   0.161
REMARK UNBOUND:                -0.090
REMARK SMILES COc1cc(-c2oc3cc(O)cc(O)c3c(=O)c2O)ccc1O
REMARK SMILES IDX 6 1 18 2 16 3 17 4 15 5 13 6 12 7 10 8 9 9 8 10 7 11 5 12
REMARK SMILES IDX 3 13 22 14 4 15 21 16 20 17 2 18 1 19 23 20 19 22 14 24
REMARK SMILES IDX 11 26
REMARK H PARENT 23 21 19 23 14 25 11 27
REMARK Flexibility Score: inf
ROOT
ATOM      1  C   UNL     1       3.205   9.068   5.451  1.00  0.00     0.180 A 
ATOM      2  C   UNL     1       1.840   9.383   5.577  1.00  0.00     0.208 A 
ATOM      3  C   UNL     1       0.900   8.342   5.593  1.00  0.00     0.238 A 
ATOM      4  O   UNL     1      -0.324   8.632   5.652  1.00  0.00    -0.285 OA
ATOM      5  C   UNL     1       1.334   6.997   5.498  1.00  0.00     0.111 A 
ATOM      6  C   UNL     1       0.472   5.861   5.543  1.00  0.00     0.134 A 
ATOM      7  C   UNL     1       0.998   4.585   5.309  1.00  0.00     0.093 A 
ATOM      8  C   UNL     1       2.366   4.397   5.095  1.00  0.00     0.123 A 
ATOM      9  C   UNL     1       3.225   5.494   5.108  1.00  0.00     0.094 A 
ATOM     10  C   UNL     1       2.724   6.783   5.303  1.00  0.00     0.146 A 
ATOM     11  O   UNL     1       3.576   7.802   5.297  1.00  0.00    -0.452 OA
ENDROOT
BRANCH   1  12
ATOM     12  C   UNL     1       4.258  10.109   5.451  1.00  0.00     0.025 A 
ATOM     13  C   UNL     1       6.494  10.834   6.121  1.00  0.00     0.161 A 
ATOM     14  C   UNL     1       6.262  12.082   5.526  1.00  0.00     0.157 A 
ATOM     15  C   UNL     1       5.483   9.853   6.086  1.00  0.00     0.062 A 
ATOM     16  C   UNL     1       5.033  12.347   4.908  1.00  0.00     0.051 A 
ATOM     17  C   UNL     1       4.035  11.371   4.876  1.00  0.00     0.016 A 
BRANCH  13  18
ATOM     18  O   UNL     1       7.735  10.609   6.737  1.00  0.00    -0.493 OA
ATOM     19  C   UNL     1       7.934   9.765   7.866  1.00  0.00     0.278 C 
ENDBRANCH  13  18
BRANCH  14  20
ATOM     20  O   UNL     1       7.257  13.056   5.555  1.00  0.00    -0.504 OA
ATOM     21  H   UNL     1       8.227  12.830   5.366  1.00  0.00     0.293 HD
ENDBRANCH  14  20
ENDBRANCH   1  12
BRANCH   2  22
ATOM     22  O   UNL     1       1.432  10.718   5.648  1.00  0.00    -0.502 OA
ATOM     23  H   UNL     1       1.722  11.336   6.395  1.00  0.00     0.293 HD
ENDBRANCH   2  22
BRANCH   6  24
ATOM     24  O   UNL     1      -0.893   5.929   5.840  1.00  0.00    -0.507 OA
ATOM     25  H   UNL     1      -1.514   5.136   5.877  1.00  0.00     0.293 HD
ENDBRANCH   6  24
BRANCH   8  26
ATOM     26  O   UNL     1       2.883   3.122   4.879  1.00  0.00    -0.508 OA
ATOM     27  H   UNL     1       2.785   2.654   3.986  1.00  0.00     0.293 HD
ENDBRANCH   8  26
TORSDOF 6
ENDMDL
MODEL 9
REMARK VINA RESULT:    -4.902      2.122      3.299
REMARK INTER + INTRA:          -6.138
REMARK INTER:                  -6.601
REMARK INTRA:                   0.463
REMARK UNBOUND:                -0.090
REMARK SMILES COc1cc(-c2oc3cc(O)cc(O)c3c(=O)c2O)ccc1O
REMARK SMILES IDX 6 1 18 2 16 3 17 4 15 5 13 6 12 7 10 8 9 9 8 10 7 11 5 12
REMARK SMILES IDX 3 13 22 14 4 15 21 16 20 17 2 18 1 19 23 20 19 22 14 24
REMARK SMILES IDX 11 26
REMARK H PARENT 23 21 19 23 14 25 11 27
REMARK Flexibility Score: inf
ROOT
ATOM      1  C   UNL     1       6.118  11.035   5.637  1.00  0.00     0.180 A 
ATOM      2  C   UNL     1       5.220  12.113   5.535  1.00  0.00     0.208 A 
ATOM      3  C   UNL     1       5.698  13.418   5.729  1.00  0.00     0.238 A 
ATOM      4  O   UNL     1       4.880  14.374   5.689  1.00  0.00    -0.285 OA
ATOM      5  C   UNL     1       7.069  13.632   6.007  1.00  0.00     0.111 A 
ATOM      6  C   UNL     1       7.671  14.915   6.183  1.00  0.00     0.134 A 
ATOM      7  C   UNL     1       9.009  15.002   6.585  1.00  0.00     0.093 A 
ATOM      8  C   UNL     1       9.786  13.853   6.753  1.00  0.00     0.123 A 
ATOM      9  C   UNL     1       9.225  12.599   6.526  1.00  0.00     0.094 A 
ATOM     10  C   UNL     1       7.882  12.479   6.161  1.00  0.00     0.146 A 
ATOM     11  O   UNL     1       7.385  11.263   5.965  1.00  0.00    -0.452 OA
ENDROOT
BRANCH   1  12
ATOM     12  C   UNL     1       5.694   9.633   5.422  1.00  0.00     0.025 A 
ATOM     13  C   UNL     1       3.896   8.006   5.106  1.00  0.00     0.161 A 
ATOM     14  C   UNL     1       4.844   6.974   5.072  1.00  0.00     0.157 A 
ATOM     15  C   UNL     1       4.328   9.335   5.289  1.00  0.00     0.062 A 
ATOM     16  C   UNL     1       6.205   7.265   5.223  1.00  0.00     0.051 A 
ATOM     17  C   UNL     1       6.628   8.584   5.404  1.00  0.00     0.016 A 
BRANCH  13  18
ATOM     18  O   UNL     1       2.540   7.674   4.957  1.00  0.00    -0.493 OA
ATOM     19  C   UNL     1       1.560   7.809   5.981  1.00  0.00     0.278 C 
ENDBRANCH  13  18
BRANCH  14  20
ATOM     20  O   UNL     1       4.423   5.658   4.890  1.00  0.00    -0.504 OA
ATOM     21  H   UNL     1       4.595   5.161   4.023  1.00  0.00     0.293 HD
ENDBRANCH  14  20
ENDBRANCH   1  12
BRANCH   2  22
ATOM     22  O   UNL     1       3.866  11.876   5.280  1.00  0.00    -0.502 OA
ATOM     23  H   UNL     1       3.339  12.415   4.603  1.00  0.00     0.293 HD
ENDBRANCH   2  22
BRANCH   6  24
ATOM     24  O   UNL     1       7.009  16.124   5.951  1.00  0.00    -0.507 OA
ATOM     25  H   UNL     1       7.123  16.959   6.505  1.00  0.00     0.293 HD
ENDBRANCH   6  24
BRANCH   8  26
ATOM     26  O   UNL     1      11.122  13.949   7.137  1.00  0.00    -0.508 OA
ATOM     27  H   UNL     1      11.553  13.255   7.737  1.00  0.00     0.293 HD
ENDBRANCH   8  26
TORSDOF 6
ENDMDL
