MODEL 1
REMARK VINA RESULT:    -3.620      0.000      0.000
REMARK INTER + INTRA:          -5.994
REMARK INTER:                  -5.313
REMARK INTRA:                  -0.682
REMARK UNBOUND:                -0.682
REMARK SMILES C=C1C=C[C@H](C(C)C)CCC(C)=CCC1
REMARK SMILES IDX 3 1 4 2 5 3 9 4 10 5 11 6 12 7 13 8 6 10 7 11 8 12 2 13 1 14
REMARK SMILES IDX 15 15 14 16
REMARK H PARENT
REMARK Flexibility Score: 70.00
ROOT
ATOM      1  C   UNL     1     135.448 140.668 130.987  1.00  0.00    -0.001 C 
ATOM      2  C   UNL     1     136.551 141.015 131.666  1.00  0.00    -0.023 C 
ENDROOT
BRANCH   2   3
ATOM      3  C   UNL     1     137.430 140.068 132.457  1.00  0.00     0.014 C 
BRANCH   3   4
ATOM      4  C   UNL     1     138.867 140.074 131.880  1.00  0.00     0.012 C 
BRANCH   4   5
ATOM      5  C   UNL     1     139.274 138.734 131.242  1.00  0.00     0.031 C 
BRANCH   5   6
ATOM      6  C   UNL     1     139.004 138.697 129.747  1.00  0.00    -0.077 C 
ATOM      7  C   UNL     1     140.084 139.201 128.822  1.00  0.00     0.039 C 
ATOM      8  C   UNL     1     137.868 138.217 129.187  1.00  0.00    -0.028 CG0
ATOM      9  G   UNL     1     136.702 137.584 129.913  1.00  0.00     0.000 G0
ENDBRANCH   5   6
ENDBRANCH   4   5
ENDBRANCH   3   4
BRANCH   3  10
ATOM     10  C   UNL     1     137.364 140.420 133.974  1.00  0.00    -0.010 C 
ATOM     11  C   UNL     1     138.465 139.748 134.815  1.00  0.00     0.008 C 
ATOM     12  C   UNL     1     135.982 140.118 134.576  1.00  0.00     0.008 C 
ENDBRANCH   3  10
ENDBRANCH   2   3
BRANCH   1  13
ATOM     13  C   UNL     1     134.945 139.287 130.800  1.00  0.00    -0.055 C 
ATOM     14  C   UNL     1     134.035 138.835 131.669  1.00  0.00     0.012 C 
BRANCH  13  15
ATOM     15  C   UNL     1     135.379 138.379 129.660  1.00  0.00     0.039 C 
BRANCH  15  16
ATOM     16  C   UNL     1     136.685 137.587 129.905  1.00  0.00     0.032 CG0
ATOM     17  G   UNL     1     137.851 138.220 129.180  1.00  0.00     0.000 G0
ENDBRANCH  15  16
ENDBRANCH  13  15
ENDBRANCH   1  13
TORSDOF 1
ENDMDL
MODEL 2
REMARK VINA RESULT:    -3.400      2.819      4.347
REMARK INTER + INTRA:          -5.672
REMARK INTER:                  -5.027
REMARK INTRA:                  -0.645
REMARK UNBOUND:                -0.682
REMARK SMILES C=C1C=C[C@H](C(C)C)CCC(C)=CCC1
REMARK SMILES IDX 3 1 4 2 5 3 9 4 10 5 11 6 12 7 13 8 6 10 7 11 8 12 2 13 1 14
REMARK SMILES IDX 15 15 14 16
REMARK H PARENT
REMARK Flexibility Score: 70.00
ROOT
ATOM      1  C   UNL     1     132.435 136.074 131.197  1.00  0.00    -0.001 C 
ATOM      2  C   UNL     1     132.884 136.471 132.396  1.00  0.00    -0.023 C 
ENDROOT
BRANCH   2   3
ATOM      3  C   UNL     1     134.341 136.616 132.785  1.00  0.00     0.014 C 
BRANCH   3   4
ATOM      4  C   UNL     1     134.742 138.112 132.781  1.00  0.00     0.012 C 
BRANCH   4   5
ATOM      5  C   UNL     1     135.892 138.433 131.811  1.00  0.00     0.031 C 
BRANCH   5   6
ATOM      6  C   UNL     1     135.447 139.308 130.651  1.00  0.00    -0.077 C 
ATOM      7  C   UNL     1     135.464 140.804 130.848  1.00  0.00     0.039 C 
ATOM      8  C   UNL     1     135.058 138.835 129.443  1.00  0.00    -0.028 CG0
ATOM      9  G   UNL     1     135.049 137.389 128.999  1.00  0.00     0.000 G0
ENDBRANCH   5   6
ENDBRANCH   4   5
ENDBRANCH   3   4
BRANCH   3  10
ATOM     10  C   UNL     1     134.605 135.901 134.144  1.00  0.00    -0.010 C 
ATOM     11  C   UNL     1     135.184 134.482 133.997  1.00  0.00     0.008 C 
ATOM     12  C   UNL     1     133.348 135.869 135.030  1.00  0.00     0.008 C 
ENDBRANCH   3  10
ENDBRANCH   2   3
BRANCH   1  13
ATOM     13  C   UNL     1     133.272 135.805 130.004  1.00  0.00    -0.055 C 
ATOM     14  C   UNL     1     133.738 134.563 129.840  1.00  0.00     0.012 C 
BRANCH  13  15
ATOM     15  C   UNL     1     133.596 136.850 128.948  1.00  0.00     0.039 C 
BRANCH  15  16
ATOM     16  C   UNL     1     135.045 137.394 128.978  1.00  0.00     0.032 CG0
ATOM     17  G   UNL     1     135.076 138.837 129.431  1.00  0.00     0.000 G0
ENDBRANCH  15  16
ENDBRANCH  13  15
ENDBRANCH   1  13
TORSDOF 1
ENDMDL
MODEL 3
REMARK VINA RESULT:    -3.358      2.925      4.556
REMARK INTER + INTRA:          -5.610
REMARK INTER:                  -5.002
REMARK INTRA:                  -0.608
REMARK UNBOUND:                -0.682
REMARK SMILES C=C1C=C[C@H](C(C)C)CCC(C)=CCC1
REMARK SMILES IDX 3 1 4 2 5 3 9 4 10 5 11 6 12 7 13 8 6 10 7 11 8 12 2 13 1 14
REMARK SMILES IDX 15 15 14 16
REMARK H PARENT
REMARK Flexibility Score: 70.00
ROOT
ATOM      1  C   UNL     1     141.380 137.741 130.995  1.00  0.00    -0.001 C 
ATOM      2  C   UNL     1     141.264 137.032 132.127  1.00  0.00    -0.023 C 
ENDROOT
BRANCH   2   3
ATOM      3  C   UNL     1     139.969 136.761 132.866  1.00  0.00     0.014 C 
BRANCH   3   4
ATOM      4  C   UNL     1     139.512 135.303 132.612  1.00  0.00     0.012 C 
BRANCH   4   5
ATOM      5  C   UNL     1     138.170 135.205 131.865  1.00  0.00     0.031 C 
BRANCH   5   6
ATOM      6  C   UNL     1     138.328 134.656 130.457  1.00  0.00    -0.077 C 
ATOM      7  C   UNL     1     138.379 133.159 130.285  1.00  0.00     0.039 C 
ATOM      8  C   UNL     1     138.400 135.423 129.342  1.00  0.00    -0.028 CG0
ATOM      9  G   UNL     1     138.280 136.929 129.272  1.00  0.00     0.000 G0
ENDBRANCH   5   6
ENDBRANCH   4   5
ENDBRANCH   3   4
BRANCH   3  10
ATOM     10  C   UNL     1     140.133 137.111 134.376  1.00  0.00    -0.010 C 
ATOM     11  C   UNL     1     140.061 135.887 135.307  1.00  0.00     0.008 C 
ATOM     12  C   UNL     1     139.126 138.180 134.830  1.00  0.00     0.008 C 
ENDBRANCH   3  10
ENDBRANCH   2   3
BRANCH   1  13
ATOM     13  C   UNL     1     140.258 138.300 130.205  1.00  0.00    -0.055 C 
ATOM     14  C   UNL     1     139.790 139.502 130.557  1.00  0.00     0.012 C 
BRANCH  13  15
ATOM     15  C   UNL     1     139.641 137.601 129.005  1.00  0.00     0.039 C 
BRANCH  15  16
ATOM     16  C   UNL     1     138.267 136.936 129.260  1.00  0.00     0.032 CG0
ATOM     17  G   UNL     1     138.396 135.432 129.345  1.00  0.00     0.000 G0
ENDBRANCH  15  16
ENDBRANCH  13  15
ENDBRANCH   1  13
TORSDOF 1
ENDMDL
MODEL 4
REMARK VINA RESULT:    -3.323      1.432      2.803
REMARK INTER + INTRA:          -5.559
REMARK INTER:                  -5.258
REMARK INTRA:                  -0.301
REMARK UNBOUND:                -0.682
REMARK SMILES C=C1C=C[C@H](C(C)C)CCC(C)=CCC1
REMARK SMILES IDX 3 1 4 2 5 3 9 4 10 5 11 6 12 7 13 8 6 10 7 11 8 12 2 13 1 14
REMARK SMILES IDX 15 15 14 16
REMARK H PARENT
REMARK Flexibility Score: 70.00
ROOT
ATOM      1  C   UNL     1     137.687 140.631 132.242  1.00  0.00    -0.001 C 
ATOM      2  C   UNL     1     138.864 139.989 132.231  1.00  0.00    -0.023 C 
ENDROOT
BRANCH   2   3
ATOM      3  C   UNL     1     139.231 138.841 131.313  1.00  0.00     0.014 C 
BRANCH   3   4
ATOM      4  C   UNL     1     140.074 139.364 130.124  1.00  0.00     0.012 C 
BRANCH   4   5
ATOM      5  C   UNL     1     139.406 139.138 128.756  1.00  0.00     0.031 C 
BRANCH   5   6
ATOM      6  C   UNL     1     138.625 137.836 128.700  1.00  0.00    -0.077 C 
ATOM      7  C   UNL     1     139.392 136.563 128.443  1.00  0.00     0.039 C 
ATOM      8  C   UNL     1     137.287 137.739 128.889  1.00  0.00    -0.028 CG0
ATOM      9  G   UNL     1     136.342 138.865 129.245  1.00  0.00     0.000 G0
ENDBRANCH   5   6
ENDBRANCH   4   5
ENDBRANCH   3   4
BRANCH   3  10
ATOM     10  C   UNL     1     139.931 137.710 132.126  1.00  0.00    -0.010 C 
ATOM     11  C   UNL     1     141.324 137.334 131.591  1.00  0.00     0.008 C 
ATOM     12  C   UNL     1     139.051 136.455 132.239  1.00  0.00     0.008 C 
ENDBRANCH   3  10
ENDBRANCH   2   3
BRANCH   1  13
ATOM     13  C   UNL     1     136.570 140.406 131.294  1.00  0.00    -0.055 C 
ATOM     14  C   UNL     1     135.894 141.477 130.866  1.00  0.00     0.012 C 
BRANCH  13  15
ATOM     15  C   UNL     1     136.180 139.037 130.761  1.00  0.00     0.039 C 
BRANCH  15  16
ATOM     16  C   UNL     1     136.322 138.858 129.230  1.00  0.00     0.032 CG0
ATOM     17  G   UNL     1     137.282 137.737 128.899  1.00  0.00     0.000 G0
ENDBRANCH  15  16
ENDBRANCH  13  15
ENDBRANCH   1  13
TORSDOF 1
ENDMDL
MODEL 5
REMARK VINA RESULT:    -3.309      3.059      4.835
REMARK INTER + INTRA:          -5.539
REMARK INTER:                  -4.909
REMARK INTRA:                  -0.629
REMARK UNBOUND:                -0.682
REMARK SMILES C=C1C=C[C@H](C(C)C)CCC(C)=CCC1
REMARK SMILES IDX 3 1 4 2 5 3 9 4 10 5 11 6 12 7 13 8 6 10 7 11 8 12 2 13 1 14
REMARK SMILES IDX 15 15 14 16
REMARK H PARENT
REMARK Flexibility Score: 70.00
ROOT
ATOM      1  C   UNL     1     139.979 137.749 133.548  1.00  0.00    -0.001 C 
ATOM      2  C   UNL     1     138.720 138.170 133.740  1.00  0.00    -0.023 C 
ENDROOT
BRANCH   2   3
ATOM      3  C   UNL     1     137.592 138.057 132.734  1.00  0.00     0.014 C 
BRANCH   3   4
ATOM      4  C   UNL     1     136.639 136.905 133.139  1.00  0.00     0.012 C 
BRANCH   4   5
ATOM      5  C   UNL     1     136.307 135.951 131.977  1.00  0.00     0.031 C 
BRANCH   5   6
ATOM      6  C   UNL     1     136.891 134.564 132.181  1.00  0.00    -0.077 C 
ATOM      7  C   UNL     1     135.996 133.500 132.766  1.00  0.00     0.039 C 
ATOM      8  C   UNL     1     138.156 134.211 131.848  1.00  0.00    -0.028 CG0
ATOM      9  G   UNL     1     139.188 135.084 131.171  1.00  0.00     0.000 G0
ENDBRANCH   5   6
ENDBRANCH   4   5
ENDBRANCH   3   4
BRANCH   3  10
ATOM     10  C   UNL     1     136.879 139.433 132.575  1.00  0.00    -0.010 C 
ATOM     11  C   UNL     1     137.847 140.613 132.375  1.00  0.00     0.008 C 
ATOM     12  C   UNL     1     135.925 139.725 133.745  1.00  0.00     0.008 C 
ENDBRANCH   3  10
ENDBRANCH   2   3
BRANCH   1  13
ATOM     13  C   UNL     1     140.472 137.006 132.364  1.00  0.00    -0.055 C 
ATOM     14  C   UNL     1     141.126 137.698 131.426  1.00  0.00     0.012 C 
BRANCH  13  15
ATOM     15  C   UNL     1     140.307 135.506 132.181  1.00  0.00     0.039 C 
BRANCH  15  16
ATOM     16  C   UNL     1     139.204 135.079 131.183  1.00  0.00     0.032 CG0
ATOM     17  G   UNL     1     138.169 134.205 131.855  1.00  0.00     0.000 G0
ENDBRANCH  15  16
ENDBRANCH  13  15
ENDBRANCH   1  13
TORSDOF 1
ENDMDL
MODEL 6
REMARK VINA RESULT:    -3.243      3.478      5.091
REMARK INTER + INTRA:          -5.442
REMARK INTER:                  -4.821
REMARK INTRA:                  -0.621
REMARK UNBOUND:                -0.682
REMARK SMILES C=C1C=C[C@H](C(C)C)CCC(C)=CCC1
REMARK SMILES IDX 3 1 4 2 5 3 9 4 10 5 11 6 12 7 13 8 6 10 7 11 8 12 2 13 1 14
REMARK SMILES IDX 15 15 14 16
REMARK H PARENT
REMARK Flexibility Score: 70.00
ROOT
ATOM      1  C   UNL     1     136.567 135.599 133.495  1.00  0.00    -0.001 C 
ATOM      2  C   UNL     1     137.569 134.818 133.068  1.00  0.00    -0.023 C 
ENDROOT
BRANCH   2   3
ATOM      3  C   UNL     1     138.237 134.907 131.711  1.00  0.00     0.014 C 
BRANCH   3   4
ATOM      4  C   UNL     1     139.762 135.115 131.885  1.00  0.00     0.012 C 
BRANCH   4   5
ATOM      5  C   UNL     1     140.116 136.212 132.905  1.00  0.00     0.031 C 
BRANCH   5   6
ATOM      6  C   UNL     1     140.007 137.609 132.317  1.00  0.00    -0.077 C 
ATOM      7  C   UNL     1     141.008 138.012 131.264  1.00  0.00     0.039 C 
ATOM      8  C   UNL     1     139.054 138.509 132.658  1.00  0.00    -0.028 CG0
ATOM      9  G   UNL     1     137.905 138.288 133.617  1.00  0.00     0.000 G0
ENDBRANCH   5   6
ENDBRANCH   4   5
ENDBRANCH   3   4
BRANCH   3  10
ATOM     10  C   UNL     1     137.870 133.660 130.853  1.00  0.00    -0.010 C 
ATOM     11  C   UNL     1     137.376 132.460 131.682  1.00  0.00     0.008 C 
ATOM     12  C   UNL     1     139.030 133.228 129.940  1.00  0.00     0.008 C 
ENDBRANCH   3  10
ENDBRANCH   2   3
BRANCH   1  13
ATOM     13  C   UNL     1     135.998 136.755 132.763  1.00  0.00    -0.055 C 
ATOM     14  C   UNL     1     134.919 136.538 132.003  1.00  0.00     0.012 C 
BRANCH  13  15
ATOM     15  C   UNL     1     136.549 138.168 132.858  1.00  0.00     0.039 C 
BRANCH  15  16
ATOM     16  C   UNL     1     137.889 138.305 133.621  1.00  0.00     0.032 CG0
ATOM     17  G   UNL     1     139.043 138.508 132.665  1.00  0.00     0.000 G0
ENDBRANCH  15  16
ENDBRANCH  13  15
ENDBRANCH   1  13
TORSDOF 1
ENDMDL
MODEL 7
REMARK VINA RESULT:    -3.229      2.770      5.293
REMARK INTER + INTRA:          -5.420
REMARK INTER:                  -4.768
REMARK INTRA:                  -0.652
REMARK UNBOUND:                -0.682
REMARK SMILES C=C1C=C[C@H](C(C)C)CCC(C)=CCC1
REMARK SMILES IDX 3 1 4 2 5 3 9 4 10 5 11 6 12 7 13 8 6 10 7 11 8 12 2 13 1 14
REMARK SMILES IDX 15 15 14 16
REMARK H PARENT
REMARK Flexibility Score: 70.00
ROOT
ATOM      1  C   UNL     1     140.308 135.866 131.948  1.00  0.00    -0.001 C 
ATOM      2  C   UNL     1     140.513 137.089 131.439  1.00  0.00    -0.023 C 
ENDROOT
BRANCH   2   3
ATOM      3  C   UNL     1     139.604 137.794 130.453  1.00  0.00     0.014 C 
BRANCH   3   4
ATOM      4  C   UNL     1     139.019 139.075 131.097  1.00  0.00     0.012 C 
BRANCH   4   5
ATOM      5  C   UNL     1     138.782 138.944 132.612  1.00  0.00     0.031 C 
BRANCH   5   6
ATOM      6  C   UNL     1     137.352 138.551 132.944  1.00  0.00    -0.077 C 
ATOM      7  C   UNL     1     136.262 139.557 132.670  1.00  0.00     0.039 C 
ATOM      8  C   UNL     1     136.988 137.346 133.446  1.00  0.00    -0.028 CG0
ATOM      9  G   UNL     1     137.897 136.167 133.710  1.00  0.00     0.000 G0
ENDBRANCH   5   6
ENDBRANCH   4   5
ENDBRANCH   3   4
BRANCH   3  10
ATOM     10  C   UNL     1     140.366 138.056 129.119  1.00  0.00    -0.010 C 
ATOM     11  C   UNL     1     139.983 139.382 128.437  1.00  0.00     0.008 C 
ATOM     12  C   UNL     1     140.211 136.889 128.130  1.00  0.00     0.008 C 
ENDBRANCH   3  10
ENDBRANCH   2   3
BRANCH   1  13
ATOM     13  C   UNL     1     139.111 135.023 131.721  1.00  0.00    -0.055 C 
ATOM     14  C   UNL     1     139.185 134.080 130.777  1.00  0.00     0.012 C 
BRANCH  13  15
ATOM     15  C   UNL     1     137.826 135.150 132.525  1.00  0.00     0.039 C 
BRANCH  15  16
ATOM     16  C   UNL     1     137.879 136.150 133.704  1.00  0.00     0.032 CG0
ATOM     17  G   UNL     1     136.992 137.347 133.444  1.00  0.00     0.000 G0
ENDBRANCH  15  16
ENDBRANCH  13  15
ENDBRANCH   1  13
TORSDOF 1
ENDMDL
MODEL 8
REMARK VINA RESULT:    -3.191      2.459      4.251
REMARK INTER + INTRA:          -5.366
REMARK INTER:                  -4.966
REMARK INTRA:                  -0.400
REMARK UNBOUND:                -0.682
REMARK SMILES C=C1C=C[C@H](C(C)C)CCC(C)=CCC1
REMARK SMILES IDX 3 1 4 2 5 3 9 4 10 5 11 6 12 7 13 8 6 10 7 11 8 12 2 13 1 14
REMARK SMILES IDX 15 15 14 16
REMARK H PARENT
REMARK Flexibility Score: 70.00
ROOT
ATOM      1  C   UNL     1     133.312 138.130 132.519  1.00  0.00    -0.001 C 
ATOM      2  C   UNL     1     133.994 138.630 131.479  1.00  0.00    -0.023 C 
ENDROOT
BRANCH   2   3
ATOM      3  C   UNL     1     135.473 138.956 131.473  1.00  0.00     0.014 C 
BRANCH   3   4
ATOM      4  C   UNL     1     136.292 137.691 131.112  1.00  0.00     0.012 C 
BRANCH   4   5
ATOM      5  C   UNL     1     137.132 137.153 132.284  1.00  0.00     0.031 C 
BRANCH   5   6
ATOM      6  C   UNL     1     137.717 138.265 133.138  1.00  0.00    -0.077 C 
ATOM      7  C   UNL     1     138.844 139.083 132.558  1.00  0.00     0.039 C 
ATOM      8  C   UNL     1     137.276 138.588 134.378  1.00  0.00    -0.028 CG0
ATOM      9  G   UNL     1     136.109 137.966 135.111  1.00  0.00     0.000 G0
ENDBRANCH   5   6
ENDBRANCH   4   5
ENDBRANCH   3   4
BRANCH   3  10
ATOM     10  C   UNL     1     135.749 140.168 130.533  1.00  0.00    -0.010 C 
ATOM     11  C   UNL     1     135.898 141.508 131.278  1.00  0.00     0.008 C 
ATOM     12  C   UNL     1     134.687 140.293 129.429  1.00  0.00     0.008 C 
ENDBRANCH   3  10
ENDBRANCH   2   3
BRANCH   1  13
ATOM     13  C   UNL     1     133.894 137.709 133.815  1.00  0.00    -0.055 C 
ATOM     14  C   UNL     1     133.653 136.461 134.229  1.00  0.00     0.012 C 
BRANCH  13  15
ATOM     15  C   UNL     1     134.775 138.604 134.673  1.00  0.00     0.039 C 
BRANCH  15  16
ATOM     16  C   UNL     1     136.115 137.977 135.125  1.00  0.00     0.032 CG0
ATOM     17  G   UNL     1     137.281 138.581 134.375  1.00  0.00     0.000 G0
ENDBRANCH  15  16
ENDBRANCH  13  15
ENDBRANCH   1  13
TORSDOF 1
ENDMDL
MODEL 9
REMARK VINA RESULT:    -3.186      2.085      3.947
REMARK INTER + INTRA:          -5.357
REMARK INTER:                  -4.810
REMARK INTRA:                  -0.547
REMARK UNBOUND:                -0.682
REMARK SMILES C=C1C=C[C@H](C(C)C)CCC(C)=CCC1
REMARK SMILES IDX 3 1 4 2 5 3 9 4 10 5 11 6 12 7 13 8 6 10 7 11 8 12 2 13 1 14
REMARK SMILES IDX 15 15 14 16
REMARK H PARENT
REMARK Flexibility Score: 70.00
ROOT
ATOM      1  C   UNL     1     134.266 139.040 131.907  1.00  0.00    -0.001 C 
ATOM      2  C   UNL     1     134.246 137.702 131.981  1.00  0.00    -0.023 C 
ENDROOT
BRANCH   2   3
ATOM      3  C   UNL     1     134.930 136.758 131.013  1.00  0.00     0.014 C 
BRANCH   3   4
ATOM      4  C   UNL     1     136.372 136.462 131.494  1.00  0.00     0.012 C 
BRANCH   4   5
ATOM      5  C   UNL     1     137.412 136.494 130.359  1.00  0.00     0.031 C 
BRANCH   5   6
ATOM      6  C   UNL     1     138.580 137.415 130.668  1.00  0.00    -0.077 C 
ATOM      7  C   UNL     1     139.859 136.790 131.167  1.00  0.00     0.039 C 
ATOM      8  C   UNL     1     138.558 138.759 130.502  1.00  0.00    -0.028 CG0
ATOM      9  G   UNL     1     137.422 139.579 129.933  1.00  0.00     0.000 G0
ENDBRANCH   5   6
ENDBRANCH   4   5
ENDBRANCH   3   4
BRANCH   3  10
ATOM     10  C   UNL     1     134.063 135.478 130.813  1.00  0.00    -0.010 C 
ATOM     11  C   UNL     1     132.547 135.741 130.875  1.00  0.00     0.008 C 
ATOM     12  C   UNL     1     134.446 134.364 131.800  1.00  0.00     0.008 C 
ENDBRANCH   3  10
ENDBRANCH   2   3
BRANCH   1  13
ATOM     13  C   UNL     1     135.040 139.842 130.930  1.00  0.00    -0.055 C 
ATOM     14  C   UNL     1     134.381 140.352 129.885  1.00  0.00     0.012 C 
BRANCH  13  15
ATOM     15  C   UNL     1     136.523 140.143 131.074  1.00  0.00     0.039 C 
BRANCH  15  16
ATOM     16  C   UNL     1     137.423 139.592 129.941  1.00  0.00     0.032 CG0
ATOM     17  G   UNL     1     138.558 138.764 130.501  1.00  0.00     0.000 G0
ENDBRANCH  15  16
ENDBRANCH  13  15
ENDBRANCH   1  13
TORSDOF 1
ENDMDL
