MODEL 1
REMARK VINA RESULT:    30.368      0.000      0.000
REMARK INTER + INTRA:          37.594
REMARK INTER:                  37.469
REMARK INTRA:                   0.125
REMARK UNBOUND:                 0.125
REMARK SMILES Oc1cc(O)c2cc(O)c(-c3cc(O)c(O)c(O)c3)[o+]c2c1
REMARK SMILES IDX 10 1 20 2 21 3 22 4 2 5 3 6 4 7 6 8 7 9 8 10 11 11 12 12
REMARK SMILES IDX 13 13 19 14 15 15 17 16 14 17 16 19 18 21 9 23 1 25 5 27
REMARK H PARENT 14 18 16 20 18 22 9 24 1 26 5 28
REMARK Flexibility Score: inf
ROOT
ATOM      1  C   UNL     1      16.683   3.737  13.473  1.00  0.00     0.402 A 
ATOM      2  O   UNL     1      16.766   4.068  12.188  1.00  0.00    -0.202 OA
ATOM      3  C   UNL     1      17.821   3.789  11.430  1.00  0.00     0.368 A 
ATOM      4  C   UNL     1      17.818   4.181  10.089  1.00  0.00     0.162 A 
ATOM      5  C   UNL     1      18.913   3.904   9.269  1.00  0.00     0.128 A 
ATOM      6  C   UNL     1      20.022   3.230   9.793  1.00  0.00     0.093 A 
ATOM      7  C   UNL     1      20.050   2.827  11.134  1.00  0.00     0.136 A 
ATOM      8  C   UNL     1      18.937   3.105  11.970  1.00  0.00     0.125 A 
ATOM      9  C   UNL     1      18.872   2.726  13.320  1.00  0.00     0.078 A 
ATOM     10  C   UNL     1      17.738   3.031  14.080  1.00  0.00     0.223 A 
ENDROOT
BRANCH   1  11
ATOM     11  C   UNL     1      15.457   4.113  14.215  1.00  0.00     0.091 A 
ATOM     12  C   UNL     1      15.501   4.445  15.580  1.00  0.00     0.068 A 
ATOM     13  C   UNL     1      14.334   4.819  16.260  1.00  0.00     0.162 A 
ATOM     14  C   UNL     1      14.235   4.195  13.532  1.00  0.00     0.068 A 
ATOM     15  C   UNL     1      13.110   4.878  15.572  1.00  0.00     0.200 A 
ATOM     16  C   UNL     1      13.065   4.567  14.202  1.00  0.00     0.162 A 
BRANCH  13  17
ATOM     17  O   UNL     1      14.388   5.141  17.616  1.00  0.00    -0.504 OA
ATOM     18  H   UNL     1      14.410   6.103  17.932  1.00  0.00     0.293 HD
ENDBRANCH  13  17
BRANCH  15  19
ATOM     19  O   UNL     1      11.938   5.245  16.234  1.00  0.00    -0.502 OA
ATOM     20  H   UNL     1      11.243   4.565  16.519  1.00  0.00     0.293 HD
ENDBRANCH  15  19
BRANCH  16  21
ATOM     21  O   UNL     1      11.867   4.623  13.490  1.00  0.00    -0.504 OA
ATOM     22  H   UNL     1      11.837   4.847  12.503  1.00  0.00     0.293 HD
ENDBRANCH  16  21
ENDBRANCH   1  11
BRANCH  10  23
ATOM     23  O   UNL     1      17.653   2.613  15.408  1.00  0.00    -0.500 OA
ATOM     24  H   UNL     1      17.967   3.198  16.173  1.00  0.00     0.294 HD
ENDBRANCH  10  23
BRANCH   5  25
ATOM     25  O   UNL     1      18.889   4.303   7.935  1.00  0.00    -0.507 OA
ATOM     26  H   UNL     1      18.065   4.177   7.359  1.00  0.00     0.293 HD
ENDBRANCH   5  25
BRANCH   7  27
ATOM     27  O   UNL     1      21.195   2.162  11.582  1.00  0.00    -0.507 OA
ATOM     28  H   UNL     1      22.134   2.522  11.495  1.00  0.00     0.293 HD
ENDBRANCH   7  27
TORSDOF 7
ENDMDL
MODEL 2
REMARK VINA RESULT:    30.383      1.053      6.876
REMARK INTER + INTRA:          37.613
REMARK INTER:                  37.281
REMARK INTRA:                   0.331
REMARK UNBOUND:                 0.125
REMARK SMILES Oc1cc(O)c2cc(O)c(-c3cc(O)c(O)c(O)c3)[o+]c2c1
REMARK SMILES IDX 10 1 20 2 21 3 22 4 2 5 3 6 4 7 6 8 7 9 8 10 11 11 12 12
REMARK SMILES IDX 13 13 19 14 15 15 17 16 14 17 16 19 18 21 9 23 1 25 5 27
REMARK H PARENT 14 18 16 20 18 22 9 24 1 26 5 28
REMARK Flexibility Score: inf
ROOT
ATOM      1  C   UNL     1      17.307   3.371  13.275  1.00  0.00     0.402 A 
ATOM      2  O   UNL     1      16.122   3.934  13.053  1.00  0.00    -0.202 OA
ATOM      3  C   UNL     1      15.201   4.092  13.999  1.00  0.00     0.368 A 
ATOM      4  C   UNL     1      13.983   4.692  13.668  1.00  0.00     0.162 A 
ATOM      5  C   UNL     1      12.996   4.869  14.638  1.00  0.00     0.128 A 
ATOM      6  C   UNL     1      13.227   4.442  15.951  1.00  0.00     0.093 A 
ATOM      7  C   UNL     1      14.439   3.838  16.309  1.00  0.00     0.136 A 
ATOM      8  C   UNL     1      15.445   3.658  15.324  1.00  0.00     0.125 A 
ATOM      9  C   UNL     1      16.694   3.076  15.594  1.00  0.00     0.078 A 
ATOM     10  C   UNL     1      17.639   2.937  14.572  1.00  0.00     0.223 A 
ENDROOT
BRANCH   1  11
ATOM     11  C   UNL     1      18.245   3.242  12.137  1.00  0.00     0.091 A 
ATOM     12  C   UNL     1      19.388   2.428  12.219  1.00  0.00     0.068 A 
ATOM     13  C   UNL     1      20.252   2.302  11.123  1.00  0.00     0.162 A 
ATOM     14  C   UNL     1      17.961   3.900  10.931  1.00  0.00     0.068 A 
ATOM     15  C   UNL     1      19.971   2.982   9.926  1.00  0.00     0.200 A 
ATOM     16  C   UNL     1      18.818   3.780   9.832  1.00  0.00     0.162 A 
BRANCH  13  17
ATOM     17  O   UNL     1      21.387   1.496  11.218  1.00  0.00    -0.504 OA
ATOM     18  H   UNL     1      21.833   1.110  10.395  1.00  0.00     0.293 HD
ENDBRANCH  13  17
BRANCH  15  19
ATOM     19  O   UNL     1      20.823   2.870   8.827  1.00  0.00    -0.502 OA
ATOM     20  H   UNL     1      20.661   2.202   8.083  1.00  0.00     0.293 HD
ENDBRANCH  15  19
BRANCH  16  21
ATOM     21  O   UNL     1      18.508   4.462   8.656  1.00  0.00    -0.504 OA
ATOM     22  H   UNL     1      17.867   5.245   8.640  1.00  0.00     0.293 HD
ENDBRANCH  16  21
ENDBRANCH   1  11
BRANCH  10  23
ATOM     23  O   UNL     1      18.897   2.404  14.851  1.00  0.00    -0.500 OA
ATOM     24  H   UNL     1      19.503   2.807  15.555  1.00  0.00     0.294 HD
ENDBRANCH  10  23
BRANCH   5  25
ATOM     25  O   UNL     1      11.789   5.470  14.288  1.00  0.00    -0.507 OA
ATOM     26  H   UNL     1      11.614   6.451  14.470  1.00  0.00     0.293 HD
ENDBRANCH   5  25
BRANCH   7  27
ATOM     27  O   UNL     1      14.590   3.436  17.638  1.00  0.00    -0.507 OA
ATOM     28  H   UNL     1      15.323   2.827  17.970  1.00  0.00     0.293 HD
ENDBRANCH   7  27
TORSDOF 7
ENDMDL
MODEL 3
REMARK VINA RESULT:    30.455      4.722      7.713
REMARK INTER + INTRA:          37.703
REMARK INTER:                  37.484
REMARK INTRA:                   0.219
REMARK UNBOUND:                 0.125
REMARK SMILES Oc1cc(O)c2cc(O)c(-c3cc(O)c(O)c(O)c3)[o+]c2c1
REMARK SMILES IDX 10 1 20 2 21 3 22 4 2 5 3 6 4 7 6 8 7 9 8 10 11 11 12 12
REMARK SMILES IDX 13 13 19 14 15 15 17 16 14 17 16 19 18 21 9 23 1 25 5 27
REMARK H PARENT 14 18 16 20 18 22 9 24 1 26 5 28
REMARK Flexibility Score: inf
ROOT
ATOM      1  C   UNL     1      15.420   7.479  16.389  1.00  0.00     0.402 A 
ATOM      2  O   UNL     1      16.293   7.722  17.363  1.00  0.00    -0.202 OA
ATOM      3  C   UNL     1      16.768   8.935  17.631  1.00  0.00     0.368 A 
ATOM      4  C   UNL     1      17.686   9.090  18.673  1.00  0.00     0.162 A 
ATOM      5  C   UNL     1      18.204  10.350  18.976  1.00  0.00     0.128 A 
ATOM      6  C   UNL     1      17.802  11.465  18.231  1.00  0.00     0.093 A 
ATOM      7  C   UNL     1      16.883  11.336  17.182  1.00  0.00     0.136 A 
ATOM      8  C   UNL     1      16.353  10.056  16.873  1.00  0.00     0.125 A 
ATOM      9  C   UNL     1      15.418   9.834  15.849  1.00  0.00     0.078 A 
ATOM     10  C   UNL     1      14.937   8.544  15.607  1.00  0.00     0.223 A 
ENDROOT
BRANCH   1  11
ATOM     11  C   UNL     1      14.973   6.082  16.182  1.00  0.00     0.091 A 
ATOM     12  C   UNL     1      14.506   5.642  14.932  1.00  0.00     0.068 A 
ATOM     13  C   UNL     1      14.109   4.310  14.750  1.00  0.00     0.162 A 
ATOM     14  C   UNL     1      15.070   5.164  17.238  1.00  0.00     0.068 A 
ATOM     15  C   UNL     1      14.188   3.401  15.819  1.00  0.00     0.200 A 
ATOM     16  C   UNL     1      14.675   3.833  17.066  1.00  0.00     0.162 A 
BRANCH  13  17
ATOM     17  O   UNL     1      13.641   3.884  13.507  1.00  0.00    -0.504 OA
ATOM     18  H   UNL     1      14.135   4.105  12.651  1.00  0.00     0.293 HD
ENDBRANCH  13  17
BRANCH  15  19
ATOM     19  O   UNL     1      13.792   2.073  15.656  1.00  0.00    -0.502 OA
ATOM     20  H   UNL     1      13.206   1.598  16.331  1.00  0.00     0.293 HD
ENDBRANCH  15  19
BRANCH  16  21
ATOM     21  O   UNL     1      14.772   2.954  18.144  1.00  0.00    -0.504 OA
ATOM     22  H   UNL     1      15.131   3.245  19.045  1.00  0.00     0.293 HD
ENDBRANCH  16  21
ENDBRANCH   1  11
BRANCH  10  23
ATOM     23  O   UNL     1      13.971   8.331  14.622  1.00  0.00    -0.500 OA
ATOM     24  H   UNL     1      13.279   9.034  14.393  1.00  0.00     0.294 HD
ENDBRANCH  10  23
BRANCH   5  25
ATOM     25  O   UNL     1      19.117  10.484  20.019  1.00  0.00    -0.507 OA
ATOM     26  H   UNL     1      19.830   9.785  20.191  1.00  0.00     0.293 HD
ENDBRANCH   5  25
BRANCH   7  27
ATOM     27  O   UNL     1      16.535  12.496  16.485  1.00  0.00    -0.507 OA
ATOM     28  H   UNL     1      16.816  13.428  16.752  1.00  0.00     0.293 HD
ENDBRANCH   7  27
TORSDOF 7
ENDMDL
MODEL 4
REMARK VINA RESULT:    30.698      5.004      7.748
REMARK INTER + INTRA:          38.002
REMARK INTER:                  37.626
REMARK INTRA:                   0.375
REMARK UNBOUND:                 0.125
REMARK SMILES Oc1cc(O)c2cc(O)c(-c3cc(O)c(O)c(O)c3)[o+]c2c1
REMARK SMILES IDX 10 1 20 2 21 3 22 4 2 5 3 6 4 7 6 8 7 9 8 10 11 11 12 12
REMARK SMILES IDX 13 13 19 14 15 15 17 16 14 17 16 19 18 21 9 23 1 25 5 27
REMARK H PARENT 14 18 16 20 18 22 9 24 1 26 5 28
REMARK Flexibility Score: inf
ROOT
ATOM      1  C   UNL     1      15.441   8.110  16.389  1.00  0.00     0.402 A 
ATOM      2  O   UNL     1      15.703   6.904  16.887  1.00  0.00    -0.202 OA
ATOM      3  C   UNL     1      15.123   5.792  16.447  1.00  0.00     0.368 A 
ATOM      4  C   UNL     1      15.462   4.571  17.036  1.00  0.00     0.162 A 
ATOM      5  C   UNL     1      14.868   3.387  16.597  1.00  0.00     0.128 A 
ATOM      6  C   UNL     1      13.926   3.422  15.563  1.00  0.00     0.093 A 
ATOM      7  C   UNL     1      13.569   4.633  14.956  1.00  0.00     0.136 A 
ATOM      8  C   UNL     1      14.174   5.839  15.398  1.00  0.00     0.125 A 
ATOM      9  C   UNL     1      13.888   7.096  14.841  1.00  0.00     0.078 A 
ATOM     10  C   UNL     1      14.528   8.240  15.326  1.00  0.00     0.223 A 
ENDROOT
BRANCH   1  11
ATOM     11  C   UNL     1      16.145   9.276  16.971  1.00  0.00     0.091 A 
ATOM     12  C   UNL     1      15.827  10.589  16.585  1.00  0.00     0.068 A 
ATOM     13  C   UNL     1      16.489  11.681  17.163  1.00  0.00     0.162 A 
ATOM     14  C   UNL     1      17.110   9.072  17.967  1.00  0.00     0.068 A 
ATOM     15  C   UNL     1      17.471  11.466  18.145  1.00  0.00     0.200 A 
ATOM     16  C   UNL     1      17.777  10.155  18.549  1.00  0.00     0.162 A 
BRANCH  13  17
ATOM     17  O   UNL     1      16.170  12.980  16.769  1.00  0.00    -0.504 OA
ATOM     18  H   UNL     1      15.348  13.455  17.123  1.00  0.00     0.293 HD
ENDBRANCH  13  17
BRANCH  15  19
ATOM     19  O   UNL     1      18.143  12.541  18.728  1.00  0.00    -0.502 OA
ATOM     20  H   UNL     1      19.143  12.531  18.887  1.00  0.00     0.293 HD
ENDBRANCH  15  19
BRANCH  16  21
ATOM     21  O   UNL     1      18.741   9.909  19.526  1.00  0.00    -0.504 OA
ATOM     22  H   UNL     1      19.260   9.040  19.565  1.00  0.00     0.293 HD
ENDBRANCH  16  21
ENDBRANCH   1  11
BRANCH  10  23
ATOM     23  O   UNL     1      14.281   9.482  14.740  1.00  0.00    -0.500 OA
ATOM     24  H   UNL     1      13.419   9.675  14.244  1.00  0.00     0.294 HD
ENDBRANCH  10  23
BRANCH   5  25
ATOM     25  O   UNL     1      15.220   2.179  17.196  1.00  0.00    -0.507 OA
ATOM     26  H   UNL     1      15.621   2.147  18.127  1.00  0.00     0.293 HD
ENDBRANCH   5  25
BRANCH   7  27
ATOM     27  O   UNL     1      12.619   4.585  13.933  1.00  0.00    -0.507 OA
ATOM     28  H   UNL     1      11.621   4.585  14.081  1.00  0.00     0.293 HD
ENDBRANCH   7  27
TORSDOF 7
ENDMDL
