MODEL 1
REMARK VINA RESULT:    -4.028      0.000      0.000
REMARK INTER + INTRA:          -4.618
REMARK INTER:                  -4.381
REMARK INTRA:                  -0.237
REMARK UNBOUND:                -0.237
REMARK SMILES O=C([O-])c1ccccc1O
REMARK SMILES IDX 4 1 9 2 5 3 8 4 6 5 7 6 2 7 1 8 3 9 10 10
REMARK H PARENT 10 11
REMARK Flexibility Score: inf
ROOT
ATOM      1  C   UNL     1      23.054  50.932  50.913  1.00  0.00     0.039 A 
ATOM      2  C   UNL     1      21.812  51.320  51.468  1.00  0.00     0.124 A 
ATOM      3  C   UNL     1      24.124  50.638  51.782  1.00  0.00     0.014 A 
ATOM      4  C   UNL     1      21.665  51.405  52.861  1.00  0.00     0.047 A 
ATOM      5  C   UNL     1      23.963  50.727  53.167  1.00  0.00     0.001 A 
ATOM      6  C   UNL     1      22.735  51.109  53.705  1.00  0.00     0.004 A 
ENDROOT
BRANCH   1   7
ATOM      7  C   UNL     1      23.256  50.828  49.444  1.00  0.00     0.075 C 
ATOM      8  O   UNL     1      22.708  51.654  48.666  1.00  0.00    -0.545 OA
ATOM      9  O   UNL     1      24.046  49.824  48.897  1.00  0.00    -0.545 OA
ENDBRANCH   1   7
BRANCH   2  10
ATOM     10  O   UNL     1      20.725  51.620  50.646  1.00  0.00    -0.507 OA
ATOM     11  H   UNL     1      20.849  51.954  49.698  1.00  0.00     0.293 HD
ENDBRANCH   2  10
TORSDOF 2
ENDMDL
MODEL 2
REMARK VINA RESULT:    -3.609      2.289      3.685
REMARK INTER + INTRA:          -4.162
REMARK INTER:                  -3.912
REMARK INTRA:                  -0.250
REMARK UNBOUND:                -0.237
REMARK SMILES O=C([O-])c1ccccc1O
REMARK SMILES IDX 4 1 9 2 5 3 8 4 6 5 7 6 2 7 1 8 3 9 10 10
REMARK H PARENT 10 11
REMARK Flexibility Score: inf
ROOT
ATOM      1  C   UNL     1      22.289  51.530  51.544  1.00  0.00     0.039 A 
ATOM      2  C   UNL     1      21.434  52.577  51.126  1.00  0.00     0.124 A 
ATOM      3  C   UNL     1      23.043  50.840  50.574  1.00  0.00     0.014 A 
ATOM      4  C   UNL     1      21.350  52.910  49.765  1.00  0.00     0.047 A 
ATOM      5  C   UNL     1      22.950  51.183  49.222  1.00  0.00     0.001 A 
ATOM      6  C   UNL     1      22.106  52.217  48.819  1.00  0.00     0.004 A 
ENDROOT
BRANCH   1   7
ATOM      7  C   UNL     1      22.408  51.143  52.974  1.00  0.00     0.075 C 
ATOM      8  O   UNL     1      23.530  50.836  53.459  1.00  0.00    -0.545 OA
ATOM      9  O   UNL     1      21.295  51.112  53.805  1.00  0.00    -0.545 OA
ENDBRANCH   1   7
BRANCH   2  10
ATOM     10  O   UNL     1      20.669  53.288  52.051  1.00  0.00    -0.507 OA
ATOM     11  H   UNL     1      20.230  52.832  52.843  1.00  0.00     0.293 HD
ENDBRANCH   2  10
TORSDOF 2
ENDMDL
MODEL 3
REMARK VINA RESULT:    -3.606      3.181      4.281
REMARK INTER + INTRA:          -4.159
REMARK INTER:                  -3.910
REMARK INTRA:                  -0.250
REMARK UNBOUND:                -0.237
REMARK SMILES O=C([O-])c1ccccc1O
REMARK SMILES IDX 4 1 9 2 5 3 8 4 6 5 7 6 2 7 1 8 3 9 10 10
REMARK H PARENT 10 11
REMARK Flexibility Score: inf
ROOT
ATOM      1  C   UNL     1      20.679  52.975  53.676  1.00  0.00     0.039 A 
ATOM      2  C   UNL     1      19.496  53.460  54.281  1.00  0.00     0.124 A 
ATOM      3  C   UNL     1      21.400  51.948  54.319  1.00  0.00     0.014 A 
ATOM      4  C   UNL     1      19.061  52.917  55.500  1.00  0.00     0.047 A 
ATOM      5  C   UNL     1      20.955  51.418  55.533  1.00  0.00     0.001 A 
ATOM      6  C   UNL     1      19.787  51.901  56.122  1.00  0.00     0.004 A 
ENDROOT
BRANCH   1   7
ATOM      7  C   UNL     1      21.176  53.520  52.386  1.00  0.00     0.075 C 
ATOM      8  O   UNL     1      21.229  54.764  52.198  1.00  0.00    -0.545 OA
ATOM      9  O   UNL     1      21.592  52.676  51.362  1.00  0.00    -0.545 OA
ENDBRANCH   1   7
BRANCH   2  10
ATOM     10  O   UNL     1      18.750  54.474  53.681  1.00  0.00    -0.507 OA
ATOM     11  H   UNL     1      18.920  55.453  53.883  1.00  0.00     0.293 HD
ENDBRANCH   2  10
TORSDOF 2
ENDMDL
MODEL 4
REMARK VINA RESULT:    -3.588      2.095      2.847
REMARK INTER + INTRA:          -4.139
REMARK INTER:                  -3.893
REMARK INTRA:                  -0.245
REMARK UNBOUND:                -0.237
REMARK SMILES O=C([O-])c1ccccc1O
REMARK SMILES IDX 4 1 9 2 5 3 8 4 6 5 7 6 2 7 1 8 3 9 10 10
REMARK H PARENT 10 11
REMARK Flexibility Score: inf
ROOT
ATOM      1  C   UNL     1      21.813  53.087  50.406  1.00  0.00     0.039 A 
ATOM      2  C   UNL     1      21.604  51.803  50.961  1.00  0.00     0.124 A 
ATOM      3  C   UNL     1      21.624  54.220  51.223  1.00  0.00     0.014 A 
ATOM      4  C   UNL     1      21.216  51.677  52.305  1.00  0.00     0.047 A 
ATOM      5  C   UNL     1      21.238  54.079  52.559  1.00  0.00     0.001 A 
ATOM      6  C   UNL     1      21.036  52.810  53.099  1.00  0.00     0.004 A 
ENDROOT
BRANCH   1   7
ATOM      7  C   UNL     1      22.224  53.268  48.989  1.00  0.00     0.075 C 
ATOM      8  O   UNL     1      23.020  54.191  48.670  1.00  0.00    -0.545 OA
ATOM      9  O   UNL     1      21.743  52.431  47.990  1.00  0.00    -0.545 OA
ENDBRANCH   1   7
BRANCH   2  10
ATOM     10  O   UNL     1      21.779  50.654  50.190  1.00  0.00    -0.507 OA
ATOM     11  H   UNL     1      22.215  50.686  49.276  1.00  0.00     0.293 HD
ENDBRANCH   2  10
TORSDOF 2
ENDMDL
MODEL 5
REMARK VINA RESULT:    -3.584      2.280      3.106
REMARK INTER + INTRA:          -4.135
REMARK INTER:                  -3.884
REMARK INTRA:                  -0.251
REMARK UNBOUND:                -0.237
REMARK SMILES O=C([O-])c1ccccc1O
REMARK SMILES IDX 4 1 9 2 5 3 8 4 6 5 7 6 2 7 1 8 3 9 10 10
REMARK H PARENT 10 11
REMARK Flexibility Score: inf
ROOT
ATOM      1  C   UNL     1      21.206  52.374  52.688  1.00  0.00     0.039 A 
ATOM      2  C   UNL     1      20.441  53.161  53.581  1.00  0.00     0.124 A 
ATOM      3  C   UNL     1      21.891  51.249  53.190  1.00  0.00     0.014 A 
ATOM      4  C   UNL     1      20.374  52.813  54.939  1.00  0.00     0.047 A 
ATOM      5  C   UNL     1      21.815  50.914  54.545  1.00  0.00     0.001 A 
ATOM      6  C   UNL     1      21.057  51.694  55.417  1.00  0.00     0.004 A 
ENDROOT
BRANCH   1   7
ATOM      7  C   UNL     1      21.306  52.705  51.243  1.00  0.00     0.075 C 
ATOM      8  O   UNL     1      21.591  53.877  50.876  1.00  0.00    -0.545 OA
ATOM      9  O   UNL     1      21.088  51.739  50.268  1.00  0.00    -0.545 OA
ENDBRANCH   1   7
BRANCH   2  10
ATOM     10  O   UNL     1      19.747  54.283  53.129  1.00  0.00    -0.507 OA
ATOM     11  H   UNL     1      20.076  54.834  52.344  1.00  0.00     0.293 HD
ENDBRANCH   2  10
TORSDOF 2
ENDMDL
MODEL 6
REMARK VINA RESULT:    -3.544     10.578     12.128
REMARK INTER + INTRA:          -4.091
REMARK INTER:                  -3.840
REMARK INTRA:                  -0.251
REMARK UNBOUND:                -0.237
REMARK SMILES O=C([O-])c1ccccc1O
REMARK SMILES IDX 4 1 9 2 5 3 8 4 6 5 7 6 2 7 1 8 3 9 10 10
REMARK H PARENT 10 11
REMARK Flexibility Score: inf
ROOT
ATOM      1  C   UNL     1      20.114  53.251  39.478  1.00  0.00     0.039 A 
ATOM      2  C   UNL     1      20.091  53.127  40.887  1.00  0.00     0.124 A 
ATOM      3  C   UNL     1      19.342  54.261  38.871  1.00  0.00     0.014 A 
ATOM      4  C   UNL     1      19.307  54.005  41.652  1.00  0.00     0.047 A 
ATOM      5  C   UNL     1      18.566  55.128  39.646  1.00  0.00     0.001 A 
ATOM      6  C   UNL     1      18.550  55.000  41.034  1.00  0.00     0.004 A 
ENDROOT
BRANCH   1   7
ATOM      7  C   UNL     1      20.930  52.344  38.627  1.00  0.00     0.075 C 
ATOM      8  O   UNL     1      20.471  51.911  37.537  1.00  0.00    -0.545 OA
ATOM      9  O   UNL     1      22.207  51.955  39.012  1.00  0.00    -0.545 OA
ENDBRANCH   1   7
BRANCH   2  10
ATOM     10  O   UNL     1      20.840  52.142  41.531  1.00  0.00    -0.507 OA
ATOM     11  H   UNL     1      21.562  51.620  41.048  1.00  0.00     0.293 HD
ENDBRANCH   2  10
TORSDOF 2
ENDMDL
MODEL 7
REMARK VINA RESULT:    -3.520     11.901     13.242
REMARK INTER + INTRA:          -4.066
REMARK INTER:                  -3.849
REMARK INTRA:                  -0.217
REMARK UNBOUND:                -0.237
REMARK SMILES O=C([O-])c1ccccc1O
REMARK SMILES IDX 4 1 9 2 5 3 8 4 6 5 7 6 2 7 1 8 3 9 10 10
REMARK H PARENT 10 11
REMARK Flexibility Score: inf
ROOT
ATOM      1  C   UNL     1      19.153  54.294  39.403  1.00  0.00     0.039 A 
ATOM      2  C   UNL     1      19.669  52.981  39.501  1.00  0.00     0.124 A 
ATOM      3  C   UNL     1      19.233  54.966  38.167  1.00  0.00     0.014 A 
ATOM      4  C   UNL     1      20.246  52.371  38.376  1.00  0.00     0.047 A 
ATOM      5  C   UNL     1      19.811  54.346  37.055  1.00  0.00     0.001 A 
ATOM      6  C   UNL     1      20.316  53.051  37.160  1.00  0.00     0.004 A 
ENDROOT
BRANCH   1   7
ATOM      7  C   UNL     1      18.532  54.978  40.568  1.00  0.00     0.075 C 
ATOM      8  O   UNL     1      17.701  55.908  40.391  1.00  0.00    -0.545 OA
ATOM      9  O   UNL     1      18.853  54.612  41.870  1.00  0.00    -0.545 OA
ENDBRANCH   1   7
BRANCH   2  10
ATOM     10  O   UNL     1      19.611  52.277  40.704  1.00  0.00    -0.507 OA
ATOM     11  H   UNL     1      20.080  51.387  40.824  1.00  0.00     0.293 HD
ENDBRANCH   2  10
TORSDOF 2
ENDMDL
MODEL 8
REMARK VINA RESULT:    -3.495     11.167     13.343
REMARK INTER + INTRA:          -4.038
REMARK INTER:                  -3.798
REMARK INTRA:                  -0.240
REMARK UNBOUND:                -0.237
REMARK SMILES O=C([O-])c1ccccc1O
REMARK SMILES IDX 4 1 9 2 5 3 8 4 6 5 7 6 2 7 1 8 3 9 10 10
REMARK H PARENT 10 11
REMARK Flexibility Score: inf
ROOT
ATOM      1  C   UNL     1      20.275  52.725  39.074  1.00  0.00     0.039 A 
ATOM      2  C   UNL     1      20.936  51.935  38.104  1.00  0.00     0.124 A 
ATOM      3  C   UNL     1      19.178  53.515  38.676  1.00  0.00     0.014 A 
ATOM      4  C   UNL     1      20.493  51.949  36.772  1.00  0.00     0.047 A 
ATOM      5  C   UNL     1      18.749  53.519  37.346  1.00  0.00     0.001 A 
ATOM      6  C   UNL     1      19.404  52.736  36.396  1.00  0.00     0.004 A 
ENDROOT
BRANCH   1   7
ATOM      7  C   UNL     1      20.710  52.741  40.496  1.00  0.00     0.075 C 
ATOM      8  O   UNL     1      21.936  52.717  40.787  1.00  0.00    -0.545 OA
ATOM      9  O   UNL     1      19.782  52.783  41.530  1.00  0.00    -0.545 OA
ENDBRANCH   1   7
BRANCH   2  10
ATOM     10  O   UNL     1      22.026  51.137  38.453  1.00  0.00    -0.507 OA
ATOM     11  H   UNL     1      22.942  51.533  38.629  1.00  0.00     0.293 HD
ENDBRANCH   2  10
TORSDOF 2
ENDMDL
MODEL 9
REMARK VINA RESULT:    -3.461      3.329      5.244
REMARK INTER + INTRA:          -4.001
REMARK INTER:                  -3.751
REMARK INTRA:                  -0.250
REMARK UNBOUND:                -0.237
REMARK SMILES O=C([O-])c1ccccc1O
REMARK SMILES IDX 4 1 9 2 5 3 8 4 6 5 7 6 2 7 1 8 3 9 10 10
REMARK H PARENT 10 11
REMARK Flexibility Score: inf
ROOT
ATOM      1  C   UNL     1      20.638  52.787  53.747  1.00  0.00     0.039 A 
ATOM      2  C   UNL     1      21.286  51.583  53.383  1.00  0.00     0.124 A 
ATOM      3  C   UNL     1      20.719  53.892  52.876  1.00  0.00     0.014 A 
ATOM      4  C   UNL     1      21.992  51.507  52.172  1.00  0.00     0.047 A 
ATOM      5  C   UNL     1      21.426  53.803  51.674  1.00  0.00     0.001 A 
ATOM      6  C   UNL     1      22.061  52.612  51.322  1.00  0.00     0.004 A 
ENDROOT
BRANCH   1   7
ATOM      7  C   UNL     1      19.879  52.911  55.018  1.00  0.00     0.075 C 
ATOM      8  O   UNL     1      20.381  52.509  56.102  1.00  0.00    -0.545 OA
ATOM      9  O   UNL     1      18.607  53.471  55.043  1.00  0.00    -0.545 OA
ENDBRANCH   1   7
BRANCH   2  10
ATOM     10  O   UNL     1      21.233  50.463  54.213  1.00  0.00    -0.507 OA
ATOM     11  H   UNL     1      22.073  49.999  54.537  1.00  0.00     0.293 HD
ENDBRANCH   2  10
TORSDOF 2
ENDMDL
