MODEL 1
REMARK VINA RESULT:    -4.367      0.000      0.000
REMARK INTER + INTRA:          -4.494
REMARK INTER:                  -4.494
REMARK INTRA:                   0.000
REMARK UNBOUND:                 0.000
REMARK SMILES Cc1ccccc1O
REMARK SMILES IDX 1 1 2 2 3 3 4 4 5 5 6 6 7 7 8 8
REMARK H PARENT 8 9
REMARK Flexibility Score: inf
ROOT
ATOM      1  C   UNL     1    -106.385 -13.465  51.866  1.00  0.00     0.048 C 
ATOM      2  C   UNL     1    -107.437 -14.012  52.789  1.00  0.00    -0.009 A 
ATOM      3  C   UNL     1    -108.304 -15.028  52.352  1.00  0.00     0.007 A 
ATOM      4  C   UNL     1    -109.283 -15.537  53.210  1.00  0.00     0.001 A 
ATOM      5  C   UNL     1    -109.405 -15.038  54.509  1.00  0.00     0.004 A 
ATOM      6  C   UNL     1    -108.548 -14.028  54.953  1.00  0.00     0.046 A 
ATOM      7  C   UNL     1    -107.562 -13.511  54.099  1.00  0.00     0.118 A 
ENDROOT
BRANCH   7   8
ATOM      8  O   UNL     1    -106.709 -12.503  54.547  1.00  0.00    -0.508 OA
ATOM      9  H   UNL     1    -106.022 -12.673  55.272  1.00  0.00     0.293 HD
ENDBRANCH   7   8
TORSDOF 1
ENDMDL
MODEL 2
REMARK VINA RESULT:    -4.204      1.316      2.737
REMARK INTER + INTRA:          -4.326
REMARK INTER:                  -4.326
REMARK INTRA:                   0.000
REMARK UNBOUND:                 0.000
REMARK SMILES Cc1ccccc1O
REMARK SMILES IDX 1 1 2 2 3 3 4 4 5 5 6 6 7 7 8 8
REMARK H PARENT 8 9
REMARK Flexibility Score: inf
ROOT
ATOM      1  C   UNL     1    -109.666 -15.641  53.105  1.00  0.00     0.048 C 
ATOM      2  C   UNL     1    -108.465 -14.738  53.112  1.00  0.00    -0.009 A 
ATOM      3  C   UNL     1    -107.590 -14.714  52.012  1.00  0.00     0.007 A 
ATOM      4  C   UNL     1    -106.473 -13.874  52.018  1.00  0.00     0.001 A 
ATOM      5  C   UNL     1    -106.220 -13.052  53.119  1.00  0.00     0.004 A 
ATOM      6  C   UNL     1    -107.084 -13.068  54.216  1.00  0.00     0.046 A 
ATOM      7  C   UNL     1    -108.208 -13.908  54.219  1.00  0.00     0.118 A 
ENDROOT
BRANCH   7   8
ATOM      8  O   UNL     1    -109.068 -13.920  55.317  1.00  0.00    -0.508 OA
ATOM      9  H   UNL     1    -109.011 -13.216  56.043  1.00  0.00     0.293 HD
ENDBRANCH   7   8
TORSDOF 1
ENDMDL
MODEL 3
REMARK VINA RESULT:    -4.028      1.853      3.528
REMARK INTER + INTRA:          -4.146
REMARK INTER:                  -4.146
REMARK INTRA:                   0.000
REMARK UNBOUND:                 0.000
REMARK SMILES Cc1ccccc1O
REMARK SMILES IDX 1 1 2 2 3 3 4 4 5 5 6 6 7 7 8 8
REMARK H PARENT 8 9
REMARK Flexibility Score: inf
ROOT
ATOM      1  C   UNL     1    -109.692 -15.040  54.551  1.00  0.00     0.048 C 
ATOM      2  C   UNL     1    -108.475 -14.422  53.922  1.00  0.00    -0.009 A 
ATOM      3  C   UNL     1    -107.737 -13.446  54.615  1.00  0.00     0.007 A 
ATOM      4  C   UNL     1    -106.605 -12.871  54.032  1.00  0.00     0.001 A 
ATOM      5  C   UNL     1    -106.200 -13.264  52.753  1.00  0.00     0.004 A 
ATOM      6  C   UNL     1    -106.926 -14.232  52.057  1.00  0.00     0.046 A 
ATOM      7  C   UNL     1    -108.064 -14.816  52.635  1.00  0.00     0.118 A 
ENDROOT
BRANCH   7   8
ATOM      8  O   UNL     1    -108.785 -15.782  51.935  1.00  0.00    -0.508 OA
ATOM      9  H   UNL     1    -109.257 -15.566  51.065  1.00  0.00     0.293 HD
ENDBRANCH   7   8
TORSDOF 1
ENDMDL
MODEL 4
REMARK VINA RESULT:    -3.935      0.974      2.596
REMARK INTER + INTRA:          -4.050
REMARK INTER:                  -4.050
REMARK INTRA:                   0.000
REMARK UNBOUND:                 0.000
REMARK SMILES Cc1ccccc1O
REMARK SMILES IDX 1 1 2 2 3 3 4 4 5 5 6 6 7 7 8 8
REMARK H PARENT 8 9
REMARK Flexibility Score: inf
ROOT
ATOM      1  C   UNL     1    -109.138 -13.616  54.990  1.00  0.00     0.048 C 
ATOM      2  C   UNL     1    -108.185 -13.872  53.856  1.00  0.00    -0.009 A 
ATOM      3  C   UNL     1    -108.435 -14.910  52.941  1.00  0.00     0.007 A 
ATOM      4  C   UNL     1    -107.549 -15.149  51.887  1.00  0.00     0.001 A 
ATOM      5  C   UNL     1    -106.409 -14.356  51.737  1.00  0.00     0.004 A 
ATOM      6  C   UNL     1    -106.152 -13.323  52.641  1.00  0.00     0.046 A 
ATOM      7  C   UNL     1    -107.036 -13.075  53.702  1.00  0.00     0.118 A 
ENDROOT
BRANCH   7   8
ATOM      8  O   UNL     1    -106.775 -12.042  54.602  1.00  0.00    -0.508 OA
ATOM      9  H   UNL     1    -106.621 -11.091  54.288  1.00  0.00     0.293 HD
ENDBRANCH   7   8
TORSDOF 1
ENDMDL
MODEL 5
REMARK VINA RESULT:    -3.731     12.949     14.253
REMARK INTER + INTRA:          -3.840
REMARK INTER:                  -3.840
REMARK INTRA:                   0.000
REMARK UNBOUND:                 0.000
REMARK SMILES Cc1ccccc1O
REMARK SMILES IDX 1 1 2 2 3 3 4 4 5 5 6 6 7 7 8 8
REMARK H PARENT 8 9
REMARK Flexibility Score: inf
ROOT
ATOM      1  C   UNL     1    -104.242  -3.485  47.370  1.00  0.00     0.048 C 
ATOM      2  C   UNL     1    -102.792  -3.103  47.486  1.00  0.00    -0.009 A 
ATOM      3  C   UNL     1    -101.957  -3.144  46.357  1.00  0.00     0.007 A 
ATOM      4  C   UNL     1    -100.609  -2.789  46.464  1.00  0.00     0.001 A 
ATOM      5  C   UNL     1    -100.085  -2.393  47.697  1.00  0.00     0.004 A 
ATOM      6  C   UNL     1    -100.907  -2.350  48.824  1.00  0.00     0.046 A 
ATOM      7  C   UNL     1    -102.262  -2.703  48.727  1.00  0.00     0.118 A 
ENDROOT
BRANCH   7   8
ATOM      8  O   UNL     1    -103.079  -2.658  49.856  1.00  0.00    -0.508 OA
ATOM      9  H   UNL     1    -103.508  -3.494  50.234  1.00  0.00     0.293 HD
ENDBRANCH   7   8
TORSDOF 1
ENDMDL
MODEL 6
REMARK VINA RESULT:    -3.681      1.397      2.281
REMARK INTER + INTRA:          -3.788
REMARK INTER:                  -3.788
REMARK INTRA:                   0.000
REMARK UNBOUND:                 0.000
REMARK SMILES Cc1ccccc1O
REMARK SMILES IDX 1 1 2 2 3 3 4 4 5 5 6 6 7 7 8 8
REMARK H PARENT 8 9
REMARK Flexibility Score: inf
ROOT
ATOM      1  C   UNL     1    -106.644 -12.851  54.201  1.00  0.00     0.048 C 
ATOM      2  C   UNL     1    -107.681 -13.875  53.838  1.00  0.00    -0.009 A 
ATOM      3  C   UNL     1    -108.721 -14.179  54.733  1.00  0.00     0.007 A 
ATOM      4  C   UNL     1    -109.686 -15.132  54.396  1.00  0.00     0.001 A 
ATOM      5  C   UNL     1    -109.622 -15.789  53.164  1.00  0.00     0.004 A 
ATOM      6  C   UNL     1    -108.593 -15.494  52.268  1.00  0.00     0.046 A 
ATOM      7  C   UNL     1    -107.619 -14.538  52.597  1.00  0.00     0.118 A 
ENDROOT
BRANCH   7   8
ATOM      8  O   UNL     1    -106.593 -14.247  51.699  1.00  0.00    -0.508 OA
ATOM      9  H   UNL     1    -106.682 -14.448  50.710  1.00  0.00     0.293 HD
ENDBRANCH   7   8
TORSDOF 1
ENDMDL
MODEL 7
REMARK VINA RESULT:    -3.592      2.138      2.548
REMARK INTER + INTRA:          -3.697
REMARK INTER:                  -3.697
REMARK INTRA:                   0.000
REMARK UNBOUND:                 0.000
REMARK SMILES Cc1ccccc1O
REMARK SMILES IDX 1 1 2 2 3 3 4 4 5 5 6 6 7 7 8 8
REMARK H PARENT 8 9
REMARK Flexibility Score: inf
ROOT
ATOM      1  C   UNL     1    -108.506 -15.102  52.621  1.00  0.00     0.048 C 
ATOM      2  C   UNL     1    -109.275 -14.002  53.298  1.00  0.00    -0.009 A 
ATOM      3  C   UNL     1    -110.417 -13.457  52.687  1.00  0.00     0.007 A 
ATOM      4  C   UNL     1    -111.133 -12.434  53.316  1.00  0.00     0.001 A 
ATOM      5  C   UNL     1    -110.716 -11.948  54.558  1.00  0.00     0.004 A 
ATOM      6  C   UNL     1    -109.582 -12.484  55.172  1.00  0.00     0.046 A 
ATOM      7  C   UNL     1    -108.857 -13.511  54.549  1.00  0.00     0.118 A 
ENDROOT
BRANCH   7   8
ATOM      8  O   UNL     1    -107.726 -14.043  55.167  1.00  0.00    -0.508 OA
ATOM      9  H   UNL     1    -106.972 -14.454  54.630  1.00  0.00     0.293 HD
ENDBRANCH   7   8
TORSDOF 1
ENDMDL
MODEL 8
REMARK VINA RESULT:    -3.540      1.077      2.443
REMARK INTER + INTRA:          -3.643
REMARK INTER:                  -3.643
REMARK INTRA:                   0.000
REMARK UNBOUND:                 0.000
REMARK SMILES Cc1ccccc1O
REMARK SMILES IDX 1 1 2 2 3 3 4 4 5 5 6 6 7 7 8 8
REMARK H PARENT 8 9
REMARK Flexibility Score: inf
ROOT
ATOM      1  C   UNL     1    -109.617 -12.138  55.293  1.00  0.00     0.048 C 
ATOM      2  C   UNL     1    -109.171 -13.163  54.289  1.00  0.00    -0.009 A 
ATOM      3  C   UNL     1    -110.092 -14.082  53.758  1.00  0.00     0.007 A 
ATOM      4  C   UNL     1    -109.678 -15.037  52.825  1.00  0.00     0.001 A 
ATOM      5  C   UNL     1    -108.343 -15.081  52.414  1.00  0.00     0.004 A 
ATOM      6  C   UNL     1    -107.420 -14.172  52.936  1.00  0.00     0.046 A 
ATOM      7  C   UNL     1    -107.827 -13.210  53.874  1.00  0.00     0.118 A 
ENDROOT
BRANCH   7   8
ATOM      8  O   UNL     1    -106.902 -12.305  54.392  1.00  0.00    -0.508 OA
ATOM      9  H   UNL     1    -107.097 -11.767  55.227  1.00  0.00     0.293 HD
ENDBRANCH   7   8
TORSDOF 1
ENDMDL
MODEL 9
REMARK VINA RESULT:    -3.373     12.768     13.909
REMARK INTER + INTRA:          -3.472
REMARK INTER:                  -3.472
REMARK INTRA:                   0.000
REMARK UNBOUND:                 0.000
REMARK SMILES Cc1ccccc1O
REMARK SMILES IDX 1 1 2 2 3 3 4 4 5 5 6 6 7 7 8 8
REMARK H PARENT 8 9
REMARK Flexibility Score: inf
ROOT
ATOM      1  C   UNL     1    -100.313  -1.960  48.026  1.00  0.00     0.048 C 
ATOM      2  C   UNL     1    -101.468  -2.732  47.453  1.00  0.00    -0.009 A 
ATOM      3  C   UNL     1    -101.470  -3.100  46.097  1.00  0.00     0.007 A 
ATOM      4  C   UNL     1    -102.544  -3.818  45.563  1.00  0.00     0.001 A 
ATOM      5  C   UNL     1    -103.624  -4.173  46.376  1.00  0.00     0.004 A 
ATOM      6  C   UNL     1    -103.631  -3.811  47.725  1.00  0.00     0.046 A 
ATOM      7  C   UNL     1    -102.557  -3.090  48.270  1.00  0.00     0.118 A 
ENDROOT
BRANCH   7   8
ATOM      8  O   UNL     1    -102.569  -2.731  49.617  1.00  0.00    -0.508 OA
ATOM      9  H   UNL     1    -103.239  -3.127  50.266  1.00  0.00     0.293 HD
ENDBRANCH   7   8
TORSDOF 1
ENDMDL
