MODEL 1
REMARK VINA RESULT:    -6.826      0.000      0.000
REMARK INTER + INTRA:          -8.444
REMARK INTER:                  -8.222
REMARK INTRA:                  -0.221
REMARK UNBOUND:                -0.221
REMARK SMILES O=c1c(O)c(-c2ccc(O)c(O)c2)oc2cc(O)cc(O)c12
REMARK SMILES IDX 5 1 3 2 2 3 1 4 22 5 20 6 19 7 17 8 16 9 15 10 14 11 6 12
REMARK SMILES IDX 7 13 8 14 9 15 13 16 11 17 10 18 12 20 4 22 21 24 18 26
REMARK H PARENT 10 19 12 21 4 23 21 25 18 27
REMARK Flexibility Score: inf
ROOT
ATOM      1  C   UNL     1     -19.387  31.671  -3.079  1.00  0.00     0.180 A 
ATOM      2  C   UNL     1     -18.388  31.026  -2.328  1.00  0.00     0.208 A 
ATOM      3  C   UNL     1     -17.174  30.696  -2.952  1.00  0.00     0.238 A 
ATOM      4  O   UNL     1     -16.264  30.167  -2.261  1.00  0.00    -0.285 OA
ATOM      5  C   UNL     1     -16.979  31.001  -4.320  1.00  0.00     0.111 A 
ATOM      6  C   UNL     1     -15.804  30.677  -5.063  1.00  0.00     0.134 A 
ATOM      7  C   UNL     1     -15.668  31.143  -6.376  1.00  0.00     0.093 A 
ATOM      8  C   UNL     1     -16.691  31.866  -6.995  1.00  0.00     0.123 A 
ATOM      9  C   UNL     1     -17.866  32.135  -6.297  1.00  0.00     0.094 A 
ATOM     10  C   UNL     1     -18.017  31.715  -4.974  1.00  0.00     0.146 A 
ATOM     11  O   UNL     1     -19.149  32.003  -4.342  1.00  0.00    -0.452 OA
ENDROOT
BRANCH   1  12
ATOM     12  C   UNL     1     -20.702  32.028  -2.499  1.00  0.00     0.025 A 
ATOM     13  C   UNL     1     -21.038  33.362  -2.212  1.00  0.00     0.016 A 
ATOM     14  C   UNL     1     -22.275  33.673  -1.641  1.00  0.00     0.051 A 
ATOM     15  C   UNL     1     -23.190  32.655  -1.338  1.00  0.00     0.157 A 
ATOM     16  C   UNL     1     -21.613  31.010  -2.173  1.00  0.00     0.062 A 
ATOM     17  C   UNL     1     -22.854  31.317  -1.604  1.00  0.00     0.158 A 
BRANCH  15  18
ATOM     18  O   UNL     1     -24.424  32.968  -0.773  1.00  0.00    -0.504 OA
ATOM     19  H   UNL     1     -24.519  33.174   0.215  1.00  0.00     0.293 HD
ENDBRANCH  15  18
BRANCH  17  20
ATOM     20  O   UNL     1     -23.738  30.280  -1.307  1.00  0.00    -0.504 OA
ATOM     21  H   UNL     1     -23.990  30.045  -0.355  1.00  0.00     0.293 HD
ENDBRANCH  17  20
ENDBRANCH   1  12
BRANCH   2  22
ATOM     22  O   UNL     1     -18.594  30.753  -0.973  1.00  0.00    -0.502 OA
ATOM     23  H   UNL     1     -18.831  31.475  -0.303  1.00  0.00     0.293 HD
ENDBRANCH   2  22
BRANCH   6  24
ATOM     24  O   UNL     1     -14.764  29.884  -4.570  1.00  0.00    -0.507 OA
ATOM     25  H   UNL     1     -13.790  30.146  -4.572  1.00  0.00     0.293 HD
ENDBRANCH   6  24
BRANCH   8  26
ATOM     26  O   UNL     1     -16.553  32.312  -8.307  1.00  0.00    -0.508 OA
ATOM     27  H   UNL     1     -16.542  31.667  -9.089  1.00  0.00     0.293 HD
ENDBRANCH   8  26
TORSDOF 6
ENDMDL
MODEL 2
REMARK VINA RESULT:    -6.635      1.638      7.121
REMARK INTER + INTRA:          -8.214
REMARK INTER:                  -7.947
REMARK INTRA:                  -0.267
REMARK UNBOUND:                -0.221
REMARK SMILES O=c1c(O)c(-c2ccc(O)c(O)c2)oc2cc(O)cc(O)c12
REMARK SMILES IDX 5 1 3 2 2 3 1 4 22 5 20 6 19 7 17 8 16 9 15 10 14 11 6 12
REMARK SMILES IDX 7 13 8 14 9 15 13 16 11 17 10 18 12 20 4 22 21 24 18 26
REMARK H PARENT 10 19 12 21 4 23 21 25 18 27
REMARK Flexibility Score: inf
ROOT
ATOM      1  C   UNL     1     -20.019  31.050  -3.410  1.00  0.00     0.180 A 
ATOM      2  C   UNL     1     -20.928  30.070  -3.845  1.00  0.00     0.208 A 
ATOM      3  C   UNL     1     -22.282  30.196  -3.497  1.00  0.00     0.238 A 
ATOM      4  O   UNL     1     -23.100  29.344  -3.934  1.00  0.00    -0.285 OA
ATOM      5  C   UNL     1     -22.708  31.289  -2.706  1.00  0.00     0.111 A 
ATOM      6  C   UNL     1     -24.049  31.495  -2.262  1.00  0.00     0.134 A 
ATOM      7  C   UNL     1     -24.381  32.680  -1.594  1.00  0.00     0.093 A 
ATOM      8  C   UNL     1     -23.408  33.638  -1.299  1.00  0.00     0.123 A 
ATOM      9  C   UNL     1     -22.085  33.419  -1.677  1.00  0.00     0.094 A 
ATOM     10  C   UNL     1     -21.730  32.263  -2.375  1.00  0.00     0.146 A 
ATOM     11  O   UNL     1     -20.460  32.098  -2.726  1.00  0.00    -0.452 OA
ENDROOT
BRANCH   1  12
ATOM     12  C   UNL     1     -18.572  30.974  -3.716  1.00  0.00     0.025 A 
ATOM     13  C   UNL     1     -17.735  30.049  -3.067  1.00  0.00     0.016 A 
ATOM     14  C   UNL     1     -16.367  30.011  -3.353  1.00  0.00     0.051 A 
ATOM     15  C   UNL     1     -15.814  30.903  -4.281  1.00  0.00     0.157 A 
ATOM     16  C   UNL     1     -18.008  31.880  -4.628  1.00  0.00     0.062 A 
ATOM     17  C   UNL     1     -16.639  31.844  -4.919  1.00  0.00     0.158 A 
BRANCH  15  18
ATOM     18  O   UNL     1     -14.450  30.861  -4.566  1.00  0.00    -0.504 OA
ATOM     19  H   UNL     1     -13.904  30.019  -4.426  1.00  0.00     0.293 HD
ENDBRANCH  15  18
BRANCH  17  20
ATOM     20  O   UNL     1     -16.119  32.751  -5.841  1.00  0.00    -0.504 OA
ATOM     21  H   UNL     1     -15.902  32.485  -6.793  1.00  0.00     0.293 HD
ENDBRANCH  17  20
ENDBRANCH   1  12
BRANCH   2  22
ATOM     22  O   UNL     1     -20.490  29.009  -4.643  1.00  0.00    -0.502 OA
ATOM     23  H   UNL     1     -20.912  28.090  -4.606  1.00  0.00     0.293 HD
ENDBRANCH   2  22
BRANCH   6  24
ATOM     24  O   UNL     1     -25.076  30.560  -2.424  1.00  0.00    -0.507 OA
ATOM     25  H   UNL     1     -25.146  29.910  -3.192  1.00  0.00     0.293 HD
ENDBRANCH   6  24
BRANCH   8  26
ATOM     26  O   UNL     1     -23.744  34.807  -0.621  1.00  0.00    -0.508 OA
ATOM     27  H   UNL     1     -23.148  35.626  -0.648  1.00  0.00     0.293 HD
ENDBRANCH   8  26
TORSDOF 6
ENDMDL
MODEL 3
REMARK VINA RESULT:    -6.577      1.754      6.941
REMARK INTER + INTRA:          -8.145
REMARK INTER:                  -7.855
REMARK INTRA:                  -0.289
REMARK UNBOUND:                -0.221
REMARK SMILES O=c1c(O)c(-c2ccc(O)c(O)c2)oc2cc(O)cc(O)c12
REMARK SMILES IDX 5 1 3 2 2 3 1 4 22 5 20 6 19 7 17 8 16 9 15 10 14 11 6 12
REMARK SMILES IDX 7 13 8 14 9 15 13 16 11 17 10 18 12 20 4 22 21 24 18 26
REMARK H PARENT 10 19 12 21 4 23 21 25 18 27
REMARK Flexibility Score: inf
ROOT
ATOM      1  C   UNL     1     -19.559  31.555  -4.080  1.00  0.00     0.180 A 
ATOM      2  C   UNL     1     -20.148  30.283  -3.972  1.00  0.00     0.208 A 
ATOM      3  C   UNL     1     -21.298  30.130  -3.182  1.00  0.00     0.238 A 
ATOM      4  O   UNL     1     -21.852  29.000  -3.133  1.00  0.00    -0.285 OA
ATOM      5  C   UNL     1     -21.836  31.245  -2.496  1.00  0.00     0.111 A 
ATOM      6  C   UNL     1     -22.974  31.196  -1.636  1.00  0.00     0.134 A 
ATOM      7  C   UNL     1     -23.495  32.386  -1.114  1.00  0.00     0.093 A 
ATOM      8  C   UNL     1     -22.882  33.615  -1.368  1.00  0.00     0.123 A 
ATOM      9  C   UNL     1     -21.736  33.665  -2.157  1.00  0.00     0.094 A 
ATOM     10  C   UNL     1     -21.212  32.500  -2.722  1.00  0.00     0.146 A 
ATOM     11  O   UNL     1     -20.125  32.594  -3.478  1.00  0.00    -0.452 OA
ENDROOT
BRANCH   1  12
ATOM     12  C   UNL     1     -18.332  31.791  -4.874  1.00  0.00     0.025 A 
ATOM     13  C   UNL     1     -17.076  31.928  -4.256  1.00  0.00     0.016 A 
ATOM     14  C   UNL     1     -15.934  32.174  -5.024  1.00  0.00     0.051 A 
ATOM     15  C   UNL     1     -16.031  32.300  -6.416  1.00  0.00     0.157 A 
ATOM     16  C   UNL     1     -18.427  31.939  -6.267  1.00  0.00     0.062 A 
ATOM     17  C   UNL     1     -17.285  32.184  -7.039  1.00  0.00     0.158 A 
BRANCH  15  18
ATOM     18  O   UNL     1     -14.890  32.542  -7.179  1.00  0.00    -0.504 OA
ATOM     19  H   UNL     1     -14.111  31.894  -7.190  1.00  0.00     0.293 HD
ENDBRANCH  15  18
BRANCH  17  20
ATOM     20  O   UNL     1     -17.417  32.311  -8.421  1.00  0.00    -0.504 OA
ATOM     21  H   UNL     1     -18.167  32.847  -8.842  1.00  0.00     0.293 HD
ENDBRANCH  17  20
ENDBRANCH   1  12
BRANCH   2  22
ATOM     22  O   UNL     1     -19.613  29.199  -4.675  1.00  0.00    -0.502 OA
ATOM     23  H   UNL     1     -18.634  28.949  -4.625  1.00  0.00     0.293 HD
ENDBRANCH   2  22
BRANCH   6  24
ATOM     24  O   UNL     1     -23.606  30.012  -1.245  1.00  0.00    -0.507 OA
ATOM     25  H   UNL     1     -24.028  29.350  -1.877  1.00  0.00     0.293 HD
ENDBRANCH   6  24
BRANCH   8  26
ATOM     26  O   UNL     1     -23.399  34.792  -0.831  1.00  0.00    -0.508 OA
ATOM     27  H   UNL     1     -23.971  35.420  -1.384  1.00  0.00     0.293 HD
ENDBRANCH   8  26
TORSDOF 6
ENDMDL
MODEL 4
REMARK VINA RESULT:    -6.471      2.025      3.552
REMARK INTER + INTRA:          -8.016
REMARK INTER:                  -7.707
REMARK INTRA:                  -0.309
REMARK UNBOUND:                -0.221
REMARK SMILES O=c1c(O)c(-c2ccc(O)c(O)c2)oc2cc(O)cc(O)c12
REMARK SMILES IDX 5 1 3 2 2 3 1 4 22 5 20 6 19 7 17 8 16 9 15 10 14 11 6 12
REMARK SMILES IDX 7 13 8 14 9 15 13 16 11 17 10 18 12 20 4 22 21 24 18 26
REMARK H PARENT 10 19 12 21 4 23 21 25 18 27
REMARK Flexibility Score: inf
ROOT
ATOM      1  C   UNL     1     -19.119  31.721  -5.085  1.00  0.00     0.180 A 
ATOM      2  C   UNL     1     -19.517  31.457  -6.408  1.00  0.00     0.208 A 
ATOM      3  C   UNL     1     -18.575  31.590  -7.441  1.00  0.00     0.238 A 
ATOM      4  O   UNL     1     -18.923  31.301  -8.617  1.00  0.00    -0.285 OA
ATOM      5  C   UNL     1     -17.254  31.999  -7.142  1.00  0.00     0.111 A 
ATOM      6  C   UNL     1     -16.229  32.204  -8.115  1.00  0.00     0.134 A 
ATOM      7  C   UNL     1     -14.923  32.482  -7.693  1.00  0.00     0.093 A 
ATOM      8  C   UNL     1     -14.619  32.626  -6.337  1.00  0.00     0.123 A 
ATOM      9  C   UNL     1     -15.625  32.487  -5.384  1.00  0.00     0.094 A 
ATOM     10  C   UNL     1     -16.930  32.174  -5.771  1.00  0.00     0.146 A 
ATOM     11  O   UNL     1     -17.856  32.038  -4.830  1.00  0.00    -0.452 OA
ENDROOT
BRANCH   1  12
ATOM     12  C   UNL     1     -20.060  31.627  -3.946  1.00  0.00     0.025 A 
ATOM     13  C   UNL     1     -20.156  30.460  -3.169  1.00  0.00     0.016 A 
ATOM     14  C   UNL     1     -21.069  30.385  -2.114  1.00  0.00     0.051 A 
ATOM     15  C   UNL     1     -21.909  31.470  -1.828  1.00  0.00     0.157 A 
ATOM     16  C   UNL     1     -20.920  32.703  -3.669  1.00  0.00     0.062 A 
ATOM     17  C   UNL     1     -21.834  32.633  -2.612  1.00  0.00     0.158 A 
BRANCH  15  18
ATOM     18  O   UNL     1     -22.817  31.394  -0.773  1.00  0.00    -0.504 OA
ATOM     19  H   UNL     1     -22.926  32.153  -0.111  1.00  0.00     0.293 HD
ENDBRANCH  15  18
BRANCH  17  20
ATOM     20  O   UNL     1     -22.661  33.727  -2.359  1.00  0.00    -0.504 OA
ATOM     21  H   UNL     1     -23.086  34.264  -3.105  1.00  0.00     0.293 HD
ENDBRANCH  17  20
ENDBRANCH   1  12
BRANCH   2  22
ATOM     22  O   UNL     1     -20.821  31.034  -6.679  1.00  0.00    -0.502 OA
ATOM     23  H   UNL     1     -21.447  31.552  -7.284  1.00  0.00     0.293 HD
ENDBRANCH   2  22
BRANCH   6  24
ATOM     24  O   UNL     1     -16.447  32.174  -9.495  1.00  0.00    -0.507 OA
ATOM     25  H   UNL     1     -17.061  31.528  -9.966  1.00  0.00     0.293 HD
ENDBRANCH   6  24
BRANCH   8  26
ATOM     26  O   UNL     1     -13.320  32.918  -5.927  1.00  0.00    -0.508 OA
ATOM     27  H   UNL     1     -13.118  33.707  -5.324  1.00  0.00     0.293 HD
ENDBRANCH   8  26
TORSDOF 6
ENDMDL
MODEL 5
REMARK VINA RESULT:    -6.417      2.533      7.391
REMARK INTER + INTRA:          -7.951
REMARK INTER:                  -7.755
REMARK INTRA:                  -0.196
REMARK UNBOUND:                -0.221
REMARK SMILES O=c1c(O)c(-c2ccc(O)c(O)c2)oc2cc(O)cc(O)c12
REMARK SMILES IDX 5 1 3 2 2 3 1 4 22 5 20 6 19 7 17 8 16 9 15 10 14 11 6 12
REMARK SMILES IDX 7 13 8 14 9 15 13 16 11 17 10 18 12 20 4 22 21 24 18 26
REMARK H PARENT 10 19 12 21 4 23 21 25 18 27
REMARK Flexibility Score: inf
ROOT
ATOM      1  C   UNL     1     -21.486  30.849  -2.741  1.00  0.00     0.180 A 
ATOM      2  C   UNL     1     -22.617  31.649  -2.498  1.00  0.00     0.208 A 
ATOM      3  C   UNL     1     -23.789  31.044  -2.018  1.00  0.00     0.238 A 
ATOM      4  O   UNL     1     -24.780  31.773  -1.751  1.00  0.00    -0.285 OA
ATOM      5  C   UNL     1     -23.822  29.646  -1.802  1.00  0.00     0.111 A 
ATOM      6  C   UNL     1     -24.968  28.922  -1.354  1.00  0.00     0.134 A 
ATOM      7  C   UNL     1     -24.849  27.560  -1.050  1.00  0.00     0.093 A 
ATOM      8  C   UNL     1     -23.642  26.882  -1.238  1.00  0.00     0.123 A 
ATOM      9  C   UNL     1     -22.534  27.568  -1.730  1.00  0.00     0.094 A 
ATOM     10  C   UNL     1     -22.612  28.934  -2.009  1.00  0.00     0.146 A 
ATOM     11  O   UNL     1     -21.529  29.551  -2.466  1.00  0.00    -0.452 OA
ENDROOT
BRANCH   1  12
ATOM     12  C   UNL     1     -20.223  31.410  -3.272  1.00  0.00     0.025 A 
ATOM     13  C   UNL     1     -19.067  31.492  -2.475  1.00  0.00     0.016 A 
ATOM     14  C   UNL     1     -17.892  32.048  -2.990  1.00  0.00     0.051 A 
ATOM     15  C   UNL     1     -17.858  32.541  -4.301  1.00  0.00     0.157 A 
ATOM     16  C   UNL     1     -20.189  31.925  -4.578  1.00  0.00     0.062 A 
ATOM     17  C   UNL     1     -19.014  32.481  -5.097  1.00  0.00     0.158 A 
BRANCH  15  18
ATOM     18  O   UNL     1     -16.685  33.093  -4.812  1.00  0.00    -0.504 OA
ATOM     19  H   UNL     1     -16.442  33.010  -5.792  1.00  0.00     0.293 HD
ENDBRANCH  15  18
BRANCH  17  20
ATOM     20  O   UNL     1     -19.016  32.970  -6.402  1.00  0.00    -0.504 OA
ATOM     21  H   UNL     1     -19.866  33.043  -6.948  1.00  0.00     0.293 HD
ENDBRANCH  17  20
ENDBRANCH   1  12
BRANCH   2  22
ATOM     22  O   UNL     1     -22.555  33.031  -2.698  1.00  0.00    -0.502 OA
ATOM     23  H   UNL     1     -23.346  33.641  -2.528  1.00  0.00     0.293 HD
ENDBRANCH   2  22
BRANCH   6  24
ATOM     24  O   UNL     1     -26.242  29.483  -1.222  1.00  0.00    -0.507 OA
ATOM     25  H   UNL     1     -27.095  29.055  -1.547  1.00  0.00     0.293 HD
ENDBRANCH   6  24
BRANCH   8  26
ATOM     26  O   UNL     1     -23.537  25.524  -0.947  1.00  0.00    -0.508 OA
ATOM     27  H   UNL     1     -22.643  25.093  -0.745  1.00  0.00     0.293 HD
ENDBRANCH   8  26
TORSDOF 6
ENDMDL
MODEL 6
REMARK VINA RESULT:    -6.178      2.248      7.367
REMARK INTER + INTRA:          -7.664
REMARK INTER:                  -7.541
REMARK INTRA:                  -0.123
REMARK UNBOUND:                -0.221
REMARK SMILES O=c1c(O)c(-c2ccc(O)c(O)c2)oc2cc(O)cc(O)c12
REMARK SMILES IDX 5 1 3 2 2 3 1 4 22 5 20 6 19 7 17 8 16 9 15 10 14 11 6 12
REMARK SMILES IDX 7 13 8 14 9 15 13 16 11 17 10 18 12 20 4 22 21 24 18 26
REMARK H PARENT 10 19 12 21 4 23 21 25 18 27
REMARK Flexibility Score: inf
ROOT
ATOM      1  C   UNL     1     -16.270  31.936  -5.318  1.00  0.00     0.180 A 
ATOM      2  C   UNL     1     -15.989  31.010  -4.298  1.00  0.00     0.208 A 
ATOM      3  C   UNL     1     -16.959  30.769  -3.312  1.00  0.00     0.238 A 
ATOM      4  O   UNL     1     -16.722  29.900  -2.432  1.00  0.00    -0.285 OA
ATOM      5  C   UNL     1     -18.189  31.467  -3.348  1.00  0.00     0.111 A 
ATOM      6  C   UNL     1     -19.228  31.330  -2.377  1.00  0.00     0.134 A 
ATOM      7  C   UNL     1     -20.454  31.972  -2.585  1.00  0.00     0.093 A 
ATOM      8  C   UNL     1     -20.659  32.797  -3.694  1.00  0.00     0.123 A 
ATOM      9  C   UNL     1     -19.631  32.983  -4.614  1.00  0.00     0.094 A 
ATOM     10  C   UNL     1     -18.408  32.329  -4.454  1.00  0.00     0.146 A 
ATOM     11  O   UNL     1     -17.458  32.525  -5.362  1.00  0.00    -0.452 OA
ENDROOT
BRANCH   1  12
ATOM     12  C   UNL     1     -15.289  32.263  -6.378  1.00  0.00     0.025 A 
ATOM     13  C   UNL     1     -15.551  31.980  -7.730  1.00  0.00     0.016 A 
ATOM     14  C   UNL     1     -14.600  32.274  -8.711  1.00  0.00     0.051 A 
ATOM     15  C   UNL     1     -13.370  32.843  -8.355  1.00  0.00     0.157 A 
ATOM     16  C   UNL     1     -14.046  32.812  -6.025  1.00  0.00     0.062 A 
ATOM     17  C   UNL     1     -13.092  33.110  -7.005  1.00  0.00     0.158 A 
BRANCH  15  18
ATOM     18  O   UNL     1     -12.425  33.138  -9.336  1.00  0.00    -0.504 OA
ATOM     19  H   UNL     1     -12.383  32.621 -10.207  1.00  0.00     0.293 HD
ENDBRANCH  15  18
BRANCH  17  20
ATOM     20  O   UNL     1     -11.874  33.667  -6.616  1.00  0.00    -0.504 OA
ATOM     21  H   UNL     1     -11.678  34.655  -6.721  1.00  0.00     0.293 HD
ENDBRANCH  17  20
ENDBRANCH   1  12
BRANCH   2  22
ATOM     22  O   UNL     1     -14.775  30.316  -4.293  1.00  0.00    -0.502 OA
ATOM     23  H   UNL     1     -14.459  29.769  -5.084  1.00  0.00     0.293 HD
ENDBRANCH   2  22
BRANCH   6  24
ATOM     24  O   UNL     1     -19.094  30.604  -1.190  1.00  0.00    -0.507 OA
ATOM     25  H   UNL     1     -18.461  29.831  -1.056  1.00  0.00     0.293 HD
ENDBRANCH   6  24
BRANCH   8  26
ATOM     26  O   UNL     1     -21.878  33.443  -3.883  1.00  0.00    -0.508 OA
ATOM     27  H   UNL     1     -22.760  32.968  -3.728  1.00  0.00     0.293 HD
ENDBRANCH   8  26
TORSDOF 6
ENDMDL
MODEL 7
REMARK VINA RESULT:    -6.132      1.431      2.824
REMARK INTER + INTRA:          -7.608
REMARK INTER:                  -7.331
REMARK INTRA:                  -0.277
REMARK UNBOUND:                -0.221
REMARK SMILES O=c1c(O)c(-c2ccc(O)c(O)c2)oc2cc(O)cc(O)c12
REMARK SMILES IDX 5 1 3 2 2 3 1 4 22 5 20 6 19 7 17 8 16 9 15 10 14 11 6 12
REMARK SMILES IDX 7 13 8 14 9 15 13 16 11 17 10 18 12 20 4 22 21 24 18 26
REMARK H PARENT 10 19 12 21 4 23 21 25 18 27
REMARK Flexibility Score: inf
ROOT
ATOM      1  C   UNL     1     -19.854  31.507  -4.265  1.00  0.00     0.180 A 
ATOM      2  C   UNL     1     -20.171  31.165  -5.592  1.00  0.00     0.208 A 
ATOM      3  C   UNL     1     -19.131  30.834  -6.475  1.00  0.00     0.238 A 
ATOM      4  O   UNL     1     -19.424  30.476  -7.647  1.00  0.00    -0.285 OA
ATOM      5  C   UNL     1     -17.789  30.863  -6.028  1.00  0.00     0.111 A 
ATOM      6  C   UNL     1     -16.654  30.584  -6.848  1.00  0.00     0.134 A 
ATOM      7  C   UNL     1     -15.382  30.516  -6.266  1.00  0.00     0.093 A 
ATOM      8  C   UNL     1     -15.196  30.780  -4.907  1.00  0.00     0.123 A 
ATOM      9  C   UNL     1     -16.290  31.111  -4.111  1.00  0.00     0.094 A 
ATOM     10  C   UNL     1     -17.575  31.153  -4.654  1.00  0.00     0.146 A 
ATOM     11  O   UNL     1     -18.592  31.462  -3.858  1.00  0.00    -0.452 OA
ENDROOT
BRANCH   1  12
ATOM     12  C   UNL     1     -20.892  31.893  -3.282  1.00  0.00     0.025 A 
ATOM     13  C   UNL     1     -21.085  33.235  -2.910  1.00  0.00     0.016 A 
ATOM     14  C   UNL     1     -22.054  33.573  -1.962  1.00  0.00     0.051 A 
ATOM     15  C   UNL     1     -22.836  32.576  -1.363  1.00  0.00     0.157 A 
ATOM     16  C   UNL     1     -21.663  30.896  -2.663  1.00  0.00     0.062 A 
ATOM     17  C   UNL     1     -22.637  31.231  -1.714  1.00  0.00     0.158 A 
BRANCH  15  18
ATOM     18  O   UNL     1     -23.804  32.917  -0.420  1.00  0.00    -0.504 OA
ATOM     19  H   UNL     1     -24.219  32.222   0.190  1.00  0.00     0.293 HD
ENDBRANCH  15  18
BRANCH  17  20
ATOM     20  O   UNL     1     -23.392  30.214  -1.131  1.00  0.00    -0.504 OA
ATOM     21  H   UNL     1     -23.621  30.213  -0.145  1.00  0.00     0.293 HD
ENDBRANCH  17  20
ENDBRANCH   1  12
BRANCH   2  22
ATOM     22  O   UNL     1     -21.504  31.122  -6.008  1.00  0.00    -0.502 OA
ATOM     23  H   UNL     1     -21.775  30.825  -6.937  1.00  0.00     0.293 HD
ENDBRANCH   2  22
BRANCH   6  24
ATOM     24  O   UNL     1     -16.719  30.397  -8.232  1.00  0.00    -0.507 OA
ATOM     25  H   UNL     1     -15.959  30.062  -8.803  1.00  0.00     0.293 HD
ENDBRANCH   6  24
BRANCH   8  26
ATOM     26  O   UNL     1     -13.925  30.724  -4.340  1.00  0.00    -0.508 OA
ATOM     27  H   UNL     1     -13.789  30.774  -3.337  1.00  0.00     0.293 HD
ENDBRANCH   8  26
TORSDOF 6
ENDMDL
MODEL 8
REMARK VINA RESULT:    -5.933      1.885      2.979
REMARK INTER + INTRA:          -7.369
REMARK INTER:                  -7.046
REMARK INTRA:                  -0.323
REMARK UNBOUND:                -0.221
REMARK SMILES O=c1c(O)c(-c2ccc(O)c(O)c2)oc2cc(O)cc(O)c12
REMARK SMILES IDX 5 1 3 2 2 3 1 4 22 5 20 6 19 7 17 8 16 9 15 10 14 11 6 12
REMARK SMILES IDX 7 13 8 14 9 15 13 16 11 17 10 18 12 20 4 22 21 24 18 26
REMARK H PARENT 10 19 12 21 4 23 21 25 18 27
REMARK Flexibility Score: inf
ROOT
ATOM      1  C   UNL     1     -19.047  31.719  -4.899  1.00  0.00     0.180 A 
ATOM      2  C   UNL     1     -17.713  32.109  -4.685  1.00  0.00     0.208 A 
ATOM      3  C   UNL     1     -16.840  32.180  -5.783  1.00  0.00     0.238 A 
ATOM      4  O   UNL     1     -15.662  32.582  -5.592  1.00  0.00    -0.285 OA
ATOM      5  C   UNL     1     -17.306  31.845  -7.076  1.00  0.00     0.111 A 
ATOM      6  C   UNL     1     -16.498  31.844  -8.253  1.00  0.00     0.134 A 
ATOM      7  C   UNL     1     -17.096  31.621  -9.500  1.00  0.00     0.093 A 
ATOM      8  C   UNL     1     -18.460  31.337  -9.606  1.00  0.00     0.123 A 
ATOM      9  C   UNL     1     -19.244  31.279  -8.457  1.00  0.00     0.094 A 
ATOM     10  C   UNL     1     -18.684  31.530  -7.202  1.00  0.00     0.146 A 
ATOM     11  O   UNL     1     -19.470  31.475  -6.133  1.00  0.00    -0.452 OA
ENDROOT
BRANCH   1  12
ATOM     12  C   UNL     1     -20.020  31.597  -3.790  1.00  0.00     0.025 A 
ATOM     13  C   UNL     1     -20.084  30.437  -2.997  1.00  0.00     0.016 A 
ATOM     14  C   UNL     1     -21.027  30.334  -1.971  1.00  0.00     0.051 A 
ATOM     15  C   UNL     1     -21.927  31.380  -1.730  1.00  0.00     0.157 A 
ATOM     16  C   UNL     1     -20.939  32.633  -3.558  1.00  0.00     0.062 A 
ATOM     17  C   UNL     1     -21.884  32.534  -2.530  1.00  0.00     0.158 A 
BRANCH  15  18
ATOM     18  O   UNL     1     -22.865  31.275  -0.703  1.00  0.00    -0.504 OA
ATOM     19  H   UNL     1     -23.399  30.427  -0.557  1.00  0.00     0.293 HD
ENDBRANCH  15  18
BRANCH  17  20
ATOM     20  O   UNL     1     -22.771  33.589  -2.322  1.00  0.00    -0.504 OA
ATOM     21  H   UNL     1     -22.562  34.533  -2.622  1.00  0.00     0.293 HD
ENDBRANCH  17  20
ENDBRANCH   1  12
BRANCH   2  22
ATOM     22  O   UNL     1     -17.280  32.457  -3.402  1.00  0.00    -0.502 OA
ATOM     23  H   UNL     1     -17.906  32.828  -2.699  1.00  0.00     0.293 HD
ENDBRANCH   2  22
BRANCH   6  24
ATOM     24  O   UNL     1     -15.112  32.025  -8.248  1.00  0.00    -0.507 OA
ATOM     25  H   UNL     1     -14.441  31.322  -7.976  1.00  0.00     0.293 HD
ENDBRANCH   6  24
BRANCH   8  26
ATOM     26  O   UNL     1     -19.042  31.103 -10.849  1.00  0.00    -0.508 OA
ATOM     27  H   UNL     1     -18.800  31.658 -11.661  1.00  0.00     0.293 HD
ENDBRANCH   8  26
TORSDOF 6
ENDMDL
MODEL 9
REMARK VINA RESULT:    -5.729      2.206      3.908
REMARK INTER + INTRA:          -7.122
REMARK INTER:                  -6.819
REMARK INTRA:                  -0.303
REMARK UNBOUND:                -0.221
REMARK SMILES O=c1c(O)c(-c2ccc(O)c(O)c2)oc2cc(O)cc(O)c12
REMARK SMILES IDX 5 1 3 2 2 3 1 4 22 5 20 6 19 7 17 8 16 9 15 10 14 11 6 12
REMARK SMILES IDX 7 13 8 14 9 15 13 16 11 17 10 18 12 20 4 22 21 24 18 26
REMARK H PARENT 10 19 12 21 4 23 21 25 18 27
REMARK Flexibility Score: inf
ROOT
ATOM      1  C   UNL     1     -18.197  31.903  -5.734  1.00  0.00     0.180 A 
ATOM      2  C   UNL     1     -18.075  32.201  -7.103  1.00  0.00     0.208 A 
ATOM      3  C   UNL     1     -16.824  32.052  -7.722  1.00  0.00     0.238 A 
ATOM      4  O   UNL     1     -16.733  32.269  -8.960  1.00  0.00    -0.285 OA
ATOM      5  C   UNL     1     -15.709  31.623  -6.965  1.00  0.00     0.111 A 
ATOM      6  C   UNL     1     -14.386  31.475  -7.481  1.00  0.00     0.134 A 
ATOM      7  C   UNL     1     -13.388  30.919  -6.672  1.00  0.00     0.093 A 
ATOM      8  C   UNL     1     -13.648  30.565  -5.345  1.00  0.00     0.123 A 
ATOM      9  C   UNL     1     -14.921  30.760  -4.815  1.00  0.00     0.094 A 
ATOM     10  C   UNL     1     -15.947  31.280  -5.608  1.00  0.00     0.146 A 
ATOM     11  O   UNL     1     -17.149  31.440  -5.066  1.00  0.00    -0.452 OA
ENDROOT
BRANCH   1  12
ATOM     12  C   UNL     1     -19.477  32.060  -5.005  1.00  0.00     0.025 A 
ATOM     13  C   UNL     1     -19.736  33.195  -4.218  1.00  0.00     0.016 A 
ATOM     14  C   UNL     1     -20.941  33.311  -3.519  1.00  0.00     0.051 A 
ATOM     15  C   UNL     1     -21.898  32.289  -3.585  1.00  0.00     0.157 A 
ATOM     16  C   UNL     1     -20.430  31.029  -5.051  1.00  0.00     0.062 A 
ATOM     17  C   UNL     1     -21.638  31.142  -4.353  1.00  0.00     0.158 A 
BRANCH  15  18
ATOM     18  O   UNL     1     -23.100  32.408  -2.890  1.00  0.00    -0.504 OA
ATOM     19  H   UNL     1     -23.884  31.795  -3.076  1.00  0.00     0.293 HD
ENDBRANCH  15  18
BRANCH  17  20
ATOM     20  O   UNL     1     -22.565  30.103  -4.434  1.00  0.00    -0.504 OA
ATOM     21  H   UNL     1     -22.365  29.242  -4.927  1.00  0.00     0.293 HD
ENDBRANCH  17  20
ENDBRANCH   1  12
BRANCH   2  22
ATOM     22  O   UNL     1     -19.194  32.603  -7.838  1.00  0.00    -0.502 OA
ATOM     23  H   UNL     1     -20.096  32.154  -7.744  1.00  0.00     0.293 HD
ENDBRANCH   2  22
BRANCH   6  24
ATOM     24  O   UNL     1     -13.998  31.883  -8.761  1.00  0.00    -0.507 OA
ATOM     25  H   UNL     1     -13.845  32.841  -9.037  1.00  0.00     0.293 HD
ENDBRANCH   6  24
BRANCH   8  26
ATOM     26  O   UNL     1     -12.645  30.026  -4.544  1.00  0.00    -0.508 OA
ATOM     27  H   UNL     1     -11.784  29.667  -4.941  1.00  0.00     0.293 HD
ENDBRANCH   8  26
TORSDOF 6
ENDMDL
