MODEL 1
REMARK VINA RESULT:    -7.631      0.000      0.000
REMARK INTER + INTRA:         -17.517
REMARK INTER:                 -14.546
REMARK INTRA:                  -2.972
REMARK UNBOUND:                -2.972
REMARK SMILES C[C@H]1O[C@@H](O[C@@H]2[C@H](O)[C@H](OCCc3ccc(O)c(O)c3)O[C@H](CO)[C@@H]2OC(=O)C=Cc2ccc(O)c(O)c2)[C@@H](O)[C@@H](O)[C@H]1O
REMARK SMILES IDX 6 1 7 2 9 3 21 4 22 5 25 6 5 7 4 8 1 9 2 10 43 11 3 12 41 13
REMARK SMILES IDX 39 14 44 15 42 17 40 19 8 21 26 23 27 24 28 25 29 26 30 27
REMARK SMILES IDX 31 28 38 29 32 30 36 31 33 32 34 33 37 34 35 36 10 38 11 39
REMARK SMILES IDX 12 40 13 41 20 42 14 43 18 44 15 45 16 46 19 47 17 49 23 51
REMARK SMILES IDX 24 52
REMARK H PARENT 44 16 42 18 40 20 8 22 37 35 35 37 19 48 17 50 24 53
REMARK Flexibility Score: inf
ROOT
ATOM      1  C   UNL     1      15.756  24.169  43.931  1.00  0.00     0.199 C 
ATOM      2  C   UNL     1      15.864  24.784  42.522  1.00  0.00     0.203 C 
ATOM      3  C   UNL     1      17.041  25.782  42.426  1.00  0.00     0.282 C 
ATOM      4  O   UNL     1      16.971  26.817  43.409  1.00  0.00    -0.340 OA
ATOM      5  C   UNL     1      16.822  26.350  44.750  1.00  0.00     0.190 C 
ATOM      6  C   UNL     1      15.640  25.374  44.905  1.00  0.00     0.240 C 
ENDROOT
BRANCH   1   7
ATOM      7  O   UNL     1      16.880  23.338  44.146  1.00  0.00    -0.340 OA
BRANCH   7   8
ATOM      8  C   UNL     1      16.543  21.959  44.207  1.00  0.00     0.282 C 
ATOM      9  C   UNL     1      13.397  20.493  42.991  1.00  0.00     0.041 C 
ATOM     10  C   UNL     1      14.691  20.542  43.832  1.00  0.00     0.150 C 
ATOM     11  C   UNL     1      14.478  20.172  45.338  1.00  0.00     0.174 C 
ATOM     12  O   UNL     1      15.231  21.839  43.697  1.00  0.00    -0.344 OA
ATOM     13  C   UNL     1      15.235  21.157  46.259  1.00  0.00     0.179 C 
ATOM     14  C   UNL     1      16.623  21.458  45.683  1.00  0.00     0.202 C 
BRANCH  11  15
ATOM     15  O   UNL     1      13.120  20.162  45.684  1.00  0.00    -0.388 OA
ATOM     16  H   UNL     1      13.054  20.059  46.678  1.00  0.00     0.211 HD
ENDBRANCH  11  15
BRANCH  13  17
ATOM     17  O   UNL     1      14.510  22.359  46.384  1.00  0.00    -0.387 OA
ATOM     18  H   UNL     1      15.126  23.102  46.107  1.00  0.00     0.211 HD
ENDBRANCH  13  17
BRANCH  14  19
ATOM     19  O   UNL     1      17.254  22.410  46.510  1.00  0.00    -0.385 OA
ATOM     20  H   UNL     1      16.552  23.045  46.817  1.00  0.00     0.211 HD
ENDBRANCH  14  19
ENDBRANCH   7   8
ENDBRANCH   1   7
BRANCH   2  21
ATOM     21  O   UNL     1      15.995  23.798  41.526  1.00  0.00    -0.385 OA
ATOM     22  H   UNL     1      15.322  23.991  40.827  1.00  0.00     0.211 HD
ENDBRANCH   2  21
BRANCH   6  23
ATOM     23  O   UNL     1      15.438  24.997  46.264  1.00  0.00    -0.453 OA
BRANCH  23  24
ATOM     24  C   UNL     1      14.684  25.778  47.144  1.00  0.00     0.331 C 
ATOM     25  O   UNL     1      13.442  25.924  46.963  1.00  0.00    -0.247 OA
BRANCH  24  26
ATOM     26  C   UNL     1      15.343  26.476  48.253  1.00  0.00     0.094 C 
ATOM     27  C   UNL     1      15.077  26.127  49.517  1.00  0.00     0.016 C 
BRANCH  27  28
ATOM     28  C   UNL     1      15.625  26.855  50.675  1.00  0.00    -0.021 A 
ATOM     29  C   UNL     1      15.909  28.236  50.613  1.00  0.00     0.058 A 
ATOM     30  C   UNL     1      15.934  26.146  51.843  1.00  0.00     0.012 A 
ATOM     31  C   UNL     1      16.491  28.884  51.710  1.00  0.00     0.157 A 
ATOM     32  C   UNL     1      16.479  26.800  52.949  1.00  0.00     0.051 A 
ATOM     33  C   UNL     1      16.759  28.167  52.890  1.00  0.00     0.157 A 
BRANCH  31  34
ATOM     34  O   UNL     1      16.796  30.242  51.654  1.00  0.00    -0.504 OA
ATOM     35  H   UNL     1      17.616  30.585  51.163  1.00  0.00     0.293 HD
ENDBRANCH  31  34
BRANCH  33  36
ATOM     36  O   UNL     1      17.296  28.816  53.999  1.00  0.00    -0.504 OA
ATOM     37  H   UNL     1      16.856  28.757  54.903  1.00  0.00     0.293 HD
ENDBRANCH  33  36
ENDBRANCH  27  28
ENDBRANCH  24  26
ENDBRANCH  23  24
ENDBRANCH   6  23
BRANCH   3  38
ATOM     38  O   UNL     1      18.277  25.105  42.486  1.00  0.00    -0.350 OA
BRANCH  38  39
ATOM     39  C   UNL     1      19.213  25.621  41.548  1.00  0.00     0.168 C 
BRANCH  39  40
ATOM     40  C   UNL     1      18.651  25.487  40.129  1.00  0.00     0.064 C 
BRANCH  40  41
ATOM     41  C   UNL     1      19.260  24.294  39.435  1.00  0.00    -0.042 A 
ATOM     42  C   UNL     1      20.130  23.434  40.129  1.00  0.00     0.054 A 
ATOM     43  C   UNL     1      18.844  23.963  38.136  1.00  0.00     0.008 A 
ATOM     44  C   UNL     1      20.540  22.230  39.553  1.00  0.00     0.157 A 
ATOM     45  C   UNL     1      19.280  22.776  37.549  1.00  0.00     0.050 A 
ATOM     46  C   UNL     1      20.117  21.897  38.248  1.00  0.00     0.157 A 
BRANCH  44  47
ATOM     47  O   UNL     1      21.331  21.353  40.292  1.00  0.00    -0.504 OA
ATOM     48  H   UNL     1      20.900  20.777  41.002  1.00  0.00     0.293 HD
ENDBRANCH  44  47
BRANCH  46  49
ATOM     49  O   UNL     1      20.518  20.717  37.625  1.00  0.00    -0.504 OA
ATOM     50  H   UNL     1      19.874  19.962  37.430  1.00  0.00     0.293 HD
ENDBRANCH  46  49
ENDBRANCH  40  41
ENDBRANCH  39  40
ENDBRANCH  38  39
ENDBRANCH   3  38
BRANCH   5  51
ATOM     51  C   UNL     1      18.166  25.908  45.382  1.00  0.00     0.192 C 
BRANCH  51  52
ATOM     52  O   UNL     1      19.184  26.780  44.987  1.00  0.00    -0.394 OA
ATOM     53  H   UNL     1      18.924  27.127  44.099  1.00  0.00     0.210 HD
ENDBRANCH  51  52
ENDBRANCH   5  51
TORSDOF 20
ENDMDL
MODEL 2
REMARK VINA RESULT:    -7.429      1.067      1.197
REMARK INTER + INTRA:         -17.133
REMARK INTER:                 -13.920
REMARK INTRA:                  -3.214
REMARK UNBOUND:                -2.972
REMARK SMILES C[C@H]1O[C@@H](O[C@@H]2[C@H](O)[C@H](OCCc3ccc(O)c(O)c3)O[C@H](CO)[C@@H]2OC(=O)C=Cc2ccc(O)c(O)c2)[C@@H](O)[C@@H](O)[C@H]1O
REMARK SMILES IDX 6 1 7 2 9 3 21 4 22 5 25 6 5 7 4 8 1 9 2 10 43 11 3 12 41 13
REMARK SMILES IDX 39 14 44 15 42 17 40 19 8 21 26 23 27 24 28 25 29 26 30 27
REMARK SMILES IDX 31 28 38 29 32 30 36 31 33 32 34 33 37 34 35 36 10 38 11 39
REMARK SMILES IDX 12 40 13 41 20 42 14 43 18 44 15 45 16 46 19 47 17 49 23 51
REMARK SMILES IDX 24 52
REMARK H PARENT 44 16 42 18 40 20 8 22 37 35 35 37 19 48 17 50 24 53
REMARK Flexibility Score: inf
ROOT
ATOM      1  C   UNL     1      15.167  23.921  42.935  1.00  0.00     0.199 C 
ATOM      2  C   UNL     1      15.472  24.757  41.677  1.00  0.00     0.203 C 
ATOM      3  C   UNL     1      16.704  25.669  41.884  1.00  0.00     0.282 C 
ATOM      4  O   UNL     1      16.575  26.524  43.022  1.00  0.00    -0.340 OA
ATOM      5  C   UNL     1      16.245  25.848  44.236  1.00  0.00     0.190 C 
ATOM      6  C   UNL     1      15.003  24.948  44.089  1.00  0.00     0.240 C 
ENDROOT
BRANCH   1   7
ATOM      7  O   UNL     1      16.213  22.986  43.117  1.00  0.00    -0.340 OA
BRANCH   7   8
ATOM      8  C   UNL     1      15.753  21.642  43.141  1.00  0.00     0.282 C 
ATOM      9  C   UNL     1      12.241  20.613  43.504  1.00  0.00     0.041 C 
ATOM     10  C   UNL     1      13.772  20.426  43.563  1.00  0.00     0.150 C 
ATOM     11  C   UNL     1      14.277  19.776  44.895  1.00  0.00     0.174 C 
ATOM     12  O   UNL     1      14.358  21.695  43.361  1.00  0.00    -0.344 OA
ATOM     13  C   UNL     1      15.523  20.519  45.432  1.00  0.00     0.179 C 
ATOM     14  C   UNL     1      16.475  20.855  44.279  1.00  0.00     0.202 C 
BRANCH  11  15
ATOM     15  O   UNL     1      13.279  19.769  45.880  1.00  0.00    -0.388 OA
ATOM     16  H   UNL     1      13.341  20.628  46.390  1.00  0.00     0.211 HD
ENDBRANCH  11  15
BRANCH  13  17
ATOM     17  O   UNL     1      15.137  21.708  46.081  1.00  0.00    -0.387 OA
ATOM     18  H   UNL     1      15.584  21.710  46.979  1.00  0.00     0.211 HD
ENDBRANCH  13  17
BRANCH  14  19
ATOM     19  O   UNL     1      17.562  21.589  44.796  1.00  0.00    -0.385 OA
ATOM     20  H   UNL     1      17.560  22.475  44.344  1.00  0.00     0.211 HD
ENDBRANCH  14  19
ENDBRANCH   7   8
ENDBRANCH   1   7
BRANCH   2  21
ATOM     21  O   UNL     1      15.667  23.949  40.541  1.00  0.00    -0.385 OA
ATOM     22  H   UNL     1      16.311  24.415  39.952  1.00  0.00     0.211 HD
ENDBRANCH   2  21
BRANCH   6  23
ATOM     23  O   UNL     1      14.624  24.360  45.331  1.00  0.00    -0.453 OA
BRANCH  23  24
ATOM     24  C   UNL     1      13.771  25.011  46.227  1.00  0.00     0.331 C 
ATOM     25  O   UNL     1      12.518  24.882  46.125  1.00  0.00    -0.247 OA
BRANCH  24  26
ATOM     26  C   UNL     1      14.328  25.892  47.258  1.00  0.00     0.094 C 
ATOM     27  C   UNL     1      14.723  25.384  48.432  1.00  0.00     0.016 C 
BRANCH  27  28
ATOM     28  C   UNL     1      15.194  26.227  49.546  1.00  0.00    -0.021 A 
ATOM     29  C   UNL     1      15.523  27.586  49.356  1.00  0.00     0.058 A 
ATOM     30  C   UNL     1      15.381  25.648  50.807  1.00  0.00     0.012 A 
ATOM     31  C   UNL     1      16.030  28.341  50.422  1.00  0.00     0.157 A 
ATOM     32  C   UNL     1      15.850  26.411  51.877  1.00  0.00     0.051 A 
ATOM     33  C   UNL     1      16.175  27.757  51.693  1.00  0.00     0.157 A 
BRANCH  31  34
ATOM     34  O   UNL     1      16.379  29.678  50.242  1.00  0.00    -0.504 OA
ATOM     35  H   UNL     1      16.615  30.049  49.327  1.00  0.00     0.293 HD
ENDBRANCH  31  34
BRANCH  33  36
ATOM     36  O   UNL     1      16.637  28.515  52.766  1.00  0.00    -0.504 OA
ATOM     37  H   UNL     1      16.196  28.463  53.669  1.00  0.00     0.293 HD
ENDBRANCH  33  36
ENDBRANCH  27  28
ENDBRANCH  24  26
ENDBRANCH  23  24
ENDBRANCH   6  23
BRANCH   3  38
ATOM     38  O   UNL     1      17.887  24.904  41.954  1.00  0.00    -0.350 OA
BRANCH  38  39
ATOM     39  C   UNL     1      18.976  25.546  41.305  1.00  0.00     0.168 C 
BRANCH  39  40
ATOM     40  C   UNL     1      18.749  25.545  39.789  1.00  0.00     0.064 C 
BRANCH  40  41
ATOM     41  C   UNL     1      19.343  24.304  39.171  1.00  0.00    -0.042 A 
ATOM     42  C   UNL     1      20.151  23.444  39.936  1.00  0.00     0.054 A 
ATOM     43  C   UNL     1      18.970  23.933  37.869  1.00  0.00     0.008 A 
ATOM     44  C   UNL     1      20.540  22.204  39.428  1.00  0.00     0.157 A 
ATOM     45  C   UNL     1      19.387  22.708  37.350  1.00  0.00     0.050 A 
ATOM     46  C   UNL     1      20.161  21.831  38.121  1.00  0.00     0.157 A 
BRANCH  44  47
ATOM     47  O   UNL     1      21.268  21.332  40.235  1.00  0.00    -0.504 OA
ATOM     48  H   UNL     1      20.785  20.794  40.942  1.00  0.00     0.293 HD
ENDBRANCH  44  47
BRANCH  46  49
ATOM     49  O   UNL     1      20.546  20.613  37.563  1.00  0.00    -0.504 OA
ATOM     50  H   UNL     1      19.884  19.870  37.379  1.00  0.00     0.293 HD
ENDBRANCH  46  49
ENDBRANCH  40  41
ENDBRANCH  39  40
ENDBRANCH  38  39
ENDBRANCH   3  38
BRANCH   5  51
ATOM     51  C   UNL     1      17.480  25.208  44.918  1.00  0.00     0.192 C 
BRANCH  51  52
ATOM     52  O   UNL     1      17.070  24.185  45.777  1.00  0.00    -0.394 OA
ATOM     53  H   UNL     1      16.700  24.627  46.579  1.00  0.00     0.210 HD
ENDBRANCH  51  52
ENDBRANCH   5  51
TORSDOF 20
ENDMDL
MODEL 3
REMARK VINA RESULT:    -7.429      1.603      2.265
REMARK INTER + INTRA:         -17.132
REMARK INTER:                 -14.172
REMARK INTRA:                  -2.960
REMARK UNBOUND:                -2.972
REMARK SMILES C[C@H]1O[C@@H](O[C@@H]2[C@H](O)[C@H](OCCc3ccc(O)c(O)c3)O[C@H](CO)[C@@H]2OC(=O)C=Cc2ccc(O)c(O)c2)[C@@H](O)[C@@H](O)[C@H]1O
REMARK SMILES IDX 6 1 7 2 9 3 21 4 22 5 25 6 5 7 4 8 1 9 2 10 43 11 3 12 41 13
REMARK SMILES IDX 39 14 44 15 42 17 40 19 8 21 26 23 27 24 28 25 29 26 30 27
REMARK SMILES IDX 31 28 38 29 32 30 36 31 33 32 34 33 37 34 35 36 10 38 11 39
REMARK SMILES IDX 12 40 13 41 20 42 14 43 18 44 15 45 16 46 19 47 17 49 23 51
REMARK SMILES IDX 24 52
REMARK H PARENT 44 16 42 18 40 20 8 22 37 35 35 37 19 48 17 50 24 53
REMARK Flexibility Score: inf
ROOT
ATOM      1  C   UNL     1      15.068  23.662  43.222  1.00  0.00     0.199 C 
ATOM      2  C   UNL     1      14.288  24.200  42.006  1.00  0.00     0.203 C 
ATOM      3  C   UNL     1      15.166  25.124  41.131  1.00  0.00     0.282 C 
ATOM      4  O   UNL     1      15.736  26.208  41.869  1.00  0.00    -0.340 OA
ATOM      5  C   UNL     1      16.444  25.816  43.045  1.00  0.00     0.190 C 
ATOM      6  C   UNL     1      15.598  24.916  43.967  1.00  0.00     0.240 C 
ENDROOT
BRANCH   1   7
ATOM      7  O   UNL     1      16.071  22.780  42.756  1.00  0.00    -0.340 OA
BRANCH   7   8
ATOM      8  C   UNL     1      15.840  21.430  43.137  1.00  0.00     0.282 C 
ATOM      9  C   UNL     1      12.645  20.100  44.380  1.00  0.00     0.041 C 
ATOM     10  C   UNL     1      14.174  20.114  44.173  1.00  0.00     0.150 C 
ATOM     11  C   UNL     1      14.990  19.845  45.482  1.00  0.00     0.174 C 
ATOM     12  O   UNL     1      14.511  21.365  43.612  1.00  0.00    -0.344 OA
ATOM     13  C   UNL     1      16.175  20.831  45.605  1.00  0.00     0.179 C 
ATOM     14  C   UNL     1      16.857  21.010  44.244  1.00  0.00     0.202 C 
BRANCH  11  15
ATOM     15  O   UNL     1      14.185  19.940  46.625  1.00  0.00    -0.388 OA
ATOM     16  H   UNL     1      14.428  20.785  47.105  1.00  0.00     0.211 HD
ENDBRANCH  11  15
BRANCH  13  17
ATOM     17  O   UNL     1      15.720  22.081  46.068  1.00  0.00    -0.387 OA
ATOM     18  H   UNL     1      15.779  22.718  45.295  1.00  0.00     0.211 HD
ENDBRANCH  13  17
BRANCH  14  19
ATOM     19  O   UNL     1      17.885  21.965  44.380  1.00  0.00    -0.385 OA
ATOM     20  H   UNL     1      18.031  22.102  45.355  1.00  0.00     0.211 HD
ENDBRANCH  14  19
ENDBRANCH   7   8
ENDBRANCH   1   7
BRANCH   2  21
ATOM     21  O   UNL     1      13.759  23.162  41.217  1.00  0.00    -0.385 OA
ATOM     22  H   UNL     1      14.433  22.940  40.527  1.00  0.00     0.211 HD
ENDBRANCH   2  21
BRANCH   6  23
ATOM     23  O   UNL     1      16.277  24.618  45.184  1.00  0.00    -0.453 OA
BRANCH  23  24
ATOM     24  C   UNL     1      16.648  25.617  46.088  1.00  0.00     0.331 C 
ATOM     25  O   UNL     1      17.842  26.028  46.132  1.00  0.00    -0.247 OA
BRANCH  24  26
ATOM     26  C   UNL     1      15.660  26.156  47.029  1.00  0.00     0.094 C 
ATOM     27  C   UNL     1      15.960  27.224  47.777  1.00  0.00     0.016 C 
BRANCH  27  28
ATOM     28  C   UNL     1      15.053  27.750  48.813  1.00  0.00    -0.021 A 
ATOM     29  C   UNL     1      15.505  28.026  50.121  1.00  0.00     0.058 A 
ATOM     30  C   UNL     1      13.696  27.917  48.510  1.00  0.00     0.012 A 
ATOM     31  C   UNL     1      14.602  28.462  51.099  1.00  0.00     0.157 A 
ATOM     32  C   UNL     1      12.804  28.388  49.475  1.00  0.00     0.051 A 
ATOM     33  C   UNL     1      13.250  28.663  50.770  1.00  0.00     0.157 A 
BRANCH  31  34
ATOM     34  O   UNL     1      15.032  28.717  52.400  1.00  0.00    -0.504 OA
ATOM     35  H   UNL     1      15.608  29.523  52.623  1.00  0.00     0.293 HD
ENDBRANCH  31  34
BRANCH  33  36
ATOM     36  O   UNL     1      12.357  29.139  51.727  1.00  0.00    -0.504 OA
ATOM     37  H   UNL     1      12.499  28.959  52.708  1.00  0.00     0.293 HD
ENDBRANCH  33  36
ENDBRANCH  27  28
ENDBRANCH  24  26
ENDBRANCH  23  24
ENDBRANCH   6  23
BRANCH   3  38
ATOM     38  O   UNL     1      16.164  24.382  40.464  1.00  0.00    -0.350 OA
BRANCH  38  39
ATOM     39  C   UNL     1      16.541  24.984  39.233  1.00  0.00     0.168 C 
BRANCH  39  40
ATOM     40  C   UNL     1      18.046  25.278  39.240  1.00  0.00     0.064 C 
BRANCH  40  41
ATOM     41  C   UNL     1      18.815  24.082  38.737  1.00  0.00    -0.042 A 
ATOM     42  C   UNL     1      19.774  23.457  39.553  1.00  0.00     0.054 A 
ATOM     43  C   UNL     1      18.467  23.506  37.504  1.00  0.00     0.008 A 
ATOM     44  C   UNL     1      20.344  22.242  39.168  1.00  0.00     0.157 A 
ATOM     45  C   UNL     1      19.062  22.309  37.106  1.00  0.00     0.050 A 
ATOM     46  C   UNL     1      19.992  21.662  37.931  1.00  0.00     0.157 A 
BRANCH  44  47
ATOM     47  O   UNL     1      21.227  21.597  40.032  1.00  0.00    -0.504 OA
ATOM     48  H   UNL     1      21.243  20.587  40.059  1.00  0.00     0.293 HD
ENDBRANCH  44  47
BRANCH  46  49
ATOM     49  O   UNL     1      20.551  20.463  37.495  1.00  0.00    -0.504 OA
ATOM     50  H   UNL     1      19.991  19.712  37.114  1.00  0.00     0.293 HD
ENDBRANCH  46  49
ENDBRANCH  40  41
ENDBRANCH  39  40
ENDBRANCH  38  39
ENDBRANCH   3  38
BRANCH   5  51
ATOM     51  C   UNL     1      17.883  25.330  42.742  1.00  0.00     0.192 C 
BRANCH  51  52
ATOM     52  O   UNL     1      18.809  26.217  43.297  1.00  0.00    -0.394 OA
ATOM     53  H   UNL     1      18.286  26.968  43.669  1.00  0.00     0.210 HD
ENDBRANCH  51  52
ENDBRANCH   5  51
TORSDOF 20
ENDMDL
MODEL 4
REMARK VINA RESULT:    -7.134      2.304      8.791
REMARK INTER + INTRA:         -16.569
REMARK INTER:                 -13.488
REMARK INTRA:                  -3.081
REMARK UNBOUND:                -2.972
REMARK SMILES C[C@H]1O[C@@H](O[C@@H]2[C@H](O)[C@H](OCCc3ccc(O)c(O)c3)O[C@H](CO)[C@@H]2OC(=O)C=Cc2ccc(O)c(O)c2)[C@@H](O)[C@@H](O)[C@H]1O
REMARK SMILES IDX 6 1 7 2 9 3 21 4 22 5 25 6 5 7 4 8 1 9 2 10 43 11 3 12 41 13
REMARK SMILES IDX 39 14 44 15 42 17 40 19 8 21 26 23 27 24 28 25 29 26 30 27
REMARK SMILES IDX 31 28 38 29 32 30 36 31 33 32 34 33 37 34 35 36 10 38 11 39
REMARK SMILES IDX 12 40 13 41 20 42 14 43 18 44 15 45 16 46 19 47 17 49 23 51
REMARK SMILES IDX 24 52
REMARK H PARENT 44 16 42 18 40 20 8 22 37 35 35 37 19 48 17 50 24 53
REMARK Flexibility Score: inf
ROOT
ATOM      1  C   UNL     1      14.212  24.149  44.934  1.00  0.00     0.199 C 
ATOM      2  C   UNL     1      13.053  23.520  44.137  1.00  0.00     0.203 C 
ATOM      3  C   UNL     1      13.430  22.123  43.590  1.00  0.00     0.282 C 
ATOM      4  O   UNL     1      14.619  22.142  42.796  1.00  0.00    -0.340 OA
ATOM      5  C   UNL     1      15.745  22.750  43.431  1.00  0.00     0.190 C 
ATOM      6  C   UNL     1      15.427  24.160  43.966  1.00  0.00     0.240 C 
ENDROOT
BRANCH   1   7
ATOM      7  O   UNL     1      14.402  23.398  46.117  1.00  0.00    -0.340 OA
BRANCH   7   8
ATOM      8  C   UNL     1      14.092  24.134  47.294  1.00  0.00     0.282 C 
ATOM      9  C   UNL     1      12.131  27.243  47.389  1.00  0.00     0.041 C 
ATOM     10  C   UNL     1      13.137  26.200  47.922  1.00  0.00     0.150 C 
ATOM     11  C   UNL     1      14.470  26.826  48.455  1.00  0.00     0.174 C 
ATOM     12  O   UNL     1      13.385  25.285  46.877  1.00  0.00    -0.344 OA
ATOM     13  C   UNL     1      15.693  26.022  47.955  1.00  0.00     0.179 C 
ATOM     14  C   UNL     1      15.408  24.518  48.040  1.00  0.00     0.202 C 
BRANCH  11  15
ATOM     15  O   UNL     1      14.605  28.167  48.071  1.00  0.00    -0.388 OA
ATOM     16  H   UNL     1      15.363  28.563  48.591  1.00  0.00     0.211 HD
ENDBRANCH  11  15
BRANCH  13  17
ATOM     17  O   UNL     1      15.987  26.367  46.621  1.00  0.00    -0.387 OA
ATOM     18  H   UNL     1      15.407  27.151  46.387  1.00  0.00     0.211 HD
ENDBRANCH  13  17
BRANCH  14  19
ATOM     19  O   UNL     1      16.515  23.823  47.513  1.00  0.00    -0.385 OA
ATOM     20  H   UNL     1      17.311  24.088  48.047  1.00  0.00     0.211 HD
ENDBRANCH  14  19
ENDBRANCH   7   8
ENDBRANCH   1   7
BRANCH   2  21
ATOM     21  O   UNL     1      11.876  23.427  44.902  1.00  0.00    -0.385 OA
ATOM     22  H   UNL     1      12.144  23.289  45.845  1.00  0.00     0.211 HD
ENDBRANCH   2  21
BRANCH   6  23
ATOM     23  O   UNL     1      16.584  24.795  44.504  1.00  0.00    -0.453 OA
BRANCH  23  24
ATOM     24  C   UNL     1      17.524  25.431  43.688  1.00  0.00     0.331 C 
ATOM     25  O   UNL     1      17.689  26.682  43.759  1.00  0.00    -0.247 OA
BRANCH  24  26
ATOM     26  C   UNL     1      18.287  24.653  42.706  1.00  0.00     0.094 C 
ATOM     27  C   UNL     1      17.997  24.749  41.404  1.00  0.00     0.016 C 
BRANCH  27  28
ATOM     28  C   UNL     1      18.654  23.918  40.379  1.00  0.00    -0.021 A 
ATOM     29  C   UNL     1      19.701  23.031  40.707  1.00  0.00     0.058 A 
ATOM     30  C   UNL     1      18.275  24.060  39.039  1.00  0.00     0.012 A 
ATOM     31  C   UNL     1      20.349  22.305  39.699  1.00  0.00     0.157 A 
ATOM     32  C   UNL     1      18.894  23.308  38.040  1.00  0.00     0.051 A 
ATOM     33  C   UNL     1      19.931  22.429  38.363  1.00  0.00     0.157 A 
BRANCH  31  34
ATOM     34  O   UNL     1      21.399  21.442  40.008  1.00  0.00    -0.504 OA
ATOM     35  H   UNL     1      21.337  20.443  39.835  1.00  0.00     0.293 HD
ENDBRANCH  31  34
BRANCH  33  36
ATOM     36  O   UNL     1      20.542  21.675  37.363  1.00  0.00    -0.504 OA
ATOM     37  H   UNL     1      20.443  20.674  37.330  1.00  0.00     0.293 HD
ENDBRANCH  33  36
ENDBRANCH  27  28
ENDBRANCH  24  26
ENDBRANCH  23  24
ENDBRANCH   6  23
BRANCH   3  38
ATOM     38  O   UNL     1      13.533  21.187  44.640  1.00  0.00    -0.350 OA
BRANCH  38  39
ATOM     39  C   UNL     1      13.184  19.874  44.218  1.00  0.00     0.168 C 
BRANCH  39  40
ATOM     40  C   UNL     1      13.042  18.959  45.440  1.00  0.00     0.064 C 
BRANCH  40  41
ATOM     41  C   UNL     1      14.401  18.605  45.990  1.00  0.00    -0.042 A 
ATOM     42  C   UNL     1      15.462  18.294  45.121  1.00  0.00     0.054 A 
ATOM     43  C   UNL     1      14.643  18.728  47.368  1.00  0.00     0.008 A 
ATOM     44  C   UNL     1      16.761  18.157  45.614  1.00  0.00     0.157 A 
ATOM     45  C   UNL     1      15.935  18.559  47.863  1.00  0.00     0.050 A 
ATOM     46  C   UNL     1      17.003  18.284  46.999  1.00  0.00     0.157 A 
BRANCH  44  47
ATOM     47  O   UNL     1      17.810  17.934  44.725  1.00  0.00    -0.504 OA
ATOM     48  H   UNL     1      17.747  18.299  43.784  1.00  0.00     0.293 HD
ENDBRANCH  44  47
BRANCH  46  49
ATOM     49  O   UNL     1      18.278  18.133  47.539  1.00  0.00    -0.504 OA
ATOM     50  H   UNL     1      18.841  18.923  47.827  1.00  0.00     0.293 HD
ENDBRANCH  46  49
ENDBRANCH  40  41
ENDBRANCH  39  40
ENDBRANCH  38  39
ENDBRANCH   3  38
BRANCH   5  51
ATOM     51  C   UNL     1      16.470  21.791  44.407  1.00  0.00     0.192 C 
BRANCH  51  52
ATOM     52  O   UNL     1      17.338  20.958  43.695  1.00  0.00    -0.394 OA
ATOM     53  H   UNL     1      18.048  20.691  44.328  1.00  0.00     0.210 HD
ENDBRANCH  51  52
ENDBRANCH   5  51
TORSDOF 20
ENDMDL
MODEL 5
REMARK VINA RESULT:    -7.055      2.254      9.144
REMARK INTER + INTRA:         -16.420
REMARK INTER:                 -13.687
REMARK INTRA:                  -2.733
REMARK UNBOUND:                -2.972
REMARK SMILES C[C@H]1O[C@@H](O[C@@H]2[C@H](O)[C@H](OCCc3ccc(O)c(O)c3)O[C@H](CO)[C@@H]2OC(=O)C=Cc2ccc(O)c(O)c2)[C@@H](O)[C@@H](O)[C@H]1O
REMARK SMILES IDX 6 1 7 2 9 3 21 4 22 5 25 6 5 7 4 8 1 9 2 10 43 11 3 12 41 13
REMARK SMILES IDX 39 14 44 15 42 17 40 19 8 21 26 23 27 24 28 25 29 26 30 27
REMARK SMILES IDX 31 28 38 29 32 30 36 31 33 32 34 33 37 34 35 36 10 38 11 39
REMARK SMILES IDX 12 40 13 41 20 42 14 43 18 44 15 45 16 46 19 47 17 49 23 51
REMARK SMILES IDX 24 52
REMARK H PARENT 44 16 42 18 40 20 8 22 37 35 35 37 19 48 17 50 24 53
REMARK Flexibility Score: inf
ROOT
ATOM      1  C   UNL     1      16.361  22.485  45.926  1.00  0.00     0.199 C 
ATOM      2  C   UNL     1      16.501  23.263  47.249  1.00  0.00     0.203 C 
ATOM      3  C   UNL     1      15.670  24.567  47.234  1.00  0.00     0.282 C 
ATOM      4  O   UNL     1      15.992  25.415  46.129  1.00  0.00    -0.340 OA
ATOM      5  C   UNL     1      15.937  24.774  44.854  1.00  0.00     0.190 C 
ATOM      6  C   UNL     1      16.777  23.482  44.810  1.00  0.00     0.240 C 
ENDROOT
BRANCH   1   7
ATOM      7  O   UNL     1      15.035  22.002  45.827  1.00  0.00    -0.340 OA
BRANCH   7   8
ATOM      8  C   UNL     1      14.948  20.592  45.982  1.00  0.00     0.282 C 
ATOM      9  C   UNL     1      17.408  18.502  47.746  1.00  0.00     0.041 C 
ATOM     10  C   UNL     1      16.257  18.784  46.756  1.00  0.00     0.150 C 
ATOM     11  C   UNL     1      16.468  18.138  45.345  1.00  0.00     0.174 C 
ATOM     12  O   UNL     1      16.121  20.186  46.659  1.00  0.00    -0.344 OA
ATOM     13  C   UNL     1      16.115  19.141  44.222  1.00  0.00     0.179 C 
ATOM     14  C   UNL     1      14.839  19.910  44.583  1.00  0.00     0.202 C 
BRANCH  11  15
ATOM     15  O   UNL     1      17.784  17.689  45.170  1.00  0.00    -0.388 OA
ATOM     16  H   UNL     1      17.779  16.689  45.225  1.00  0.00     0.211 HD
ENDBRANCH  11  15
BRANCH  13  17
ATOM     17  O   UNL     1      17.172  20.053  44.035  1.00  0.00    -0.387 OA
ATOM     18  H   UNL     1      16.904  20.908  44.484  1.00  0.00     0.211 HD
ENDBRANCH  13  17
BRANCH  14  19
ATOM     19  O   UNL     1      14.588  20.860  43.572  1.00  0.00    -0.385 OA
ATOM     20  H   UNL     1      15.410  20.922  43.015  1.00  0.00     0.211 HD
ENDBRANCH  14  19
ENDBRANCH   7   8
ENDBRANCH   1   7
BRANCH   2  21
ATOM     21  O   UNL     1      16.135  22.481  48.361  1.00  0.00    -0.385 OA
ATOM     22  H   UNL     1      16.301  23.023  49.172  1.00  0.00     0.211 HD
ENDBRANCH   2  21
BRANCH   6  23
ATOM     23  O   UNL     1      16.798  22.908  43.506  1.00  0.00    -0.453 OA
BRANCH  23  24
ATOM     24  C   UNL     1      17.915  23.007  42.672  1.00  0.00     0.331 C 
ATOM     25  O   UNL     1      18.656  22.002  42.475  1.00  0.00    -0.247 OA
BRANCH  24  26
ATOM     26  C   UNL     1      18.263  24.296  42.065  1.00  0.00     0.094 C 
ATOM     27  C   UNL     1      19.332  24.393  41.265  1.00  0.00     0.016 C 
BRANCH  27  28
ATOM     28  C   UNL     1      19.795  25.677  40.709  1.00  0.00    -0.021 A 
ATOM     29  C   UNL     1      20.671  26.520  41.425  1.00  0.00     0.058 A 
ATOM     30  C   UNL     1      19.302  26.099  39.468  1.00  0.00     0.012 A 
ATOM     31  C   UNL     1      21.038  27.764  40.895  1.00  0.00     0.157 A 
ATOM     32  C   UNL     1      19.699  27.322  38.923  1.00  0.00     0.051 A 
ATOM     33  C   UNL     1      20.566  28.158  39.630  1.00  0.00     0.157 A 
BRANCH  31  34
ATOM     34  O   UNL     1      21.885  28.615  41.602  1.00  0.00    -0.504 OA
ATOM     35  H   UNL     1      22.893  28.585  41.483  1.00  0.00     0.293 HD
ENDBRANCH  31  34
BRANCH  33  36
ATOM     36  O   UNL     1      20.965  29.374  39.080  1.00  0.00    -0.504 OA
ATOM     37  H   UNL     1      21.882  29.491  38.682  1.00  0.00     0.293 HD
ENDBRANCH  33  36
ENDBRANCH  27  28
ENDBRANCH  24  26
ENDBRANCH  23  24
ENDBRANCH   6  23
BRANCH   3  38
ATOM     38  O   UNL     1      14.289  24.281  47.270  1.00  0.00    -0.350 OA
BRANCH  38  39
ATOM     39  C   UNL     1      13.684  24.727  48.477  1.00  0.00     0.168 C 
BRANCH  39  40
ATOM     40  C   UNL     1      13.706  26.258  48.531  1.00  0.00     0.064 C 
BRANCH  40  41
ATOM     41  C   UNL     1      14.712  26.732  49.550  1.00  0.00    -0.042 A 
ATOM     42  C   UNL     1      15.223  28.041  49.492  1.00  0.00     0.054 A 
ATOM     43  C   UNL     1      15.031  25.907  50.642  1.00  0.00     0.008 A 
ATOM     44  C   UNL     1      16.000  28.541  50.538  1.00  0.00     0.157 A 
ATOM     45  C   UNL     1      15.835  26.398  51.670  1.00  0.00     0.050 A 
ATOM     46  C   UNL     1      16.316  27.713  51.636  1.00  0.00     0.157 A 
BRANCH  44  47
ATOM     47  O   UNL     1      16.423  29.868  50.501  1.00  0.00    -0.504 OA
ATOM     48  H   UNL     1      16.304  30.448  51.320  1.00  0.00     0.293 HD
ENDBRANCH  44  47
BRANCH  46  49
ATOM     49  O   UNL     1      17.108  28.162  52.691  1.00  0.00    -0.504 OA
ATOM     50  H   UNL     1      18.093  27.942  52.760  1.00  0.00     0.293 HD
ENDBRANCH  46  49
ENDBRANCH  40  41
ENDBRANCH  39  40
ENDBRANCH  38  39
ENDBRANCH   3  38
BRANCH   5  51
ATOM     51  C   UNL     1      14.496  24.676  44.296  1.00  0.00     0.192 C 
BRANCH  51  52
ATOM     52  O   UNL     1      14.433  23.681  43.317  1.00  0.00    -0.394 OA
ATOM     53  H   UNL     1      15.265  23.758  42.789  1.00  0.00     0.210 HD
ENDBRANCH  51  52
ENDBRANCH   5  51
TORSDOF 20
ENDMDL
MODEL 6
REMARK VINA RESULT:    -7.033      2.298      3.386
REMARK INTER + INTRA:         -16.378
REMARK INTER:                 -13.342
REMARK INTRA:                  -3.036
REMARK UNBOUND:                -2.972
REMARK SMILES C[C@H]1O[C@@H](O[C@@H]2[C@H](O)[C@H](OCCc3ccc(O)c(O)c3)O[C@H](CO)[C@@H]2OC(=O)C=Cc2ccc(O)c(O)c2)[C@@H](O)[C@@H](O)[C@H]1O
REMARK SMILES IDX 6 1 7 2 9 3 21 4 22 5 25 6 5 7 4 8 1 9 2 10 43 11 3 12 41 13
REMARK SMILES IDX 39 14 44 15 42 17 40 19 8 21 26 23 27 24 28 25 29 26 30 27
REMARK SMILES IDX 31 28 38 29 32 30 36 31 33 32 34 33 37 34 35 36 10 38 11 39
REMARK SMILES IDX 12 40 13 41 20 42 14 43 18 44 15 45 16 46 19 47 17 49 23 51
REMARK SMILES IDX 24 52
REMARK H PARENT 44 16 42 18 40 20 8 22 37 35 35 37 19 48 17 50 24 53
REMARK Flexibility Score: inf
ROOT
ATOM      1  C   UNL     1      14.078  22.297  43.947  1.00  0.00     0.199 C 
ATOM      2  C   UNL     1      13.620  23.035  42.674  1.00  0.00     0.203 C 
ATOM      3  C   UNL     1      14.636  24.120  42.248  1.00  0.00     0.282 C 
ATOM      4  O   UNL     1      14.910  25.061  43.289  1.00  0.00    -0.340 OA
ATOM      5  C   UNL     1      15.300  24.473  44.531  1.00  0.00     0.190 C 
ATOM      6  C   UNL     1      14.300  23.403  45.014  1.00  0.00     0.240 C 
ENDROOT
BRANCH   1   7
ATOM      7  O   UNL     1      15.228  21.535  43.634  1.00  0.00    -0.340 OA
BRANCH   7   8
ATOM      8  C   UNL     1      15.085  20.160  43.965  1.00  0.00     0.282 C 
ATOM      9  C   UNL     1      12.955  18.842  46.657  1.00  0.00     0.041 C 
ATOM     10  C   UNL     1      14.113  18.804  45.637  1.00  0.00     0.150 C 
ATOM     11  C   UNL     1      15.472  18.320  46.245  1.00  0.00     0.174 C 
ATOM     12  O   UNL     1      14.233  20.101  45.091  1.00  0.00    -0.344 OA
ATOM     13  C   UNL     1      16.639  19.218  45.771  1.00  0.00     0.179 C 
ATOM     14  C   UNL     1      16.483  19.543  44.281  1.00  0.00     0.202 C 
BRANCH  11  15
ATOM     15  O   UNL     1      15.438  18.302  47.646  1.00  0.00    -0.388 OA
ATOM     16  H   UNL     1      15.565  17.355  47.947  1.00  0.00     0.211 HD
ENDBRANCH  11  15
BRANCH  13  17
ATOM     17  O   UNL     1      16.660  20.416  46.511  1.00  0.00    -0.387 OA
ATOM     18  H   UNL     1      17.612  20.574  46.786  1.00  0.00     0.211 HD
ENDBRANCH  13  17
BRANCH  14  19
ATOM     19  O   UNL     1      17.523  20.417  43.903  1.00  0.00    -0.385 OA
ATOM     20  H   UNL     1      18.120  20.522  44.692  1.00  0.00     0.211 HD
ENDBRANCH  14  19
ENDBRANCH   7   8
ENDBRANCH   1   7
BRANCH   2  21
ATOM     21  O   UNL     1      13.396  22.150  41.603  1.00  0.00    -0.385 OA
ATOM     22  H   UNL     1      14.004  22.413  40.868  1.00  0.00     0.211 HD
ENDBRANCH   2  21
BRANCH   6  23
ATOM     23  O   UNL     1      14.645  22.899  46.301  1.00  0.00    -0.453 OA
BRANCH  23  24
ATOM     24  C   UNL     1      13.752  22.941  47.375  1.00  0.00     0.331 C 
ATOM     25  O   UNL     1      12.719  22.213  47.376  1.00  0.00    -0.247 OA
BRANCH  24  26
ATOM     26  C   UNL     1      13.983  23.874  48.484  1.00  0.00     0.094 C 
ATOM     27  C   UNL     1      14.832  24.897  48.332  1.00  0.00     0.016 C 
BRANCH  27  28
ATOM     28  C   UNL     1      15.186  25.806  49.437  1.00  0.00    -0.021 A 
ATOM     29  C   UNL     1      15.520  27.158  49.205  1.00  0.00     0.058 A 
ATOM     30  C   UNL     1      15.258  25.300  50.741  1.00  0.00     0.012 A 
ATOM     31  C   UNL     1      15.917  27.977  50.269  1.00  0.00     0.157 A 
ATOM     32  C   UNL     1      15.616  26.126  51.807  1.00  0.00     0.051 A 
ATOM     33  C   UNL     1      15.945  27.465  51.579  1.00  0.00     0.157 A 
BRANCH  31  34
ATOM     34  O   UNL     1      16.269  29.307  50.050  1.00  0.00    -0.504 OA
ATOM     35  H   UNL     1      17.217  29.573  49.803  1.00  0.00     0.293 HD
ENDBRANCH  31  34
BRANCH  33  36
ATOM     36  O   UNL     1      16.296  28.287  52.647  1.00  0.00    -0.504 OA
ATOM     37  H   UNL     1      16.532  29.255  52.504  1.00  0.00     0.293 HD
ENDBRANCH  33  36
ENDBRANCH  27  28
ENDBRANCH  24  26
ENDBRANCH  23  24
ENDBRANCH   6  23
BRANCH   3  38
ATOM     38  O   UNL     1      15.825  23.532  41.768  1.00  0.00    -0.350 OA
BRANCH  38  39
ATOM     39  C   UNL     1      16.559  24.420  40.935  1.00  0.00     0.168 C 
BRANCH  39  40
ATOM     40  C   UNL     1      18.029  23.988  40.887  1.00  0.00     0.064 C 
BRANCH  40  41
ATOM     41  C   UNL     1      18.931  25.172  41.130  1.00  0.00    -0.042 A 
ATOM     42  C   UNL     1      18.782  25.956  42.288  1.00  0.00     0.054 A 
ATOM     43  C   UNL     1      20.013  25.405  40.266  1.00  0.00     0.008 A 
ATOM     44  C   UNL     1      19.731  26.927  42.610  1.00  0.00     0.157 A 
ATOM     45  C   UNL     1      20.943  26.398  40.572  1.00  0.00     0.050 A 
ATOM     46  C   UNL     1      20.821  27.157  41.743  1.00  0.00     0.157 A 
BRANCH  44  47
ATOM     47  O   UNL     1      19.611  27.632  43.806  1.00  0.00    -0.504 OA
ATOM     48  H   UNL     1      20.314  27.513  44.522  1.00  0.00     0.293 HD
ENDBRANCH  44  47
BRANCH  46  49
ATOM     49  O   UNL     1      21.781  28.131  42.011  1.00  0.00    -0.504 OA
ATOM     50  H   UNL     1      21.711  28.756  42.804  1.00  0.00     0.293 HD
ENDBRANCH  46  49
ENDBRANCH  40  41
ENDBRANCH  39  40
ENDBRANCH  38  39
ENDBRANCH   3  38
BRANCH   5  51
ATOM     51  C   UNL     1      16.797  24.077  44.561  1.00  0.00     0.192 C 
BRANCH  51  52
ATOM     52  O   UNL     1      16.967  22.925  45.333  1.00  0.00    -0.394 OA
ATOM     53  H   UNL     1      17.032  23.227  46.271  1.00  0.00     0.210 HD
ENDBRANCH  51  52
ENDBRANCH   5  51
TORSDOF 20
ENDMDL
MODEL 7
REMARK VINA RESULT:    -6.901      1.954      2.957
REMARK INTER + INTRA:         -16.126
REMARK INTER:                 -13.622
REMARK INTRA:                  -2.504
REMARK UNBOUND:                -2.972
REMARK SMILES C[C@H]1O[C@@H](O[C@@H]2[C@H](O)[C@H](OCCc3ccc(O)c(O)c3)O[C@H](CO)[C@@H]2OC(=O)C=Cc2ccc(O)c(O)c2)[C@@H](O)[C@@H](O)[C@H]1O
REMARK SMILES IDX 6 1 7 2 9 3 21 4 22 5 25 6 5 7 4 8 1 9 2 10 43 11 3 12 41 13
REMARK SMILES IDX 39 14 44 15 42 17 40 19 8 21 26 23 27 24 28 25 29 26 30 27
REMARK SMILES IDX 31 28 38 29 32 30 36 31 33 32 34 33 37 34 35 36 10 38 11 39
REMARK SMILES IDX 12 40 13 41 20 42 14 43 18 44 15 45 16 46 19 47 17 49 23 51
REMARK SMILES IDX 24 52
REMARK H PARENT 44 16 42 18 40 20 8 22 37 35 35 37 19 48 17 50 24 53
REMARK Flexibility Score: inf
ROOT
ATOM      1  C   UNL     1      15.815  24.278  43.688  1.00  0.00     0.199 C 
ATOM      2  C   UNL     1      15.648  24.772  42.239  1.00  0.00     0.203 C 
ATOM      3  C   UNL     1      16.786  25.737  41.832  1.00  0.00     0.282 C 
ATOM      4  O   UNL     1      16.911  26.850  42.719  1.00  0.00    -0.340 OA
ATOM      5  C   UNL     1      17.026  26.498  44.098  1.00  0.00     0.190 C 
ATOM      6  C   UNL     1      15.894  25.560  44.561  1.00  0.00     0.240 C 
ENDROOT
BRANCH   1   7
ATOM      7  O   UNL     1      16.957  23.446  43.750  1.00  0.00    -0.340 OA
BRANCH   7   8
ATOM      8  C   UNL     1      16.634  22.078  43.958  1.00  0.00     0.282 C 
ATOM      9  C   UNL     1      13.438  20.499  43.054  1.00  0.00     0.041 C 
ATOM     10  C   UNL     1      14.774  20.628  43.816  1.00  0.00     0.150 C 
ATOM     11  C   UNL     1      14.643  20.401  45.360  1.00  0.00     0.174 C 
ATOM     12  O   UNL     1      15.297  21.909  43.532  1.00  0.00    -0.344 OA
ATOM     13  C   UNL     1      15.441  21.470  46.143  1.00  0.00     0.179 C 
ATOM     14  C   UNL     1      16.795  21.718  45.468  1.00  0.00     0.202 C 
BRANCH  11  15
ATOM     15  O   UNL     1      13.305  20.421  45.777  1.00  0.00    -0.388 OA
ATOM     16  H   UNL     1      13.205  21.147  46.459  1.00  0.00     0.211 HD
ENDBRANCH  11  15
BRANCH  13  17
ATOM     17  O   UNL     1      14.716  22.677  46.193  1.00  0.00    -0.387 OA
ATOM     18  H   UNL     1      15.105  23.221  46.941  1.00  0.00     0.211 HD
ENDBRANCH  13  17
BRANCH  14  19
ATOM     19  O   UNL     1      17.462  22.744  46.167  1.00  0.00    -0.385 OA
ATOM     20  H   UNL     1      17.586  22.430  47.103  1.00  0.00     0.211 HD
ENDBRANCH  14  19
ENDBRANCH   7   8
ENDBRANCH   1   7
BRANCH   2  21
ATOM     21  O   UNL     1      15.580  23.706  41.322  1.00  0.00    -0.385 OA
ATOM     22  H   UNL     1      16.480  23.597  40.926  1.00  0.00     0.211 HD
ENDBRANCH   2  21
BRANCH   6  23
ATOM     23  O   UNL     1      15.960  25.299  45.960  1.00  0.00    -0.453 OA
BRANCH  23  24
ATOM     24  C   UNL     1      15.034  25.839  46.857  1.00  0.00     0.331 C 
ATOM     25  O   UNL     1      13.794  25.703  46.654  1.00  0.00    -0.247 OA
BRANCH  24  26
ATOM     26  C   UNL     1      15.500  26.613  48.013  1.00  0.00     0.094 C 
ATOM     27  C   UNL     1      15.271  26.168  49.254  1.00  0.00     0.016 C 
BRANCH  27  28
ATOM     28  C   UNL     1      15.620  26.947  50.455  1.00  0.00    -0.021 A 
ATOM     29  C   UNL     1      15.974  28.311  50.375  1.00  0.00     0.058 A 
ATOM     30  C   UNL     1      15.666  26.302  51.697  1.00  0.00     0.012 A 
ATOM     31  C   UNL     1      16.365  29.005  51.527  1.00  0.00     0.157 A 
ATOM     32  C   UNL     1      16.018  27.004  52.851  1.00  0.00     0.051 A 
ATOM     33  C   UNL     1      16.367  28.354  52.774  1.00  0.00     0.157 A 
BRANCH  31  34
ATOM     34  O   UNL     1      16.737  30.345  51.458  1.00  0.00    -0.504 OA
ATOM     35  H   UNL     1      17.593  30.684  51.887  1.00  0.00     0.293 HD
ENDBRANCH  31  34
BRANCH  33  36
ATOM     36  O   UNL     1      16.712  29.051  53.930  1.00  0.00    -0.504 OA
ATOM     37  H   UNL     1      16.039  29.622  54.414  1.00  0.00     0.293 HD
ENDBRANCH  33  36
ENDBRANCH  27  28
ENDBRANCH  24  26
ENDBRANCH  23  24
ENDBRANCH   6  23
BRANCH   3  38
ATOM     38  O   UNL     1      18.009  25.044  41.708  1.00  0.00    -0.350 OA
BRANCH  38  39
ATOM     39  C   UNL     1      18.625  25.273  40.447  1.00  0.00     0.168 C 
BRANCH  39  40
ATOM     40  C   UNL     1      20.134  25.459  40.635  1.00  0.00     0.064 C 
BRANCH  40  41
ATOM     41  C   UNL     1      20.510  26.907  40.444  1.00  0.00    -0.042 A 
ATOM     42  C   UNL     1      21.355  27.552  41.365  1.00  0.00     0.054 A 
ATOM     43  C   UNL     1      20.131  27.570  39.265  1.00  0.00     0.008 A 
ATOM     44  C   UNL     1      21.858  28.824  41.091  1.00  0.00     0.157 A 
ATOM     45  C   UNL     1      20.608  28.854  39.007  1.00  0.00     0.050 A 
ATOM     46  C   UNL     1      21.479  29.488  39.904  1.00  0.00     0.157 A 
BRANCH  44  47
ATOM     47  O   UNL     1      22.761  29.408  41.976  1.00  0.00    -0.504 OA
ATOM     48  H   UNL     1      23.609  29.824  41.615  1.00  0.00     0.293 HD
ENDBRANCH  44  47
BRANCH  46  49
ATOM     49  O   UNL     1      21.938  30.767  39.598  1.00  0.00    -0.504 OA
ATOM     50  H   UNL     1      21.666  31.252  38.753  1.00  0.00     0.293 HD
ENDBRANCH  46  49
ENDBRANCH  40  41
ENDBRANCH  39  40
ENDBRANCH  38  39
ENDBRANCH   3  38
BRANCH   5  51
ATOM     51  C   UNL     1      18.466  26.084  44.492  1.00  0.00     0.192 C 
BRANCH  51  52
ATOM     52  O   UNL     1      19.348  27.137  44.235  1.00  0.00    -0.394 OA
ATOM     53  H   UNL     1      19.655  27.021  43.303  1.00  0.00     0.210 HD
ENDBRANCH  51  52
ENDBRANCH   5  51
TORSDOF 20
ENDMDL
MODEL 8
REMARK VINA RESULT:    -6.855      1.956      9.846
REMARK INTER + INTRA:         -16.039
REMARK INTER:                 -13.418
REMARK INTRA:                  -2.621
REMARK UNBOUND:                -2.972
REMARK SMILES C[C@H]1O[C@@H](O[C@@H]2[C@H](O)[C@H](OCCc3ccc(O)c(O)c3)O[C@H](CO)[C@@H]2OC(=O)C=Cc2ccc(O)c(O)c2)[C@@H](O)[C@@H](O)[C@H]1O
REMARK SMILES IDX 6 1 7 2 9 3 21 4 22 5 25 6 5 7 4 8 1 9 2 10 43 11 3 12 41 13
REMARK SMILES IDX 39 14 44 15 42 17 40 19 8 21 26 23 27 24 28 25 29 26 30 27
REMARK SMILES IDX 31 28 38 29 32 30 36 31 33 32 34 33 37 34 35 36 10 38 11 39
REMARK SMILES IDX 12 40 13 41 20 42 14 43 18 44 15 45 16 46 19 47 17 49 23 51
REMARK SMILES IDX 24 52
REMARK H PARENT 44 16 42 18 40 20 8 22 37 35 35 37 19 48 17 50 24 53
REMARK Flexibility Score: inf
ROOT
ATOM      1  C   UNL     1      16.128  22.484  46.686  1.00  0.00     0.199 C 
ATOM      2  C   UNL     1      16.217  22.914  48.163  1.00  0.00     0.203 C 
ATOM      3  C   UNL     1      15.319  24.139  48.455  1.00  0.00     0.282 C 
ATOM      4  O   UNL     1      15.604  25.250  47.601  1.00  0.00    -0.340 OA
ATOM      5  C   UNL     1      15.592  24.944  46.207  1.00  0.00     0.190 C 
ATOM      6  C   UNL     1      16.499  23.746  45.861  1.00  0.00     0.240 C 
ENDROOT
BRANCH   1   7
ATOM      7  O   UNL     1      14.831  21.976  46.444  1.00  0.00    -0.340 OA
BRANCH   7   8
ATOM      8  C   UNL     1      14.812  20.564  46.284  1.00  0.00     0.282 C 
ATOM      9  C   UNL     1      17.374  18.255  47.560  1.00  0.00     0.041 C 
ATOM     10  C   UNL     1      16.208  18.694  46.648  1.00  0.00     0.150 C 
ATOM     11  C   UNL     1      16.444  18.386  45.131  1.00  0.00     0.174 C 
ATOM     12  O   UNL     1      16.005  20.075  46.862  1.00  0.00    -0.344 OA
ATOM     13  C   UNL     1      16.040  19.595  44.255  1.00  0.00     0.179 C 
ATOM     14  C   UNL     1      14.730  20.204  44.768  1.00  0.00     0.202 C 
BRANCH  11  15
ATOM     15  O   UNL     1      17.780  18.049  44.871  1.00  0.00    -0.388 OA
ATOM     16  H   UNL     1      17.821  17.624  43.965  1.00  0.00     0.211 HD
ENDBRANCH  11  15
BRANCH  13  17
ATOM     17  O   UNL     1      17.052  20.574  44.281  1.00  0.00    -0.387 OA
ATOM     18  H   UNL     1      17.928  20.087  44.326  1.00  0.00     0.211 HD
ENDBRANCH  13  17
BRANCH  14  19
ATOM     19  O   UNL     1      14.430  21.341  43.990  1.00  0.00    -0.385 OA
ATOM     20  H   UNL     1      14.531  22.136  44.579  1.00  0.00     0.211 HD
ENDBRANCH  14  19
ENDBRANCH   7   8
ENDBRANCH   1   7
BRANCH   2  21
ATOM     21  O   UNL     1      15.885  21.864  49.040  1.00  0.00    -0.385 OA
ATOM     22  H   UNL     1      15.311  22.242  49.752  1.00  0.00     0.211 HD
ENDBRANCH   2  21
BRANCH   6  23
ATOM     23  O   UNL     1      16.559  23.516  44.455  1.00  0.00    -0.453 OA
BRANCH  23  24
ATOM     24  C   UNL     1      17.478  24.179  43.637  1.00  0.00     0.331 C 
ATOM     25  O   UNL     1      17.679  25.419  43.776  1.00  0.00    -0.247 OA
BRANCH  24  26
ATOM     26  C   UNL     1      18.174  23.446  42.574  1.00  0.00     0.094 C 
ATOM     27  C   UNL     1      18.460  24.054  41.417  1.00  0.00     0.016 C 
BRANCH  27  28
ATOM     28  C   UNL     1      19.063  23.345  40.274  1.00  0.00    -0.021 A 
ATOM     29  C   UNL     1      18.630  23.574  38.950  1.00  0.00     0.058 A 
ATOM     30  C   UNL     1      20.043  22.373  40.514  1.00  0.00     0.012 A 
ATOM     31  C   UNL     1      19.178  22.835  37.894  1.00  0.00     0.157 A 
ATOM     32  C   UNL     1      20.616  21.665  39.457  1.00  0.00     0.051 A 
ATOM     33  C   UNL     1      20.190  21.891  38.146  1.00  0.00     0.157 A 
BRANCH  31  34
ATOM     34  O   UNL     1      18.745  23.036  36.586  1.00  0.00    -0.504 OA
ATOM     35  H   UNL     1      18.070  23.759  36.352  1.00  0.00     0.293 HD
ENDBRANCH  31  34
BRANCH  33  36
ATOM     36  O   UNL     1      20.770  21.185  37.094  1.00  0.00    -0.504 OA
ATOM     37  H   UNL     1      21.575  20.599  37.240  1.00  0.00     0.293 HD
ENDBRANCH  33  36
ENDBRANCH  27  28
ENDBRANCH  24  26
ENDBRANCH  23  24
ENDBRANCH   6  23
BRANCH   3  38
ATOM     38  O   UNL     1      13.955  23.785  48.391  1.00  0.00    -0.350 OA
BRANCH  38  39
ATOM     39  C   UNL     1      13.127  24.737  49.047  1.00  0.00     0.168 C 
BRANCH  39  40
ATOM     40  C   UNL     1      13.604  24.932  50.490  1.00  0.00     0.064 C 
BRANCH  40  41
ATOM     41  C   UNL     1      14.280  26.272  50.642  1.00  0.00    -0.042 A 
ATOM     42  C   UNL     1      15.382  26.421  51.503  1.00  0.00     0.054 A 
ATOM     43  C   UNL     1      13.896  27.337  49.812  1.00  0.00     0.008 A 
ATOM     44  C   UNL     1      16.125  27.602  51.499  1.00  0.00     0.157 A 
ATOM     45  C   UNL     1      14.620  28.529  49.833  1.00  0.00     0.050 A 
ATOM     46  C   UNL     1      15.740  28.671  50.661  1.00  0.00     0.157 A 
BRANCH  44  47
ATOM     47  O   UNL     1      17.264  27.696  52.296  1.00  0.00    -0.504 OA
ATOM     48  H   UNL     1      17.897  28.473  52.165  1.00  0.00     0.293 HD
ENDBRANCH  44  47
BRANCH  46  49
ATOM     49  O   UNL     1      16.438  29.877  50.640  1.00  0.00    -0.504 OA
ATOM     50  H   UNL     1      16.457  30.505  51.434  1.00  0.00     0.293 HD
ENDBRANCH  46  49
ENDBRANCH  40  41
ENDBRANCH  39  40
ENDBRANCH  38  39
ENDBRANCH   3  38
BRANCH   5  51
ATOM     51  C   UNL     1      14.162  24.917  45.613  1.00  0.00     0.192 C 
BRANCH  51  52
ATOM     52  O   UNL     1      14.144  24.134  44.456  1.00  0.00    -0.394 OA
ATOM     53  H   UNL     1      14.897  24.445  43.897  1.00  0.00     0.210 HD
ENDBRANCH  51  52
ENDBRANCH   5  51
TORSDOF 20
ENDMDL
MODEL 9
REMARK VINA RESULT:    -6.707      2.586      4.282
REMARK INTER + INTRA:         -15.757
REMARK INTER:                 -12.851
REMARK INTRA:                  -2.906
REMARK UNBOUND:                -2.972
REMARK SMILES C[C@H]1O[C@@H](O[C@@H]2[C@H](O)[C@H](OCCc3ccc(O)c(O)c3)O[C@H](CO)[C@@H]2OC(=O)C=Cc2ccc(O)c(O)c2)[C@@H](O)[C@@H](O)[C@H]1O
REMARK SMILES IDX 6 1 7 2 9 3 21 4 22 5 25 6 5 7 4 8 1 9 2 10 43 11 3 12 41 13
REMARK SMILES IDX 39 14 44 15 42 17 40 19 8 21 26 23 27 24 28 25 29 26 30 27
REMARK SMILES IDX 31 28 38 29 32 30 36 31 33 32 34 33 37 34 35 36 10 38 11 39
REMARK SMILES IDX 12 40 13 41 20 42 14 43 18 44 15 45 16 46 19 47 17 49 23 51
REMARK SMILES IDX 24 52
REMARK H PARENT 44 16 42 18 40 20 8 22 37 35 35 37 19 48 17 50 24 53
REMARK Flexibility Score: inf
ROOT
ATOM      1  C   UNL     1      13.504  22.323  46.446  1.00  0.00     0.199 C 
ATOM      2  C   UNL     1      12.700  23.171  45.442  1.00  0.00     0.203 C 
ATOM      3  C   UNL     1      13.490  24.422  44.992  1.00  0.00     0.282 C 
ATOM      4  O   UNL     1      13.915  25.232  46.091  1.00  0.00    -0.340 OA
ATOM      5  C   UNL     1      14.633  24.527  47.104  1.00  0.00     0.190 C 
ATOM      6  C   UNL     1      13.870  23.286  47.608  1.00  0.00     0.240 C 
ENDROOT
BRANCH   1   7
ATOM      7  O   UNL     1      14.611  21.759  45.771  1.00  0.00    -0.340 OA
BRANCH   7   8
ATOM      8  C   UNL     1      14.682  20.346  45.910  1.00  0.00     0.282 C 
ATOM      9  C   UNL     1      17.229  18.537  47.851  1.00  0.00     0.041 C 
ATOM     10  C   UNL     1      16.134  18.695  46.774  1.00  0.00     0.150 C 
ATOM     11  C   UNL     1      16.530  18.100  45.381  1.00  0.00     0.174 C 
ATOM     12  O   UNL     1      15.839  20.072  46.675  1.00  0.00    -0.344 OA
ATOM     13  C   UNL     1      16.148  19.071  44.239  1.00  0.00     0.179 C 
ATOM     14  C   UNL     1      14.765  19.678  44.502  1.00  0.00     0.202 C 
BRANCH  11  15
ATOM     15  O   UNL     1      17.900  17.813  45.309  1.00  0.00    -0.388 OA
ATOM     16  H   UNL     1      18.383  18.457  45.905  1.00  0.00     0.211 HD
ENDBRANCH  11  15
BRANCH  13  17
ATOM     17  O   UNL     1      17.100  20.105  44.142  1.00  0.00    -0.387 OA
ATOM     18  H   UNL     1      17.515  20.036  43.232  1.00  0.00     0.211 HD
ENDBRANCH  13  17
BRANCH  14  19
ATOM     19  O   UNL     1      14.482  20.607  43.480  1.00  0.00    -0.385 OA
ATOM     20  H   UNL     1      15.084  21.386  43.616  1.00  0.00     0.211 HD
ENDBRANCH  14  19
ENDBRANCH   7   8
ENDBRANCH   1   7
BRANCH   2  21
ATOM     21  O   UNL     1      12.311  22.426  44.313  1.00  0.00    -0.385 OA
ATOM     22  H   UNL     1      12.205  21.485  44.601  1.00  0.00     0.211 HD
ENDBRANCH   2  21
BRANCH   6  23
ATOM     23  O   UNL     1      14.548  22.650  48.689  1.00  0.00    -0.453 OA
BRANCH  23  24
ATOM     24  C   UNL     1      14.239  22.933  50.022  1.00  0.00     0.331 C 
ATOM     25  O   UNL     1      13.297  22.324  50.603  1.00  0.00    -0.247 OA
BRANCH  24  26
ATOM     26  C   UNL     1      14.977  23.978  50.739  1.00  0.00     0.094 C 
ATOM     27  C   UNL     1      14.545  25.245  50.708  1.00  0.00     0.016 C 
BRANCH  27  28
ATOM     28  C   UNL     1      15.296  26.356  51.318  1.00  0.00    -0.021 A 
ATOM     29  C   UNL     1      15.474  27.585  50.647  1.00  0.00     0.058 A 
ATOM     30  C   UNL     1      15.904  26.165  52.565  1.00  0.00     0.012 A 
ATOM     31  C   UNL     1      16.250  28.597  51.227  1.00  0.00     0.157 A 
ATOM     32  C   UNL     1      16.644  27.188  53.161  1.00  0.00     0.051 A 
ATOM     33  C   UNL     1      16.820  28.406  52.498  1.00  0.00     0.157 A 
BRANCH  31  34
ATOM     34  O   UNL     1      16.450  29.806  50.566  1.00  0.00    -0.504 OA
ATOM     35  H   UNL     1      16.379  30.697  51.048  1.00  0.00     0.293 HD
ENDBRANCH  31  34
BRANCH  33  36
ATOM     36  O   UNL     1      17.554  29.425  53.099  1.00  0.00    -0.504 OA
ATOM     37  H   UNL     1      17.098  30.190  53.568  1.00  0.00     0.293 HD
ENDBRANCH  33  36
ENDBRANCH  27  28
ENDBRANCH  24  26
ENDBRANCH  23  24
ENDBRANCH   6  23
BRANCH   3  38
ATOM     38  O   UNL     1      14.581  24.058  44.176  1.00  0.00    -0.350 OA
BRANCH  38  39
ATOM     39  C   UNL     1      14.682  24.883  43.022  1.00  0.00     0.168 C 
BRANCH  39  40
ATOM     40  C   UNL     1      15.920  24.487  42.210  1.00  0.00     0.064 C 
BRANCH  40  41
ATOM     41  C   UNL     1      17.060  25.430  42.500  1.00  0.00    -0.042 A 
ATOM     42  C   UNL     1      17.177  26.040  43.762  1.00  0.00     0.054 A 
ATOM     43  C   UNL     1      18.086  25.586  41.554  1.00  0.00     0.008 A 
ATOM     44  C   UNL     1      18.328  26.754  44.096  1.00  0.00     0.157 A 
ATOM     45  C   UNL     1      19.221  26.328  41.877  1.00  0.00     0.050 A 
ATOM     46  C   UNL     1      19.360  26.907  43.146  1.00  0.00     0.157 A 
BRANCH  44  47
ATOM     47  O   UNL     1      18.460  27.276  45.381  1.00  0.00    -0.504 OA
ATOM     48  H   UNL     1      18.875  28.190  45.504  1.00  0.00     0.293 HD
ENDBRANCH  44  47
BRANCH  46  49
ATOM     49  O   UNL     1      20.517  27.631  43.426  1.00  0.00    -0.504 OA
ATOM     50  H   UNL     1      21.430  27.338  43.104  1.00  0.00     0.293 HD
ENDBRANCH  46  49
ENDBRANCH  40  41
ENDBRANCH  39  40
ENDBRANCH  38  39
ENDBRANCH   3  38
BRANCH   5  51
ATOM     51  C   UNL     1      16.125  24.318  46.744  1.00  0.00     0.192 C 
BRANCH  51  52
ATOM     52  O   UNL     1      16.557  23.077  47.219  1.00  0.00    -0.394 OA
ATOM     53  H   UNL     1      16.167  22.974  48.121  1.00  0.00     0.210 HD
ENDBRANCH  51  52
ENDBRANCH   5  51
TORSDOF 20
ENDMDL
