MODEL 1
REMARK VINA RESULT:    -3.796      0.000      0.000
REMARK INTER + INTRA:          -4.164
REMARK INTER:                  -4.128
REMARK INTRA:                  -0.036
REMARK UNBOUND:                -0.036
REMARK SMILES O=C([O-])c1ccc(O)cc1
REMARK SMILES IDX 4 1 5 2 10 3 6 4 9 5 7 6 2 7 1 8 3 9 8 10
REMARK H PARENT 8 11
REMARK Flexibility Score: inf
ROOT
ATOM      1  C   UNL     1      -9.422  -1.239   6.990  1.00  0.00    -0.003 A 
ATOM      2  C   UNL     1      -8.096  -0.863   6.709  1.00  0.00     0.014 A 
ATOM      3  C   UNL     1      -9.754  -1.638   8.298  1.00  0.00     0.014 A 
ATOM      4  C   UNL     1      -7.124  -0.887   7.713  1.00  0.00     0.047 A 
ATOM      5  C   UNL     1      -8.780  -1.660   9.300  1.00  0.00     0.047 A 
ATOM      6  C   UNL     1      -7.464  -1.286   9.013  1.00  0.00     0.115 A 
ENDROOT
BRANCH   1   7
ATOM      7  C   UNL     1     -10.455  -1.216   5.931  1.00  0.00     0.071 C 
ATOM      8  O   UNL     1     -11.619  -1.641   6.163  1.00  0.00    -0.545 OA
ATOM      9  O   UNL     1     -10.157  -0.725   4.665  1.00  0.00    -0.545 OA
ENDBRANCH   1   7
BRANCH   6  10
ATOM     10  O   UNL     1      -6.505  -1.314  10.021  1.00  0.00    -0.508 OA
ATOM     11  H   UNL     1      -5.799  -2.041  10.062  1.00  0.00     0.293 HD
ENDBRANCH   6  10
TORSDOF 2
ENDMDL
MODEL 2
REMARK VINA RESULT:    -3.704      1.101      4.376
REMARK INTER + INTRA:          -4.065
REMARK INTER:                  -4.032
REMARK INTRA:                  -0.033
REMARK UNBOUND:                -0.036
REMARK SMILES O=C([O-])c1ccc(O)cc1
REMARK SMILES IDX 4 1 5 2 10 3 6 4 9 5 7 6 2 7 1 8 3 9 8 10
REMARK H PARENT 8 11
REMARK Flexibility Score: inf
ROOT
ATOM      1  C   UNL     1      -8.771  -1.271   7.945  1.00  0.00    -0.003 A 
ATOM      2  C   UNL     1     -10.149  -1.071   8.153  1.00  0.00     0.014 A 
ATOM      3  C   UNL     1      -8.270  -1.250   6.631  1.00  0.00     0.014 A 
ATOM      4  C   UNL     1     -11.005  -0.856   7.068  1.00  0.00     0.047 A 
ATOM      5  C   UNL     1      -9.128  -1.034   5.549  1.00  0.00     0.047 A 
ATOM      6  C   UNL     1     -10.495  -0.837   5.763  1.00  0.00     0.115 A 
ENDROOT
BRANCH   1   7
ATOM      7  C   UNL     1      -7.860  -1.500   9.089  1.00  0.00     0.071 C 
ATOM      8  O   UNL     1      -8.268  -2.091  10.124  1.00  0.00    -0.545 OA
ATOM      9  O   UNL     1      -6.540  -1.065   9.036  1.00  0.00    -0.545 OA
ENDBRANCH   1   7
BRANCH   6  10
ATOM     10  O   UNL     1     -11.338  -0.623   4.675  1.00  0.00    -0.508 OA
ATOM     11  H   UNL     1     -11.704  -1.395   4.128  1.00  0.00     0.293 HD
ENDBRANCH   6  10
TORSDOF 2
ENDMDL
MODEL 3
REMARK VINA RESULT:    -3.637     10.234     11.922
REMARK INTER + INTRA:          -3.992
REMARK INTER:                  -3.958
REMARK INTRA:                  -0.034
REMARK UNBOUND:                -0.036
REMARK SMILES O=C([O-])c1ccc(O)cc1
REMARK SMILES IDX 4 1 5 2 10 3 6 4 9 5 7 6 2 7 1 8 3 9 8 10
REMARK H PARENT 8 11
REMARK Flexibility Score: inf
ROOT
ATOM      1  C   UNL     1     -11.711   4.182  -2.755  1.00  0.00    -0.003 A 
ATOM      2  C   UNL     1     -12.125   3.532  -1.578  1.00  0.00     0.014 A 
ATOM      3  C   UNL     1     -11.058   3.435  -3.753  1.00  0.00     0.014 A 
ATOM      4  C   UNL     1     -11.890   2.165  -1.403  1.00  0.00     0.047 A 
ATOM      5  C   UNL     1     -10.826   2.068  -3.575  1.00  0.00     0.047 A 
ATOM      6  C   UNL     1     -11.239   1.430  -2.403  1.00  0.00     0.115 A 
ENDROOT
BRANCH   1   7
ATOM      7  C   UNL     1     -11.956   5.629  -2.945  1.00  0.00     0.071 C 
ATOM      8  O   UNL     1     -12.051   6.115  -4.104  1.00  0.00    -0.545 OA
ATOM      9  O   UNL     1     -12.086   6.473  -1.847  1.00  0.00    -0.545 OA
ENDBRANCH   1   7
BRANCH   6  10
ATOM     10  O   UNL     1     -11.000   0.067  -2.240  1.00  0.00    -0.508 OA
ATOM     11  H   UNL     1     -10.069  -0.289  -2.054  1.00  0.00     0.293 HD
ENDBRANCH   6  10
TORSDOF 2
ENDMDL
MODEL 4
REMARK VINA RESULT:    -3.580      1.022      4.237
REMARK INTER + INTRA:          -3.930
REMARK INTER:                  -3.903
REMARK INTRA:                  -0.027
REMARK UNBOUND:                -0.036
REMARK SMILES O=C([O-])c1ccc(O)cc1
REMARK SMILES IDX 4 1 5 2 10 3 6 4 9 5 7 6 2 7 1 8 3 9 8 10
REMARK H PARENT 8 11
REMARK Flexibility Score: inf
ROOT
ATOM      1  C   UNL     1      -8.047  -0.894   8.507  1.00  0.00    -0.003 A 
ATOM      2  C   UNL     1      -7.725  -0.921   7.138  1.00  0.00     0.014 A 
ATOM      3  C   UNL     1      -9.396  -0.764   8.888  1.00  0.00     0.014 A 
ATOM      4  C   UNL     1      -8.730  -0.819   6.171  1.00  0.00     0.047 A 
ATOM      5  C   UNL     1     -10.398  -0.663   7.918  1.00  0.00     0.047 A 
ATOM      6  C   UNL     1     -10.070  -0.689   6.560  1.00  0.00     0.115 A 
ENDROOT
BRANCH   1   7
ATOM      7  C   UNL     1      -6.988  -1.001   9.536  1.00  0.00     0.071 C 
ATOM      8  O   UNL     1      -6.556  -2.130   9.894  1.00  0.00    -0.545 OA
ATOM      9  O   UNL     1      -6.456   0.142  10.121  1.00  0.00    -0.545 OA
ENDBRANCH   1   7
BRANCH   6  10
ATOM     10  O   UNL     1     -11.079  -0.587   5.606  1.00  0.00    -0.508 OA
ATOM     11  H   UNL     1     -11.439   0.314   5.309  1.00  0.00     0.293 HD
ENDBRANCH   6  10
TORSDOF 2
ENDMDL
MODEL 5
REMARK VINA RESULT:    -3.278      1.928      4.323
REMARK INTER + INTRA:          -3.601
REMARK INTER:                  -3.573
REMARK INTRA:                  -0.028
REMARK UNBOUND:                -0.036
REMARK SMILES O=C([O-])c1ccc(O)cc1
REMARK SMILES IDX 4 1 5 2 10 3 6 4 9 5 7 6 2 7 1 8 3 9 8 10
REMARK H PARENT 8 11
REMARK Flexibility Score: inf
ROOT
ATOM      1  C   UNL     1      -8.061  -0.589   8.353  1.00  0.00    -0.003 A 
ATOM      2  C   UNL     1      -8.452   0.580   9.031  1.00  0.00     0.014 A 
ATOM      3  C   UNL     1      -8.928  -1.142   7.393  1.00  0.00     0.014 A 
ATOM      4  C   UNL     1      -9.684   1.180   8.756  1.00  0.00     0.047 A 
ATOM      5  C   UNL     1     -10.160  -0.539   7.121  1.00  0.00     0.047 A 
ATOM      6  C   UNL     1     -10.542   0.621   7.799  1.00  0.00     0.115 A 
ENDROOT
BRANCH   1   7
ATOM      7  C   UNL     1      -6.758  -1.229   8.639  1.00  0.00     0.071 C 
ATOM      8  O   UNL     1      -5.845  -1.240   7.770  1.00  0.00    -0.545 OA
ATOM      9  O   UNL     1      -6.522  -1.828   9.872  1.00  0.00    -0.545 OA
ENDBRANCH   1   7
BRANCH   6  10
ATOM     10  O   UNL     1     -11.772   1.211   7.517  1.00  0.00    -0.508 OA
ATOM     11  H   UNL     1     -11.846   2.011   6.899  1.00  0.00     0.293 HD
ENDBRANCH   6  10
TORSDOF 2
ENDMDL
MODEL 6
REMARK VINA RESULT:    -3.264     20.695     21.562
REMARK INTER + INTRA:          -3.586
REMARK INTER:                  -3.551
REMARK INTRA:                  -0.035
REMARK UNBOUND:                -0.036
REMARK SMILES O=C([O-])c1ccc(O)cc1
REMARK SMILES IDX 4 1 5 2 10 3 6 4 9 5 7 6 2 7 1 8 3 9 8 10
REMARK H PARENT 8 11
REMARK Flexibility Score: inf
ROOT
ATOM      1  C   UNL     1       1.907   5.683  -9.477  1.00  0.00    -0.003 A 
ATOM      2  C   UNL     1       2.982   6.590  -9.442  1.00  0.00     0.014 A 
ATOM      3  C   UNL     1       2.171   4.308  -9.339  1.00  0.00     0.014 A 
ATOM      4  C   UNL     1       4.292   6.131  -9.273  1.00  0.00     0.047 A 
ATOM      5  C   UNL     1       3.482   3.852  -9.170  1.00  0.00     0.047 A 
ATOM      6  C   UNL     1       4.544   4.759  -9.137  1.00  0.00     0.115 A 
ENDROOT
BRANCH   1   7
ATOM      7  C   UNL     1       0.518   6.162  -9.655  1.00  0.00     0.071 C 
ATOM      8  O   UNL     1       0.293   7.310 -10.124  1.00  0.00    -0.545 OA
ATOM      9  O   UNL     1      -0.557   5.353  -9.307  1.00  0.00    -0.545 OA
ENDBRANCH   1   7
BRANCH   6  10
ATOM     10  O   UNL     1       5.845   4.290  -8.969  1.00  0.00    -0.508 OA
ATOM     11  H   UNL     1       6.649   4.859  -9.212  1.00  0.00     0.293 HD
ENDBRANCH   6  10
TORSDOF 2
ENDMDL
MODEL 7
REMARK VINA RESULT:    -3.209     18.960     19.280
REMARK INTER + INTRA:          -3.526
REMARK INTER:                  -3.493
REMARK INTRA:                  -0.034
REMARK UNBOUND:                -0.036
REMARK SMILES O=C([O-])c1ccc(O)cc1
REMARK SMILES IDX 4 1 5 2 10 3 6 4 9 5 7 6 2 7 1 8 3 9 8 10
REMARK H PARENT 8 11
REMARK Flexibility Score: inf
ROOT
ATOM      1  C   UNL     1       5.340  -4.249  -4.999  1.00  0.00    -0.003 A 
ATOM      2  C   UNL     1       6.469  -3.448  -4.752  1.00  0.00     0.014 A 
ATOM      3  C   UNL     1       5.139  -5.404  -4.220  1.00  0.00     0.014 A 
ATOM      4  C   UNL     1       7.378  -3.794  -3.747  1.00  0.00     0.047 A 
ATOM      5  C   UNL     1       6.050  -5.747  -3.217  1.00  0.00     0.047 A 
ATOM      6  C   UNL     1       7.170  -4.946  -2.977  1.00  0.00     0.115 A 
ENDROOT
BRANCH   1   7
ATOM      7  C   UNL     1       4.373  -3.888  -6.060  1.00  0.00     0.071 C 
ATOM      8  O   UNL     1       4.205  -2.683  -6.390  1.00  0.00    -0.545 OA
ATOM      9  O   UNL     1       3.638  -4.873  -6.709  1.00  0.00    -0.545 OA
ENDBRANCH   1   7
BRANCH   6  10
ATOM     10  O   UNL     1       8.069  -5.301  -1.974  1.00  0.00    -0.508 OA
ATOM     11  H   UNL     1       9.070  -5.289  -2.131  1.00  0.00     0.293 HD
ENDBRANCH   6  10
TORSDOF 2
ENDMDL
MODEL 8
REMARK VINA RESULT:    -3.197     19.035     19.366
REMARK INTER + INTRA:          -3.513
REMARK INTER:                  -3.479
REMARK INTRA:                  -0.034
REMARK UNBOUND:                -0.036
REMARK SMILES O=C([O-])c1ccc(O)cc1
REMARK SMILES IDX 4 1 5 2 10 3 6 4 9 5 7 6 2 7 1 8 3 9 8 10
REMARK H PARENT 8 11
REMARK Flexibility Score: inf
ROOT
ATOM      1  C   UNL     1       5.350  -4.296  -5.013  1.00  0.00    -0.003 A 
ATOM      2  C   UNL     1       5.183  -5.496  -4.299  1.00  0.00     0.014 A 
ATOM      3  C   UNL     1       6.456  -3.477  -4.720  1.00  0.00     0.014 A 
ATOM      4  C   UNL     1       6.102  -5.868  -3.313  1.00  0.00     0.047 A 
ATOM      5  C   UNL     1       7.373  -3.852  -3.734  1.00  0.00     0.047 A 
ATOM      6  C   UNL     1       7.200  -5.045  -3.028  1.00  0.00     0.115 A 
ENDROOT
BRANCH   1   7
ATOM      7  C   UNL     1       4.381  -3.896  -6.058  1.00  0.00     0.071 C 
ATOM      8  O   UNL     1       4.199  -2.680  -6.332  1.00  0.00    -0.545 OA
ATOM      9  O   UNL     1       3.658  -4.859  -6.754  1.00  0.00    -0.545 OA
ENDBRANCH   1   7
BRANCH   6  10
ATOM     10  O   UNL     1       8.122  -5.406  -2.048  1.00  0.00    -0.508 OA
ATOM     11  H   UNL     1       9.046  -5.747  -2.289  1.00  0.00     0.293 HD
ENDBRANCH   6  10
TORSDOF 2
ENDMDL
MODEL 9
REMARK VINA RESULT:    -3.131     18.368     18.972
REMARK INTER + INTRA:          -3.442
REMARK INTER:                  -3.406
REMARK INTRA:                  -0.036
REMARK UNBOUND:                -0.036
REMARK SMILES O=C([O-])c1ccc(O)cc1
REMARK SMILES IDX 4 1 5 2 10 3 6 4 9 5 7 6 2 7 1 8 3 9 8 10
REMARK H PARENT 8 11
REMARK Flexibility Score: inf
ROOT
ATOM      1  C   UNL     1      -0.263  -4.799  -8.674  1.00  0.00    -0.003 A 
ATOM      2  C   UNL     1       0.417  -3.612  -9.002  1.00  0.00     0.014 A 
ATOM      3  C   UNL     1       0.459  -5.864  -8.104  1.00  0.00     0.014 A 
ATOM      4  C   UNL     1       1.791  -3.495  -8.767  1.00  0.00     0.047 A 
ATOM      5  C   UNL     1       1.832  -5.743  -7.871  1.00  0.00     0.047 A 
ATOM      6  C   UNL     1       2.501  -4.561  -8.200  1.00  0.00     0.115 A 
ENDROOT
BRANCH   1   7
ATOM      7  C   UNL     1      -1.717  -4.930  -8.920  1.00  0.00     0.071 C 
ATOM      8  O   UNL     1      -2.378  -3.960  -9.380  1.00  0.00    -0.545 OA
ATOM      9  O   UNL     1      -2.373  -6.125  -8.648  1.00  0.00    -0.545 OA
ENDBRANCH   1   7
BRANCH   6  10
ATOM     10  O   UNL     1       3.869  -4.455  -7.961  1.00  0.00    -0.508 OA
ATOM     11  H   UNL     1       4.247  -4.489  -7.021  1.00  0.00     0.293 HD
ENDBRANCH   6  10
TORSDOF 2
ENDMDL
