MODEL 1
REMARK VINA RESULT:    -4.625      0.000      0.000
REMARK INTER + INTRA:          -4.983
REMARK INTER:                  -4.895
REMARK INTRA:                  -0.088
REMARK UNBOUND:                -0.088
REMARK SMILES C=C(C)[C@H]1CC=C(C)C(=O)C1
REMARK SMILES IDX 8 1 7 2 6 3 5 4 4 5 11 6 9 7 10 8 2 9 1 10 3 11
REMARK H PARENT
REMARK Flexibility Score: inf
ROOT
ATOM      1  C   UNL     1      21.874 -15.882   1.858  1.00  0.00     0.048 C 
ATOM      2  C   UNL     1      22.975 -16.901   1.753  1.00  0.00    -0.012 C 
ATOM      3  C   UNL     1      23.103 -17.845   2.703  1.00  0.00    -0.019 C 
ATOM      4  C   UNL     1      24.198 -18.878   2.657  1.00  0.00     0.036 C 
ATOM      5  C   UNL     1      24.555 -19.244   1.203  1.00  0.00     0.025 C 
ATOM      6  C   UNL     1      24.916 -17.977   0.407  1.00  0.00     0.089 C 
ATOM      7  C   UNL     1      23.836 -16.939   0.545  1.00  0.00     0.158 C 
ATOM      8  O   UNL     1      23.693 -16.077  -0.363  1.00  0.00    -0.295 OA
ENDROOT
BRANCH   5   9
ATOM      9  C   UNL     1      25.674 -20.274   1.147  1.00  0.00    -0.077 C 
ATOM     10  C   UNL     1      25.383 -21.584   1.119  1.00  0.00     0.008 C 
ATOM     11  C   UNL     1      27.125 -19.859   1.119  1.00  0.00     0.039 C 
ENDBRANCH   5   9
TORSDOF 1
ENDMDL
MODEL 2
REMARK VINA RESULT:    -4.233     16.916     18.315
REMARK INTER + INTRA:          -4.568
REMARK INTER:                  -4.470
REMARK INTRA:                  -0.098
REMARK UNBOUND:                -0.088
REMARK SMILES C=C(C)[C@H]1CC=C(C)C(=O)C1
REMARK SMILES IDX 8 1 7 2 6 3 5 4 4 5 11 6 9 7 10 8 2 9 1 10 3 11
REMARK H PARENT
REMARK Flexibility Score: inf
ROOT
ATOM      1  C   UNL     1      17.001 -17.785 -16.125  1.00  0.00     0.048 C 
ATOM      2  C   UNL     1      15.973 -17.269 -15.157  1.00  0.00    -0.012 C 
ATOM      3  C   UNL     1      14.679 -17.222 -15.518  1.00  0.00    -0.019 C 
ATOM      4  C   UNL     1      13.611 -16.697 -14.594  1.00  0.00     0.036 C 
ATOM      5  C   UNL     1      13.953 -17.000 -13.123  1.00  0.00     0.025 C 
ATOM      6  C   UNL     1      15.348 -16.449 -12.774  1.00  0.00     0.089 C 
ATOM      7  C   UNL     1      16.370 -16.930 -13.767  1.00  0.00     0.158 C 
ATOM      8  O   UNL     1      17.578 -17.008 -13.416  1.00  0.00    -0.295 OA
ENDROOT
BRANCH   5   9
ATOM      9  C   UNL     1      12.888 -16.456 -12.181  1.00  0.00    -0.077 C 
ATOM     10  C   UNL     1      13.245 -15.883 -11.020  1.00  0.00     0.008 C 
ATOM     11  C   UNL     1      11.420 -16.540 -12.520  1.00  0.00     0.039 C 
ENDBRANCH   5   9
TORSDOF 1
ENDMDL
MODEL 3
REMARK VINA RESULT:    -4.102     17.202     18.254
REMARK INTER + INTRA:          -4.430
REMARK INTER:                  -4.332
REMARK INTRA:                  -0.098
REMARK UNBOUND:                -0.088
REMARK SMILES C=C(C)[C@H]1CC=C(C)C(=O)C1
REMARK SMILES IDX 8 1 7 2 6 3 5 4 4 5 11 6 9 7 10 8 2 9 1 10 3 11
REMARK H PARENT
REMARK Flexibility Score: inf
ROOT
ATOM      1  C   UNL     1      10.723 -15.886 -11.508  1.00  0.00     0.048 C 
ATOM      2  C   UNL     1      12.030 -16.027 -12.239  1.00  0.00    -0.012 C 
ATOM      3  C   UNL     1      13.187 -15.875 -11.573  1.00  0.00    -0.019 C 
ATOM      4  C   UNL     1      14.524 -15.987 -12.259  1.00  0.00     0.036 C 
ATOM      5  C   UNL     1      14.468 -17.002 -13.416  1.00  0.00     0.025 C 
ATOM      6  C   UNL     1      13.339 -16.635 -14.396  1.00  0.00     0.089 C 
ATOM      7  C   UNL     1      12.040 -16.452 -13.660  1.00  0.00     0.158 C 
ATOM      8  O   UNL     1      10.955 -16.630 -14.277  1.00  0.00    -0.295 OA
ENDROOT
BRANCH   5   9
ATOM      9  C   UNL     1      15.810 -17.108 -14.128  1.00  0.00    -0.077 C 
ATOM     10  C   UNL     1      15.874 -17.606 -15.373  1.00  0.00     0.008 C 
ATOM     11  C   UNL     1      17.090 -16.659 -13.466  1.00  0.00     0.039 C 
ENDBRANCH   5   9
TORSDOF 1
ENDMDL
MODEL 4
REMARK VINA RESULT:    -3.904     17.118     18.186
REMARK INTER + INTRA:          -4.221
REMARK INTER:                  -4.128
REMARK INTRA:                  -0.093
REMARK UNBOUND:                -0.088
REMARK SMILES C=C(C)[C@H]1CC=C(C)C(=O)C1
REMARK SMILES IDX 8 1 7 2 6 3 5 4 4 5 11 6 9 7 10 8 2 9 1 10 3 11
REMARK H PARENT
REMARK Flexibility Score: inf
ROOT
ATOM      1  C   UNL     1      10.897 -15.966 -13.532  1.00  0.00     0.048 C 
ATOM      2  C   UNL     1      12.329 -16.414 -13.646  1.00  0.00    -0.012 C 
ATOM      3  C   UNL     1      12.893 -16.543 -14.859  1.00  0.00    -0.019 C 
ATOM      4  C   UNL     1      14.317 -17.005 -15.031  1.00  0.00     0.036 C 
ATOM      5  C   UNL     1      15.197 -16.537 -13.857  1.00  0.00     0.025 C 
ATOM      6  C   UNL     1      14.593 -16.999 -12.518  1.00  0.00     0.089 C 
ATOM      7  C   UNL     1      13.148 -16.590 -12.421  1.00  0.00     0.158 C 
ATOM      8  O   UNL     1      12.630 -16.434 -11.283  1.00  0.00    -0.295 OA
ENDROOT
BRANCH   5   9
ATOM      9  C   UNL     1      16.634 -17.015 -14.013  1.00  0.00    -0.077 C 
ATOM     10  C   UNL     1      17.607 -16.478 -13.262  1.00  0.00     0.008 C 
ATOM     11  C   UNL     1      17.000 -18.095 -15.001  1.00  0.00     0.039 C 
ENDBRANCH   5   9
TORSDOF 1
ENDMDL
MODEL 5
REMARK VINA RESULT:    -3.738     18.663     19.888
REMARK INTER + INTRA:          -4.044
REMARK INTER:                  -3.951
REMARK INTRA:                  -0.093
REMARK UNBOUND:                -0.088
REMARK SMILES C=C(C)[C@H]1CC=C(C)C(=O)C1
REMARK SMILES IDX 8 1 7 2 6 3 5 4 4 5 11 6 9 7 10 8 2 9 1 10 3 11
REMARK H PARENT
REMARK Flexibility Score: inf
ROOT
ATOM      1  C   UNL     1       8.148 -16.503 -14.999  1.00  0.00     0.048 C 
ATOM      2  C   UNL     1       9.501 -16.666 -14.364  1.00  0.00    -0.012 C 
ATOM      3  C   UNL     1      10.594 -16.196 -14.990  1.00  0.00    -0.019 C 
ATOM      4  C   UNL     1      11.975 -16.349 -14.407  1.00  0.00     0.036 C 
ATOM      5  C   UNL     1      11.934 -16.309 -12.868  1.00  0.00     0.025 C 
ATOM      6  C   UNL     1      10.955 -17.368 -12.331  1.00  0.00     0.089 C 
ATOM      7  C   UNL     1       9.613 -17.233 -12.997  1.00  0.00     0.158 C 
ATOM      8  O   UNL     1       8.584 -17.642 -12.394  1.00  0.00    -0.295 OA
ENDROOT
BRANCH   5   9
ATOM      9  C   UNL     1      13.324 -16.482 -12.270  1.00  0.00    -0.077 C 
ATOM     10  C   UNL     1      13.533 -16.228 -10.969  1.00  0.00     0.008 C 
ATOM     11  C   UNL     1      14.490 -16.942 -13.110  1.00  0.00     0.039 C 
ENDBRANCH   5   9
TORSDOF 1
ENDMDL
MODEL 6
REMARK VINA RESULT:    -3.649     17.809     19.227
REMARK INTER + INTRA:          -3.950
REMARK INTER:                  -3.857
REMARK INTRA:                  -0.093
REMARK UNBOUND:                -0.088
REMARK SMILES C=C(C)[C@H]1CC=C(C)C(=O)C1
REMARK SMILES IDX 8 1 7 2 6 3 5 4 4 5 11 6 9 7 10 8 2 9 1 10 3 11
REMARK H PARENT
REMARK Flexibility Score: inf
ROOT
ATOM      1  C   UNL     1      16.260 -16.849 -13.881  1.00  0.00     0.048 C 
ATOM      2  C   UNL     1      14.776 -16.873 -13.633  1.00  0.00    -0.012 C 
ATOM      3  C   UNL     1      14.311 -17.000 -12.379  1.00  0.00    -0.019 C 
ATOM      4  C   UNL     1      12.836 -17.048 -12.076  1.00  0.00     0.036 C 
ATOM      5  C   UNL     1      12.038 -16.188 -13.073  1.00  0.00     0.025 C 
ATOM      6  C   UNL     1      12.349 -16.615 -14.518  1.00  0.00     0.089 C 
ATOM      7  C   UNL     1      13.835 -16.633 -14.755  1.00  0.00     0.158 C 
ATOM      8  O   UNL     1      14.272 -16.478 -15.927  1.00  0.00    -0.295 OA
ENDROOT
BRANCH   5   9
ATOM      9  C   UNL     1      10.543 -16.246 -12.786  1.00  0.00    -0.077 C 
ATOM     10  C   UNL     1      10.075 -15.880 -11.582  1.00  0.00     0.008 C 
ATOM     11  C   UNL     1       9.559 -16.708 -13.832  1.00  0.00     0.039 C 
ENDBRANCH   5   9
TORSDOF 1
ENDMDL
MODEL 7
REMARK VINA RESULT:    -3.581     17.839     19.355
REMARK INTER + INTRA:          -3.879
REMARK INTER:                  -3.781
REMARK INTRA:                  -0.098
REMARK UNBOUND:                -0.088
REMARK SMILES C=C(C)[C@H]1CC=C(C)C(=O)C1
REMARK SMILES IDX 8 1 7 2 6 3 5 4 4 5 11 6 9 7 10 8 2 9 1 10 3 11
REMARK H PARENT
REMARK Flexibility Score: inf
ROOT
ATOM      1  C   UNL     1      15.200 -16.565 -13.357  1.00  0.00     0.048 C 
ATOM      2  C   UNL     1      13.709 -16.460 -13.192  1.00  0.00    -0.012 C 
ATOM      3  C   UNL     1      12.907 -16.615 -14.260  1.00  0.00    -0.019 C 
ATOM      4  C   UNL     1      11.408 -16.502 -14.154  1.00  0.00     0.036 C 
ATOM      5  C   UNL     1      10.911 -16.995 -12.782  1.00  0.00     0.025 C 
ATOM      6  C   UNL     1      11.632 -16.242 -11.650  1.00  0.00     0.089 C 
ATOM      7  C   UNL     1      13.124 -16.309 -11.837  1.00  0.00     0.158 C 
ATOM      8  O   UNL     1      13.874 -16.199 -10.831  1.00  0.00    -0.295 OA
ENDROOT
BRANCH   5   9
ATOM      9  C   UNL     1       9.399 -16.866 -12.659  1.00  0.00    -0.077 C 
ATOM     10  C   UNL     1       8.845 -16.529 -11.484  1.00  0.00     0.008 C 
ATOM     11  C   UNL     1       8.490 -17.109 -13.840  1.00  0.00     0.039 C 
ENDBRANCH   5   9
TORSDOF 1
ENDMDL
MODEL 8
REMARK VINA RESULT:    -3.475     18.423     19.668
REMARK INTER + INTRA:          -3.766
REMARK INTER:                  -3.668
REMARK INTRA:                  -0.098
REMARK UNBOUND:                -0.088
REMARK SMILES C=C(C)[C@H]1CC=C(C)C(=O)C1
REMARK SMILES IDX 8 1 7 2 6 3 5 4 4 5 11 6 9 7 10 8 2 9 1 10 3 11
REMARK H PARENT
REMARK Flexibility Score: inf
ROOT
ATOM      1  C   UNL     1       7.274 -16.444 -12.781  1.00  0.00     0.048 C 
ATOM      2  C   UNL     1       8.769 -16.322 -12.673  1.00  0.00    -0.012 C 
ATOM      3  C   UNL     1       9.337 -16.102 -11.474  1.00  0.00    -0.019 C 
ATOM      4  C   UNL     1      10.827 -15.954 -11.312  1.00  0.00     0.036 C 
ATOM      5  C   UNL     1      11.584 -16.819 -12.337  1.00  0.00     0.025 C 
ATOM      6  C   UNL     1      11.118 -16.487 -13.766  1.00  0.00     0.089 C 
ATOM      7  C   UNL     1       9.619 -16.566 -13.865  1.00  0.00     0.158 C 
ATOM      8  O   UNL     1       9.089 -16.807 -14.982  1.00  0.00    -0.295 OA
ENDROOT
BRANCH   5   9
ATOM      9  C   UNL     1      13.092 -16.661 -12.193  1.00  0.00    -0.077 C 
ATOM     10  C   UNL     1      13.619 -16.273 -11.021  1.00  0.00     0.008 C 
ATOM     11  C   UNL     1      14.025 -16.935 -13.347  1.00  0.00     0.039 C 
ENDBRANCH   5   9
TORSDOF 1
ENDMDL
