MODEL 1
REMARK VINA RESULT:    -4.007      0.000      0.000
REMARK INTER + INTRA:          -6.986
REMARK INTER:                  -6.115
REMARK INTRA:                  -0.870
REMARK UNBOUND:                -0.870
REMARK SMILES CCCCCCCCCCC(=O)[O-]
REMARK SMILES IDX 7 1 8 2 9 3 10 4 11 5 12 6 13 7 6 8 5 9 4 10 3 11 2 12 1 13
REMARK H PARENT
REMARK Flexibility Score: inf
ROOT
ATOM      1  C   UNL     1      75.134  81.849  78.214  1.00  0.00     0.000 C 
ENDROOT
BRANCH   1   2
ATOM      2  C   UNL     1      74.807  81.251  76.834  1.00  0.00     0.000 C 
BRANCH   2   3
ATOM      3  C   UNL     1      75.604  81.909  75.694  1.00  0.00     0.006 C 
BRANCH   3   4
ATOM      4  C   UNL     1      75.618  83.439  75.807  1.00  0.00     0.053 C 
BRANCH   4   5
ATOM      5  C   UNL     1      76.677  84.049  74.941  1.00  0.00     0.041 C 
ATOM      6  O   UNL     1      76.743  85.300  74.807  1.00  0.00    -0.550 OA
ATOM      7  O   UNL     1      77.613  83.239  74.311  1.00  0.00    -0.550 OA
ENDBRANCH   4   5
ENDBRANCH   3   4
ENDBRANCH   2   3
ENDBRANCH   1   2
BRANCH   1   8
ATOM      8  C   UNL     1      75.768  80.861  79.215  1.00  0.00     0.000 C 
BRANCH   8   9
ATOM      9  C   UNL     1      77.235  80.490  78.925  1.00  0.00    -0.000 C 
BRANCH   9  10
ATOM     10  C   UNL     1      78.139  81.671  78.518  1.00  0.00    -0.000 C 
BRANCH  10  11
ATOM     11  C   UNL     1      78.859  81.505  77.169  1.00  0.00    -0.000 C 
BRANCH  11  12
ATOM     12  C   UNL     1      80.368  81.777  77.260  1.00  0.00    -0.003 C 
ATOM     13  C   UNL     1      81.006  80.960  78.380  1.00  0.00     0.004 C 
ENDBRANCH  11  12
ENDBRANCH  10  11
ENDBRANCH   9  10
ENDBRANCH   8   9
ENDBRANCH   1   8
TORSDOF 9
ENDMDL
MODEL 2
REMARK VINA RESULT:    -3.953      1.730      4.281
REMARK INTER + INTRA:          -6.904
REMARK INTER:                  -5.864
REMARK INTRA:                  -1.040
REMARK UNBOUND:                -0.870
REMARK SMILES CCCCCCCCCCC(=O)[O-]
REMARK SMILES IDX 7 1 8 2 9 3 10 4 11 5 12 6 13 7 6 8 5 9 4 10 3 11 2 12 1 13
REMARK H PARENT
REMARK Flexibility Score: inf
ROOT
ATOM      1  C   UNL     1      75.961  82.194  78.003  1.00  0.00     0.000 C 
ENDROOT
BRANCH   1   2
ATOM      2  C   UNL     1      77.371  81.748  77.576  1.00  0.00     0.000 C 
BRANCH   2   3
ATOM      3  C   UNL     1      77.544  81.694  76.049  1.00  0.00     0.006 C 
BRANCH   3   4
ATOM      4  C   UNL     1      76.609  82.673  75.326  1.00  0.00     0.053 C 
BRANCH   4   5
ATOM      5  C   UNL     1      77.332  83.908  74.885  1.00  0.00     0.041 C 
ATOM      6  O   UNL     1      78.523  83.835  74.482  1.00  0.00    -0.550 OA
ATOM      7  O   UNL     1      76.679  85.134  74.883  1.00  0.00    -0.550 OA
ENDBRANCH   4   5
ENDBRANCH   3   4
ENDBRANCH   2   3
ENDBRANCH   1   2
BRANCH   1   8
ATOM      8  C   UNL     1      75.195  81.180  78.876  1.00  0.00     0.000 C 
BRANCH   8   9
ATOM      9  C   UNL     1      74.407  80.110  78.094  1.00  0.00    -0.000 C 
BRANCH   9  10
ATOM     10  C   UNL     1      73.873  80.567  76.722  1.00  0.00    -0.000 C 
BRANCH  10  11
ATOM     11  C   UNL     1      72.510  81.279  76.759  1.00  0.00    -0.000 C 
BRANCH  11  12
ATOM     12  C   UNL     1      72.604  82.768  76.392  1.00  0.00    -0.003 C 
ATOM     13  C   UNL     1      73.047  82.950  74.943  1.00  0.00     0.004 C 
ENDBRANCH  11  12
ENDBRANCH  10  11
ENDBRANCH   9  10
ENDBRANCH   8   9
ENDBRANCH   1   8
TORSDOF 9
ENDMDL
MODEL 3
REMARK VINA RESULT:    -3.860      1.378      2.806
REMARK INTER + INTRA:          -6.761
REMARK INTER:                  -5.677
REMARK INTRA:                  -1.085
REMARK UNBOUND:                -0.870
REMARK SMILES CCCCCCCCCCC(=O)[O-]
REMARK SMILES IDX 7 1 8 2 9 3 10 4 11 5 12 6 13 7 6 8 5 9 4 10 3 11 2 12 1 13
REMARK H PARENT
REMARK Flexibility Score: inf
ROOT
ATOM      1  C   UNL     1      75.165  80.784  75.294  1.00  0.00     0.000 C 
ENDROOT
BRANCH   1   2
ATOM      2  C   UNL     1      74.506  81.772  74.315  1.00  0.00     0.000 C 
BRANCH   2   3
ATOM      3  C   UNL     1      74.387  83.194  74.890  1.00  0.00     0.006 C 
BRANCH   3   4
ATOM      4  C   UNL     1      75.595  83.569  75.758  1.00  0.00     0.053 C 
BRANCH   4   5
ATOM      5  C   UNL     1      76.681  84.212  74.951  1.00  0.00     0.041 C 
ATOM      6  O   UNL     1      76.697  85.461  74.792  1.00  0.00    -0.550 OA
ATOM      7  O   UNL     1      77.695  83.435  74.405  1.00  0.00    -0.550 OA
ENDBRANCH   4   5
ENDBRANCH   3   4
ENDBRANCH   2   3
ENDBRANCH   1   2
BRANCH   1   8
ATOM      8  C   UNL     1      74.202  79.765  75.934  1.00  0.00     0.000 C 
BRANCH   8   9
ATOM      9  C   UNL     1      74.088  79.848  77.469  1.00  0.00    -0.000 C 
BRANCH   9  10
ATOM     10  C   UNL     1      74.464  81.215  78.076  1.00  0.00    -0.000 C 
BRANCH  10  11
ATOM     11  C   UNL     1      75.559  81.167  79.157  1.00  0.00    -0.000 C 
BRANCH  11  12
ATOM     12  C   UNL     1      76.861  80.523  78.658  1.00  0.00    -0.003 C 
ATOM     13  C   UNL     1      77.824  81.577  78.121  1.00  0.00     0.004 C 
ENDBRANCH  11  12
ENDBRANCH  10  11
ENDBRANCH   9  10
ENDBRANCH   8   9
ENDBRANCH   1   8
TORSDOF 9
ENDMDL
MODEL 4
REMARK VINA RESULT:    -3.858      1.623      3.607
REMARK INTER + INTRA:          -6.758
REMARK INTER:                  -5.746
REMARK INTRA:                  -1.012
REMARK UNBOUND:                -0.870
REMARK SMILES CCCCCCCCCCC(=O)[O-]
REMARK SMILES IDX 7 1 8 2 9 3 10 4 11 5 12 6 13 7 6 8 5 9 4 10 3 11 2 12 1 13
REMARK H PARENT
REMARK Flexibility Score: inf
ROOT
ATOM      1  C   UNL     1      79.845  83.220  75.309  1.00  0.00     0.000 C 
ENDROOT
BRANCH   1   2
ATOM      2  C   UNL     1      79.304  82.211  74.280  1.00  0.00     0.000 C 
BRANCH   2   3
ATOM      3  C   UNL     1      77.803  82.390  73.999  1.00  0.00     0.006 C 
BRANCH   3   4
ATOM      4  C   UNL     1      77.013  82.733  75.269  1.00  0.00     0.053 C 
BRANCH   4   5
ATOM      5  C   UNL     1      76.228  83.997  75.109  1.00  0.00     0.041 C 
ATOM      6  O   UNL     1      74.980  83.994  75.280  1.00  0.00    -0.550 OA
ATOM      7  O   UNL     1      76.878  85.188  74.808  1.00  0.00    -0.550 OA
ENDBRANCH   4   5
ENDBRANCH   3   4
ENDBRANCH   2   3
ENDBRANCH   1   2
BRANCH   1   8
ATOM      8  C   UNL     1      80.882  82.649  76.295  1.00  0.00     0.000 C 
BRANCH   8   9
ATOM      9  C   UNL     1      80.627  81.196  76.743  1.00  0.00    -0.000 C 
BRANCH   9  10
ATOM     10  C   UNL     1      80.087  81.043  78.180  1.00  0.00    -0.000 C 
BRANCH  10  11
ATOM     11  C   UNL     1      78.650  81.549  78.393  1.00  0.00    -0.000 C 
BRANCH  11  12
ATOM     12  C   UNL     1      77.670  80.426  78.760  1.00  0.00    -0.003 C 
ATOM     13  C   UNL     1      77.245  79.641  77.523  1.00  0.00     0.004 C 
ENDBRANCH  11  12
ENDBRANCH  10  11
ENDBRANCH   9  10
ENDBRANCH   8   9
ENDBRANCH   1   8
TORSDOF 9
ENDMDL
MODEL 5
REMARK VINA RESULT:    -3.854      1.373      2.192
REMARK INTER + INTRA:          -6.752
REMARK INTER:                  -5.992
REMARK INTRA:                  -0.760
REMARK UNBOUND:                -0.870
REMARK SMILES CCCCCCCCCCC(=O)[O-]
REMARK SMILES IDX 7 1 8 2 9 3 10 4 11 5 12 6 13 7 6 8 5 9 4 10 3 11 2 12 1 13
REMARK H PARENT
REMARK Flexibility Score: inf
ROOT
ATOM      1  C   UNL     1      77.304  81.877  78.412  1.00  0.00     0.000 C 
ENDROOT
BRANCH   1   2
ATOM      2  C   UNL     1      75.768  81.877  78.312  1.00  0.00     0.000 C 
BRANCH   2   3
ATOM      3  C   UNL     1      75.260  82.268  76.914  1.00  0.00     0.006 C 
BRANCH   3   4
ATOM      4  C   UNL     1      76.392  82.768  76.007  1.00  0.00     0.053 C 
BRANCH   4   5
ATOM      5  C   UNL     1      75.937  83.882  75.115  1.00  0.00     0.041 C 
ATOM      6  O   UNL     1      74.792  83.848  74.592  1.00  0.00    -0.550 OA
ATOM      7  O   UNL     1      76.763  84.977  74.892  1.00  0.00    -0.550 OA
ENDBRANCH   4   5
ENDBRANCH   3   4
ENDBRANCH   2   3
ENDBRANCH   1   2
BRANCH   1   8
ATOM      8  C   UNL     1      77.944  80.484  78.577  1.00  0.00     0.000 C 
BRANCH   8   9
ATOM      9  C   UNL     1      79.274  80.284  77.823  1.00  0.00    -0.000 C 
BRANCH   9  10
ATOM     10  C   UNL     1      80.085  81.572  77.579  1.00  0.00    -0.000 C 
BRANCH  10  11
ATOM     11  C   UNL     1      81.275  81.418  76.617  1.00  0.00    -0.000 C 
BRANCH  11  12
ATOM     12  C   UNL     1      81.405  82.592  75.634  1.00  0.00    -0.003 C 
ATOM     13  C   UNL     1      80.081  83.338  75.492  1.00  0.00     0.004 C 
ENDBRANCH  11  12
ENDBRANCH  10  11
ENDBRANCH   9  10
ENDBRANCH   8   9
ENDBRANCH   1   8
TORSDOF 9
ENDMDL
MODEL 6
REMARK VINA RESULT:    -3.779      2.774      4.923
REMARK INTER + INTRA:          -6.637
REMARK INTER:                  -5.427
REMARK INTRA:                  -1.210
REMARK UNBOUND:                -0.870
REMARK SMILES CCCCCCCCCCC(=O)[O-]
REMARK SMILES IDX 7 1 8 2 9 3 10 4 11 5 12 6 13 7 6 8 5 9 4 10 3 11 2 12 1 13
REMARK H PARENT
REMARK Flexibility Score: inf
ROOT
ATOM      1  C   UNL     1      73.085  82.634  77.039  1.00  0.00     0.000 C 
ENDROOT
BRANCH   1   2
ATOM      2  C   UNL     1      74.355  81.825  77.361  1.00  0.00     0.000 C 
BRANCH   2   3
ATOM      3  C   UNL     1      75.624  82.433  76.742  1.00  0.00     0.006 C 
BRANCH   3   4
ATOM      4  C   UNL     1      75.325  83.712  75.949  1.00  0.00     0.053 C 
BRANCH   4   5
ATOM      5  C   UNL     1      76.448  84.067  75.024  1.00  0.00     0.041 C 
ATOM      6  O   UNL     1      76.748  85.274  74.826  1.00  0.00    -0.550 OA
ATOM      7  O   UNL     1      77.188  83.065  74.410  1.00  0.00    -0.550 OA
ENDBRANCH   4   5
ENDBRANCH   3   4
ENDBRANCH   2   3
ENDBRANCH   1   2
BRANCH   1   8
ATOM      8  C   UNL     1      71.806  81.791  76.864  1.00  0.00     0.000 C 
BRANCH   8   9
ATOM      9  C   UNL     1      70.939  82.166  75.646  1.00  0.00    -0.000 C 
BRANCH   9  10
ATOM     10  C   UNL     1      71.708  82.310  74.317  1.00  0.00    -0.000 C 
BRANCH  10  11
ATOM     11  C   UNL     1      72.305  81.004  73.767  1.00  0.00    -0.000 C 
BRANCH  11  12
ATOM     12  C   UNL     1      73.841  80.988  73.804  1.00  0.00    -0.003 C 
ATOM     13  C   UNL     1      74.363  79.683  74.398  1.00  0.00     0.004 C 
ENDBRANCH  11  12
ENDBRANCH  10  11
ENDBRANCH   9  10
ENDBRANCH   8   9
ENDBRANCH   1   8
TORSDOF 9
ENDMDL
MODEL 7
REMARK VINA RESULT:    -3.712      1.396      3.580
REMARK INTER + INTRA:          -6.536
REMARK INTER:                  -5.400
REMARK INTRA:                  -1.135
REMARK UNBOUND:                -0.870
REMARK SMILES CCCCCCCCCCC(=O)[O-]
REMARK SMILES IDX 7 1 8 2 9 3 10 4 11 5 12 6 13 7 6 8 5 9 4 10 3 11 2 12 1 13
REMARK H PARENT
REMARK Flexibility Score: inf
ROOT
ATOM      1  C   UNL     1      78.772  81.131  76.475  1.00  0.00     0.000 C 
ENDROOT
BRANCH   1   2
ATOM      2  C   UNL     1      77.741  80.498  75.523  1.00  0.00     0.000 C 
BRANCH   2   3
ATOM      3  C   UNL     1      76.885  81.544  74.789  1.00  0.00     0.006 C 
BRANCH   3   4
ATOM      4  C   UNL     1      77.484  82.953  74.886  1.00  0.00     0.053 C 
BRANCH   4   5
ATOM      5  C   UNL     1      76.421  84.008  74.901  1.00  0.00     0.041 C 
ATOM      6  O   UNL     1      75.209  83.685  75.017  1.00  0.00    -0.550 OA
ATOM      7  O   UNL     1      76.771  85.350  74.823  1.00  0.00    -0.550 OA
ENDBRANCH   4   5
ENDBRANCH   3   4
ENDBRANCH   2   3
ENDBRANCH   1   2
BRANCH   1   8
ATOM      8  C   UNL     1      78.516  80.870  77.973  1.00  0.00     0.000 C 
BRANCH   8   9
ATOM      9  C   UNL     1      77.694  81.957  78.694  1.00  0.00    -0.000 C 
BRANCH   9  10
ATOM     10  C   UNL     1      76.167  81.856  78.498  1.00  0.00    -0.000 C 
BRANCH  10  11
ATOM     11  C   UNL     1      75.514  80.606  79.111  1.00  0.00    -0.000 C 
BRANCH  11  12
ATOM     12  C   UNL     1      74.445  79.984  78.201  1.00  0.00    -0.003 C 
ATOM     13  C   UNL     1      73.976  80.980  77.144  1.00  0.00     0.004 C 
ENDBRANCH  11  12
ENDBRANCH  10  11
ENDBRANCH   9  10
ENDBRANCH   8   9
ENDBRANCH   1   8
TORSDOF 9
ENDMDL
MODEL 8
REMARK VINA RESULT:    -3.696      2.000      3.409
REMARK INTER + INTRA:          -6.511
REMARK INTER:                  -5.549
REMARK INTRA:                  -0.962
REMARK UNBOUND:                -0.870
REMARK SMILES CCCCCCCCCCC(=O)[O-]
REMARK SMILES IDX 7 1 8 2 9 3 10 4 11 5 12 6 13 7 6 8 5 9 4 10 3 11 2 12 1 13
REMARK H PARENT
REMARK Flexibility Score: inf
ROOT
ATOM      1  C   UNL     1      78.380  81.707  78.214  1.00  0.00     0.000 C 
ENDROOT
BRANCH   1   2
ATOM      2  C   UNL     1      76.976  81.260  77.768  1.00  0.00     0.000 C 
BRANCH   2   3
ATOM      3  C   UNL     1      76.531  81.912  76.449  1.00  0.00     0.006 C 
BRANCH   3   4
ATOM      4  C   UNL     1      76.166  83.392  76.629  1.00  0.00     0.053 C 
BRANCH   4   5
ATOM      5  C   UNL     1      75.909  84.064  75.316  1.00  0.00     0.041 C 
ATOM      6  O   UNL     1      74.929  83.715  74.607  1.00  0.00    -0.550 OA
ATOM      7  O   UNL     1      76.730  85.102  74.893  1.00  0.00    -0.550 OA
ENDBRANCH   4   5
ENDBRANCH   3   4
ENDBRANCH   2   3
ENDBRANCH   1   2
BRANCH   1   8
ATOM      8  C   UNL     1      79.544  81.055  77.442  1.00  0.00     0.000 C 
BRANCH   8   9
ATOM      9  C   UNL     1      80.564  82.043  76.843  1.00  0.00    -0.000 C 
BRANCH   9  10
ATOM     10  C   UNL     1      80.118  82.727  75.534  1.00  0.00    -0.000 C 
BRANCH  10  11
ATOM     11  C   UNL     1      79.679  81.767  74.415  1.00  0.00    -0.000 C 
BRANCH  11  12
ATOM     12  C   UNL     1      78.706  82.416  73.420  1.00  0.00    -0.003 C 
ATOM     13  C   UNL     1      79.059  82.042  71.983  1.00  0.00     0.004 C 
ENDBRANCH  11  12
ENDBRANCH  10  11
ENDBRANCH   9  10
ENDBRANCH   8   9
ENDBRANCH   1   8
TORSDOF 9
ENDMDL
MODEL 9
REMARK VINA RESULT:    -3.661      2.478      3.288
REMARK INTER + INTRA:          -6.457
REMARK INTER:                  -5.760
REMARK INTRA:                  -0.697
REMARK UNBOUND:                -0.870
REMARK SMILES CCCCCCCCCCC(=O)[O-]
REMARK SMILES IDX 7 1 8 2 9 3 10 4 11 5 12 6 13 7 6 8 5 9 4 10 3 11 2 12 1 13
REMARK H PARENT
REMARK Flexibility Score: inf
ROOT
ATOM      1  C   UNL     1      75.053  80.618  75.578  1.00  0.00     0.000 C 
ENDROOT
BRANCH   1   2
ATOM      2  C   UNL     1      73.916  81.506  75.041  1.00  0.00     0.000 C 
BRANCH   2   3
ATOM      3  C   UNL     1      74.381  82.933  74.705  1.00  0.00     0.006 C 
BRANCH   3   4
ATOM      4  C   UNL     1      75.479  83.423  75.658  1.00  0.00     0.053 C 
BRANCH   4   5
ATOM      5  C   UNL     1      76.598  84.089  74.919  1.00  0.00     0.041 C 
ATOM      6  O   UNL     1      76.640  85.345  74.829  1.00  0.00    -0.550 OA
ATOM      7  O   UNL     1      77.616  83.326  74.361  1.00  0.00    -0.550 OA
ENDBRANCH   4   5
ENDBRANCH   3   4
ENDBRANCH   2   3
ENDBRANCH   1   2
BRANCH   1   8
ATOM      8  C   UNL     1      74.613  79.545  76.595  1.00  0.00     0.000 C 
BRANCH   8   9
ATOM      9  C   UNL     1      74.257  80.081  77.995  1.00  0.00    -0.000 C 
BRANCH   9  10
ATOM     10  C   UNL     1      75.286  81.057  78.601  1.00  0.00    -0.000 C 
BRANCH  10  11
ATOM     11  C   UNL     1      76.149  80.473  79.732  1.00  0.00    -0.000 C 
BRANCH  11  12
ATOM     12  C   UNL     1      75.323  79.719  80.785  1.00  0.00    -0.003 C 
ATOM     13  C   UNL     1      76.069  78.488  81.291  1.00  0.00     0.004 C 
ENDBRANCH  11  12
ENDBRANCH  10  11
ENDBRANCH   9  10
ENDBRANCH   8   9
ENDBRANCH   1   8
TORSDOF 9
ENDMDL
