MODEL 1
REMARK VINA RESULT:    -2.936      0.000      0.000
REMARK INTER + INTRA:          -3.542
REMARK INTER:                  -3.451
REMARK INTRA:                  -0.091
REMARK UNBOUND:                -0.091
REMARK SMILES O=C([O-])CCC(=O)[O-]
REMARK SMILES IDX 4 1 2 2 1 3 3 4 5 5 6 6 7 7 8 8
REMARK H PARENT
REMARK Flexibility Score: inf
ROOT
ATOM      1  C   UNL     1      10.644  14.113   0.238  1.00  0.00     0.059 C 
ENDROOT
BRANCH   1   2
ATOM      2  C   UNL     1      11.801  13.320   0.763  1.00  0.00     0.042 C 
ATOM      3  O   UNL     1      12.709  12.931  -0.017  1.00  0.00    -0.550 OA
ATOM      4  O   UNL     1      11.896  13.045   2.122  1.00  0.00    -0.550 OA
ENDBRANCH   1   2
BRANCH   1   5
ATOM      5  C   UNL     1       9.759  14.639   1.373  1.00  0.00     0.059 C 
BRANCH   5   6
ATOM      6  C   UNL     1       9.942  16.112   1.579  1.00  0.00     0.042 C 
ATOM      7  O   UNL     1      11.067  16.643   1.389  1.00  0.00    -0.550 OA
ATOM      8  O   UNL     1       8.859  16.902   1.942  1.00  0.00    -0.550 OA
ENDBRANCH   5   6
ENDBRANCH   1   5
TORSDOF 3
ENDMDL
MODEL 2
REMARK VINA RESULT:    -2.927      0.666      1.320
REMARK INTER + INTRA:          -3.531
REMARK INTER:                  -3.433
REMARK INTRA:                  -0.098
REMARK UNBOUND:                -0.091
REMARK SMILES O=C([O-])CCC(=O)[O-]
REMARK SMILES IDX 4 1 2 2 1 3 3 4 5 5 6 6 7 7 8 8
REMARK H PARENT
REMARK Flexibility Score: inf
ROOT
ATOM      1  C   UNL     1       9.983  14.269   0.243  1.00  0.00     0.059 C 
ENDROOT
BRANCH   1   2
ATOM      2  C   UNL     1      11.355  13.667   0.246  1.00  0.00     0.042 C 
ATOM      3  O   UNL     1      12.034  13.632  -0.814  1.00  0.00    -0.550 OA
ATOM      4  O   UNL     1      11.898  13.182   1.429  1.00  0.00    -0.550 OA
ENDBRANCH   1   2
BRANCH   1   5
ATOM      5  C   UNL     1       9.566  14.729   1.643  1.00  0.00     0.059 C 
BRANCH   5   6
ATOM      6  C   UNL     1       9.766  16.203   1.822  1.00  0.00     0.042 C 
ATOM      7  O   UNL     1       8.778  16.957   2.024  1.00  0.00    -0.550 OA
ATOM      8  O   UNL     1      11.049  16.737   1.807  1.00  0.00    -0.550 OA
ENDBRANCH   5   6
ENDBRANCH   1   5
TORSDOF 3
ENDMDL
MODEL 3
REMARK VINA RESULT:    -2.809      1.007      1.279
REMARK INTER + INTRA:          -3.393
REMARK INTER:                  -3.316
REMARK INTRA:                  -0.077
REMARK UNBOUND:                -0.091
REMARK SMILES O=C([O-])CCC(=O)[O-]
REMARK SMILES IDX 4 1 2 2 1 3 3 4 5 5 6 6 7 7 8 8
REMARK H PARENT
REMARK Flexibility Score: inf
ROOT
ATOM      1  C   UNL     1      11.112  13.912   1.803  1.00  0.00     0.059 C 
ENDROOT
BRANCH   1   2
ATOM      2  C   UNL     1      11.460  13.452   0.421  1.00  0.00     0.042 C 
ATOM      3  O   UNL     1      12.558  12.875   0.203  1.00  0.00    -0.550 OA
ATOM      4  O   UNL     1      10.555  13.626  -0.618  1.00  0.00    -0.550 OA
ENDBRANCH   1   2
BRANCH   1   5
ATOM      5  C   UNL     1       9.771  14.652   1.830  1.00  0.00     0.059 C 
BRANCH   5   6
ATOM      6  C   UNL     1       9.959  16.138   1.774  1.00  0.00     0.042 C 
ATOM      7  O   UNL     1      11.117  16.629   1.715  1.00  0.00    -0.550 OA
ATOM      8  O   UNL     1       8.852  16.977   1.745  1.00  0.00    -0.550 OA
ENDBRANCH   5   6
ENDBRANCH   1   5
TORSDOF 3
ENDMDL
MODEL 4
REMARK VINA RESULT:    -1.353      1.707      3.366
REMARK INTER + INTRA:          -1.681
REMARK INTER:                  -1.767
REMARK INTRA:                   0.087
REMARK UNBOUND:                -0.091
REMARK SMILES O=C([O-])CCC(=O)[O-]
REMARK SMILES IDX 4 1 2 2 1 3 3 4 5 5 6 6 7 7 8 8
REMARK H PARENT
REMARK Flexibility Score: inf
ROOT
ATOM      1  C   UNL     1       9.953  15.883   1.816  1.00  0.00     0.059 C 
ENDROOT
BRANCH   1   2
ATOM      2  C   UNL     1      11.393  16.246   2.012  1.00  0.00     0.042 C 
ATOM      3  O   UNL     1      12.265  15.344   2.123  1.00  0.00    -0.550 OA
ATOM      4  O   UNL     1      11.777  17.581   2.031  1.00  0.00    -0.550 OA
ENDBRANCH   1   2
BRANCH   1   5
ATOM      5  C   UNL     1       9.767  14.368   1.676  1.00  0.00     0.059 C 
BRANCH   5   6
ATOM      6  C   UNL     1      10.132  13.891   0.303  1.00  0.00     0.042 C 
ATOM      7  O   UNL     1       9.437  14.230  -0.691  1.00  0.00    -0.550 OA
ATOM      8  O   UNL     1      11.264  13.107   0.119  1.00  0.00    -0.550 OA
ENDBRANCH   5   6
ENDBRANCH   1   5
TORSDOF 3
ENDMDL
MODEL 5
REMARK VINA RESULT:    -1.286      1.878      3.946
REMARK INTER + INTRA:          -1.602
REMARK INTER:                  -1.531
REMARK INTRA:                  -0.072
REMARK UNBOUND:                -0.091
REMARK SMILES O=C([O-])CCC(=O)[O-]
REMARK SMILES IDX 4 1 2 2 1 3 3 4 5 5 6 6 7 7 8 8
REMARK H PARENT
REMARK Flexibility Score: inf
ROOT
ATOM      1  C   UNL     1       9.495  15.546   1.825  1.00  0.00     0.059 C 
ENDROOT
BRANCH   1   2
ATOM      2  C   UNL     1       8.057  15.129   1.863  1.00  0.00     0.042 C 
ATOM      3  O   UNL     1       7.156  15.979   2.091  1.00  0.00    -0.550 OA
ATOM      4  O   UNL     1       7.709  13.809   1.606  1.00  0.00    -0.550 OA
ENDBRANCH   1   2
BRANCH   1   5
ATOM      5  C   UNL     1      10.431  14.368   2.111  1.00  0.00     0.059 C 
BRANCH   5   6
ATOM      6  C   UNL     1      11.065  13.848   0.856  1.00  0.00     0.042 C 
ATOM      7  O   UNL     1      12.142  13.199   0.911  1.00  0.00    -0.550 OA
ATOM      8  O   UNL     1      10.441  14.047  -0.370  1.00  0.00    -0.550 OA
ENDBRANCH   5   6
ENDBRANCH   1   5
TORSDOF 3
ENDMDL
MODEL 6
REMARK VINA RESULT:    -0.913      2.079      2.818
REMARK INTER + INTRA:          -1.164
REMARK INTER:                  -1.257
REMARK INTRA:                   0.094
REMARK UNBOUND:                -0.091
REMARK SMILES O=C([O-])CCC(=O)[O-]
REMARK SMILES IDX 4 1 2 2 1 3 3 4 5 5 6 6 7 7 8 8
REMARK H PARENT
REMARK Flexibility Score: inf
ROOT
ATOM      1  C   UNL     1       9.560  16.199   0.706  1.00  0.00     0.059 C 
ENDROOT
BRANCH   1   2
ATOM      2  C   UNL     1       9.216  14.743   0.649  1.00  0.00     0.042 C 
ATOM      3  O   UNL     1       9.778  13.991  -0.190  1.00  0.00    -0.550 OA
ATOM      4  O   UNL     1       8.302  14.208   1.549  1.00  0.00    -0.550 OA
ENDBRANCH   1   2
BRANCH   1   5
ATOM      5  C   UNL     1      10.233  16.568   2.032  1.00  0.00     0.059 C 
BRANCH   5   6
ATOM      6  C   UNL     1      11.656  16.097   2.078  1.00  0.00     0.042 C 
ATOM      7  O   UNL     1      12.598  16.931   2.125  1.00  0.00    -0.550 OA
ATOM      8  O   UNL     1      11.936  14.737   2.112  1.00  0.00    -0.550 OA
ENDBRANCH   5   6
ENDBRANCH   1   5
TORSDOF 3
ENDMDL
MODEL 7
REMARK VINA RESULT:    -0.898      1.973      2.633
REMARK INTER + INTRA:          -1.146
REMARK INTER:                  -1.120
REMARK INTRA:                  -0.027
REMARK UNBOUND:                -0.091
REMARK SMILES O=C([O-])CCC(=O)[O-]
REMARK SMILES IDX 4 1 2 2 1 3 3 4 5 5 6 6 7 7 8 8
REMARK H PARENT
REMARK Flexibility Score: inf
ROOT
ATOM      1  C   UNL     1      10.056  15.791   0.741  1.00  0.00     0.059 C 
ENDROOT
BRANCH   1   2
ATOM      2  C   UNL     1       9.987  14.417   0.149  1.00  0.00     0.042 C 
ATOM      3  O   UNL     1       8.883  13.943  -0.227  1.00  0.00    -0.550 OA
ATOM      4  O   UNL     1      11.149  13.676  -0.024  1.00  0.00    -0.550 OA
ENDBRANCH   1   2
BRANCH   1   5
ATOM      5  C   UNL     1       9.398  15.844   2.123  1.00  0.00     0.059 C 
BRANCH   5   6
ATOM      6  C   UNL     1       7.938  16.167   2.028  1.00  0.00     0.042 C 
ATOM      7  O   UNL     1       7.563  17.352   1.823  1.00  0.00    -0.550 OA
ATOM      8  O   UNL     1       6.994  15.152   2.125  1.00  0.00    -0.550 OA
ENDBRANCH   5   6
ENDBRANCH   1   5
TORSDOF 3
ENDMDL
