MODEL 1
REMARK VINA RESULT:    -3.193      0.000      0.000
REMARK INTER + INTRA:          -3.826
REMARK INTER:                  -3.753
REMARK INTRA:                  -0.074
REMARK UNBOUND:                -0.074
REMARK SMILES CCCCC(=O)[O-]
REMARK SMILES IDX 4 1 5 2 6 3 7 4 3 5 2 6 1 7
REMARK H PARENT
REMARK Flexibility Score: inf
ROOT
ATOM      1  C   UNL     1      -2.098   2.945   6.571  1.00  0.00     0.053 C 
ENDROOT
BRANCH   1   2
ATOM      2  C   UNL     1      -3.496   2.673   6.115  1.00  0.00     0.041 C 
ATOM      3  O   UNL     1      -3.765   1.610   5.495  1.00  0.00    -0.550 OA
ATOM      4  O   UNL     1      -4.513   3.568   6.417  1.00  0.00    -0.550 OA
ENDBRANCH   1   2
BRANCH   1   5
ATOM      5  C   UNL     1      -1.118   2.823   5.400  1.00  0.00     0.006 C 
BRANCH   5   6
ATOM      6  C   UNL     1      -0.998   4.150   4.644  1.00  0.00    -0.003 C 
ATOM      7  C   UNL     1      -0.172   5.163   5.433  1.00  0.00     0.004 C 
ENDBRANCH   5   6
ENDBRANCH   1   5
TORSDOF 3
ENDMDL
MODEL 2
REMARK VINA RESULT:    -3.149      2.173      3.282
REMARK INTER + INTRA:          -3.775
REMARK INTER:                  -3.667
REMARK INTRA:                  -0.108
REMARK UNBOUND:                -0.074
REMARK SMILES CCCCC(=O)[O-]
REMARK SMILES IDX 4 1 5 2 6 3 7 4 3 5 2 6 1 7
REMARK H PARENT
REMARK Flexibility Score: inf
ROOT
ATOM      1  C   UNL     1      -2.369   2.675   6.653  1.00  0.00     0.053 C 
ENDROOT
BRANCH   1   2
ATOM      2  C   UNL     1      -1.247   2.657   5.663  1.00  0.00     0.041 C 
ATOM      3  O   UNL     1      -1.449   3.003   4.469  1.00  0.00    -0.550 OA
ATOM      4  O   UNL     1       0.033   2.304   6.069  1.00  0.00    -0.550 OA
ENDBRANCH   1   2
BRANCH   1   5
ATOM      5  C   UNL     1      -3.720   2.642   5.933  1.00  0.00     0.006 C 
BRANCH   5   6
ATOM      6  C   UNL     1      -4.618   3.794   6.396  1.00  0.00    -0.003 C 
ATOM      7  C   UNL     1      -4.133   5.130   5.837  1.00  0.00     0.004 C 
ENDBRANCH   5   6
ENDBRANCH   1   5
TORSDOF 3
ENDMDL
MODEL 3
REMARK VINA RESULT:    -3.122      2.149      2.545
REMARK INTER + INTRA:          -3.743
REMARK INTER:                  -3.652
REMARK INTRA:                  -0.092
REMARK UNBOUND:                -0.074
REMARK SMILES CCCCC(=O)[O-]
REMARK SMILES IDX 4 1 5 2 6 3 7 4 3 5 2 6 1 7
REMARK H PARENT
REMARK Flexibility Score: inf
ROOT
ATOM      1  C   UNL     1      -0.796   3.110   6.532  1.00  0.00     0.053 C 
ENDROOT
BRANCH   1   2
ATOM      2  C   UNL     1      -1.592   2.841   5.294  1.00  0.00     0.041 C 
ATOM      3  O   UNL     1      -1.188   3.260   4.177  1.00  0.00    -0.550 OA
ATOM      4  O   UNL     1      -2.754   2.085   5.364  1.00  0.00    -0.550 OA
ENDBRANCH   1   2
BRANCH   1   5
ATOM      5  C   UNL     1       0.471   2.251   6.553  1.00  0.00     0.006 C 
BRANCH   5   6
ATOM      6  C   UNL     1       1.706   3.101   6.870  1.00  0.00    -0.003 C 
ATOM      7  C   UNL     1       1.599   4.487   6.240  1.00  0.00     0.004 C 
ENDBRANCH   5   6
ENDBRANCH   1   5
TORSDOF 3
ENDMDL
MODEL 4
REMARK VINA RESULT:    -3.105      1.107      1.972
REMARK INTER + INTRA:          -3.723
REMARK INTER:                  -3.686
REMARK INTRA:                  -0.037
REMARK UNBOUND:                -0.074
REMARK SMILES CCCCC(=O)[O-]
REMARK SMILES IDX 4 1 5 2 6 3 7 4 3 5 2 6 1 7
REMARK H PARENT
REMARK Flexibility Score: inf
ROOT
ATOM      1  C   UNL     1      -2.512   3.878   5.692  1.00  0.00     0.053 C 
ENDROOT
BRANCH   1   2
ATOM      2  C   UNL     1      -3.736   3.053   5.930  1.00  0.00     0.041 C 
ATOM      3  O   UNL     1      -4.771   3.579   6.419  1.00  0.00    -0.550 OA
ATOM      4  O   UNL     1      -3.754   1.713   5.565  1.00  0.00    -0.550 OA
ENDBRANCH   1   2
BRANCH   1   5
ATOM      5  C   UNL     1      -1.363   3.000   5.187  1.00  0.00     0.006 C 
BRANCH   5   6
ATOM      6  C   UNL     1      -0.059   3.323   5.926  1.00  0.00    -0.003 C 
ATOM      7  C   UNL     1       0.503   2.086   6.620  1.00  0.00     0.004 C 
ENDBRANCH   5   6
ENDBRANCH   1   5
TORSDOF 3
ENDMDL
MODEL 5
REMARK VINA RESULT:    -3.048      2.516      3.113
REMARK INTER + INTRA:          -3.657
REMARK INTER:                  -3.594
REMARK INTRA:                  -0.063
REMARK UNBOUND:                -0.074
REMARK SMILES CCCCC(=O)[O-]
REMARK SMILES IDX 4 1 5 2 6 3 7 4 3 5 2 6 1 7
REMARK H PARENT
REMARK Flexibility Score: inf
ROOT
ATOM      1  C   UNL     1      -0.839   3.350   6.515  1.00  0.00     0.053 C 
ENDROOT
BRANCH   1   2
ATOM      2  C   UNL     1      -1.549   2.916   5.273  1.00  0.00     0.041 C 
ATOM      3  O   UNL     1      -1.123   3.272   4.142  1.00  0.00    -0.550 OA
ATOM      4  O   UNL     1      -2.652   2.077   5.359  1.00  0.00    -0.550 OA
ENDBRANCH   1   2
BRANCH   1   5
ATOM      5  C   UNL     1       0.659   3.044   6.413  1.00  0.00     0.006 C 
BRANCH   5   6
ATOM      6  C   UNL     1       0.962   1.620   6.892  1.00  0.00    -0.003 C 
ATOM      7  C   UNL     1       2.463   1.344   6.887  1.00  0.00     0.004 C 
ENDBRANCH   5   6
ENDBRANCH   1   5
TORSDOF 3
ENDMDL
MODEL 6
REMARK VINA RESULT:    -3.027      2.455      3.729
REMARK INTER + INTRA:          -3.631
REMARK INTER:                  -3.574
REMARK INTRA:                  -0.058
REMARK UNBOUND:                -0.074
REMARK SMILES CCCCC(=O)[O-]
REMARK SMILES IDX 4 1 5 2 6 3 7 4 3 5 2 6 1 7
REMARK H PARENT
REMARK Flexibility Score: inf
ROOT
ATOM      1  C   UNL     1      -1.863   3.966   6.391  1.00  0.00     0.053 C 
ENDROOT
BRANCH   1   2
ATOM      2  C   UNL     1      -0.896   4.043   5.252  1.00  0.00     0.041 C 
ATOM      3  O   UNL     1       0.101   4.808   5.318  1.00  0.00    -0.550 OA
ATOM      4  O   UNL     1      -1.068   3.232   4.137  1.00  0.00    -0.550 OA
ENDBRANCH   1   2
BRANCH   1   5
ATOM      5  C   UNL     1      -3.250   4.443   5.951  1.00  0.00     0.006 C 
BRANCH   5   6
ATOM      6  C   UNL     1      -4.304   3.356   6.182  1.00  0.00    -0.003 C 
ATOM      7  C   UNL     1      -3.677   1.965   6.156  1.00  0.00     0.004 C 
ENDBRANCH   5   6
ENDBRANCH   1   5
TORSDOF 3
ENDMDL
MODEL 7
REMARK VINA RESULT:    -2.982      4.490      5.308
REMARK INTER + INTRA:          -3.578
REMARK INTER:                  -3.554
REMARK INTRA:                  -0.024
REMARK UNBOUND:                -0.074
REMARK SMILES CCCCC(=O)[O-]
REMARK SMILES IDX 4 1 5 2 6 3 7 4 3 5 2 6 1 7
REMARK H PARENT
REMARK Flexibility Score: inf
ROOT
ATOM      1  C   UNL     1       1.514   1.077   7.250  1.00  0.00     0.053 C 
ENDROOT
BRANCH   1   2
ATOM      2  C   UNL     1       2.548   0.409   6.401  1.00  0.00     0.041 C 
ATOM      3  O   UNL     1       3.707   0.894   6.313  1.00  0.00    -0.550 OA
ATOM      4  O   UNL     1       2.248  -0.777   5.744  1.00  0.00    -0.550 OA
ENDBRANCH   1   2
BRANCH   1   5
ATOM      5  C   UNL     1       1.084   2.408   6.625  1.00  0.00     0.006 C 
BRANCH   5   6
ATOM      6  C   UNL     1      -0.422   2.421   6.342  1.00  0.00    -0.003 C 
ATOM      7  C   UNL     1      -0.757   3.345   5.174  1.00  0.00     0.004 C 
ENDBRANCH   5   6
ENDBRANCH   1   5
TORSDOF 3
ENDMDL
MODEL 8
REMARK VINA RESULT:    -2.966     12.194     12.496
REMARK INTER + INTRA:          -3.560
REMARK INTER:                  -3.536
REMARK INTRA:                  -0.024
REMARK UNBOUND:                -0.074
REMARK SMILES CCCCC(=O)[O-]
REMARK SMILES IDX 4 1 5 2 6 3 7 4 3 5 2 6 1 7
REMARK H PARENT
REMARK Flexibility Score: inf
ROOT
ATOM      1  C   UNL     1      -2.426  -3.244  -5.278  1.00  0.00     0.053 C 
ENDROOT
BRANCH   1   2
ATOM      2  C   UNL     1      -1.384  -3.718  -4.316  1.00  0.00     0.041 C 
ATOM      3  O   UNL     1      -0.357  -3.023  -4.100  1.00  0.00    -0.550 OA
ATOM      4  O   UNL     1      -1.570  -4.905  -3.618  1.00  0.00    -0.550 OA
ENDBRANCH   1   2
BRANCH   1   5
ATOM      5  C   UNL     1      -2.177  -1.782  -5.662  1.00  0.00     0.006 C 
BRANCH   5   6
ATOM      6  C   UNL     1      -3.489  -1.077  -6.021  1.00  0.00    -0.003 C 
ATOM      7  C   UNL     1      -3.339   0.440  -5.945  1.00  0.00     0.004 C 
ENDBRANCH   5   6
ENDBRANCH   1   5
TORSDOF 3
ENDMDL
MODEL 9
REMARK VINA RESULT:    -2.948     12.183     12.917
REMARK INTER + INTRA:          -3.538
REMARK INTER:                  -3.482
REMARK INTRA:                  -0.056
REMARK UNBOUND:                -0.074
REMARK SMILES CCCCC(=O)[O-]
REMARK SMILES IDX 4 1 5 2 6 3 7 4 3 5 2 6 1 7
REMARK H PARENT
REMARK Flexibility Score: inf
ROOT
ATOM      1  C   UNL     1      -3.945  -2.000  -6.301  1.00  0.00     0.053 C 
ENDROOT
BRANCH   1   2
ATOM      2  C   UNL     1      -2.981  -1.133  -5.556  1.00  0.00     0.041 C 
ATOM      3  O   UNL     1      -1.861  -1.588  -5.202  1.00  0.00    -0.550 OA
ATOM      4  O   UNL     1      -3.297   0.194  -5.296  1.00  0.00    -0.550 OA
ENDBRANCH   1   2
BRANCH   1   5
ATOM      5  C   UNL     1      -3.873  -3.443  -5.792  1.00  0.00     0.006 C 
BRANCH   5   6
ATOM      6  C   UNL     1      -4.902  -3.687  -4.684  1.00  0.00    -0.003 C 
ATOM      7  C   UNL     1      -4.585  -4.962  -3.907  1.00  0.00     0.004 C 
ENDBRANCH   5   6
ENDBRANCH   1   5
TORSDOF 3
ENDMDL
