MODEL 1
REMARK VINA RESULT:    -3.112      0.000      0.000
REMARK INTER + INTRA:          -7.136
REMARK INTER:                  -5.841
REMARK INTRA:                  -1.294
REMARK UNBOUND:                -1.294
REMARK SMILES CCCCCCCCC=CCCCCCCCC(=O)[O-]
REMARK SMILES IDX 10 1 9 2 11 3 12 4 13 5 14 6 15 7 16 8 17 9 18 10 19 11
REMARK SMILES IDX 20 12 8 13 7 14 6 15 5 16 4 17 3 18 2 19 1 20
REMARK H PARENT
REMARK Flexibility Score: inf
ROOT
ATOM      1  C   UNL     1      15.115  16.553  26.159  1.00  0.00    -0.031 C 
ATOM      2  C   UNL     1      15.602  16.373  27.396  1.00  0.00    -0.031 C 
ENDROOT
BRANCH   1   3
ATOM      3  C   UNL     1      15.016  17.923  25.543  1.00  0.00     0.027 C 
BRANCH   3   4
ATOM      4  C   UNL     1      15.132  17.892  24.009  1.00  0.00     0.004 C 
BRANCH   4   5
ATOM      5  C   UNL     1      13.802  18.125  23.263  1.00  0.00     0.000 C 
BRANCH   5   6
ATOM      6  C   UNL     1      12.701  17.091  23.559  1.00  0.00     0.000 C 
BRANCH   6   7
ATOM      7  C   UNL     1      11.346  17.737  23.882  1.00  0.00     0.000 C 
BRANCH   7   8
ATOM      8  C   UNL     1      10.806  17.237  25.227  1.00  0.00     0.006 C 
BRANCH   8   9
ATOM      9  C   UNL     1      11.541  17.901  26.395  1.00  0.00     0.053 C 
BRANCH   9  10
ATOM     10  C   UNL     1      12.075  16.866  27.334  1.00  0.00     0.041 C 
ATOM     11  O   UNL     1      12.535  17.205  28.456  1.00  0.00    -0.550 OA
ATOM     12  O   UNL     1      12.111  15.531  26.950  1.00  0.00    -0.550 OA
ENDBRANCH   9  10
ENDBRANCH   8   9
ENDBRANCH   7   8
ENDBRANCH   6   7
ENDBRANCH   5   6
ENDBRANCH   4   5
ENDBRANCH   3   4
ENDBRANCH   1   3
BRANCH   2  13
ATOM     13  C   UNL     1      15.701  15.004  28.012  1.00  0.00     0.027 C 
BRANCH  13  14
ATOM     14  C   UNL     1      14.715  14.806  29.176  1.00  0.00     0.004 C 
BRANCH  14  15
ATOM     15  C   UNL     1      15.378  14.660  30.561  1.00  0.00     0.000 C 
BRANCH  15  16
ATOM     16  C   UNL     1      14.516  13.963  31.629  1.00  0.00     0.000 C 
BRANCH  16  17
ATOM     17  C   UNL     1      15.184  12.701  32.204  1.00  0.00    -0.000 C 
BRANCH  17  18
ATOM     18  C   UNL     1      16.042  11.963  31.165  1.00  0.00    -0.000 C 
BRANCH  18  19
ATOM     19  C   UNL     1      15.214  11.035  30.263  1.00  0.00    -0.003 C 
ATOM     20  C   UNL     1      15.888  10.841  28.908  1.00  0.00     0.004 C 
ENDBRANCH  18  19
ENDBRANCH  17  18
ENDBRANCH  16  17
ENDBRANCH  15  16
ENDBRANCH  14  15
ENDBRANCH  13  14
ENDBRANCH   2  13
TORSDOF 15
ENDMDL
MODEL 2
REMARK VINA RESULT:    -2.931      2.184      3.040
REMARK INTER + INTRA:          -6.796
REMARK INTER:                  -5.853
REMARK INTRA:                  -0.942
REMARK UNBOUND:                -1.294
REMARK SMILES CCCCCCCCC=CCCCCCCCC(=O)[O-]
REMARK SMILES IDX 10 1 9 2 11 3 12 4 13 5 14 6 15 7 16 8 17 9 18 10 19 11
REMARK SMILES IDX 20 12 8 13 7 14 6 15 5 16 4 17 3 18 2 19 1 20
REMARK H PARENT
REMARK Flexibility Score: inf
ROOT
ATOM      1  C   UNL     1      14.438  15.127  27.286  1.00  0.00    -0.031 C 
ATOM      2  C   UNL     1      15.587  15.360  27.937  1.00  0.00    -0.031 C 
ENDROOT
BRANCH   1   3
ATOM      3  C   UNL     1      14.335  15.277  25.792  1.00  0.00     0.027 C 
BRANCH   3   4
ATOM      4  C   UNL     1      14.687  16.695  25.312  1.00  0.00     0.004 C 
BRANCH   4   5
ATOM      5  C   UNL     1      13.912  17.823  26.024  1.00  0.00     0.000 C 
BRANCH   5   6
ATOM      6  C   UNL     1      12.515  17.427  26.537  1.00  0.00     0.000 C 
BRANCH   6   7
ATOM      7  C   UNL     1      11.515  17.161  25.402  1.00  0.00     0.000 C 
BRANCH   7   8
ATOM      8  C   UNL     1      11.762  18.106  24.220  1.00  0.00     0.006 C 
BRANCH   8   9
ATOM      9  C   UNL     1      11.719  17.347  22.891  1.00  0.00     0.053 C 
BRANCH   9  10
ATOM     10  C   UNL     1      12.748  17.882  21.948  1.00  0.00     0.041 C 
ATOM     11  O   UNL     1      12.460  18.073  20.736  1.00  0.00    -0.550 OA
ATOM     12  O   UNL     1      14.041  18.124  22.394  1.00  0.00    -0.550 OA
ENDBRANCH   9  10
ENDBRANCH   8   9
ENDBRANCH   7   8
ENDBRANCH   6   7
ENDBRANCH   5   6
ENDBRANCH   4   5
ENDBRANCH   3   4
ENDBRANCH   1   3
BRANCH   2  13
ATOM     13  C   UNL     1      15.691  15.210  29.431  1.00  0.00     0.027 C 
BRANCH  13  14
ATOM     14  C   UNL     1      14.330  14.934  30.093  1.00  0.00     0.004 C 
BRANCH  14  15
ATOM     15  C   UNL     1      14.402  14.077  31.373  1.00  0.00     0.000 C 
BRANCH  15  16
ATOM     16  C   UNL     1      15.657  13.194  31.501  1.00  0.00     0.000 C 
BRANCH  16  17
ATOM     17  C   UNL     1      15.327  11.736  31.865  1.00  0.00    -0.000 C 
BRANCH  17  18
ATOM     18  C   UNL     1      15.298  10.813  30.636  1.00  0.00    -0.000 C 
BRANCH  18  19
ATOM     19  C   UNL     1      15.839  11.495  29.371  1.00  0.00    -0.003 C 
ATOM     20  C   UNL     1      16.069  10.479  28.256  1.00  0.00     0.004 C 
ENDBRANCH  18  19
ENDBRANCH  17  18
ENDBRANCH  16  17
ENDBRANCH  15  16
ENDBRANCH  14  15
ENDBRANCH  13  14
ENDBRANCH   2  13
TORSDOF 15
ENDMDL
MODEL 3
REMARK VINA RESULT:    -2.867      2.199      7.213
REMARK INTER + INTRA:          -6.676
REMARK INTER:                  -5.001
REMARK INTRA:                  -1.675
REMARK UNBOUND:                -1.294
REMARK SMILES CCCCCCCCC=CCCCCCCCC(=O)[O-]
REMARK SMILES IDX 10 1 9 2 11 3 12 4 13 5 14 6 15 7 16 8 17 9 18 10 19 11
REMARK SMILES IDX 20 12 8 13 7 14 6 15 5 16 4 17 3 18 2 19 1 20
REMARK H PARENT
REMARK Flexibility Score: inf
ROOT
ATOM      1  C   UNL     1      15.532  16.475  26.823  1.00  0.00    -0.031 C 
ATOM      2  C   UNL     1      14.941  16.530  25.621  1.00  0.00    -0.031 C 
ENDROOT
BRANCH   1   3
ATOM      3  C   UNL     1      15.421  15.258  27.702  1.00  0.00     0.027 C 
BRANCH   3   4
ATOM      4  C   UNL     1      14.935  15.595  29.122  1.00  0.00     0.004 C 
BRANCH   4   5
ATOM      5  C   UNL     1      14.356  14.396  29.901  1.00  0.00     0.000 C 
BRANCH   5   6
ATOM      6  C   UNL     1      14.206  14.618  31.417  1.00  0.00     0.000 C 
BRANCH   6   7
ATOM      7  C   UNL     1      14.743  13.444  32.249  1.00  0.00     0.000 C 
BRANCH   7   8
ATOM      8  C   UNL     1      16.017  12.865  31.622  1.00  0.00     0.006 C 
BRANCH   8   9
ATOM      9  C   UNL     1      15.913  11.345  31.468  1.00  0.00     0.053 C 
BRANCH   9  10
ATOM     10  C   UNL     1      15.401  10.990  30.109  1.00  0.00     0.041 C 
ATOM     11  O   UNL     1      14.290  10.409  29.982  1.00  0.00    -0.550 OA
ATOM     12  O   UNL     1      16.172  11.253  28.984  1.00  0.00    -0.550 OA
ENDBRANCH   9  10
ENDBRANCH   8   9
ENDBRANCH   7   8
ENDBRANCH   6   7
ENDBRANCH   5   6
ENDBRANCH   4   5
ENDBRANCH   3   4
ENDBRANCH   1   3
BRANCH   2  13
ATOM     13  C   UNL     1      15.054  17.747  24.742  1.00  0.00     0.027 C 
BRANCH  13  14
ATOM     14  C   UNL     1      13.883  17.870  23.751  1.00  0.00     0.004 C 
BRANCH  14  15
ATOM     15  C   UNL     1      12.738  16.864  23.984  1.00  0.00     0.000 C 
BRANCH  15  16
ATOM     16  C   UNL     1      11.335  17.485  24.106  1.00  0.00     0.000 C 
BRANCH  16  17
ATOM     17  C   UNL     1      10.751  17.369  25.525  1.00  0.00    -0.000 C 
BRANCH  17  18
ATOM     18  C   UNL     1      11.685  17.954  26.596  1.00  0.00    -0.000 C 
BRANCH  18  19
ATOM     19  C   UNL     1      12.105  16.917  27.647  1.00  0.00    -0.003 C 
ATOM     20  C   UNL     1      11.934  15.496  27.117  1.00  0.00     0.004 C 
ENDBRANCH  18  19
ENDBRANCH  17  18
ENDBRANCH  16  17
ENDBRANCH  15  16
ENDBRANCH  14  15
ENDBRANCH  13  14
ENDBRANCH   2  13
TORSDOF 15
ENDMDL
MODEL 4
REMARK VINA RESULT:    -2.738      1.404      2.773
REMARK INTER + INTRA:          -6.434
REMARK INTER:                  -5.255
REMARK INTRA:                  -1.179
REMARK UNBOUND:                -1.294
REMARK SMILES CCCCCCCCC=CCCCCCCCC(=O)[O-]
REMARK SMILES IDX 10 1 9 2 11 3 12 4 13 5 14 6 15 7 16 8 17 9 18 10 19 11
REMARK SMILES IDX 20 12 8 13 7 14 6 15 5 16 4 17 3 18 2 19 1 20
REMARK H PARENT
REMARK Flexibility Score: inf
ROOT
ATOM      1  C   UNL     1      12.890  15.204  28.582  1.00  0.00    -0.031 C 
ATOM      2  C   UNL     1      14.167  15.533  28.830  1.00  0.00    -0.031 C 
ENDROOT
BRANCH   1   3
ATOM      3  C   UNL     1      12.111  15.854  27.470  1.00  0.00     0.027 C 
BRANCH   3   4
ATOM      4  C   UNL     1      12.100  17.389  27.573  1.00  0.00     0.004 C 
BRANCH   4   5
ATOM      5  C   UNL     1      11.690  18.114  26.274  1.00  0.00     0.000 C 
BRANCH   5   6
ATOM      6  C   UNL     1      11.024  17.219  25.213  1.00  0.00     0.000 C 
BRANCH   6   7
ATOM      7  C   UNL     1      11.933  16.944  24.007  1.00  0.00     0.000 C 
BRANCH   7   8
ATOM      8  C   UNL     1      12.888  18.119  23.760  1.00  0.00     0.006 C 
BRANCH   8   9
ATOM      9  C   UNL     1      14.348  17.661  23.817  1.00  0.00     0.053 C 
BRANCH   9  10
ATOM     10  C   UNL     1      14.648  17.028  25.138  1.00  0.00     0.041 C 
ATOM     11  O   UNL     1      15.067  17.730  26.097  1.00  0.00    -0.550 OA
ATOM     12  O   UNL     1      14.514  15.655  25.298  1.00  0.00    -0.550 OA
ENDBRANCH   9  10
ENDBRANCH   8   9
ENDBRANCH   7   8
ENDBRANCH   6   7
ENDBRANCH   5   6
ENDBRANCH   4   5
ENDBRANCH   3   4
ENDBRANCH   1   3
BRANCH   2  13
ATOM     13  C   UNL     1      14.946  14.882  29.942  1.00  0.00     0.027 C 
BRANCH  13  14
ATOM     14  C   UNL     1      14.078  14.582  31.176  1.00  0.00     0.004 C 
BRANCH  14  15
ATOM     15  C   UNL     1      14.735  13.644  32.209  1.00  0.00     0.000 C 
BRANCH  15  16
ATOM     16  C   UNL     1      15.939  12.838  31.689  1.00  0.00     0.000 C 
BRANCH  16  17
ATOM     17  C   UNL     1      15.734  11.318  31.804  1.00  0.00    -0.000 C 
BRANCH  17  18
ATOM     18  C   UNL     1      15.190  10.697  30.508  1.00  0.00    -0.000 C 
BRANCH  18  19
ATOM     19  C   UNL     1      15.742  11.378  29.247  1.00  0.00    -0.003 C 
ATOM     20  C   UNL     1      16.243  10.346  28.241  1.00  0.00     0.004 C 
ENDBRANCH  18  19
ENDBRANCH  17  18
ENDBRANCH  16  17
ENDBRANCH  15  16
ENDBRANCH  14  15
ENDBRANCH  13  14
ENDBRANCH   2  13
TORSDOF 15
ENDMDL
MODEL 5
REMARK VINA RESULT:    -2.675      2.139      7.082
REMARK INTER + INTRA:          -6.314
REMARK INTER:                  -4.532
REMARK INTRA:                  -1.782
REMARK UNBOUND:                -1.294
REMARK SMILES CCCCCCCCC=CCCCCCCCC(=O)[O-]
REMARK SMILES IDX 10 1 9 2 11 3 12 4 13 5 14 6 15 7 16 8 17 9 18 10 19 11
REMARK SMILES IDX 20 12 8 13 7 14 6 15 5 16 4 17 3 18 2 19 1 20
REMARK H PARENT
REMARK Flexibility Score: inf
ROOT
ATOM      1  C   UNL     1      15.097  16.310  25.965  1.00  0.00    -0.031 C 
ATOM      2  C   UNL     1      15.440  17.505  25.462  1.00  0.00    -0.031 C 
ENDROOT
BRANCH   1   3
ATOM      3  C   UNL     1      15.740  15.768  27.214  1.00  0.00     0.027 C 
BRANCH   3   4
ATOM      4  C   UNL     1      14.823  14.798  27.979  1.00  0.00     0.004 C 
BRANCH   4   5
ATOM      5  C   UNL     1      14.396  15.290  29.377  1.00  0.00     0.000 C 
BRANCH   5   6
ATOM      6  C   UNL     1      15.229  14.732  30.545  1.00  0.00     0.000 C 
BRANCH   6   7
ATOM      7  C   UNL     1      14.363  14.168  31.681  1.00  0.00     0.000 C 
BRANCH   7   8
ATOM      8  C   UNL     1      14.994  12.904  32.277  1.00  0.00     0.006 C 
BRANCH   8   9
ATOM      9  C   UNL     1      16.056  12.324  31.338  1.00  0.00     0.053 C 
BRANCH   9  10
ATOM     10  C   UNL     1      15.433  11.373  30.366  1.00  0.00     0.041 C 
ATOM     11  O   UNL     1      15.800  11.366  29.162  1.00  0.00    -0.550 OA
ATOM     12  O   UNL     1      14.409  10.529  30.778  1.00  0.00    -0.550 OA
ENDBRANCH   9  10
ENDBRANCH   8   9
ENDBRANCH   7   8
ENDBRANCH   6   7
ENDBRANCH   5   6
ENDBRANCH   4   5
ENDBRANCH   3   4
ENDBRANCH   1   3
BRANCH   2  13
ATOM     13  C   UNL     1      14.797  18.048  24.214  1.00  0.00     0.027 C 
BRANCH  13  14
ATOM     14  C   UNL     1      13.724  17.105  23.643  1.00  0.00     0.004 C 
BRANCH  14  15
ATOM     15  C   UNL     1      12.364  17.777  23.362  1.00  0.00     0.000 C 
BRANCH  15  16
ATOM     16  C   UNL     1      11.214  17.339  24.286  1.00  0.00     0.000 C 
BRANCH  16  17
ATOM     17  C   UNL     1      11.533  16.054  25.070  1.00  0.00    -0.000 C 
BRANCH  17  18
ATOM     18  C   UNL     1      11.850  16.328  26.548  1.00  0.00    -0.000 C 
BRANCH  18  19
ATOM     19  C   UNL     1      11.916  17.828  26.872  1.00  0.00    -0.003 C 
ATOM     20  C   UNL     1      12.894  18.101  28.011  1.00  0.00     0.004 C 
ENDBRANCH  18  19
ENDBRANCH  17  18
ENDBRANCH  16  17
ENDBRANCH  15  16
ENDBRANCH  14  15
ENDBRANCH  13  14
ENDBRANCH   2  13
TORSDOF 15
ENDMDL
MODEL 6
REMARK VINA RESULT:    -2.378      2.380      7.516
REMARK INTER + INTRA:          -5.758
REMARK INTER:                  -4.812
REMARK INTRA:                  -0.946
REMARK UNBOUND:                -1.294
REMARK SMILES CCCCCCCCC=CCCCCCCCC(=O)[O-]
REMARK SMILES IDX 10 1 9 2 11 3 12 4 13 5 14 6 15 7 16 8 17 9 18 10 19 11
REMARK SMILES IDX 20 12 8 13 7 14 6 15 5 16 4 17 3 18 2 19 1 20
REMARK H PARENT
REMARK Flexibility Score: inf
ROOT
ATOM      1  C   UNL     1      14.907  16.813  27.849  1.00  0.00    -0.031 C 
ATOM      2  C   UNL     1      13.620  17.146  28.023  1.00  0.00    -0.031 C 
ENDROOT
BRANCH   1   3
ATOM      3  C   UNL     1      15.618  15.888  28.800  1.00  0.00     0.027 C 
BRANCH   3   4
ATOM      4  C   UNL     1      14.729  14.723  29.268  1.00  0.00     0.004 C 
BRANCH   4   5
ATOM      5  C   UNL     1      13.741  15.086  30.395  1.00  0.00     0.000 C 
BRANCH   5   6
ATOM      6  C   UNL     1      14.019  14.405  31.748  1.00  0.00     0.000 C 
BRANCH   6   7
ATOM      7  C   UNL     1      15.456  13.875  31.866  1.00  0.00     0.000 C 
BRANCH   7   8
ATOM      8  C   UNL     1      15.495  12.352  31.692  1.00  0.00     0.006 C 
BRANCH   8   9
ATOM      9  C   UNL     1      16.256  11.963  30.421  1.00  0.00     0.053 C 
BRANCH   9  10
ATOM     10  C   UNL     1      15.537  10.873  29.692  1.00  0.00     0.041 C 
ATOM     11  O   UNL     1      15.944  10.488  28.565  1.00  0.00    -0.550 OA
ATOM     12  O   UNL     1      14.385  10.316  30.235  1.00  0.00    -0.550 OA
ENDBRANCH   9  10
ENDBRANCH   8   9
ENDBRANCH   7   8
ENDBRANCH   6   7
ENDBRANCH   5   6
ENDBRANCH   4   5
ENDBRANCH   3   4
ENDBRANCH   1   3
BRANCH   2  13
ATOM     13  C   UNL     1      12.909  18.071  27.071  1.00  0.00     0.027 C 
BRANCH  13  14
ATOM     14  C   UNL     1      11.393  17.813  27.018  1.00  0.00     0.004 C 
BRANCH  14  15
ATOM     15  C   UNL     1      10.821  17.644  25.596  1.00  0.00     0.000 C 
BRANCH  15  16
ATOM     16  C   UNL     1      11.506  16.566  24.738  1.00  0.00     0.000 C 
BRANCH  16  17
ATOM     17  C   UNL     1      11.906  17.079  23.343  1.00  0.00    -0.000 C 
BRANCH  17  18
ATOM     18  C   UNL     1      13.214  17.886  23.364  1.00  0.00    -0.000 C 
BRANCH  18  19
ATOM     19  C   UNL     1      14.310  17.218  24.207  1.00  0.00    -0.003 C 
ATOM     20  C   UNL     1      15.531  18.123  24.338  1.00  0.00     0.004 C 
ENDBRANCH  18  19
ENDBRANCH  17  18
ENDBRANCH  16  17
ENDBRANCH  15  16
ENDBRANCH  14  15
ENDBRANCH  13  14
ENDBRANCH   2  13
TORSDOF 15
ENDMDL
MODEL 7
REMARK VINA RESULT:    -2.342      2.243      7.769
REMARK INTER + INTRA:          -5.690
REMARK INTER:                  -5.072
REMARK INTRA:                  -0.618
REMARK UNBOUND:                -1.294
REMARK SMILES CCCCCCCCC=CCCCCCCCC(=O)[O-]
REMARK SMILES IDX 10 1 9 2 11 3 12 4 13 5 14 6 15 7 16 8 17 9 18 10 19 11
REMARK SMILES IDX 20 12 8 13 7 14 6 15 5 16 4 17 3 18 2 19 1 20
REMARK H PARENT
REMARK Flexibility Score: inf
ROOT
ATOM      1  C   UNL     1      15.469  15.623  28.439  1.00  0.00    -0.031 C 
ATOM      2  C   UNL     1      14.753  15.447  27.318  1.00  0.00    -0.031 C 
ENDROOT
BRANCH   1   3
ATOM      3  C   UNL     1      15.285  14.732  29.638  1.00  0.00     0.027 C 
BRANCH   3   4
ATOM      4  C   UNL     1      14.066  15.127  30.488  1.00  0.00     0.004 C 
BRANCH   4   5
ATOM      5  C   UNL     1      14.128  14.652  31.955  1.00  0.00     0.000 C 
BRANCH   5   6
ATOM      6  C   UNL     1      14.423  13.153  32.140  1.00  0.00     0.000 C 
BRANCH   6   7
ATOM      7  C   UNL     1      15.884  12.790  31.837  1.00  0.00     0.000 C 
BRANCH   7   8
ATOM      8  C   UNL     1      16.017  11.306  31.473  1.00  0.00     0.006 C 
BRANCH   8   9
ATOM      9  C   UNL     1      15.097  10.942  30.305  1.00  0.00     0.053 C 
BRANCH   9  10
ATOM     10  C   UNL     1      15.861  10.927  29.020  1.00  0.00     0.041 C 
ATOM     11  O   UNL     1      15.936  11.968  28.314  1.00  0.00    -0.550 OA
ATOM     12  O   UNL     1      16.450   9.751  28.574  1.00  0.00    -0.550 OA
ENDBRANCH   9  10
ENDBRANCH   8   9
ENDBRANCH   7   8
ENDBRANCH   6   7
ENDBRANCH   5   6
ENDBRANCH   4   5
ENDBRANCH   3   4
ENDBRANCH   1   3
BRANCH   2  13
ATOM     13  C   UNL     1      14.938  16.337  26.118  1.00  0.00     0.027 C 
BRANCH  13  14
ATOM     14  C   UNL     1      14.282  17.717  26.299  1.00  0.00     0.004 C 
BRANCH  14  15
ATOM     15  C   UNL     1      12.880  17.681  26.940  1.00  0.00     0.000 C 
BRANCH  15  16
ATOM     16  C   UNL     1      11.835  16.842  26.182  1.00  0.00     0.000 C 
BRANCH  16  17
ATOM     17  C   UNL     1      11.276  17.562  24.942  1.00  0.00    -0.000 C 
BRANCH  17  18
ATOM     18  C   UNL     1      11.950  17.102  23.640  1.00  0.00    -0.000 C 
BRANCH  18  19
ATOM     19  C   UNL     1      12.973  18.117  23.111  1.00  0.00    -0.003 C 
ATOM     20  C   UNL     1      13.001  18.125  21.585  1.00  0.00     0.004 C 
ENDBRANCH  18  19
ENDBRANCH  17  18
ENDBRANCH  16  17
ENDBRANCH  15  16
ENDBRANCH  14  15
ENDBRANCH  13  14
ENDBRANCH   2  13
TORSDOF 15
ENDMDL
MODEL 8
REMARK VINA RESULT:    -2.284      1.383      2.729
REMARK INTER + INTRA:          -5.581
REMARK INTER:                  -5.518
REMARK INTRA:                  -0.063
REMARK UNBOUND:                -1.294
REMARK SMILES CCCCCCCCC=CCCCCCCCC(=O)[O-]
REMARK SMILES IDX 10 1 9 2 11 3 12 4 13 5 14 6 15 7 16 8 17 9 18 10 19 11
REMARK SMILES IDX 20 12 8 13 7 14 6 15 5 16 4 17 3 18 2 19 1 20
REMARK H PARENT
REMARK Flexibility Score: inf
ROOT
ATOM      1  C   UNL     1      11.695  17.899  27.375  1.00  0.00    -0.031 C 
ATOM      2  C   UNL     1      12.856  17.342  27.752  1.00  0.00    -0.031 C 
ENDROOT
BRANCH   1   3
ATOM      3  C   UNL     1      11.347  18.090  25.923  1.00  0.00     0.027 C 
BRANCH   3   4
ATOM      4  C   UNL     1      11.208  16.757  25.168  1.00  0.00     0.004 C 
BRANCH   4   5
ATOM      5  C   UNL     1      12.110  16.630  23.923  1.00  0.00     0.000 C 
BRANCH   5   6
ATOM      6  C   UNL     1      12.694  17.958  23.406  1.00  0.00     0.000 C 
BRANCH   6   7
ATOM      7  C   UNL     1      14.185  18.123  23.734  1.00  0.00     0.000 C 
BRANCH   7   8
ATOM      8  C   UNL     1      14.749  16.853  24.381  1.00  0.00     0.006 C 
BRANCH   8   9
ATOM      9  C   UNL     1      14.977  17.054  25.882  1.00  0.00     0.053 C 
BRANCH   9  10
ATOM     10  C   UNL     1      15.028  15.736  26.586  1.00  0.00     0.041 C 
ATOM     11  O   UNL     1      15.965  15.481  27.388  1.00  0.00    -0.550 OA
ATOM     12  O   UNL     1      14.068  14.768  26.319  1.00  0.00    -0.550 OA
ENDBRANCH   9  10
ENDBRANCH   8   9
ENDBRANCH   7   8
ENDBRANCH   6   7
ENDBRANCH   5   6
ENDBRANCH   4   5
ENDBRANCH   3   4
ENDBRANCH   1   3
BRANCH   2  13
ATOM     13  C   UNL     1      13.204  17.151  29.203  1.00  0.00     0.027 C 
BRANCH  13  14
ATOM     14  C   UNL     1      13.159  15.674  29.632  1.00  0.00     0.004 C 
BRANCH  14  15
ATOM     15  C   UNL     1      14.468  15.147  30.255  1.00  0.00     0.000 C 
BRANCH  15  16
ATOM     16  C   UNL     1      14.354  13.786  30.964  1.00  0.00     0.000 C 
BRANCH  16  17
ATOM     17  C   UNL     1      15.577  13.466  31.842  1.00  0.00    -0.000 C 
BRANCH  17  18
ATOM     18  C   UNL     1      16.211  12.109  31.497  1.00  0.00    -0.000 C 
BRANCH  18  19
ATOM     19  C   UNL     1      15.332  11.264  30.562  1.00  0.00    -0.003 C 
ATOM     20  C   UNL     1      15.875  11.280  29.136  1.00  0.00     0.004 C 
ENDBRANCH  18  19
ENDBRANCH  17  18
ENDBRANCH  16  17
ENDBRANCH  15  16
ENDBRANCH  14  15
ENDBRANCH  13  14
ENDBRANCH   2  13
TORSDOF 15
ENDMDL
