MODEL 1
REMARK VINA RESULT:    -3.626      0.000      0.000
REMARK INTER + INTRA:          -4.810
REMARK INTER:                  -4.474
REMARK INTRA:                  -0.336
REMARK UNBOUND:                -0.336
REMARK SMILES C=CCc1ccc(OC)c(OC)c1
REMARK SMILES IDX 7 1 10 2 13 3 4 4 5 5 6 6 8 7 9 8 11 9 12 10 3 11 2 12 1 13
REMARK H PARENT
REMARK Flexibility Score: inf
ROOT
ATOM      1  C   UNL     1      26.272  39.742  19.966  1.00  0.00     0.160 A 
ATOM      2  C   UNL     1      27.177  40.182  18.989  1.00  0.00     0.160 A 
ATOM      3  C   UNL     1      27.547  41.542  18.943  1.00  0.00     0.054 A 
ATOM      4  C   UNL     1      27.012  42.457  19.862  1.00  0.00    -0.040 A 
ATOM      5  C   UNL     1      26.118  42.006  20.842  1.00  0.00     0.008 A 
ATOM      6  C   UNL     1      25.746  40.662  20.893  1.00  0.00     0.051 A 
ENDROOT
BRANCH   1   7
ATOM      7  O   UNL     1      25.922  38.381  19.986  1.00  0.00    -0.493 OA
ATOM      8  C   UNL     1      26.451  37.427  20.901  1.00  0.00     0.278 C 
ENDBRANCH   1   7
BRANCH   2   9
ATOM      9  O   UNL     1      27.690  39.241  18.082  1.00  0.00    -0.493 OA
ATOM     10  C   UNL     1      29.058  38.858  18.004  1.00  0.00     0.278 C 
ENDBRANCH   2   9
BRANCH   4  11
ATOM     11  C   UNL     1      27.433  43.903  19.832  1.00  0.00     0.062 C 
BRANCH  11  12
ATOM     12  C   UNL     1      28.829  44.062  20.364  1.00  0.00    -0.030 C 
ATOM     13  C   UNL     1      29.115  43.864  21.655  1.00  0.00     0.004 C 
ENDBRANCH  11  12
ENDBRANCH   4  11
TORSDOF 4
ENDMDL
MODEL 2
REMARK VINA RESULT:    -3.620     13.044     15.985
REMARK INTER + INTRA:          -4.802
REMARK INTER:                  -4.495
REMARK INTRA:                  -0.307
REMARK UNBOUND:                -0.336
REMARK SMILES C=CCc1ccc(OC)c(OC)c1
REMARK SMILES IDX 7 1 10 2 13 3 4 4 5 5 6 6 8 7 9 8 11 9 12 10 3 11 2 12 1 13
REMARK H PARENT
REMARK Flexibility Score: inf
ROOT
ATOM      1  C   UNL     1      26.498  25.725  27.716  1.00  0.00     0.160 A 
ATOM      2  C   UNL     1      26.648  27.033  28.202  1.00  0.00     0.160 A 
ATOM      3  C   UNL     1      27.444  27.954  27.491  1.00  0.00     0.054 A 
ATOM      4  C   UNL     1      28.089  27.572  26.305  1.00  0.00    -0.040 A 
ATOM      5  C   UNL     1      27.923  26.267  25.821  1.00  0.00     0.008 A 
ATOM      6  C   UNL     1      27.139  25.349  26.520  1.00  0.00     0.051 A 
ENDROOT
BRANCH   1   7
ATOM      7  O   UNL     1      25.700  24.829  28.447  1.00  0.00    -0.493 OA
ATOM      8  C   UNL     1      26.204  23.875  29.376  1.00  0.00     0.278 C 
ENDBRANCH   1   7
BRANCH   2   9
ATOM      9  O   UNL     1      25.993  27.381  29.394  1.00  0.00    -0.493 OA
ATOM     10  C   UNL     1      25.727  28.716  29.809  1.00  0.00     0.278 C 
ENDBRANCH   2   9
BRANCH   4  11
ATOM     11  C   UNL     1      28.911  28.567  25.529  1.00  0.00     0.062 C 
BRANCH  11  12
ATOM     12  C   UNL     1      28.095  29.783  25.191  1.00  0.00    -0.030 C 
ATOM     13  C   UNL     1      27.229  29.786  24.172  1.00  0.00     0.004 C 
ENDBRANCH  11  12
ENDBRANCH   4  11
TORSDOF 4
ENDMDL
MODEL 3
REMARK VINA RESULT:    -3.510      1.714      2.952
REMARK INTER + INTRA:          -4.667
REMARK INTER:                  -4.367
REMARK INTRA:                  -0.300
REMARK UNBOUND:                -0.336
REMARK SMILES C=CCc1ccc(OC)c(OC)c1
REMARK SMILES IDX 7 1 10 2 13 3 4 4 5 5 6 6 8 7 9 8 11 9 12 10 3 11 2 12 1 13
REMARK H PARENT
REMARK Flexibility Score: inf
ROOT
ATOM      1  C   UNL     1      28.101  39.887  19.501  1.00  0.00     0.160 A 
ATOM      2  C   UNL     1      26.799  40.102  19.981  1.00  0.00     0.160 A 
ATOM      3  C   UNL     1      26.533  41.218  20.799  1.00  0.00     0.054 A 
ATOM      4  C   UNL     1      27.558  42.111  21.142  1.00  0.00    -0.040 A 
ATOM      5  C   UNL     1      28.852  41.896  20.650  1.00  0.00     0.008 A 
ATOM      6  C   UNL     1      29.125  40.792  19.840  1.00  0.00     0.051 A 
ENDROOT
BRANCH   1   7
ATOM      7  O   UNL     1      28.336  38.766  18.688  1.00  0.00    -0.493 OA
ATOM      8  C   UNL     1      28.889  38.823  17.378  1.00  0.00     0.278 C 
ENDBRANCH   1   7
BRANCH   2   9
ATOM      9  O   UNL     1      25.797  39.186  19.622  1.00  0.00    -0.493 OA
ATOM     10  C   UNL     1      25.422  38.054  20.398  1.00  0.00     0.278 C 
ENDBRANCH   2   9
BRANCH   4  11
ATOM     11  C   UNL     1      27.264  43.321  21.990  1.00  0.00     0.062 C 
BRANCH  11  12
ATOM     12  C   UNL     1      27.051  42.926  23.425  1.00  0.00    -0.030 C 
ATOM     13  C   UNL     1      28.045  42.442  24.176  1.00  0.00     0.004 C 
ENDBRANCH  11  12
ENDBRANCH   4  11
TORSDOF 4
ENDMDL
MODEL 4
REMARK VINA RESULT:    -3.389      1.554      2.722
REMARK INTER + INTRA:          -4.517
REMARK INTER:                  -4.151
REMARK INTRA:                  -0.366
REMARK UNBOUND:                -0.336
REMARK SMILES C=CCc1ccc(OC)c(OC)c1
REMARK SMILES IDX 7 1 10 2 13 3 4 4 5 5 6 6 8 7 9 8 11 9 12 10 3 11 2 12 1 13
REMARK H PARENT
REMARK Flexibility Score: inf
ROOT
ATOM      1  C   UNL     1      28.215  39.122  19.674  1.00  0.00     0.160 A 
ATOM      2  C   UNL     1      26.839  39.342  19.837  1.00  0.00     0.160 A 
ATOM      3  C   UNL     1      26.383  40.591  20.303  1.00  0.00     0.054 A 
ATOM      4  C   UNL     1      27.293  41.614  20.609  1.00  0.00    -0.040 A 
ATOM      5  C   UNL     1      28.665  41.389  20.432  1.00  0.00     0.008 A 
ATOM      6  C   UNL     1      29.125  40.154  19.973  1.00  0.00     0.051 A 
ENDROOT
BRANCH   1   7
ATOM      7  O   UNL     1      28.640  37.866  19.209  1.00  0.00    -0.493 OA
ATOM      8  C   UNL     1      29.098  36.810  20.046  1.00  0.00     0.278 C 
ENDBRANCH   1   7
BRANCH   2   9
ATOM      9  O   UNL     1      25.955  38.296  19.525  1.00  0.00    -0.493 OA
ATOM     10  C   UNL     1      25.051  37.701  20.449  1.00  0.00     0.278 C 
ENDBRANCH   2   9
BRANCH   4  11
ATOM     11  C   UNL     1      26.802  42.959  21.076  1.00  0.00     0.062 C 
BRANCH  11  12
ATOM     12  C   UNL     1      27.168  44.031  20.088  1.00  0.00    -0.030 C 
ATOM     13  C   UNL     1      26.600  44.096  18.880  1.00  0.00     0.004 C 
ENDBRANCH  11  12
ENDBRANCH   4  11
TORSDOF 4
ENDMDL
MODEL 5
REMARK VINA RESULT:    -3.322     13.291     16.002
REMARK INTER + INTRA:          -4.435
REMARK INTER:                  -4.117
REMARK INTRA:                  -0.318
REMARK UNBOUND:                -0.336
REMARK SMILES C=CCc1ccc(OC)c(OC)c1
REMARK SMILES IDX 7 1 10 2 13 3 4 4 5 5 6 6 8 7 9 8 11 9 12 10 3 11 2 12 1 13
REMARK H PARENT
REMARK Flexibility Score: inf
ROOT
ATOM      1  C   UNL     1      26.598  25.753  27.698  1.00  0.00     0.160 A 
ATOM      2  C   UNL     1      27.147  25.435  26.446  1.00  0.00     0.160 A 
ATOM      3  C   UNL     1      27.912  26.398  25.756  1.00  0.00     0.054 A 
ATOM      4  C   UNL     1      28.122  27.670  26.308  1.00  0.00    -0.040 A 
ATOM      5  C   UNL     1      27.579  27.974  27.563  1.00  0.00     0.008 A 
ATOM      6  C   UNL     1      26.820  27.028  28.252  1.00  0.00     0.051 A 
ENDROOT
BRANCH   1   7
ATOM      7  O   UNL     1      25.840  24.773  28.362  1.00  0.00    -0.493 OA
ATOM      8  C   UNL     1      26.342  23.927  29.391  1.00  0.00     0.278 C 
ENDBRANCH   1   7
BRANCH   2   9
ATOM      9  O   UNL     1      26.914  24.154  25.921  1.00  0.00    -0.493 OA
ATOM     10  C   UNL     1      26.613  23.883  24.557  1.00  0.00     0.278 C 
ENDBRANCH   2   9
BRANCH   4  11
ATOM     11  C   UNL     1      28.966  28.686  25.584  1.00  0.00     0.062 C 
BRANCH  11  12
ATOM     12  C   UNL     1      28.126  29.841  25.117  1.00  0.00    -0.030 C 
ATOM     13  C   UNL     1      27.098  29.668  24.279  1.00  0.00     0.004 C 
ENDBRANCH  11  12
ENDBRANCH   4  11
TORSDOF 4
ENDMDL
MODEL 6
REMARK VINA RESULT:    -3.120     14.181     16.773
REMARK INTER + INTRA:          -4.185
REMARK INTER:                  -3.887
REMARK INTRA:                  -0.298
REMARK UNBOUND:                -0.336
REMARK SMILES C=CCc1ccc(OC)c(OC)c1
REMARK SMILES IDX 7 1 10 2 13 3 4 4 5 5 6 6 8 7 9 8 11 9 12 10 3 11 2 12 1 13
REMARK H PARENT
REMARK Flexibility Score: inf
ROOT
ATOM      1  C   UNL     1      25.990  27.818  28.929  1.00  0.00     0.160 A 
ATOM      2  C   UNL     1      27.291  27.915  28.410  1.00  0.00     0.160 A 
ATOM      3  C   UNL     1      27.857  26.814  27.736  1.00  0.00     0.054 A 
ATOM      4  C   UNL     1      27.133  25.622  27.585  1.00  0.00    -0.040 A 
ATOM      5  C   UNL     1      25.831  25.538  28.096  1.00  0.00     0.008 A 
ATOM      6  C   UNL     1      25.264  26.623  28.766  1.00  0.00     0.051 A 
ENDROOT
BRANCH   1   7
ATOM      7  O   UNL     1      25.453  28.931  29.596  1.00  0.00    -0.493 OA
ATOM      8  C   UNL     1      25.446  29.096  31.010  1.00  0.00     0.278 C 
ENDBRANCH   1   7
BRANCH   2   9
ATOM      9  O   UNL     1      27.988  29.121  28.583  1.00  0.00    -0.493 OA
ATOM     10  C   UNL     1      28.906  29.664  27.641  1.00  0.00     0.278 C 
ENDBRANCH   2   9
BRANCH   4  11
ATOM     11  C   UNL     1      27.727  24.458  26.836  1.00  0.00     0.062 C 
BRANCH  11  12
ATOM     12  C   UNL     1      27.630  24.675  25.352  1.00  0.00    -0.030 C 
ATOM     13  C   UNL     1      26.585  24.234  24.645  1.00  0.00     0.004 C 
ENDBRANCH  11  12
ENDBRANCH   4  11
TORSDOF 4
ENDMDL
MODEL 7
REMARK VINA RESULT:    -3.005     14.454     16.824
REMARK INTER + INTRA:          -4.044
REMARK INTER:                  -3.768
REMARK INTRA:                  -0.276
REMARK UNBOUND:                -0.336
REMARK SMILES C=CCc1ccc(OC)c(OC)c1
REMARK SMILES IDX 7 1 10 2 13 3 4 4 5 5 6 6 8 7 9 8 11 9 12 10 3 11 2 12 1 13
REMARK H PARENT
REMARK Flexibility Score: inf
ROOT
ATOM      1  C   UNL     1      27.147  26.304  28.571  1.00  0.00     0.160 A 
ATOM      2  C   UNL     1      27.082  27.706  28.598  1.00  0.00     0.160 A 
ATOM      3  C   UNL     1      25.828  28.347  28.545  1.00  0.00     0.054 A 
ATOM      4  C   UNL     1      24.646  27.595  28.462  1.00  0.00    -0.040 A 
ATOM      5  C   UNL     1      24.720  26.196  28.448  1.00  0.00     0.008 A 
ATOM      6  C   UNL     1      25.958  25.554  28.498  1.00  0.00     0.051 A 
ENDROOT
BRANCH   1   7
ATOM      7  O   UNL     1      28.411  25.694  28.624  1.00  0.00    -0.493 OA
ATOM      8  C   UNL     1      28.759  24.637  29.512  1.00  0.00     0.278 C 
ENDBRANCH   1   7
BRANCH   2   9
ATOM      9  O   UNL     1      28.284  28.428  28.677  1.00  0.00    -0.493 OA
ATOM     10  C   UNL     1      28.668  29.458  27.774  1.00  0.00     0.278 C 
ENDBRANCH   2   9
BRANCH   4  11
ATOM     11  C   UNL     1      23.306  28.281  28.439  1.00  0.00     0.062 C 
BRANCH  11  12
ATOM     12  C   UNL     1      22.233  27.338  27.973  1.00  0.00    -0.030 C 
ATOM     13  C   UNL     1      21.179  27.039  28.740  1.00  0.00     0.004 C 
ENDBRANCH  11  12
ENDBRANCH   4  11
TORSDOF 4
ENDMDL
MODEL 8
REMARK VINA RESULT:    -2.797     13.422     17.140
REMARK INTER + INTRA:          -3.787
REMARK INTER:                  -3.573
REMARK INTRA:                  -0.214
REMARK UNBOUND:                -0.336
REMARK SMILES C=CCc1ccc(OC)c(OC)c1
REMARK SMILES IDX 7 1 10 2 13 3 4 4 5 5 6 6 8 7 9 8 11 9 12 10 3 11 2 12 1 13
REMARK H PARENT
REMARK Flexibility Score: inf
ROOT
ATOM      1  C   UNL     1      27.988  27.654  26.640  1.00  0.00     0.160 A 
ATOM      2  C   UNL     1      27.237  27.363  27.789  1.00  0.00     0.160 A 
ATOM      3  C   UNL     1      27.415  26.127  28.445  1.00  0.00     0.054 A 
ATOM      4  C   UNL     1      28.334  25.187  27.955  1.00  0.00    -0.040 A 
ATOM      5  C   UNL     1      29.088  25.491  26.814  1.00  0.00     0.008 A 
ATOM      6  C   UNL     1      28.916  26.710  26.158  1.00  0.00     0.051 A 
ENDROOT
BRANCH   1   7
ATOM      7  O   UNL     1      27.788  28.892  26.008  1.00  0.00    -0.493 OA
ATOM      8  C   UNL     1      28.743  29.947  25.982  1.00  0.00     0.278 C 
ENDBRANCH   1   7
BRANCH   2   9
ATOM      9  O   UNL     1      26.324  28.324  28.250  1.00  0.00    -0.493 OA
ATOM     10  C   UNL     1      25.673  28.279  29.515  1.00  0.00     0.278 C 
ENDBRANCH   2   9
BRANCH   4  11
ATOM     11  C   UNL     1      28.546  23.882  28.675  1.00  0.00     0.062 C 
BRANCH  11  12
ATOM     12  C   UNL     1      28.215  24.019  30.135  1.00  0.00    -0.030 C 
ATOM     13  C   UNL     1      29.125  24.425  31.026  1.00  0.00     0.004 C 
ENDBRANCH  11  12
ENDBRANCH   4  11
TORSDOF 4
ENDMDL
MODEL 9
REMARK VINA RESULT:    -2.649      2.939      4.872
REMARK INTER + INTRA:          -3.605
REMARK INTER:                  -3.373
REMARK INTRA:                  -0.232
REMARK UNBOUND:                -0.336
REMARK SMILES C=CCc1ccc(OC)c(OC)c1
REMARK SMILES IDX 7 1 10 2 13 3 4 4 5 5 6 6 8 7 9 8 11 9 12 10 3 11 2 12 1 13
REMARK H PARENT
REMARK Flexibility Score: inf
ROOT
ATOM      1  C   UNL     1      27.725  42.855  22.190  1.00  0.00     0.160 A 
ATOM      2  C   UNL     1      27.440  42.827  20.816  1.00  0.00     0.160 A 
ATOM      3  C   UNL     1      27.906  41.754  20.029  1.00  0.00     0.054 A 
ATOM      4  C   UNL     1      28.656  40.719  20.608  1.00  0.00    -0.040 A 
ATOM      5  C   UNL     1      28.925  40.750  21.983  1.00  0.00     0.008 A 
ATOM      6  C   UNL     1      28.469  41.809  22.768  1.00  0.00     0.051 A 
ENDROOT
BRANCH   1   7
ATOM      7  O   UNL     1      27.247  43.937  22.947  1.00  0.00    -0.493 OA
ATOM      8  C   UNL     1      27.406  44.066  24.356  1.00  0.00     0.278 C 
ENDBRANCH   1   7
BRANCH   2   9
ATOM      9  O   UNL     1      26.691  43.880  20.268  1.00  0.00    -0.493 OA
ATOM     10  C   UNL     1      26.519  44.109  18.874  1.00  0.00     0.278 C 
ENDBRANCH   2   9
BRANCH   4  11
ATOM     11  C   UNL     1      29.125  39.557  19.772  1.00  0.00     0.062 C 
BRANCH  11  12
ATOM     12  C   UNL     1      28.223  39.355  18.588  1.00  0.00    -0.030 C 
ATOM     13  C   UNL     1      28.685  38.880  17.426  1.00  0.00     0.004 C 
ENDBRANCH  11  12
ENDBRANCH   4  11
TORSDOF 4
ENDMDL
