MODEL 1
REMARK VINA RESULT:    -4.289      0.000      0.000
REMARK INTER + INTRA:         -14.468
REMARK INTER:                 -10.808
REMARK INTRA:                  -3.660
REMARK UNBOUND:                -3.660
REMARK SMILES CCCCCCCCCCCCCCCCCCCCCCCCCCCC(=O)[O-]
REMARK SMILES IDX 15 1 16 2 17 3 18 4 19 5 20 6 21 7 22 8 23 9 24 10 25 11
REMARK SMILES IDX 26 12 27 13 28 14 29 15 30 16 14 17 13 18 12 19 11 20 10 21
REMARK SMILES IDX 9 22 8 23 7 24 6 25 5 26 4 27 3 28 2 29 1 30
REMARK H PARENT
REMARK Flexibility Score: inf
ROOT
ATOM      1  C   UNL     1       1.602   1.686  -8.708  1.00  0.00     0.000 C 
ENDROOT
BRANCH   1   2
ATOM      2  C   UNL     1       1.595   0.154  -8.568  1.00  0.00     0.000 C 
BRANCH   2   3
ATOM      3  C   UNL     1       1.543  -0.299  -7.100  1.00  0.00     0.000 C 
BRANCH   3   4
ATOM      4  C   UNL     1       0.267  -1.091  -6.759  1.00  0.00     0.000 C 
BRANCH   4   5
ATOM      5  C   UNL     1      -0.639  -1.424  -7.961  1.00  0.00     0.000 C 
BRANCH   5   6
ATOM      6  C   UNL     1      -1.976  -0.658  -7.999  1.00  0.00     0.000 C 
BRANCH   6   7
ATOM      7  C   UNL     1      -2.293   0.165  -6.735  1.00  0.00     0.000 C 
BRANCH   7   8
ATOM      8  C   UNL     1      -3.342  -0.460  -5.798  1.00  0.00     0.000 C 
BRANCH   8   9
ATOM      9  C   UNL     1      -3.590  -1.954  -6.078  1.00  0.00     0.000 C 
BRANCH   9  10
ATOM     10  C   UNL     1      -2.669  -2.873  -5.243  1.00  0.00     0.000 C 
BRANCH  10  11
ATOM     11  C   UNL     1      -2.511  -4.296  -5.813  1.00  0.00     0.000 C 
BRANCH  11  12
ATOM     12  C   UNL     1      -2.654  -5.434  -4.787  1.00  0.00     0.006 C 
BRANCH  12  13
ATOM     13  C   UNL     1      -3.950  -6.238  -4.962  1.00  0.00     0.053 C 
BRANCH  13  14
ATOM     14  C   UNL     1      -4.900  -5.964  -3.840  1.00  0.00     0.041 C 
ATOM     15  O   UNL     1      -4.884  -4.843  -3.264  1.00  0.00    -0.550 OA
ATOM     16  O   UNL     1      -5.804  -6.938  -3.435  1.00  0.00    -0.550 OA
ENDBRANCH  13  14
ENDBRANCH  12  13
ENDBRANCH  11  12
ENDBRANCH  10  11
ENDBRANCH   9  10
ENDBRANCH   8   9
ENDBRANCH   7   8
ENDBRANCH   6   7
ENDBRANCH   5   6
ENDBRANCH   4   5
ENDBRANCH   3   4
ENDBRANCH   2   3
ENDBRANCH   1   2
BRANCH   1  17
ATOM     17  C   UNL     1       0.986   2.389  -7.491  1.00  0.00     0.000 C 
BRANCH  17  18
ATOM     18  C   UNL     1       1.931   3.473  -6.953  1.00  0.00     0.000 C 
BRANCH  18  19
ATOM     19  C   UNL     1       2.585   3.095  -5.610  1.00  0.00     0.000 C 
BRANCH  19  20
ATOM     20  C   UNL     1       4.116   2.935  -5.650  1.00  0.00     0.000 C 
BRANCH  20  21
ATOM     21  C   UNL     1       4.724   2.828  -7.063  1.00  0.00     0.000 C 
BRANCH  21  22
ATOM     22  C   UNL     1       5.443   1.488  -7.328  1.00  0.00    -0.000 C 
BRANCH  22  23
ATOM     23  C   UNL     1       4.951   0.364  -6.397  1.00  0.00    -0.000 C 
BRANCH  23  24
ATOM     24  C   UNL     1       6.098  -0.353  -5.662  1.00  0.00    -0.000 C 
BRANCH  24  25
ATOM     25  C   UNL     1       7.514   0.037  -6.128  1.00  0.00    -0.000 C 
BRANCH  25  26
ATOM     26  C   UNL     1       8.329   0.764  -5.045  1.00  0.00    -0.000 C 
BRANCH  26  27
ATOM     27  C   UNL     1       8.581   2.246  -5.393  1.00  0.00    -0.000 C 
BRANCH  27  28
ATOM     28  C   UNL     1       8.797   3.150  -4.160  1.00  0.00    -0.000 C 
BRANCH  28  29
ATOM     29  C   UNL     1       8.325   4.605  -4.330  1.00  0.00    -0.003 C 
ATOM     30  C   UNL     1       7.677   4.867  -5.691  1.00  0.00     0.004 C 
ENDBRANCH  28  29
ENDBRANCH  27  28
ENDBRANCH  26  27
ENDBRANCH  25  26
ENDBRANCH  24  25
ENDBRANCH  23  24
ENDBRANCH  22  23
ENDBRANCH  21  22
ENDBRANCH  20  21
ENDBRANCH  19  20
ENDBRANCH  18  19
ENDBRANCH  17  18
ENDBRANCH   1  17
TORSDOF 26
ENDMDL
MODEL 2
REMARK VINA RESULT:    -4.259     13.517     14.995
REMARK INTER + INTRA:         -14.393
REMARK INTER:                  -9.094
REMARK INTRA:                  -5.298
REMARK UNBOUND:                -3.660
REMARK SMILES CCCCCCCCCCCCCCCCCCCCCCCCCCCC(=O)[O-]
REMARK SMILES IDX 15 1 16 2 17 3 18 4 19 5 20 6 21 7 22 8 23 9 24 10 25 11
REMARK SMILES IDX 26 12 27 13 28 14 29 15 30 16 14 17 13 18 12 19 11 20 10 21
REMARK SMILES IDX 9 22 8 23 7 24 6 25 5 26 4 27 3 28 2 29 1 30
REMARK H PARENT
REMARK Flexibility Score: inf
ROOT
ATOM      1  C   UNL     1      -3.308   2.082   7.276  1.00  0.00     0.000 C 
ENDROOT
BRANCH   1   2
ATOM      2  C   UNL     1      -3.095   2.696   5.883  1.00  0.00     0.000 C 
BRANCH   2   3
ATOM      3  C   UNL     1      -1.630   2.609   5.422  1.00  0.00     0.000 C 
BRANCH   3   4
ATOM      4  C   UNL     1      -1.114   3.919   4.800  1.00  0.00     0.000 C 
BRANCH   4   5
ATOM      5  C   UNL     1       0.184   4.473   5.421  1.00  0.00     0.000 C 
BRANCH   5   6
ATOM      6  C   UNL     1       0.114   5.946   5.870  1.00  0.00     0.000 C 
BRANCH   6   7
ATOM      7  C   UNL     1       0.034   6.161   7.394  1.00  0.00     0.000 C 
BRANCH   7   8
ATOM      8  C   UNL     1      -1.380   6.434   7.939  1.00  0.00     0.000 C 
BRANCH   8   9
ATOM      9  C   UNL     1      -1.959   7.782   7.470  1.00  0.00     0.000 C 
BRANCH   9  10
ATOM     10  C   UNL     1      -3.222   7.612   6.596  1.00  0.00     0.000 C 
BRANCH  10  11
ATOM     11  C   UNL     1      -3.604   6.144   6.317  1.00  0.00     0.000 C 
BRANCH  11  12
ATOM     12  C   UNL     1      -4.942   5.943   5.585  1.00  0.00     0.006 C 
BRANCH  12  13
ATOM     13  C   UNL     1      -5.901   5.009   6.336  1.00  0.00     0.053 C 
BRANCH  13  14
ATOM     14  C   UNL     1      -6.364   5.639   7.611  1.00  0.00     0.041 C 
ATOM     15  O   UNL     1      -6.806   6.819   7.604  1.00  0.00    -0.550 OA
ATOM     16  O   UNL     1      -6.316   4.925   8.801  1.00  0.00    -0.550 OA
ENDBRANCH  13  14
ENDBRANCH  12  13
ENDBRANCH  11  12
ENDBRANCH  10  11
ENDBRANCH   9  10
ENDBRANCH   8   9
ENDBRANCH   7   8
ENDBRANCH   6   7
ENDBRANCH   5   6
ENDBRANCH   4   5
ENDBRANCH   3   4
ENDBRANCH   2   3
ENDBRANCH   1   2
BRANCH   1  17
ATOM     17  C   UNL     1      -2.727   2.954   8.398  1.00  0.00     0.000 C 
BRANCH  17  18
ATOM     18  C   UNL     1      -1.647   2.190   9.177  1.00  0.00     0.000 C 
BRANCH  18  19
ATOM     19  C   UNL     1      -0.359   3.009   9.388  1.00  0.00     0.000 C 
BRANCH  19  20
ATOM     20  C   UNL     1       0.785   2.693   8.406  1.00  0.00     0.000 C 
BRANCH  20  21
ATOM     21  C   UNL     1       0.886   1.217   7.975  1.00  0.00     0.000 C 
BRANCH  21  22
ATOM     22  C   UNL     1       1.409   1.027   6.535  1.00  0.00    -0.000 C 
BRANCH  22  23
ATOM     23  C   UNL     1       2.276  -0.237   6.388  1.00  0.00    -0.000 C 
BRANCH  23  24
ATOM     24  C   UNL     1       2.643  -0.875   7.740  1.00  0.00    -0.000 C 
BRANCH  24  25
ATOM     25  C   UNL     1       4.152  -1.078   7.974  1.00  0.00    -0.000 C 
BRANCH  25  26
ATOM     26  C   UNL     1       5.004   0.111   7.496  1.00  0.00    -0.000 C 
BRANCH  26  27
ATOM     27  C   UNL     1       5.144   1.206   8.574  1.00  0.00    -0.000 C 
BRANCH  27  28
ATOM     28  C   UNL     1       4.446   2.534   8.210  1.00  0.00    -0.000 C 
BRANCH  28  29
ATOM     29  C   UNL     1       4.985   3.227   6.946  1.00  0.00    -0.003 C 
ATOM     30  C   UNL     1       3.876   3.663   5.986  1.00  0.00     0.004 C 
ENDBRANCH  28  29
ENDBRANCH  27  28
ENDBRANCH  26  27
ENDBRANCH  25  26
ENDBRANCH  24  25
ENDBRANCH  23  24
ENDBRANCH  22  23
ENDBRANCH  21  22
ENDBRANCH  20  21
ENDBRANCH  19  20
ENDBRANCH  18  19
ENDBRANCH  17  18
ENDBRANCH   1  17
TORSDOF 26
ENDMDL
MODEL 3
REMARK VINA RESULT:    -4.235     13.526     16.386
REMARK INTER + INTRA:         -14.331
REMARK INTER:                  -8.981
REMARK INTRA:                  -5.350
REMARK UNBOUND:                -3.660
REMARK SMILES CCCCCCCCCCCCCCCCCCCCCCCCCCCC(=O)[O-]
REMARK SMILES IDX 15 1 16 2 17 3 18 4 19 5 20 6 21 7 22 8 23 9 24 10 25 11
REMARK SMILES IDX 26 12 27 13 28 14 29 15 30 16 14 17 13 18 12 19 11 20 10 21
REMARK SMILES IDX 9 22 8 23 7 24 6 25 5 26 4 27 3 28 2 29 1 30
REMARK H PARENT
REMARK Flexibility Score: inf
ROOT
ATOM      1  C   UNL     1       1.223   4.659   7.530  1.00  0.00     0.000 C 
ENDROOT
BRANCH   1   2
ATOM      2  C   UNL     1       1.337   3.533   8.572  1.00  0.00     0.000 C 
BRANCH   2   3
ATOM      3  C   UNL     1       0.736   2.209   8.071  1.00  0.00     0.000 C 
BRANCH   3   4
ATOM      4  C   UNL     1       1.732   1.036   8.127  1.00  0.00     0.000 C 
BRANCH   4   5
ATOM      5  C   UNL     1       2.414   0.692   6.788  1.00  0.00     0.000 C 
BRANCH   5   6
ATOM      6  C   UNL     1       3.913   1.045   6.713  1.00  0.00     0.000 C 
BRANCH   6   7
ATOM      7  C   UNL     1       4.221   2.519   6.383  1.00  0.00     0.000 C 
BRANCH   7   8
ATOM      8  C   UNL     1       5.311   3.166   7.256  1.00  0.00     0.000 C 
BRANCH   8   9
ATOM      9  C   UNL     1       4.909   3.283   8.739  1.00  0.00     0.000 C 
BRANCH   9  10
ATOM     10  C   UNL     1       5.645   2.260   9.633  1.00  0.00     0.000 C 
BRANCH  10  11
ATOM     11  C   UNL     1       6.877   1.612   8.970  1.00  0.00     0.000 C 
BRANCH  11  12
ATOM     12  C   UNL     1       7.009   0.093   9.176  1.00  0.00     0.006 C 
BRANCH  12  13
ATOM     13  C   UNL     1       6.896  -0.702   7.867  1.00  0.00     0.053 C 
BRANCH  13  14
ATOM     14  C   UNL     1       5.980  -1.872   8.034  1.00  0.00     0.041 C 
ATOM     15  O   UNL     1       6.290  -2.988   7.538  1.00  0.00    -0.550 OA
ATOM     16  O   UNL     1       4.792  -1.734   8.739  1.00  0.00    -0.550 OA
ENDBRANCH  13  14
ENDBRANCH  12  13
ENDBRANCH  11  12
ENDBRANCH  10  11
ENDBRANCH   9  10
ENDBRANCH   8   9
ENDBRANCH   7   8
ENDBRANCH   6   7
ENDBRANCH   5   6
ENDBRANCH   4   5
ENDBRANCH   3   4
ENDBRANCH   2   3
ENDBRANCH   1   2
BRANCH   1  17
ATOM     17  C   UNL     1       0.964   4.124   6.115  1.00  0.00     0.000 C 
BRANCH  17  18
ATOM     18  C   UNL     1      -0.091   4.977   5.397  1.00  0.00     0.000 C 
BRANCH  18  19
ATOM     19  C   UNL     1      -1.130   4.138   4.630  1.00  0.00     0.000 C 
BRANCH  19  20
ATOM     20  C   UNL     1      -1.528   2.812   5.306  1.00  0.00     0.000 C 
BRANCH  20  21
ATOM     21  C   UNL     1      -2.952   2.781   5.894  1.00  0.00     0.000 C 
BRANCH  21  22
ATOM     22  C   UNL     1      -3.011   2.269   7.349  1.00  0.00    -0.000 C 
BRANCH  22  23
ATOM     23  C   UNL     1      -3.439   3.367   8.340  1.00  0.00    -0.000 C 
BRANCH  23  24
ATOM     24  C   UNL     1      -2.248   4.158   8.911  1.00  0.00    -0.000 C 
BRANCH  24  25
ATOM     25  C   UNL     1      -2.134   5.611   8.413  1.00  0.00    -0.000 C 
BRANCH  25  26
ATOM     26  C   UNL     1      -3.339   6.484   8.809  1.00  0.00    -0.000 C 
BRANCH  26  27
ATOM     27  C   UNL     1      -4.056   7.090   7.585  1.00  0.00    -0.000 C 
BRANCH  27  28
ATOM     28  C   UNL     1      -3.541   6.557   6.231  1.00  0.00    -0.000 C 
BRANCH  28  29
ATOM     29  C   UNL     1      -4.628   6.003   5.294  1.00  0.00    -0.003 C 
ATOM     30  C   UNL     1      -5.696   5.192   6.032  1.00  0.00     0.004 C 
ENDBRANCH  28  29
ENDBRANCH  27  28
ENDBRANCH  26  27
ENDBRANCH  25  26
ENDBRANCH  24  25
ENDBRANCH  23  24
ENDBRANCH  22  23
ENDBRANCH  21  22
ENDBRANCH  20  21
ENDBRANCH  19  20
ENDBRANCH  18  19
ENDBRANCH  17  18
ENDBRANCH   1  17
TORSDOF 26
ENDMDL
MODEL 4
REMARK VINA RESULT:    -4.223     13.179     14.800
REMARK INTER + INTRA:         -14.301
REMARK INTER:                  -9.678
REMARK INTRA:                  -4.623
REMARK UNBOUND:                -3.660
REMARK SMILES CCCCCCCCCCCCCCCCCCCCCCCCCCCC(=O)[O-]
REMARK SMILES IDX 15 1 16 2 17 3 18 4 19 5 20 6 21 7 22 8 23 9 24 10 25 11
REMARK SMILES IDX 26 12 27 13 28 14 29 15 30 16 14 17 13 18 12 19 11 20 10 21
REMARK SMILES IDX 9 22 8 23 7 24 6 25 5 26 4 27 3 28 2 29 1 30
REMARK H PARENT
REMARK Flexibility Score: inf
ROOT
ATOM      1  C   UNL     1       1.525   0.407   6.355  1.00  0.00     0.000 C 
ENDROOT
BRANCH   1   2
ATOM      2  C   UNL     1       1.596   1.502   7.432  1.00  0.00     0.000 C 
BRANCH   2   3
ATOM      3  C   UNL     1       0.599   1.262   8.577  1.00  0.00     0.000 C 
BRANCH   3   4
ATOM      4  C   UNL     1       0.123   2.565   9.245  1.00  0.00     0.000 C 
BRANCH   4   5
ATOM      5  C   UNL     1       0.944   3.821   8.891  1.00  0.00     0.000 C 
BRANCH   5   6
ATOM      6  C   UNL     1       0.109   5.049   8.477  1.00  0.00     0.000 C 
BRANCH   6   7
ATOM      7  C   UNL     1       0.560   5.735   7.172  1.00  0.00     0.000 C 
BRANCH   7   8
ATOM      8  C   UNL     1       0.644   4.808   5.946  1.00  0.00     0.000 C 
BRANCH   8   9
ATOM      9  C   UNL     1      -0.656   4.778   5.119  1.00  0.00     0.000 C 
BRANCH   9  10
ATOM     10  C   UNL     1      -1.106   3.340   4.775  1.00  0.00     0.000 C 
BRANCH  10  11
ATOM     11  C   UNL     1      -1.689   2.557   5.969  1.00  0.00     0.000 C 
BRANCH  11  12
ATOM     12  C   UNL     1      -3.216   2.649   6.130  1.00  0.00     0.006 C 
BRANCH  12  13
ATOM     13  C   UNL     1      -3.649   3.729   7.132  1.00  0.00     0.053 C 
BRANCH  13  14
ATOM     14  C   UNL     1      -4.651   4.652   6.516  1.00  0.00     0.041 C 
ATOM     15  O   UNL     1      -4.365   5.277   5.460  1.00  0.00    -0.550 OA
ATOM     16  O   UNL     1      -5.900   4.819   7.101  1.00  0.00    -0.550 OA
ENDBRANCH  13  14
ENDBRANCH  12  13
ENDBRANCH  11  12
ENDBRANCH  10  11
ENDBRANCH   9  10
ENDBRANCH   8   9
ENDBRANCH   7   8
ENDBRANCH   6   7
ENDBRANCH   5   6
ENDBRANCH   4   5
ENDBRANCH   3   4
ENDBRANCH   2   3
ENDBRANCH   1   2
BRANCH   1  17
ATOM     17  C   UNL     1       2.548  -0.714   6.588  1.00  0.00     0.000 C 
BRANCH  17  18
ATOM     18  C   UNL     1       3.869  -0.142   7.121  1.00  0.00     0.000 C 
BRANCH  18  19
ATOM     19  C   UNL     1       4.407  -0.902   8.348  1.00  0.00     0.000 C 
BRANCH  19  20
ATOM     20  C   UNL     1       5.105  -2.239   8.034  1.00  0.00     0.000 C 
BRANCH  20  21
ATOM     21  C   UNL     1       6.544  -2.366   8.572  1.00  0.00     0.000 C 
BRANCH  21  22
ATOM     22  C   UNL     1       7.621  -1.877   7.580  1.00  0.00    -0.000 C 
BRANCH  22  23
ATOM     23  C   UNL     1       8.088  -0.441   7.884  1.00  0.00    -0.000 C 
BRANCH  23  24
ATOM     24  C   UNL     1       7.927  -0.057   9.366  1.00  0.00    -0.000 C 
BRANCH  24  25
ATOM     25  C   UNL     1       7.834   1.456   9.639  1.00  0.00    -0.000 C 
BRANCH  25  26
ATOM     26  C   UNL     1       6.901   2.192   8.660  1.00  0.00    -0.000 C 
BRANCH  26  27
ATOM     27  C   UNL     1       5.484   2.394   9.236  1.00  0.00    -0.000 C 
BRANCH  27  28
ATOM     28  C   UNL     1       4.632   3.417   8.456  1.00  0.00    -0.000 C 
BRANCH  28  29
ATOM     29  C   UNL     1       5.184   3.803   7.072  1.00  0.00    -0.003 C 
ATOM     30  C   UNL     1       4.201   3.512   5.936  1.00  0.00     0.004 C 
ENDBRANCH  28  29
ENDBRANCH  27  28
ENDBRANCH  26  27
ENDBRANCH  25  26
ENDBRANCH  24  25
ENDBRANCH  23  24
ENDBRANCH  22  23
ENDBRANCH  21  22
ENDBRANCH  20  21
ENDBRANCH  19  20
ENDBRANCH  18  19
ENDBRANCH  17  18
ENDBRANCH   1  17
TORSDOF 26
ENDMDL
MODEL 5
REMARK VINA RESULT:    -4.215      1.788      4.270
REMARK INTER + INTRA:         -14.281
REMARK INTER:                  -9.195
REMARK INTRA:                  -5.086
REMARK UNBOUND:                -3.660
REMARK SMILES CCCCCCCCCCCCCCCCCCCCCCCCCCCC(=O)[O-]
REMARK SMILES IDX 15 1 16 2 17 3 18 4 19 5 20 6 21 7 22 8 23 9 24 10 25 11
REMARK SMILES IDX 26 12 27 13 28 14 29 15 30 16 14 17 13 18 12 19 11 20 10 21
REMARK SMILES IDX 9 22 8 23 7 24 6 25 5 26 4 27 3 28 2 29 1 30
REMARK H PARENT
REMARK Flexibility Score: inf
ROOT
ATOM      1  C   UNL     1      -0.014  -4.075  -6.071  1.00  0.00     0.000 C 
ENDROOT
BRANCH   1   2
ATOM      2  C   UNL     1      -1.024  -4.333  -7.202  1.00  0.00     0.000 C 
BRANCH   2   3
ATOM      3  C   UNL     1      -0.377  -4.253  -8.594  1.00  0.00     0.000 C 
BRANCH   3   4
ATOM      4  C   UNL     1      -1.106  -3.283  -9.543  1.00  0.00     0.000 C 
BRANCH   4   5
ATOM      5  C   UNL     1      -2.321  -2.557  -8.931  1.00  0.00     0.000 C 
BRANCH   5   6
ATOM      6  C   UNL     1      -2.749  -1.272  -9.668  1.00  0.00     0.000 C 
BRANCH   6   7
ATOM      7  C   UNL     1      -2.183   0.036  -9.081  1.00  0.00     0.000 C 
BRANCH   7   8
ATOM      8  C   UNL     1      -1.847  -0.017  -7.580  1.00  0.00     0.000 C 
BRANCH   8   9
ATOM      9  C   UNL     1      -3.029   0.387  -6.679  1.00  0.00     0.000 C 
BRANCH   9  10
ATOM     10  C   UNL     1      -3.331  -0.667  -5.591  1.00  0.00     0.000 C 
BRANCH  10  11
ATOM     11  C   UNL     1      -4.306  -1.775  -6.036  1.00  0.00     0.000 C 
BRANCH  11  12
ATOM     12  C   UNL     1      -3.933  -3.197  -5.585  1.00  0.00     0.006 C 
BRANCH  12  13
ATOM     13  C   UNL     1      -4.887  -3.758  -4.521  1.00  0.00     0.053 C 
BRANCH  13  14
ATOM     14  C   UNL     1      -4.436  -5.108  -4.062  1.00  0.00     0.041 C 
ATOM     15  O   UNL     1      -4.657  -5.475  -2.877  1.00  0.00    -0.550 OA
ATOM     16  O   UNL     1      -3.779  -5.961  -4.940  1.00  0.00    -0.550 OA
ENDBRANCH  13  14
ENDBRANCH  12  13
ENDBRANCH  11  12
ENDBRANCH  10  11
ENDBRANCH   9  10
ENDBRANCH   8   9
ENDBRANCH   7   8
ENDBRANCH   6   7
ENDBRANCH   5   6
ENDBRANCH   4   5
ENDBRANCH   3   4
ENDBRANCH   2   3
ENDBRANCH   1   2
BRANCH   1  17
ATOM     17  C   UNL     1      -0.148  -2.666  -5.475  1.00  0.00     0.000 C 
BRANCH  17  18
ATOM     18  C   UNL     1       0.692  -1.657  -6.270  1.00  0.00     0.000 C 
BRANCH  18  19
ATOM     19  C   UNL     1       2.041  -2.231  -6.742  1.00  0.00     0.000 C 
BRANCH  19  20
ATOM     20  C   UNL     1       2.491  -1.775  -8.144  1.00  0.00     0.000 C 
BRANCH  20  21
ATOM     21  C   UNL     1       1.568  -0.745  -8.822  1.00  0.00     0.000 C 
BRANCH  21  22
ATOM     22  C   UNL     1       2.193   0.661  -8.948  1.00  0.00    -0.000 C 
BRANCH  22  23
ATOM     23  C   UNL     1       1.163   1.783  -8.727  1.00  0.00    -0.000 C 
BRANCH  23  24
ATOM     24  C   UNL     1       1.085   2.249  -7.261  1.00  0.00    -0.000 C 
BRANCH  24  25
ATOM     25  C   UNL     1       2.221   1.735  -6.356  1.00  0.00    -0.000 C 
BRANCH  25  26
ATOM     26  C   UNL     1       3.293   2.800  -6.065  1.00  0.00    -0.000 C 
BRANCH  26  27
ATOM     27  C   UNL     1       4.722   2.219  -6.087  1.00  0.00    -0.000 C 
BRANCH  27  28
ATOM     28  C   UNL     1       4.787   0.735  -6.507  1.00  0.00    -0.000 C 
BRANCH  28  29
ATOM     29  C   UNL     1       5.653  -0.159  -5.602  1.00  0.00    -0.003 C 
ATOM     30  C   UNL     1       7.152   0.104  -5.763  1.00  0.00     0.004 C 
ENDBRANCH  28  29
ENDBRANCH  27  28
ENDBRANCH  26  27
ENDBRANCH  25  26
ENDBRANCH  24  25
ENDBRANCH  23  24
ENDBRANCH  22  23
ENDBRANCH  21  22
ENDBRANCH  20  21
ENDBRANCH  19  20
ENDBRANCH  18  19
ENDBRANCH  17  18
ENDBRANCH   1  17
TORSDOF 26
ENDMDL
MODEL 6
REMARK VINA RESULT:    -4.203      4.303      9.298
REMARK INTER + INTRA:         -14.251
REMARK INTER:                  -9.083
REMARK INTRA:                  -5.168
REMARK UNBOUND:                -3.660
REMARK SMILES CCCCCCCCCCCCCCCCCCCCCCCCCCCC(=O)[O-]
REMARK SMILES IDX 15 1 16 2 17 3 18 4 19 5 20 6 21 7 22 8 23 9 24 10 25 11
REMARK SMILES IDX 26 12 27 13 28 14 29 15 30 16 14 17 13 18 12 19 11 20 10 21
REMARK SMILES IDX 9 22 8 23 7 24 6 25 5 26 4 27 3 28 2 29 1 30
REMARK H PARENT
REMARK Flexibility Score: inf
ROOT
ATOM      1  C   UNL     1       0.164  -2.040  -6.034  1.00  0.00     0.000 C 
ENDROOT
BRANCH   1   2
ATOM      2  C   UNL     1       0.044  -2.436  -7.515  1.00  0.00     0.000 C 
BRANCH   2   3
ATOM      3  C   UNL     1      -0.765  -3.729  -7.711  1.00  0.00     0.000 C 
BRANCH   3   4
ATOM      4  C   UNL     1       0.099  -4.917  -8.173  1.00  0.00     0.000 C 
BRANCH   4   5
ATOM      5  C   UNL     1       0.562  -5.866  -7.050  1.00  0.00     0.000 C 
BRANCH   5   6
ATOM      6  C   UNL     1       1.839  -5.423  -6.310  1.00  0.00     0.000 C 
BRANCH   6   7
ATOM      7  C   UNL     1       2.839  -4.614  -7.160  1.00  0.00     0.000 C 
BRANCH   7   8
ATOM      8  C   UNL     1       4.000  -3.982  -6.371  1.00  0.00     0.000 C 
BRANCH   8   9
ATOM      9  C   UNL     1       4.283  -2.523  -6.775  1.00  0.00     0.000 C 
BRANCH   9  10
ATOM     10  C   UNL     1       3.575  -2.125  -8.089  1.00  0.00     0.000 C 
BRANCH  10  11
ATOM     11  C   UNL     1       3.183  -0.636  -8.170  1.00  0.00     0.000 C 
BRANCH  11  12
ATOM     12  C   UNL     1       3.487   0.192  -6.909  1.00  0.00     0.006 C 
BRANCH  12  13
ATOM     13  C   UNL     1       2.271   0.980  -6.402  1.00  0.00     0.053 C 
BRANCH  13  14
ATOM     14  C   UNL     1       2.645   2.396  -6.100  1.00  0.00     0.041 C 
ATOM     15  O   UNL     1       3.600   2.640  -5.313  1.00  0.00    -0.550 OA
ATOM     16  O   UNL     1       1.949   3.444  -6.688  1.00  0.00    -0.550 OA
ENDBRANCH  13  14
ENDBRANCH  12  13
ENDBRANCH  11  12
ENDBRANCH  10  11
ENDBRANCH   9  10
ENDBRANCH   8   9
ENDBRANCH   7   8
ENDBRANCH   6   7
ENDBRANCH   5   6
ENDBRANCH   4   5
ENDBRANCH   3   4
ENDBRANCH   2   3
ENDBRANCH   1   2
BRANCH   1  17
ATOM     17  C   UNL     1      -0.929  -2.678  -5.165  1.00  0.00     0.000 C 
BRANCH  17  18
ATOM     18  C   UNL     1      -0.310  -3.590  -4.096  1.00  0.00     0.000 C 
BRANCH  18  19
ATOM     19  C   UNL     1      -1.242  -4.739  -3.666  1.00  0.00     0.000 C 
BRANCH  19  20
ATOM     20  C   UNL     1      -2.443  -4.990  -4.598  1.00  0.00     0.000 C 
BRANCH  20  21
ATOM     21  C   UNL     1      -3.817  -5.002  -3.902  1.00  0.00     0.000 C 
BRANCH  21  22
ATOM     22  C   UNL     1      -4.865  -4.094  -4.583  1.00  0.00    -0.000 C 
BRANCH  22  23
ATOM     23  C   UNL     1      -4.374  -3.546  -5.935  1.00  0.00    -0.000 C 
BRANCH  23  24
ATOM     24  C   UNL     1      -4.827  -2.099  -6.198  1.00  0.00    -0.000 C 
BRANCH  24  25
ATOM     25  C   UNL     1      -3.749  -1.026  -5.953  1.00  0.00    -0.000 C 
BRANCH  25  26
ATOM     26  C   UNL     1      -3.626  -0.017  -7.109  1.00  0.00    -0.000 C 
BRANCH  26  27
ATOM     27  C   UNL     1      -3.108  -0.670  -8.408  1.00  0.00    -0.000 C 
BRANCH  27  28
ATOM     28  C   UNL     1      -2.009   0.145  -9.122  1.00  0.00    -0.000 C 
BRANCH  28  29
ATOM     29  C   UNL     1      -1.009   0.848  -8.187  1.00  0.00    -0.003 C 
ATOM     30  C   UNL     1      -0.285   2.017  -8.858  1.00  0.00     0.004 C 
ENDBRANCH  28  29
ENDBRANCH  27  28
ENDBRANCH  26  27
ENDBRANCH  25  26
ENDBRANCH  24  25
ENDBRANCH  23  24
ENDBRANCH  22  23
ENDBRANCH  21  22
ENDBRANCH  20  21
ENDBRANCH  19  20
ENDBRANCH  18  19
ENDBRANCH  17  18
ENDBRANCH   1  17
TORSDOF 26
ENDMDL
MODEL 7
REMARK VINA RESULT:    -4.190      2.023      4.523
REMARK INTER + INTRA:         -14.218
REMARK INTER:                  -9.143
REMARK INTRA:                  -5.076
REMARK UNBOUND:                -3.660
REMARK SMILES CCCCCCCCCCCCCCCCCCCCCCCCCCCC(=O)[O-]
REMARK SMILES IDX 15 1 16 2 17 3 18 4 19 5 20 6 21 7 22 8 23 9 24 10 25 11
REMARK SMILES IDX 26 12 27 13 28 14 29 15 30 16 14 17 13 18 12 19 11 20 10 21
REMARK SMILES IDX 9 22 8 23 7 24 6 25 5 26 4 27 3 28 2 29 1 30
REMARK H PARENT
REMARK Flexibility Score: inf
ROOT
ATOM      1  C   UNL     1      -4.146  -1.923  -5.946  1.00  0.00     0.000 C 
ENDROOT
BRANCH   1   2
ATOM      2  C   UNL     1      -4.166  -2.276  -7.443  1.00  0.00     0.000 C 
BRANCH   2   3
ATOM      3  C   UNL     1      -3.950  -3.778  -7.693  1.00  0.00     0.000 C 
BRANCH   3   4
ATOM      4  C   UNL     1      -2.494  -4.127  -8.052  1.00  0.00     0.000 C 
BRANCH   4   5
ATOM      5  C   UNL     1      -1.681  -2.977  -8.679  1.00  0.00     0.000 C 
BRANCH   5   6
ATOM      6  C   UNL     1      -0.220  -2.876  -8.197  1.00  0.00     0.000 C 
BRANCH   6   7
ATOM      7  C   UNL     1       0.056  -3.500  -6.815  1.00  0.00     0.000 C 
BRANCH   7   8
ATOM      8  C   UNL     1      -0.298  -2.604  -5.614  1.00  0.00     0.000 C 
BRANCH   8   9
ATOM      9  C   UNL     1      -1.070  -3.349  -4.509  1.00  0.00     0.000 C 
BRANCH   9  10
ATOM     10  C   UNL     1      -0.933  -4.884  -4.624  1.00  0.00     0.000 C 
BRANCH  10  11
ATOM     11  C   UNL     1      -2.277  -5.633  -4.723  1.00  0.00     0.000 C 
BRANCH  11  12
ATOM     12  C   UNL     1      -3.310  -5.273  -3.641  1.00  0.00     0.006 C 
BRANCH  12  13
ATOM     13  C   UNL     1      -4.698  -4.959  -4.218  1.00  0.00     0.053 C 
BRANCH  13  14
ATOM     14  C   UNL     1      -5.505  -6.209  -4.367  1.00  0.00     0.041 C 
ATOM     15  O   UNL     1      -5.709  -6.949  -3.366  1.00  0.00    -0.550 OA
ATOM     16  O   UNL     1      -6.037  -6.555  -5.602  1.00  0.00    -0.550 OA
ENDBRANCH  13  14
ENDBRANCH  12  13
ENDBRANCH  11  12
ENDBRANCH  10  11
ENDBRANCH   9  10
ENDBRANCH   8   9
ENDBRANCH   7   8
ENDBRANCH   6   7
ENDBRANCH   5   6
ENDBRANCH   4   5
ENDBRANCH   3   4
ENDBRANCH   2   3
ENDBRANCH   1   2
BRANCH   1  17
ATOM     17  C   UNL     1      -3.383  -0.622  -5.661  1.00  0.00     0.000 C 
BRANCH  17  18
ATOM     18  C   UNL     1      -3.085   0.131  -6.965  1.00  0.00     0.000 C 
BRANCH  18  19
ATOM     19  C   UNL     1      -1.596   0.484  -7.135  1.00  0.00     0.000 C 
BRANCH  19  20
ATOM     20  C   UNL     1      -1.137   0.707  -8.588  1.00  0.00     0.000 C 
BRANCH  20  21
ATOM     21  C   UNL     1      -0.126   1.853  -8.786  1.00  0.00     0.000 C 
BRANCH  21  22
ATOM     22  C   UNL     1       0.565   2.301  -7.480  1.00  0.00    -0.000 C 
BRANCH  22  23
ATOM     23  C   UNL     1       1.990   1.732  -7.347  1.00  0.00    -0.000 C 
BRANCH  23  24
ATOM     24  C   UNL     1       2.027   0.357  -6.655  1.00  0.00    -0.000 C 
BRANCH  24  25
ATOM     25  C   UNL     1       2.569  -0.793  -7.524  1.00  0.00    -0.000 C 
BRANCH  25  26
ATOM     26  C   UNL     1       3.916  -1.346  -7.024  1.00  0.00    -0.000 C 
BRANCH  26  27
ATOM     27  C   UNL     1       5.095  -0.932  -7.931  1.00  0.00    -0.000 C 
BRANCH  27  28
ATOM     28  C   UNL     1       5.579   0.516  -7.706  1.00  0.00    -0.000 C 
BRANCH  28  29
ATOM     29  C   UNL     1       5.830   0.897  -6.236  1.00  0.00    -0.003 C 
ATOM     30  C   UNL     1       7.001   0.132  -5.614  1.00  0.00     0.004 C 
ENDBRANCH  28  29
ENDBRANCH  27  28
ENDBRANCH  26  27
ENDBRANCH  25  26
ENDBRANCH  24  25
ENDBRANCH  23  24
ENDBRANCH  22  23
ENDBRANCH  21  22
ENDBRANCH  20  21
ENDBRANCH  19  20
ENDBRANCH  18  19
ENDBRANCH  17  18
ENDBRANCH   1  17
TORSDOF 26
ENDMDL
MODEL 8
REMARK VINA RESULT:    -4.175      1.085      2.864
REMARK INTER + INTRA:         -14.180
REMARK INTER:                 -10.004
REMARK INTRA:                  -4.176
REMARK UNBOUND:                -3.660
REMARK SMILES CCCCCCCCCCCCCCCCCCCCCCCCCCCC(=O)[O-]
REMARK SMILES IDX 15 1 16 2 17 3 18 4 19 5 20 6 21 7 22 8 23 9 24 10 25 11
REMARK SMILES IDX 26 12 27 13 28 14 29 15 30 16 14 17 13 18 12 19 11 20 10 21
REMARK SMILES IDX 9 22 8 23 7 24 6 25 5 26 4 27 3 28 2 29 1 30
REMARK H PARENT
REMARK Flexibility Score: inf
ROOT
ATOM      1  C   UNL     1       0.911   2.270  -7.346  1.00  0.00     0.000 C 
ENDROOT
BRANCH   1   2
ATOM      2  C   UNL     1       1.404   1.511  -8.589  1.00  0.00     0.000 C 
BRANCH   2   3
ATOM      3  C   UNL     1       1.758   0.048  -8.279  1.00  0.00     0.000 C 
BRANCH   3   4
ATOM      4  C   UNL     1       1.532  -0.329  -6.804  1.00  0.00     0.000 C 
BRANCH   4   5
ATOM      5  C   UNL     1       0.259  -1.154  -6.526  1.00  0.00     0.000 C 
BRANCH   5   6
ATOM      6  C   UNL     1      -0.522  -1.588  -7.782  1.00  0.00     0.000 C 
BRANCH   6   7
ATOM      7  C   UNL     1      -1.849  -0.840  -8.017  1.00  0.00     0.000 C 
BRANCH   7   8
ATOM      8  C   UNL     1      -2.184   0.235  -6.967  1.00  0.00     0.000 C 
BRANCH   8   9
ATOM      9  C   UNL     1      -3.312  -0.187  -6.007  1.00  0.00     0.000 C 
BRANCH   9  10
ATOM     10  C   UNL     1      -4.094  -1.418  -6.518  1.00  0.00     0.000 C 
BRANCH  10  11
ATOM     11  C   UNL     1      -4.059  -2.630  -5.565  1.00  0.00     0.000 C 
BRANCH  11  12
ATOM     12  C   UNL     1      -2.653  -3.122  -5.182  1.00  0.00     0.006 C 
BRANCH  12  13
ATOM     13  C   UNL     1      -2.311  -4.489  -5.791  1.00  0.00     0.053 C 
BRANCH  13  14
ATOM     14  C   UNL     1      -2.791  -5.598  -4.909  1.00  0.00     0.041 C 
ATOM     15  O   UNL     1      -2.952  -5.395  -3.675  1.00  0.00    -0.550 OA
ATOM     16  O   UNL     1      -3.065  -6.849  -5.445  1.00  0.00    -0.550 OA
ENDBRANCH  13  14
ENDBRANCH  12  13
ENDBRANCH  11  12
ENDBRANCH  10  11
ENDBRANCH   9  10
ENDBRANCH   8   9
ENDBRANCH   7   8
ENDBRANCH   6   7
ENDBRANCH   5   6
ENDBRANCH   4   5
ENDBRANCH   3   4
ENDBRANCH   2   3
ENDBRANCH   1   2
BRANCH   1  17
ATOM     17  C   UNL     1       1.863   3.402  -6.933  1.00  0.00     0.000 C 
BRANCH  17  18
ATOM     18  C   UNL     1       2.611   3.039  -5.643  1.00  0.00     0.000 C 
BRANCH  18  19
ATOM     19  C   UNL     1       4.037   2.515  -5.897  1.00  0.00     0.000 C 
BRANCH  19  20
ATOM     20  C   UNL     1       4.647   2.909  -7.256  1.00  0.00     0.000 C 
BRANCH  20  21
ATOM     21  C   UNL     1       6.049   3.545  -7.182  1.00  0.00     0.000 C 
BRANCH  21  22
ATOM     22  C   UNL     1       6.116   4.796  -6.281  1.00  0.00    -0.000 C 
BRANCH  22  23
ATOM     23  C   UNL     1       7.012   4.582  -5.047  1.00  0.00    -0.000 C 
BRANCH  23  24
ATOM     24  C   UNL     1       8.364   3.932  -5.392  1.00  0.00    -0.000 C 
BRANCH  24  25
ATOM     25  C   UNL     1       8.971   3.064  -4.273  1.00  0.00    -0.000 C 
BRANCH  25  26
ATOM     26  C   UNL     1       9.283   1.625  -4.724  1.00  0.00    -0.000 C 
BRANCH  26  27
ATOM     27  C   UNL     1       8.416   1.183  -5.922  1.00  0.00    -0.000 C 
BRANCH  27  28
ATOM     28  C   UNL     1       7.201   0.317  -5.529  1.00  0.00    -0.000 C 
BRANCH  28  29
ATOM     29  C   UNL     1       6.719  -0.660  -6.616  1.00  0.00    -0.003 C 
ATOM     30  C   UNL     1       5.208  -0.902  -6.572  1.00  0.00     0.004 C 
ENDBRANCH  28  29
ENDBRANCH  27  28
ENDBRANCH  26  27
ENDBRANCH  25  26
ENDBRANCH  24  25
ENDBRANCH  23  24
ENDBRANCH  22  23
ENDBRANCH  21  22
ENDBRANCH  20  21
ENDBRANCH  19  20
ENDBRANCH  18  19
ENDBRANCH  17  18
ENDBRANCH   1  17
TORSDOF 26
ENDMDL
MODEL 9
REMARK VINA RESULT:    -4.164      2.308      4.853
REMARK INTER + INTRA:         -14.152
REMARK INTER:                  -9.981
REMARK INTRA:                  -4.171
REMARK UNBOUND:                -3.660
REMARK SMILES CCCCCCCCCCCCCCCCCCCCCCCCCCCC(=O)[O-]
REMARK SMILES IDX 15 1 16 2 17 3 18 4 19 5 20 6 21 7 22 8 23 9 24 10 25 11
REMARK SMILES IDX 26 12 27 13 28 14 29 15 30 16 14 17 13 18 12 19 11 20 10 21
REMARK SMILES IDX 9 22 8 23 7 24 6 25 5 26 4 27 3 28 2 29 1 30
REMARK H PARENT
REMARK Flexibility Score: inf
ROOT
ATOM      1  C   UNL     1      -1.600  -2.973  -4.875  1.00  0.00     0.000 C 
ENDROOT
BRANCH   1   2
ATOM      2  C   UNL     1      -2.077  -3.355  -6.286  1.00  0.00     0.000 C 
BRANCH   2   3
ATOM      3  C   UNL     1      -1.542  -2.399  -7.364  1.00  0.00     0.000 C 
BRANCH   3   4
ATOM      4  C   UNL     1      -1.020  -1.070  -6.787  1.00  0.00     0.000 C 
BRANCH   4   5
ATOM      5  C   UNL     1      -1.870   0.171  -7.128  1.00  0.00     0.000 C 
BRANCH   5   6
ATOM      6  C   UNL     1      -3.178   0.305  -6.322  1.00  0.00     0.000 C 
BRANCH   6   7
ATOM      7  C   UNL     1      -4.465  -0.002  -7.112  1.00  0.00     0.000 C 
BRANCH   7   8
ATOM      8  C   UNL     1      -5.146  -1.335  -6.753  1.00  0.00     0.000 C 
BRANCH   8   9
ATOM      9  C   UNL     1      -5.649  -2.110  -7.986  1.00  0.00     0.000 C 
BRANCH   9  10
ATOM     10  C   UNL     1      -6.520  -3.327  -7.604  1.00  0.00     0.000 C 
BRANCH  10  11
ATOM     11  C   UNL     1      -5.753  -4.664  -7.559  1.00  0.00     0.000 C 
BRANCH  11  12
ATOM     12  C   UNL     1      -5.994  -5.517  -6.302  1.00  0.00     0.006 C 
BRANCH  12  13
ATOM     13  C   UNL     1      -4.721  -5.735  -5.472  1.00  0.00     0.053 C 
BRANCH  13  14
ATOM     14  C   UNL     1      -4.787  -4.969  -4.189  1.00  0.00     0.041 C 
ATOM     15  O   UNL     1      -5.106  -3.750  -4.201  1.00  0.00    -0.550 OA
ATOM     16  O   UNL     1      -4.503  -5.598  -2.984  1.00  0.00    -0.550 OA
ENDBRANCH  13  14
ENDBRANCH  12  13
ENDBRANCH  11  12
ENDBRANCH  10  11
ENDBRANCH   9  10
ENDBRANCH   8   9
ENDBRANCH   7   8
ENDBRANCH   6   7
ENDBRANCH   5   6
ENDBRANCH   4   5
ENDBRANCH   3   4
ENDBRANCH   2   3
ENDBRANCH   1   2
BRANCH   1  17
ATOM     17  C   UNL     1      -0.631  -4.007  -4.283  1.00  0.00     0.000 C 
BRANCH  17  18
ATOM     18  C   UNL     1      -0.186  -5.011  -5.355  1.00  0.00     0.000 C 
BRANCH  18  19
ATOM     19  C   UNL     1       1.320  -4.935  -5.670  1.00  0.00     0.000 C 
BRANCH  19  20
ATOM     20  C   UNL     1       1.786  -3.620  -6.323  1.00  0.00     0.000 C 
BRANCH  20  21
ATOM     21  C   UNL     1       2.400  -3.771  -7.728  1.00  0.00     0.000 C 
BRANCH  21  22
ATOM     22  C   UNL     1       3.925  -3.531  -7.767  1.00  0.00    -0.000 C 
BRANCH  22  23
ATOM     23  C   UNL     1       4.453  -2.906  -6.463  1.00  0.00    -0.000 C 
BRANCH  23  24
ATOM     24  C   UNL     1       5.569  -1.873  -6.700  1.00  0.00    -0.000 C 
BRANCH  24  25
ATOM     25  C   UNL     1       5.676  -0.772  -5.627  1.00  0.00    -0.000 C 
BRANCH  25  26
ATOM     26  C   UNL     1       5.234   0.612  -6.134  1.00  0.00    -0.000 C 
BRANCH  26  27
ATOM     27  C   UNL     1       5.077   0.655  -7.669  1.00  0.00    -0.000 C 
BRANCH  27  28
ATOM     28  C   UNL     1       3.620   0.834  -8.144  1.00  0.00    -0.000 C 
BRANCH  28  29
ATOM     29  C   UNL     1       2.547   0.435  -7.115  1.00  0.00    -0.003 C 
ATOM     30  C   UNL     1       1.609   1.589  -6.754  1.00  0.00     0.004 C 
ENDBRANCH  28  29
ENDBRANCH  27  28
ENDBRANCH  26  27
ENDBRANCH  25  26
ENDBRANCH  24  25
ENDBRANCH  23  24
ENDBRANCH  22  23
ENDBRANCH  21  22
ENDBRANCH  20  21
ENDBRANCH  19  20
ENDBRANCH  18  19
ENDBRANCH  17  18
ENDBRANCH   1  17
TORSDOF 26
ENDMDL
