MODEL 1
REMARK VINA RESULT:    -3.382      0.000      0.000
REMARK INTER + INTRA:          -3.677
REMARK INTER:                  -3.580
REMARK INTRA:                  -0.097
REMARK UNBOUND:                -0.097
REMARK SMILES C=C(C)[C@@H]1CC=C(C)C(=O)C1
REMARK SMILES IDX 8 1 7 2 6 3 5 4 4 5 11 6 9 7 10 8 2 9 1 10 3 11
REMARK H PARENT
REMARK Flexibility Score: inf
ROOT
ATOM      1  C   UNL     1      32.191  25.108  34.922  1.00  0.00     0.048 C 
ATOM      2  C   UNL     1      31.899  25.125  33.448  1.00  0.00    -0.012 C 
ATOM      3  C   UNL     1      30.628  25.056  33.016  1.00  0.00    -0.019 C 
ATOM      4  C   UNL     1      30.278  25.086  31.553  1.00  0.00     0.036 C 
ATOM      5  C   UNL     1      31.378  24.417  30.705  1.00  0.00     0.025 C 
ATOM      6  C   UNL     1      32.743  25.069  30.993  1.00  0.00     0.089 C 
ATOM      7  C   UNL     1      33.017  25.092  32.472  1.00  0.00     0.158 C 
ATOM      8  O   UNL     1      34.211  25.120  32.874  1.00  0.00    -0.295 OA
ENDROOT
BRANCH   5   9
ATOM      9  C   UNL     1      31.042  24.449  29.220  1.00  0.00    -0.077 C 
ATOM     10  C   UNL     1      31.908  23.996  28.297  1.00  0.00     0.008 C 
ATOM     11  C   UNL     1      29.718  24.999  28.757  1.00  0.00     0.039 C 
ENDBRANCH   5   9
TORSDOF 1
ENDMDL
MODEL 2
REMARK VINA RESULT:    -2.613      1.602      2.437
REMARK INTER + INTRA:          -2.862
REMARK INTER:                  -2.764
REMARK INTRA:                  -0.098
REMARK UNBOUND:                -0.097
REMARK SMILES C=C(C)[C@@H]1CC=C(C)C(=O)C1
REMARK SMILES IDX 8 1 7 2 6 3 5 4 4 5 11 6 9 7 10 8 2 9 1 10 3 11
REMARK H PARENT
REMARK Flexibility Score: inf
ROOT
ATOM      1  C   UNL     1      32.123  25.119  34.618  1.00  0.00     0.048 C 
ATOM      2  C   UNL     1      32.174  24.872  33.136  1.00  0.00    -0.012 C 
ATOM      3  C   UNL     1      33.327  25.045  32.468  1.00  0.00    -0.019 C 
ATOM      4  C   UNL     1      33.439  24.794  30.988  1.00  0.00     0.036 C 
ATOM      5  C   UNL     1      32.117  25.125  30.268  1.00  0.00     0.025 C 
ATOM      6  C   UNL     1      30.952  24.345  30.906  1.00  0.00     0.089 C 
ATOM      7  C   UNL     1      30.926  24.558  32.395  1.00  0.00     0.158 C 
ATOM      8  O   UNL     1      29.836  24.431  33.014  1.00  0.00    -0.295 OA
ENDROOT
BRANCH   5   9
ATOM      9  C   UNL     1      32.212  24.866  28.770  1.00  0.00    -0.077 C 
ATOM     10  C   UNL     1      31.132  24.509  28.052  1.00  0.00     0.008 C 
ATOM     11  C   UNL     1      33.534  25.007  28.062  1.00  0.00     0.039 C 
ENDBRANCH   5   9
TORSDOF 1
ENDMDL
MODEL 3
REMARK VINA RESULT:    -2.542      1.682      2.860
REMARK INTER + INTRA:          -2.787
REMARK INTER:                  -2.693
REMARK INTRA:                  -0.095
REMARK UNBOUND:                -0.097
REMARK SMILES C=C(C)[C@@H]1CC=C(C)C(=O)C1
REMARK SMILES IDX 8 1 7 2 6 3 5 4 4 5 11 6 9 7 10 8 2 9 1 10 3 11
REMARK H PARENT
REMARK Flexibility Score: inf
ROOT
ATOM      1  C   UNL     1      29.499  24.818  32.745  1.00  0.00     0.048 C 
ATOM      2  C   UNL     1      30.722  24.944  31.880  1.00  0.00    -0.012 C 
ATOM      3  C   UNL     1      30.607  24.862  30.543  1.00  0.00    -0.019 C 
ATOM      4  C   UNL     1      31.795  24.999  29.629  1.00  0.00     0.036 C 
ATOM      5  C   UNL     1      33.072  24.446  30.292  1.00  0.00     0.025 C 
ATOM      6  C   UNL     1      33.302  25.125  31.655  1.00  0.00     0.089 C 
ATOM      7  C   UNL     1      32.065  25.036  32.505  1.00  0.00     0.158 C 
ATOM      8  O   UNL     1      32.178  25.078  33.760  1.00  0.00    -0.295 OA
ENDROOT
BRANCH   5   9
ATOM      9  C   UNL     1      34.285  24.588  29.381  1.00  0.00    -0.077 C 
ATOM     10  C   UNL     1      34.195  24.366  28.059  1.00  0.00     0.008 C 
ATOM     11  C   UNL     1      35.619  24.982  29.958  1.00  0.00     0.039 C 
ENDBRANCH   5   9
TORSDOF 1
ENDMDL
MODEL 4
REMARK VINA RESULT:    -2.433      1.792      4.348
REMARK INTER + INTRA:          -2.672
REMARK INTER:                  -2.576
REMARK INTRA:                  -0.095
REMARK UNBOUND:                -0.097
REMARK SMILES C=C(C)[C@@H]1CC=C(C)C(=O)C1
REMARK SMILES IDX 8 1 7 2 6 3 5 4 4 5 11 6 9 7 10 8 2 9 1 10 3 11
REMARK H PARENT
REMARK Flexibility Score: inf
ROOT
ATOM      1  C   UNL     1      29.385  24.158  28.691  1.00  0.00     0.048 C 
ATOM      2  C   UNL     1      30.382  24.215  29.815  1.00  0.00    -0.012 C 
ATOM      3  C   UNL     1      29.954  24.238  31.089  1.00  0.00    -0.019 C 
ATOM      4  C   UNL     1      30.908  24.277  32.252  1.00  0.00     0.036 C 
ATOM      5  C   UNL     1      32.188  25.058  31.893  1.00  0.00     0.025 C 
ATOM      6  C   UNL     1      32.835  24.468  30.627  1.00  0.00     0.089 C 
ATOM      7  C   UNL     1      31.827  24.371  29.515  1.00  0.00     0.158 C 
ATOM      8  O   UNL     1      32.228  24.386  28.320  1.00  0.00    -0.295 OA
ENDROOT
BRANCH   5   9
ATOM      9  C   UNL     1      33.168  25.098  33.059  1.00  0.00    -0.077 C 
ATOM     10  C   UNL     1      32.739  25.123  34.333  1.00  0.00     0.008 C 
ATOM     11  C   UNL     1      34.652  25.110  32.797  1.00  0.00     0.039 C 
ENDBRANCH   5   9
TORSDOF 1
ENDMDL
MODEL 5
REMARK VINA RESULT:    -1.751     17.604     19.629
REMARK INTER + INTRA:          -1.950
REMARK INTER:                  -1.853
REMARK INTRA:                  -0.096
REMARK UNBOUND:                -0.097
REMARK SMILES C=C(C)[C@@H]1CC=C(C)C(=O)C1
REMARK SMILES IDX 8 1 7 2 6 3 5 4 4 5 11 6 9 7 10 8 2 9 1 10 3 11
REMARK H PARENT
REMARK Flexibility Score: inf
ROOT
ATOM      1  C   UNL     1      22.933  22.411  45.903  1.00  0.00     0.048 C 
ATOM      2  C   UNL     1      21.496  22.831  46.040  1.00  0.00    -0.012 C 
ATOM      3  C   UNL     1      20.948  23.650  45.127  1.00  0.00    -0.019 C 
ATOM      4  C   UNL     1      19.510  24.087  45.205  1.00  0.00     0.036 C 
ATOM      5  C   UNL     1      19.046  24.207  46.670  1.00  0.00     0.025 C 
ATOM      6  C   UNL     1      19.296  22.884  47.418  1.00  0.00     0.089 C 
ATOM      7  C   UNL     1      20.723  22.441  47.246  1.00  0.00     0.158 C 
ATOM      8  O   UNL     1      21.246  21.702  48.123  1.00  0.00    -0.295 OA
ENDROOT
BRANCH   5   9
ATOM      9  C   UNL     1      17.588  24.639  46.765  1.00  0.00    -0.077 C 
ATOM     10  C   UNL     1      16.875  24.938  45.665  1.00  0.00     0.008 C 
ATOM     11  C   UNL     1      16.917  24.741  48.110  1.00  0.00     0.039 C 
ENDBRANCH   5   9
TORSDOF 1
ENDMDL
MODEL 6
REMARK VINA RESULT:    -0.639     17.640     19.475
REMARK INTER + INTRA:          -0.773
REMARK INTER:                  -0.676
REMARK INTRA:                  -0.097
REMARK UNBOUND:                -0.097
REMARK SMILES C=C(C)[C@@H]1CC=C(C)C(=O)C1
REMARK SMILES IDX 8 1 7 2 6 3 5 4 4 5 11 6 9 7 10 8 2 9 1 10 3 11
REMARK H PARENT
REMARK Flexibility Score: inf
ROOT
ATOM      1  C   UNL     1      22.644  21.691  46.252  1.00  0.00     0.048 C 
ATOM      2  C   UNL     1      21.421  22.541  46.457  1.00  0.00    -0.012 C 
ATOM      3  C   UNL     1      20.631  22.331  47.525  1.00  0.00    -0.019 C 
ATOM      4  C   UNL     1      19.406  23.164  47.788  1.00  0.00     0.036 C 
ATOM      5  C   UNL     1      18.750  23.619  46.469  1.00  0.00     0.025 C 
ATOM      6  C   UNL     1      19.778  24.355  45.590  1.00  0.00     0.089 C 
ATOM      7  C   UNL     1      21.020  23.524  45.419  1.00  0.00     0.158 C 
ATOM      8  O   UNL     1      21.739  23.697  44.399  1.00  0.00    -0.295 OA
ENDROOT
BRANCH   5   9
ATOM      9  C   UNL     1      17.513  24.471  46.721  1.00  0.00    -0.077 C 
ATOM     10  C   UNL     1      16.875  25.091  45.713  1.00  0.00     0.008 C 
ATOM     11  C   UNL     1      16.981  24.636  48.120  1.00  0.00     0.039 C 
ENDBRANCH   5   9
TORSDOF 1
ENDMDL
MODEL 7
REMARK VINA RESULT:    -0.393     19.495     20.597
REMARK INTER + INTRA:          -0.513
REMARK INTER:                  -0.416
REMARK INTRA:                  -0.097
REMARK UNBOUND:                -0.097
REMARK SMILES C=C(C)[C@@H]1CC=C(C)C(=O)C1
REMARK SMILES IDX 8 1 7 2 6 3 5 4 4 5 11 6 9 7 10 8 2 9 1 10 3 11
REMARK H PARENT
REMARK Flexibility Score: inf
ROOT
ATOM      1  C   UNL     1      17.101   6.702  27.891  1.00  0.00     0.048 C 
ATOM      2  C   UNL     1      18.272   7.610  28.141  1.00  0.00    -0.012 C 
ATOM      3  C   UNL     1      18.072   8.928  28.312  1.00  0.00    -0.019 C 
ATOM      4  C   UNL     1      19.206   9.881  28.583  1.00  0.00     0.036 C 
ATOM      5  C   UNL     1      20.497   9.420  27.879  1.00  0.00     0.025 C 
ATOM      6  C   UNL     1      20.839   7.974  28.285  1.00  0.00     0.089 C 
ATOM      7  C   UNL     1      19.654   7.072  28.076  1.00  0.00     0.158 C 
ATOM      8  O   UNL     1      19.846   5.842  27.880  1.00  0.00    -0.295 OA
ENDROOT
BRANCH   5   9
ATOM      9  C   UNL     1      21.657  10.369  28.152  1.00  0.00    -0.077 C 
ATOM     10  C   UNL     1      22.826   9.922  28.643  1.00  0.00     0.008 C 
ATOM     11  C   UNL     1      21.508  11.842  27.875  1.00  0.00     0.039 C 
ENDBRANCH   5   9
TORSDOF 1
ENDMDL
