MODEL 1
REMARK VINA RESULT:    -5.939      0.000      0.000
REMARK INTER + INTRA:          -6.286
REMARK INTER:                  -6.286
REMARK INTRA:                   0.000
REMARK UNBOUND:                 0.000
REMARK SMILES Cc1cc(O)c(C)c(C)c1O
REMARK SMILES IDX 1 1 2 2 3 3 4 4 6 5 8 6 10 7 9 8 7 9 11 10 5 12
REMARK H PARENT 11 11 5 13
REMARK Flexibility Score: inf
ROOT
ATOM      1  C   UNL     1     -11.998   3.409  10.125  1.00  0.00     0.048 C 
ATOM      2  C   UNL     1     -11.666   3.590   8.669  1.00  0.00    -0.005 A 
ATOM      3  C   UNL     1     -12.131   2.667   7.728  1.00  0.00     0.053 A 
ATOM      4  C   UNL     1     -11.867   2.834   6.369  1.00  0.00     0.119 A 
ATOM      5  C   UNL     1     -11.131   3.957   5.921  1.00  0.00    -0.003 A 
ATOM      6  C   UNL     1     -10.548   4.830   6.882  1.00  0.00    -0.002 A 
ATOM      7  C   UNL     1     -10.882   4.678   8.252  1.00  0.00     0.121 A 
ATOM      8  C   UNL     1      -9.591   5.924   6.461  1.00  0.00     0.049 C 
ATOM      9  C   UNL     1     -10.962   4.200   4.438  1.00  0.00     0.049 C 
ENDROOT
BRANCH   7  10
ATOM     10  O   UNL     1     -10.462   5.598   9.219  1.00  0.00    -0.507 OA
ATOM     11  H   UNL     1     -10.856   5.657  10.148  1.00  0.00     0.293 HD
ENDBRANCH   7  10
BRANCH   4  12
ATOM     12  O   UNL     1     -12.343   1.852   5.494  1.00  0.00    -0.508 OA
ATOM     13  H   UNL     1     -12.680   2.049   4.561  1.00  0.00     0.293 HD
ENDBRANCH   4  12
TORSDOF 2
ENDMDL
MODEL 2
REMARK VINA RESULT:    -5.605     16.678     17.446
REMARK INTER + INTRA:          -5.932
REMARK INTER:                  -5.932
REMARK INTRA:                   0.000
REMARK UNBOUND:                 0.000
REMARK SMILES Cc1cc(O)c(C)c(C)c1O
REMARK SMILES IDX 1 1 2 2 3 3 4 4 6 5 8 6 10 7 9 8 7 9 11 10 5 12
REMARK H PARENT 11 11 5 13
REMARK Flexibility Score: inf
ROOT
ATOM      1  C   UNL     1     -10.389  -1.148 -10.125  1.00  0.00     0.048 C 
ATOM      2  C   UNL     1     -11.181   0.095  -9.823  1.00  0.00    -0.005 A 
ATOM      3  C   UNL     1     -10.519   1.301  -9.573  1.00  0.00     0.053 A 
ATOM      4  C   UNL     1     -11.232   2.473  -9.326  1.00  0.00     0.119 A 
ATOM      5  C   UNL     1     -12.647   2.459  -9.341  1.00  0.00    -0.003 A 
ATOM      6  C   UNL     1     -13.326   1.215  -9.468  1.00  0.00    -0.002 A 
ATOM      7  C   UNL     1     -12.584   0.048  -9.782  1.00  0.00     0.121 A 
ATOM      8  C   UNL     1     -14.826   1.123  -9.289  1.00  0.00     0.049 C 
ATOM      9  C   UNL     1     -13.411   3.757  -9.204  1.00  0.00     0.049 C 
ENDROOT
BRANCH   7  10
ATOM     10  O   UNL     1     -13.212  -1.170 -10.068  1.00  0.00    -0.507 OA
ATOM     11  H   UNL     1     -12.780  -2.073  -9.924  1.00  0.00     0.293 HD
ENDBRANCH   7  10
BRANCH   4  12
ATOM     12  O   UNL     1     -10.496   3.631  -9.057  1.00  0.00    -0.508 OA
ATOM     13  H   UNL     1     -10.840   4.567  -9.231  1.00  0.00     0.293 HD
ENDBRANCH   4  12
TORSDOF 2
ENDMDL
MODEL 3
REMARK VINA RESULT:    -5.566      1.261      2.994
REMARK INTER + INTRA:          -5.892
REMARK INTER:                  -5.892
REMARK INTRA:                   0.000
REMARK UNBOUND:                 0.000
REMARK SMILES Cc1cc(O)c(C)c(C)c1O
REMARK SMILES IDX 1 1 2 2 3 3 4 4 6 5 8 6 10 7 9 8 7 9 11 10 5 12
REMARK H PARENT 11 11 5 13
REMARK Flexibility Score: inf
ROOT
ATOM      1  C   UNL     1     -12.137   3.405   9.894  1.00  0.00     0.048 C 
ATOM      2  C   UNL     1     -11.667   3.865   8.541  1.00  0.00    -0.005 A 
ATOM      3  C   UNL     1     -10.721   4.888   8.442  1.00  0.00     0.053 A 
ATOM      4  C   UNL     1     -10.243   5.306   7.200  1.00  0.00     0.119 A 
ATOM      5  C   UNL     1     -10.704   4.682   6.016  1.00  0.00    -0.003 A 
ATOM      6  C   UNL     1     -11.758   3.729   6.100  1.00  0.00    -0.002 A 
ATOM      7  C   UNL     1     -12.182   3.274   7.375  1.00  0.00     0.121 A 
ATOM      8  C   UNL     1     -12.419   3.185   4.853  1.00  0.00     0.049 C 
ATOM      9  C   UNL     1     -10.085   5.049   4.686  1.00  0.00     0.049 C 
ENDROOT
BRANCH   7  10
ATOM     10  O   UNL     1     -13.104   2.230   7.516  1.00  0.00    -0.507 OA
ATOM     11  H   UNL     1     -13.059   1.535   8.248  1.00  0.00     0.293 HD
ENDBRANCH   7  10
BRANCH   4  12
ATOM     12  O   UNL     1      -9.319   6.355   7.184  1.00  0.00    -0.508 OA
ATOM     13  H   UNL     1      -9.381   7.147   6.557  1.00  0.00     0.293 HD
ENDBRANCH   4  12
TORSDOF 2
ENDMDL
MODEL 4
REMARK VINA RESULT:    -5.524      1.144      3.156
REMARK INTER + INTRA:          -5.847
REMARK INTER:                  -5.847
REMARK INTRA:                   0.000
REMARK UNBOUND:                 0.000
REMARK SMILES Cc1cc(O)c(C)c(C)c1O
REMARK SMILES IDX 1 1 2 2 3 3 4 4 6 5 8 6 10 7 9 8 7 9 11 10 5 12
REMARK H PARENT 11 11 5 13
REMARK Flexibility Score: inf
ROOT
ATOM      1  C   UNL     1      -9.599   5.784   4.535  1.00  0.00     0.048 C 
ATOM      2  C   UNL     1     -10.336   4.939   5.538  1.00  0.00    -0.005 A 
ATOM      3  C   UNL     1     -11.068   3.828   5.110  1.00  0.00     0.053 A 
ATOM      4  C   UNL     1     -11.729   3.009   6.024  1.00  0.00     0.119 A 
ATOM      5  C   UNL     1     -11.654   3.287   7.410  1.00  0.00    -0.003 A 
ATOM      6  C   UNL     1     -11.018   4.485   7.842  1.00  0.00    -0.002 A 
ATOM      7  C   UNL     1     -10.299   5.267   6.903  1.00  0.00     0.121 A 
ATOM      8  C   UNL     1     -11.086   4.926   9.288  1.00  0.00     0.049 C 
ATOM      9  C   UNL     1     -12.262   2.322   8.402  1.00  0.00     0.049 C 
ENDROOT
BRANCH   7  10
ATOM     10  O   UNL     1      -9.530   6.369   7.296  1.00  0.00    -0.507 OA
ATOM     11  H   UNL     1      -9.368   6.626   8.261  1.00  0.00     0.293 HD
ENDBRANCH   7  10
BRANCH   4  12
ATOM     12  O   UNL     1     -12.463   1.934   5.514  1.00  0.00    -0.508 OA
ATOM     13  H   UNL     1     -12.188   0.966   5.622  1.00  0.00     0.293 HD
ENDBRANCH   4  12
TORSDOF 2
ENDMDL
MODEL 5
REMARK VINA RESULT:    -4.933      1.126      4.276
REMARK INTER + INTRA:          -5.222
REMARK INTER:                  -5.222
REMARK INTRA:                   0.000
REMARK UNBOUND:                 0.000
REMARK SMILES Cc1cc(O)c(C)c(C)c1O
REMARK SMILES IDX 1 1 2 2 3 3 4 4 6 5 8 6 10 7 9 8 7 9 11 10 5 12
REMARK H PARENT 11 11 5 13
REMARK Flexibility Score: inf
ROOT
ATOM      1  C   UNL     1     -11.350   3.475   3.757  1.00  0.00     0.048 C 
ATOM      2  C   UNL     1     -11.187   3.805   5.215  1.00  0.00    -0.005 A 
ATOM      3  C   UNL     1     -10.451   4.929   5.598  1.00  0.00     0.053 A 
ATOM      4  C   UNL     1     -10.317   5.276   6.942  1.00  0.00     0.119 A 
ATOM      5  C   UNL     1     -10.944   4.494   7.942  1.00  0.00    -0.003 A 
ATOM      6  C   UNL     1     -11.588   3.281   7.570  1.00  0.00    -0.002 A 
ATOM      7  C   UNL     1     -11.767   2.983   6.195  1.00  0.00     0.121 A 
ATOM      8  C   UNL     1     -12.096   2.315   8.618  1.00  0.00     0.049 C 
ATOM      9  C   UNL     1     -10.905   4.950   9.384  1.00  0.00     0.049 C 
ENDROOT
BRANCH   7  10
ATOM     10  O   UNL     1     -12.524   1.884   5.772  1.00  0.00    -0.507 OA
ATOM     11  H   UNL     1     -12.685   1.061   6.336  1.00  0.00     0.293 HD
ENDBRANCH   7  10
BRANCH   4  12
ATOM     12  O   UNL     1      -9.540   6.398   7.245  1.00  0.00    -0.508 OA
ATOM     13  H   UNL     1      -9.368   7.153   6.594  1.00  0.00     0.293 HD
ENDBRANCH   4  12
TORSDOF 2
ENDMDL
MODEL 6
REMARK VINA RESULT:    -4.658      1.333      4.293
REMARK INTER + INTRA:          -4.930
REMARK INTER:                  -4.930
REMARK INTRA:                   0.000
REMARK UNBOUND:                 0.000
REMARK SMILES Cc1cc(O)c(C)c(C)c1O
REMARK SMILES IDX 1 1 2 2 3 3 4 4 6 5 8 6 10 7 9 8 7 9 11 10 5 12
REMARK H PARENT 11 11 5 13
REMARK Flexibility Score: inf
ROOT
ATOM      1  C   UNL     1      -9.384   6.195   4.508  1.00  0.00     0.048 C 
ATOM      2  C   UNL     1     -10.050   5.333   5.545  1.00  0.00    -0.005 A 
ATOM      3  C   UNL     1      -9.984   5.689   6.895  1.00  0.00     0.053 A 
ATOM      4  C   UNL     1     -10.625   4.926   7.870  1.00  0.00     0.119 A 
ATOM      5  C   UNL     1     -11.367   3.779   7.500  1.00  0.00    -0.003 A 
ATOM      6  C   UNL     1     -11.334   3.339   6.146  1.00  0.00    -0.002 A 
ATOM      7  C   UNL     1     -10.731   4.165   5.163  1.00  0.00     0.121 A 
ATOM      8  C   UNL     1     -11.943   2.015   5.741  1.00  0.00     0.049 C 
ATOM      9  C   UNL     1     -12.166   3.033   8.545  1.00  0.00     0.049 C 
ENDROOT
BRANCH   7  10
ATOM     10  O   UNL     1     -10.802   3.858   3.799  1.00  0.00    -0.507 OA
ATOM     11  H   UNL     1     -11.586   3.388   3.369  1.00  0.00     0.293 HD
ENDBRANCH   7  10
BRANCH   4  12
ATOM     12  O   UNL     1     -10.488   5.332   9.201  1.00  0.00    -0.508 OA
ATOM     13  H   UNL     1     -10.680   6.272   9.522  1.00  0.00     0.293 HD
ENDBRANCH   4  12
TORSDOF 2
ENDMDL
MODEL 7
REMARK VINA RESULT:    -4.415      6.234      7.440
REMARK INTER + INTRA:          -4.673
REMARK INTER:                  -4.673
REMARK INTRA:                   0.000
REMARK UNBOUND:                 0.000
REMARK SMILES Cc1cc(O)c(C)c(C)c1O
REMARK SMILES IDX 1 1 2 2 3 3 4 4 6 5 8 6 10 7 9 8 7 9 11 10 5 12
REMARK H PARENT 11 11 5 13
REMARK Flexibility Score: inf
ROOT
ATOM      1  C   UNL     1      -5.853  10.757   6.389  1.00  0.00     0.048 C 
ATOM      2  C   UNL     1      -7.301  10.505   6.068  1.00  0.00    -0.005 A 
ATOM      3  C   UNL     1      -7.653   9.461   5.208  1.00  0.00     0.053 A 
ATOM      4  C   UNL     1      -8.990   9.185   4.925  1.00  0.00     0.119 A 
ATOM      5  C   UNL     1     -10.016   9.957   5.522  1.00  0.00    -0.003 A 
ATOM      6  C   UNL     1      -9.663  11.098   6.296  1.00  0.00    -0.002 A 
ATOM      7  C   UNL     1      -8.301  11.321   6.623  1.00  0.00     0.121 A 
ATOM      8  C   UNL     1     -10.718  12.065   6.786  1.00  0.00     0.049 C 
ATOM      9  C   UNL     1     -11.463   9.569   5.314  1.00  0.00     0.049 C 
ENDROOT
BRANCH   7  10
ATOM     10  O   UNL     1      -7.911  12.336   7.504  1.00  0.00    -0.507 OA
ATOM     11  H   UNL     1      -8.116  13.315   7.360  1.00  0.00     0.293 HD
ENDBRANCH   7  10
BRANCH   4  12
ATOM     12  O   UNL     1      -9.259   8.143   4.033  1.00  0.00    -0.508 OA
ATOM     13  H   UNL     1      -8.996   8.159   3.056  1.00  0.00     0.293 HD
ENDBRANCH   4  12
TORSDOF 2
ENDMDL
MODEL 8
REMARK VINA RESULT:    -4.391      2.477      3.836
REMARK INTER + INTRA:          -4.647
REMARK INTER:                  -4.647
REMARK INTRA:                   0.000
REMARK UNBOUND:                 0.000
REMARK SMILES Cc1cc(O)c(C)c(C)c1O
REMARK SMILES IDX 1 1 2 2 3 3 4 4 6 5 8 6 10 7 9 8 7 9 11 10 5 12
REMARK H PARENT 11 11 5 13
REMARK Flexibility Score: inf
ROOT
ATOM      1  C   UNL     1      -9.008   7.544   5.776  1.00  0.00     0.048 C 
ATOM      2  C   UNL     1     -10.169   6.595   5.904  1.00  0.00    -0.005 A 
ATOM      3  C   UNL     1      -9.937   5.240   6.153  1.00  0.00     0.053 A 
ATOM      4  C   UNL     1     -10.998   4.348   6.312  1.00  0.00     0.119 A 
ATOM      5  C   UNL     1     -12.333   4.813   6.236  1.00  0.00    -0.003 A 
ATOM      6  C   UNL     1     -12.576   6.163   5.858  1.00  0.00    -0.002 A 
ATOM      7  C   UNL     1     -11.485   7.065   5.765  1.00  0.00     0.121 A 
ATOM      8  C   UNL     1     -13.978   6.652   5.570  1.00  0.00     0.049 C 
ATOM      9  C   UNL     1     -13.474   3.868   6.540  1.00  0.00     0.049 C 
ENDROOT
BRANCH   7  10
ATOM     10  O   UNL     1     -11.678   8.435   5.548  1.00  0.00    -0.507 OA
ATOM     11  H   UNL     1     -12.523   8.930   5.799  1.00  0.00     0.293 HD
ENDBRANCH   7  10
BRANCH   4  12
ATOM     12  O   UNL     1     -10.683   3.004   6.531  1.00  0.00    -0.508 OA
ATOM     13  H   UNL     1     -10.437   2.358   5.791  1.00  0.00     0.293 HD
ENDBRANCH   4  12
TORSDOF 2
ENDMDL
MODEL 9
REMARK VINA RESULT:    -4.185      6.884      8.258
REMARK INTER + INTRA:          -4.430
REMARK INTER:                  -4.430
REMARK INTRA:                   0.000
REMARK UNBOUND:                 0.000
REMARK SMILES Cc1cc(O)c(C)c(C)c1O
REMARK SMILES IDX 1 1 2 2 3 3 4 4 6 5 8 6 10 7 9 8 7 9 11 10 5 12
REMARK H PARENT 11 11 5 13
REMARK Flexibility Score: inf
ROOT
ATOM      1  C   UNL     1     -10.933   9.922   4.843  1.00  0.00     0.048 C 
ATOM      2  C   UNL     1      -9.865  10.451   5.762  1.00  0.00    -0.005 A 
ATOM      3  C   UNL     1     -10.222  11.195   6.890  1.00  0.00     0.053 A 
ATOM      4  C   UNL     1      -9.253  11.665   7.775  1.00  0.00     0.119 A 
ATOM      5  C   UNL     1      -7.886  11.378   7.548  1.00  0.00    -0.003 A 
ATOM      6  C   UNL     1      -7.505  10.731   6.339  1.00  0.00    -0.002 A 
ATOM      7  C   UNL     1      -8.510  10.207   5.486  1.00  0.00     0.121 A 
ATOM      8  C   UNL     1      -6.048  10.583   5.959  1.00  0.00     0.049 C 
ATOM      9  C   UNL     1      -6.855  11.777   8.580  1.00  0.00     0.049 C 
ENDROOT
BRANCH   7  10
ATOM     10  O   UNL     1      -8.194   9.431   4.365  1.00  0.00    -0.507 OA
ATOM     11  H   UNL     1      -8.527   8.487   4.222  1.00  0.00     0.293 HD
ENDBRANCH   7  10
BRANCH   4  12
ATOM     12  O   UNL     1      -9.689  12.426   8.864  1.00  0.00    -0.508 OA
ATOM     13  H   UNL     1     -10.630  12.390   9.232  1.00  0.00     0.293 HD
ENDBRANCH   4  12
TORSDOF 2
ENDMDL
