MODEL 1
REMARK VINA RESULT:    -3.857      0.000      0.000
REMARK INTER + INTRA:          -8.166
REMARK INTER:                  -7.466
REMARK INTRA:                  -0.701
REMARK UNBOUND:                -0.701
REMARK SMILES CCCCCCCCCCCCCCCCCC(=O)[O-]
REMARK SMILES IDX 10 1 11 2 12 3 13 4 14 5 15 6 16 7 17 8 18 9 19 10 20 11
REMARK SMILES IDX 9 12 8 13 7 14 6 15 5 16 4 17 3 18 2 19 1 20
REMARK H PARENT
REMARK Flexibility Score: inf
ROOT
ATOM      1  C   UNL     1      -1.430   1.220  -9.431  1.00  0.00     0.000 C 
ENDROOT
BRANCH   1   2
ATOM      2  C   UNL     1      -2.679   1.868 -10.051  1.00  0.00     0.000 C 
BRANCH   2   3
ATOM      3  C   UNL     1      -2.597   3.404 -10.076  1.00  0.00     0.000 C 
BRANCH   3   4
ATOM      4  C   UNL     1      -3.982   4.077 -10.122  1.00  0.00     0.000 C 
BRANCH   4   5
ATOM      5  C   UNL     1      -4.077   5.431  -9.395  1.00  0.00     0.000 C 
BRANCH   5   6
ATOM      6  C   UNL     1      -5.418   6.142  -9.624  1.00  0.00     0.000 C 
BRANCH   6   7
ATOM      7  C   UNL     1      -6.583   5.312  -9.061  1.00  0.00     0.006 C 
BRANCH   7   8
ATOM      8  C   UNL     1      -7.601   6.177  -8.306  1.00  0.00     0.053 C 
BRANCH   8   9
ATOM      9  C   UNL     1      -8.731   6.605  -9.192  1.00  0.00     0.041 C 
ATOM     10  O   UNL     1      -9.685   5.818  -9.429  1.00  0.00    -0.550 OA
ATOM     11  O   UNL     1      -8.712   7.862  -9.784  1.00  0.00    -0.550 OA
ENDBRANCH   8   9
ENDBRANCH   7   8
ENDBRANCH   6   7
ENDBRANCH   5   6
ENDBRANCH   4   5
ENDBRANCH   3   4
ENDBRANCH   2   3
ENDBRANCH   1   2
BRANCH   1  12
ATOM     12  C   UNL     1      -0.123   1.738 -10.050  1.00  0.00     0.000 C 
BRANCH  12  13
ATOM     13  C   UNL     1       0.928   0.620 -10.124  1.00  0.00    -0.000 C 
BRANCH  13  14
ATOM     14  C   UNL     1       0.346  -0.767  -9.805  1.00  0.00    -0.000 C 
BRANCH  14  15
ATOM     15  C   UNL     1       1.422  -1.769  -9.351  1.00  0.00    -0.000 C 
BRANCH  15  16
ATOM     16  C   UNL     1       2.753  -1.584 -10.097  1.00  0.00    -0.000 C 
BRANCH  16  17
ATOM     17  C   UNL     1       3.858  -2.521  -9.581  1.00  0.00    -0.000 C 
BRANCH  17  18
ATOM     18  C   UNL     1       3.665  -3.945 -10.125  1.00  0.00    -0.000 C 
BRANCH  18  19
ATOM     19  C   UNL     1       4.851  -4.866  -9.800  1.00  0.00    -0.003 C 
ATOM     20  C   UNL     1       6.198  -4.150  -9.886  1.00  0.00     0.004 C 
ENDBRANCH  18  19
ENDBRANCH  17  18
ENDBRANCH  16  17
ENDBRANCH  15  16
ENDBRANCH  14  15
ENDBRANCH  13  14
ENDBRANCH  12  13
ENDBRANCH   1  12
TORSDOF 16
ENDMDL
MODEL 2
REMARK VINA RESULT:    -3.295      6.872     13.233
REMARK INTER + INTRA:          -7.078
REMARK INTER:                  -6.598
REMARK INTRA:                  -0.481
REMARK UNBOUND:                -0.701
REMARK SMILES CCCCCCCCCCCCCCCCCC(=O)[O-]
REMARK SMILES IDX 10 1 11 2 12 3 13 4 14 5 15 6 16 7 17 8 18 9 19 10 20 11
REMARK SMILES IDX 9 12 8 13 7 14 6 15 5 16 4 17 3 18 2 19 1 20
REMARK H PARENT
REMARK Flexibility Score: inf
ROOT
ATOM      1  C   UNL     1      -0.168  -0.565 -10.125  1.00  0.00     0.000 C 
ENDROOT
BRANCH   1   2
ATOM      2  C   UNL     1       0.814  -1.355  -9.243  1.00  0.00     0.000 C 
BRANCH   2   3
ATOM      3  C   UNL     1       2.093  -1.757  -9.998  1.00  0.00     0.000 C 
BRANCH   3   4
ATOM      4  C   UNL     1       2.929  -2.807  -9.243  1.00  0.00     0.000 C 
BRANCH   4   5
ATOM      5  C   UNL     1       3.884  -3.638 -10.119  1.00  0.00     0.000 C 
BRANCH   5   6
ATOM      6  C   UNL     1       4.159  -5.036  -9.548  1.00  0.00     0.000 C 
BRANCH   6   7
ATOM      7  C   UNL     1       5.594  -5.486  -9.863  1.00  0.00     0.006 C 
BRANCH   7   8
ATOM      8  C   UNL     1       6.600  -4.992  -8.815  1.00  0.00     0.053 C 
BRANCH   8   9
ATOM      9  C   UNL     1       7.428  -6.115  -8.268  1.00  0.00     0.041 C 
ATOM     10  O   UNL     1       8.117  -6.831  -9.040  1.00  0.00    -0.550 OA
ATOM     11  O   UNL     1       7.411  -6.390  -6.906  1.00  0.00    -0.550 OA
ENDBRANCH   8   9
ENDBRANCH   7   8
ENDBRANCH   6   7
ENDBRANCH   5   6
ENDBRANCH   4   5
ENDBRANCH   3   4
ENDBRANCH   2   3
ENDBRANCH   1   2
BRANCH   1  12
ATOM     12  C   UNL     1      -0.580   0.777  -9.501  1.00  0.00     0.000 C 
BRANCH  12  13
ATOM     13  C   UNL     1      -2.040   1.113  -9.840  1.00  0.00    -0.000 C 
BRANCH  13  14
ATOM     14  C   UNL     1      -2.259   2.611 -10.111  1.00  0.00    -0.000 C 
BRANCH  14  15
ATOM     15  C   UNL     1      -3.455   3.184  -9.330  1.00  0.00    -0.000 C 
BRANCH  15  16
ATOM     16  C   UNL     1      -4.160   4.324 -10.083  1.00  0.00    -0.000 C 
BRANCH  16  17
ATOM     17  C   UNL     1      -4.004   5.683  -9.382  1.00  0.00    -0.000 C 
BRANCH  17  18
ATOM     18  C   UNL     1      -5.352   6.416  -9.305  1.00  0.00    -0.000 C 
BRANCH  18  19
ATOM     19  C   UNL     1      -6.408   5.629  -8.515  1.00  0.00    -0.003 C 
ATOM     20  C   UNL     1      -7.698   5.411  -9.304  1.00  0.00     0.004 C 
ENDBRANCH  18  19
ENDBRANCH  17  18
ENDBRANCH  16  17
ENDBRANCH  15  16
ENDBRANCH  14  15
ENDBRANCH  13  14
ENDBRANCH  12  13
ENDBRANCH   1  12
TORSDOF 16
ENDMDL
MODEL 3
REMARK VINA RESULT:    -3.087     20.651     21.530
REMARK INTER + INTRA:          -6.675
REMARK INTER:                  -6.267
REMARK INTRA:                  -0.408
REMARK UNBOUND:                -0.701
REMARK SMILES CCCCCCCCCCCCCCCCCC(=O)[O-]
REMARK SMILES IDX 10 1 11 2 12 3 13 4 14 5 15 6 16 7 17 8 18 9 19 10 20 11
REMARK SMILES IDX 9 12 8 13 7 14 6 15 5 16 4 17 3 18 2 19 1 20
REMARK H PARENT
REMARK Flexibility Score: inf
ROOT
ATOM      1  C   UNL     1       1.977   2.196   9.803  1.00  0.00     0.000 C 
ENDROOT
BRANCH   1   2
ATOM      2  C   UNL     1       1.369   0.818  10.115  1.00  0.00     0.000 C 
BRANCH   2   3
ATOM      3  C   UNL     1       0.084   0.545   9.315  1.00  0.00     0.000 C 
BRANCH   3   4
ATOM      4  C   UNL     1      -0.973  -0.230  10.123  1.00  0.00     0.000 C 
BRANCH   4   5
ATOM      5  C   UNL     1      -1.410  -1.575   9.514  1.00  0.00     0.000 C 
BRANCH   5   6
ATOM      6  C   UNL     1      -2.908  -1.856   9.692  1.00  0.00     0.000 C 
BRANCH   6   7
ATOM      7  C   UNL     1      -3.148  -3.318  10.099  1.00  0.00     0.006 C 
BRANCH   7   8
ATOM      8  C   UNL     1      -4.517  -3.833   9.635  1.00  0.00     0.053 C 
BRANCH   8   9
ATOM      9  C   UNL     1      -4.571  -5.330   9.619  1.00  0.00     0.041 C 
ATOM     10  O   UNL     1      -3.603  -5.996   9.167  1.00  0.00    -0.550 OA
ATOM     11  O   UNL     1      -5.706  -5.989  10.075  1.00  0.00    -0.550 OA
ENDBRANCH   8   9
ENDBRANCH   7   8
ENDBRANCH   6   7
ENDBRANCH   5   6
ENDBRANCH   4   5
ENDBRANCH   3   4
ENDBRANCH   2   3
ENDBRANCH   1   2
BRANCH   1  12
ATOM     12  C   UNL     1       3.510   2.206   9.908  1.00  0.00     0.000 C 
BRANCH  12  13
ATOM     13  C   UNL     1       4.037   3.639  10.076  1.00  0.00    -0.000 C 
BRANCH  13  14
ATOM     14  C   UNL     1       5.386   3.863   9.373  1.00  0.00    -0.000 C 
BRANCH  14  15
ATOM     15  C   UNL     1       6.233   4.953  10.052  1.00  0.00    -0.000 C 
BRANCH  15  16
ATOM     16  C   UNL     1       7.740   4.767   9.810  1.00  0.00    -0.000 C 
BRANCH  16  17
ATOM     17  C   UNL     1       8.420   6.043   9.288  1.00  0.00    -0.000 C 
BRANCH  17  18
ATOM     18  C   UNL     1       7.576   7.284   9.612  1.00  0.00    -0.000 C 
BRANCH  18  19
ATOM     19  C   UNL     1       8.052   8.535   8.858  1.00  0.00    -0.003 C 
ATOM     20  C   UNL     1       8.168   9.762   9.761  1.00  0.00     0.004 C 
ENDBRANCH  18  19
ENDBRANCH  17  18
ENDBRANCH  16  17
ENDBRANCH  15  16
ENDBRANCH  14  15
ENDBRANCH  13  14
ENDBRANCH  12  13
ENDBRANCH   1  12
TORSDOF 16
ENDMDL
MODEL 4
REMARK VINA RESULT:    -2.884      1.237      2.135
REMARK INTER + INTRA:          -6.282
REMARK INTER:                  -5.856
REMARK INTRA:                  -0.425
REMARK UNBOUND:                -0.701
REMARK SMILES CCCCCCCCCCCCCCCCCC(=O)[O-]
REMARK SMILES IDX 10 1 11 2 12 3 13 4 14 5 15 6 16 7 17 8 18 9 19 10 20 11
REMARK SMILES IDX 9 12 8 13 7 14 6 15 5 16 4 17 3 18 2 19 1 20
REMARK H PARENT
REMARK Flexibility Score: inf
ROOT
ATOM      1  C   UNL     1      -3.287   2.694  -9.220  1.00  0.00     0.000 C 
ENDROOT
BRANCH   1   2
ATOM      2  C   UNL     1      -4.177   3.807  -9.799  1.00  0.00     0.000 C 
BRANCH   2   3
ATOM      3  C   UNL     1      -3.659   5.215  -9.458  1.00  0.00     0.000 C 
BRANCH   3   4
ATOM      4  C   UNL     1      -4.725   6.309  -9.652  1.00  0.00     0.000 C 
BRANCH   4   5
ATOM      5  C   UNL     1      -6.102   5.807 -10.125  1.00  0.00     0.000 C 
BRANCH   5   6
ATOM      6  C   UNL     1      -6.917   5.147  -9.004  1.00  0.00     0.000 C 
BRANCH   6   7
ATOM      7  C   UNL     1      -7.909   6.145  -8.385  1.00  0.00     0.006 C 
BRANCH   7   8
ATOM      8  C   UNL     1      -8.412   7.173  -9.407  1.00  0.00     0.053 C 
BRANCH   8   9
ATOM      9  C   UNL     1      -8.500   8.546  -8.816  1.00  0.00     0.041 C 
ATOM     10  O   UNL     1      -9.614   9.017  -8.467  1.00  0.00    -0.550 OA
ATOM     11  O   UNL     1      -7.353   9.319  -8.681  1.00  0.00    -0.550 OA
ENDBRANCH   8   9
ENDBRANCH   7   8
ENDBRANCH   6   7
ENDBRANCH   5   6
ENDBRANCH   4   5
ENDBRANCH   3   4
ENDBRANCH   2   3
ENDBRANCH   1   2
BRANCH   1  12
ATOM     12  C   UNL     1      -2.049   2.413 -10.085  1.00  0.00     0.000 C 
BRANCH  12  13
ATOM     13  C   UNL     1      -1.007   1.599  -9.302  1.00  0.00    -0.000 C 
BRANCH  13  14
ATOM     14  C   UNL     1      -0.415   0.443 -10.125  1.00  0.00    -0.000 C 
BRANCH  14  15
ATOM     15  C   UNL     1       0.216  -0.648  -9.242  1.00  0.00    -0.000 C 
BRANCH  15  16
ATOM     16  C   UNL     1       1.209  -1.531 -10.015  1.00  0.00    -0.000 C 
BRANCH  16  17
ATOM     17  C   UNL     1       2.660  -1.039  -9.894  1.00  0.00    -0.000 C 
BRANCH  17  18
ATOM     18  C   UNL     1       3.622  -2.217  -9.684  1.00  0.00    -0.000 C 
BRANCH  18  19
ATOM     19  C   UNL     1       2.986  -3.570 -10.040  1.00  0.00    -0.003 C 
ATOM     20  C   UNL     1       3.931  -4.748  -9.808  1.00  0.00     0.004 C 
ENDBRANCH  18  19
ENDBRANCH  17  18
ENDBRANCH  16  17
ENDBRANCH  15  16
ENDBRANCH  14  15
ENDBRANCH  13  14
ENDBRANCH  12  13
ENDBRANCH   1  12
TORSDOF 16
ENDMDL
MODEL 5
REMARK VINA RESULT:    -2.855     20.482     21.484
REMARK INTER + INTRA:          -6.225
REMARK INTER:                  -5.687
REMARK INTRA:                  -0.538
REMARK UNBOUND:                -0.701
REMARK SMILES CCCCCCCCCCCCCCCCCC(=O)[O-]
REMARK SMILES IDX 10 1 11 2 12 3 13 4 14 5 15 6 16 7 17 8 18 9 19 10 20 11
REMARK SMILES IDX 9 12 8 13 7 14 6 15 5 16 4 17 3 18 2 19 1 20
REMARK H PARENT
REMARK Flexibility Score: inf
ROOT
ATOM      1  C   UNL     1      -0.877  -0.687   9.513  1.00  0.00     0.000 C 
ENDROOT
BRANCH   1   2
ATOM      2  C   UNL     1      -1.486  -2.099   9.549  1.00  0.00     0.000 C 
BRANCH   2   3
ATOM      3  C   UNL     1      -2.913  -2.111  10.125  1.00  0.00     0.000 C 
BRANCH   3   4
ATOM      4  C   UNL     1      -3.593  -3.488  10.011  1.00  0.00     0.000 C 
BRANCH   4   5
ATOM      5  C   UNL     1      -5.132  -3.461  10.015  1.00  0.00     0.000 C 
BRANCH   5   6
ATOM      6  C   UNL     1      -5.754  -4.559   9.141  1.00  0.00     0.000 C 
BRANCH   6   7
ATOM      7  C   UNL     1      -5.699  -5.922   9.850  1.00  0.00     0.006 C 
BRANCH   7   8
ATOM      8  C   UNL     1      -4.553  -6.800   9.331  1.00  0.00     0.053 C 
BRANCH   8   9
ATOM      9  C   UNL     1      -4.881  -8.258   9.431  1.00  0.00     0.041 C 
ATOM     10  O   UNL     1      -5.986  -8.691   9.011  1.00  0.00    -0.550 OA
ATOM     11  O   UNL     1      -3.977  -9.135  10.018  1.00  0.00    -0.550 OA
ENDBRANCH   8   9
ENDBRANCH   7   8
ENDBRANCH   6   7
ENDBRANCH   5   6
ENDBRANCH   4   5
ENDBRANCH   3   4
ENDBRANCH   2   3
ENDBRANCH   1   2
BRANCH   1  12
ATOM     12  C   UNL     1       0.644  -0.702   9.295  1.00  0.00     0.000 C 
BRANCH  12  13
ATOM     13  C   UNL     1       1.324   0.416  10.101  1.00  0.00    -0.000 C 
BRANCH  13  14
ATOM     14  C   UNL     1       2.855   0.286  10.124  1.00  0.00    -0.000 C 
BRANCH  14  15
ATOM     15  C   UNL     1       3.566   1.597   9.743  1.00  0.00    -0.000 C 
BRANCH  15  16
ATOM     16  C   UNL     1       2.722   2.841  10.065  1.00  0.00    -0.000 C 
BRANCH  16  17
ATOM     17  C   UNL     1       3.550   4.136  10.067  1.00  0.00    -0.000 C 
BRANCH  17  18
ATOM     18  C   UNL     1       5.048   3.828   9.930  1.00  0.00    -0.000 C 
BRANCH  18  19
ATOM     19  C   UNL     1       5.864   5.051   9.485  1.00  0.00    -0.003 C 
ATOM     20  C   UNL     1       7.357   4.751   9.355  1.00  0.00     0.004 C 
ENDBRANCH  18  19
ENDBRANCH  17  18
ENDBRANCH  16  17
ENDBRANCH  15  16
ENDBRANCH  14  15
ENDBRANCH  13  14
ENDBRANCH  12  13
ENDBRANCH   1  12
TORSDOF 16
ENDMDL
MODEL 6
REMARK VINA RESULT:    -2.772      2.818      5.642
REMARK INTER + INTRA:          -6.066
REMARK INTER:                  -5.815
REMARK INTRA:                  -0.251
REMARK UNBOUND:                -0.701
REMARK SMILES CCCCCCCCCCCCCCCCCC(=O)[O-]
REMARK SMILES IDX 10 1 11 2 12 3 13 4 14 5 15 6 16 7 17 8 18 9 19 10 20 11
REMARK SMILES IDX 9 12 8 13 7 14 6 15 5 16 4 17 3 18 2 19 1 20
REMARK H PARENT
REMARK Flexibility Score: inf
ROOT
ATOM      1  C   UNL     1      -4.730   6.828  -8.791  1.00  0.00     0.000 C 
ENDROOT
BRANCH   1   2
ATOM      2  C   UNL     1      -4.017   8.160  -9.077  1.00  0.00     0.000 C 
BRANCH   2   3
ATOM      3  C   UNL     1      -4.758   9.014 -10.120  1.00  0.00     0.000 C 
BRANCH   3   4
ATOM      4  C   UNL     1      -5.934   9.806  -9.519  1.00  0.00     0.000 C 
BRANCH   4   5
ATOM      5  C   UNL     1      -7.056   8.950  -8.903  1.00  0.00     0.000 C 
BRANCH   5   6
ATOM      6  C   UNL     1      -8.457   9.375  -9.364  1.00  0.00     0.000 C 
BRANCH   6   7
ATOM      7  C   UNL     1      -9.468   8.232  -9.176  1.00  0.00     0.006 C 
BRANCH   7   8
ATOM      8  C   UNL     1      -9.198   7.057 -10.125  1.00  0.00     0.053 C 
BRANCH   8   9
ATOM      9  C   UNL     1      -8.880   5.800  -9.375  1.00  0.00     0.041 C 
ATOM     10  O   UNL     1      -9.555   4.755  -9.570  1.00  0.00    -0.550 OA
ATOM     11  O   UNL     1      -7.856   5.791  -8.435  1.00  0.00    -0.550 OA
ENDBRANCH   8   9
ENDBRANCH   7   8
ENDBRANCH   6   7
ENDBRANCH   5   6
ENDBRANCH   4   5
ENDBRANCH   3   4
ENDBRANCH   2   3
ENDBRANCH   1   2
BRANCH   1  12
ATOM     12  C   UNL     1      -5.333   6.192 -10.053  1.00  0.00     0.000 C 
BRANCH  12  13
ATOM     13  C   UNL     1      -5.199   4.662 -10.013  1.00  0.00    -0.000 C 
BRANCH  13  14
ATOM     14  C   UNL     1      -3.739   4.190 -10.121  1.00  0.00    -0.000 C 
BRANCH  14  15
ATOM     15  C   UNL     1      -3.555   2.732  -9.665  1.00  0.00    -0.000 C 
BRANCH  15  16
ATOM     16  C   UNL     1      -2.096   2.405  -9.309  1.00  0.00    -0.000 C 
BRANCH  16  17
ATOM     17  C   UNL     1      -1.535   1.229 -10.124  1.00  0.00    -0.000 C 
BRANCH  17  18
ATOM     18  C   UNL     1      -0.018   1.096  -9.921  1.00  0.00    -0.000 C 
BRANCH  18  19
ATOM     19  C   UNL     1       0.452  -0.367  -9.921  1.00  0.00    -0.003 C 
ATOM     20  C   UNL     1      -0.697  -1.358 -10.099  1.00  0.00     0.004 C 
ENDBRANCH  18  19
ENDBRANCH  17  18
ENDBRANCH  16  17
ENDBRANCH  15  16
ENDBRANCH  14  15
ENDBRANCH  13  14
ENDBRANCH  12  13
ENDBRANCH   1  12
TORSDOF 16
ENDMDL
MODEL 7
REMARK VINA RESULT:    -2.603      6.972     13.250
REMARK INTER + INTRA:          -5.739
REMARK INTER:                  -5.313
REMARK INTRA:                  -0.427
REMARK UNBOUND:                -0.701
REMARK SMILES CCCCCCCCCCCCCCCCCC(=O)[O-]
REMARK SMILES IDX 10 1 11 2 12 3 13 4 14 5 15 6 16 7 17 8 18 9 19 10 20 11
REMARK SMILES IDX 9 12 8 13 7 14 6 15 5 16 4 17 3 18 2 19 1 20
REMARK H PARENT
REMARK Flexibility Score: inf
ROOT
ATOM      1  C   UNL     1       2.783  -2.179  -9.272  1.00  0.00     0.000 C 
ENDROOT
BRANCH   1   2
ATOM      2  C   UNL     1       3.430  -3.285 -10.122  1.00  0.00     0.000 C 
BRANCH   2   3
ATOM      3  C   UNL     1       4.442  -4.126  -9.326  1.00  0.00     0.000 C 
BRANCH   3   4
ATOM      4  C   UNL     1       5.800  -4.264 -10.040  1.00  0.00     0.000 C 
BRANCH   4   5
ATOM      5  C   UNL     1       6.994  -4.581  -9.121  1.00  0.00     0.000 C 
BRANCH   5   6
ATOM      6  C   UNL     1       8.051  -5.466  -9.796  1.00  0.00     0.000 C 
BRANCH   6   7
ATOM      7  C   UNL     1       7.515  -6.889 -10.020  1.00  0.00     0.006 C 
BRANCH   7   8
ATOM      8  C   UNL     1       6.463  -7.284  -8.975  1.00  0.00     0.053 C 
BRANCH   8   9
ATOM      9  C   UNL     1       5.875  -8.632  -9.261  1.00  0.00     0.041 C 
ATOM     10  O   UNL     1       6.599  -9.661  -9.226  1.00  0.00    -0.550 OA
ATOM     11  O   UNL     1       4.532  -8.746  -9.599  1.00  0.00    -0.550 OA
ENDBRANCH   8   9
ENDBRANCH   7   8
ENDBRANCH   6   7
ENDBRANCH   5   6
ENDBRANCH   4   5
ENDBRANCH   3   4
ENDBRANCH   2   3
ENDBRANCH   1   2
BRANCH   1  12
ATOM     12  C   UNL     1       1.702  -1.398 -10.035  1.00  0.00     0.000 C 
BRANCH  12  13
ATOM     13  C   UNL     1       0.354  -2.133  -9.982  1.00  0.00    -0.000 C 
BRANCH  13  14
ATOM     14  C   UNL     1      -0.848  -1.180 -10.090  1.00  0.00    -0.000 C 
BRANCH  14  15
ATOM     15  C   UNL     1      -0.689   0.074  -9.213  1.00  0.00    -0.000 C 
BRANCH  15  16
ATOM     16  C   UNL     1      -0.359   1.331 -10.034  1.00  0.00    -0.000 C 
BRANCH  16  17
ATOM     17  C   UNL     1      -1.459   2.401  -9.949  1.00  0.00    -0.000 C 
BRANCH  17  18
ATOM     18  C   UNL     1      -2.851   1.754  -9.918  1.00  0.00    -0.000 C 
BRANCH  18  19
ATOM     19  C   UNL     1      -3.984   2.783 -10.057  1.00  0.00    -0.003 C 
ATOM     20  C   UNL     1      -3.505   4.221  -9.862  1.00  0.00     0.004 C 
ENDBRANCH  18  19
ENDBRANCH  17  18
ENDBRANCH  16  17
ENDBRANCH  15  16
ENDBRANCH  14  15
ENDBRANCH  13  14
ENDBRANCH  12  13
ENDBRANCH   1  12
TORSDOF 16
ENDMDL
MODEL 8
REMARK VINA RESULT:    -2.143      7.179     13.435
REMARK INTER + INTRA:          -4.847
REMARK INTER:                  -4.435
REMARK INTRA:                  -0.412
REMARK UNBOUND:                -0.701
REMARK SMILES CCCCCCCCCCCCCCCCCC(=O)[O-]
REMARK SMILES IDX 10 1 11 2 12 3 13 4 14 5 15 6 16 7 17 8 18 9 19 10 20 11
REMARK SMILES IDX 9 12 8 13 7 14 6 15 5 16 4 17 3 18 2 19 1 20
REMARK H PARENT
REMARK Flexibility Score: inf
ROOT
ATOM      1  C   UNL     1       1.976  -0.518 -10.124  1.00  0.00     0.000 C 
ENDROOT
BRANCH   1   2
ATOM      2  C   UNL     1       3.428  -0.597  -9.623  1.00  0.00     0.000 C 
BRANCH   2   3
ATOM      3  C   UNL     1       4.151  -1.866 -10.106  1.00  0.00     0.000 C 
BRANCH   3   4
ATOM      4  C   UNL     1       3.778  -3.117  -9.289  1.00  0.00     0.000 C 
BRANCH   4   5
ATOM      5  C   UNL     1       4.006  -4.460 -10.005  1.00  0.00     0.000 C 
BRANCH   5   6
ATOM      6  C   UNL     1       4.485  -5.571  -9.060  1.00  0.00     0.000 C 
BRANCH   6   7
ATOM      7  C   UNL     1       4.760  -6.870  -9.833  1.00  0.00     0.006 C 
BRANCH   7   8
ATOM      8  C   UNL     1       6.248  -7.245  -9.828  1.00  0.00     0.053 C 
BRANCH   8   9
ATOM      9  C   UNL     1       6.447  -8.729  -9.781  1.00  0.00     0.041 C 
ATOM     10  O   UNL     1       7.599  -9.219  -9.908  1.00  0.00    -0.550 OA
ATOM     11  O   UNL     1       5.353  -9.572  -9.629  1.00  0.00    -0.550 OA
ENDBRANCH   8   9
ENDBRANCH   7   8
ENDBRANCH   6   7
ENDBRANCH   5   6
ENDBRANCH   4   5
ENDBRANCH   3   4
ENDBRANCH   2   3
ENDBRANCH   1   2
BRANCH   1  12
ATOM     12  C   UNL     1       1.302   0.820  -9.786  1.00  0.00     0.000 C 
BRANCH  12  13
ATOM     13  C   UNL     1      -0.225   0.710  -9.907  1.00  0.00    -0.000 C 
BRANCH  13  14
ATOM     14  C   UNL     1      -0.943   2.034  -9.597  1.00  0.00    -0.000 C 
BRANCH  14  15
ATOM     15  C   UNL     1      -2.389   2.059 -10.124  1.00  0.00    -0.000 C 
BRANCH  15  16
ATOM     16  C   UNL     1      -3.381   2.628  -9.097  1.00  0.00    -0.000 C 
BRANCH  16  17
ATOM     17  C   UNL     1      -4.484   3.480  -9.745  1.00  0.00    -0.000 C 
BRANCH  17  18
ATOM     18  C   UNL     1      -4.125   4.973  -9.692  1.00  0.00    -0.000 C 
BRANCH  18  19
ATOM     19  C   UNL     1      -5.020   5.761  -8.723  1.00  0.00    -0.003 C 
ATOM     20  C   UNL     1      -6.368   6.138  -9.335  1.00  0.00     0.004 C 
ENDBRANCH  18  19
ENDBRANCH  17  18
ENDBRANCH  16  17
ENDBRANCH  15  16
ENDBRANCH  14  15
ENDBRANCH  13  14
ENDBRANCH  12  13
ENDBRANCH   1  12
TORSDOF 16
ENDMDL
MODEL 9
REMARK VINA RESULT:    -1.177     20.269     21.362
REMARK INTER + INTRA:          -2.978
REMARK INTER:                  -2.551
REMARK INTRA:                  -0.428
REMARK UNBOUND:                -0.701
REMARK SMILES CCCCCCCCCCCCCCCCCC(=O)[O-]
REMARK SMILES IDX 10 1 11 2 12 3 13 4 14 5 15 6 16 7 17 8 18 9 19 10 20 11
REMARK SMILES IDX 9 12 8 13 7 14 6 15 5 16 4 17 3 18 2 19 1 20
REMARK H PARENT
REMARK Flexibility Score: inf
ROOT
ATOM      1  C   UNL     1      -2.427  -0.975  10.053  1.00  0.00     0.000 C 
ENDROOT
BRANCH   1   2
ATOM      2  C   UNL     1      -1.781   0.398   9.803  1.00  0.00     0.000 C 
BRANCH   2   3
ATOM      3  C   UNL     1      -0.246   0.324   9.732  1.00  0.00     0.000 C 
BRANCH   3   4
ATOM      4  C   UNL     1       0.432   1.679  10.011  1.00  0.00     0.000 C 
BRANCH   4   5
ATOM      5  C   UNL     1       1.971   1.658   9.991  1.00  0.00     0.000 C 
BRANCH   5   6
ATOM      6  C   UNL     1       2.592   3.055  10.125  1.00  0.00     0.000 C 
BRANCH   6   7
ATOM      7  C   UNL     1       3.967   3.114   9.440  1.00  0.00     0.006 C 
BRANCH   7   8
ATOM      8  C   UNL     1       4.875   4.189  10.052  1.00  0.00     0.053 C 
BRANCH   8   9
ATOM      9  C   UNL     1       4.621   5.537   9.452  1.00  0.00     0.041 C 
ATOM     10  O   UNL     1       5.414   6.490   9.673  1.00  0.00    -0.550 OA
ATOM     11  O   UNL     1       3.490   5.750   8.674  1.00  0.00    -0.550 OA
ENDBRANCH   8   9
ENDBRANCH   7   8
ENDBRANCH   6   7
ENDBRANCH   5   6
ENDBRANCH   4   5
ENDBRANCH   3   4
ENDBRANCH   2   3
ENDBRANCH   1   2
BRANCH   1  12
ATOM     12  C   UNL     1      -1.889  -2.066   9.114  1.00  0.00     0.000 C 
BRANCH  12  13
ATOM     13  C   UNL     1      -2.066  -3.460   9.735  1.00  0.00    -0.000 C 
BRANCH  13  14
ATOM     14  C   UNL     1      -3.523  -3.757  10.125  1.00  0.00    -0.000 C 
BRANCH  14  15
ATOM     15  C   UNL     1      -4.355  -4.286   8.943  1.00  0.00    -0.000 C 
BRANCH  15  16
ATOM     16  C   UNL     1      -4.862  -5.719   9.173  1.00  0.00    -0.000 C 
BRANCH  16  17
ATOM     17  C   UNL     1      -6.390  -5.790   9.328  1.00  0.00    -0.000 C 
BRANCH  17  18
ATOM     18  C   UNL     1      -7.062  -6.111   7.985  1.00  0.00    -0.000 C 
BRANCH  18  19
ATOM     19  C   UNL     1      -7.860  -7.423   8.023  1.00  0.00    -0.003 C 
ATOM     20  C   UNL     1      -8.124  -7.915   9.445  1.00  0.00     0.004 C 
ENDBRANCH  18  19
ENDBRANCH  17  18
ENDBRANCH  16  17
ENDBRANCH  15  16
ENDBRANCH  14  15
ENDBRANCH  13  14
ENDBRANCH  12  13
ENDBRANCH   1  12
TORSDOF 16
ENDMDL
