MODEL 1
REMARK VINA RESULT:    -2.458      0.000      0.000
REMARK INTER + INTRA:          -2.916
REMARK INTER:                  -2.889
REMARK INTRA:                  -0.027
REMARK UNBOUND:                -0.027
REMARK SMILES O=C([O-])CCC(=O)[O-]
REMARK SMILES IDX 4 1 2 2 1 3 3 4 5 5 6 6 7 7 8 8
REMARK H PARENT
REMARK Flexibility Score: inf
ROOT
ATOM      1  C   UNL     1      16.687  38.644  46.116  1.00  0.00     0.059 C 
ENDROOT
BRANCH   1   2
ATOM      2  C   UNL     1      18.096  38.279  46.469  1.00  0.00     0.042 C 
ATOM      3  O   UNL     1      18.511  37.105  46.287  1.00  0.00    -0.550 OA
ATOM      4  O   UNL     1      18.963  39.247  46.959  1.00  0.00    -0.550 OA
ENDBRANCH   1   2
BRANCH   1   5
ATOM      5  C   UNL     1      15.763  38.579  47.337  1.00  0.00     0.059 C 
BRANCH   5   6
ATOM      6  C   UNL     1      14.336  38.838  46.964  1.00  0.00     0.042 C 
ATOM      7  O   UNL     1      13.987  39.976  46.549  1.00  0.00    -0.550 OA
ATOM      8  O   UNL     1      13.383  37.838  47.112  1.00  0.00    -0.550 OA
ENDBRANCH   5   6
ENDBRANCH   1   5
TORSDOF 3
ENDMDL
MODEL 2
REMARK VINA RESULT:    -2.446      0.123      4.310
REMARK INTER + INTRA:          -2.901
REMARK INTER:                  -2.875
REMARK INTRA:                  -0.026
REMARK UNBOUND:                -0.027
REMARK SMILES O=C([O-])CCC(=O)[O-]
REMARK SMILES IDX 4 1 2 2 1 3 3 4 5 5 6 6 7 7 8 8
REMARK H PARENT
REMARK Flexibility Score: inf
ROOT
ATOM      1  C   UNL     1      15.677  38.585  47.313  1.00  0.00     0.059 C 
ENDROOT
BRANCH   1   2
ATOM      2  C   UNL     1      14.246  38.783  46.920  1.00  0.00     0.042 C 
ATOM      3  O   UNL     1      13.406  37.861  47.095  1.00  0.00    -0.550 OA
ATOM      4  O   UNL     1      13.830  40.001  46.399  1.00  0.00    -0.550 OA
ENDBRANCH   1   2
BRANCH   1   5
ATOM      5  C   UNL     1      16.617  38.719  46.110  1.00  0.00     0.059 C 
BRANCH   5   6
ATOM      6  C   UNL     1      18.010  38.284  46.447  1.00  0.00     0.042 C 
ATOM      7  O   UNL     1      18.347  37.078  46.312  1.00  0.00    -0.550 OA
ATOM      8  O   UNL     1      18.925  39.202  46.949  1.00  0.00    -0.550 OA
ENDBRANCH   5   6
ENDBRANCH   1   5
TORSDOF 3
ENDMDL
MODEL 3
REMARK VINA RESULT:    -2.422      0.066      4.437
REMARK INTER + INTRA:          -2.874
REMARK INTER:                  -2.847
REMARK INTRA:                  -0.027
REMARK UNBOUND:                -0.027
REMARK SMILES O=C([O-])CCC(=O)[O-]
REMARK SMILES IDX 4 1 2 2 1 3 3 4 5 5 6 6 7 7 8 8
REMARK H PARENT
REMARK Flexibility Score: inf
ROOT
ATOM      1  C   UNL     1      15.736  38.630  47.313  1.00  0.00     0.059 C 
ENDROOT
BRANCH   1   2
ATOM      2  C   UNL     1      14.310  38.885  46.933  1.00  0.00     0.042 C 
ATOM      3  O   UNL     1      13.971  40.000  46.454  1.00  0.00    -0.550 OA
ATOM      4  O   UNL     1      13.364  37.878  47.067  1.00  0.00    -0.550 OA
ENDBRANCH   1   2
BRANCH   1   5
ATOM      5  C   UNL     1      16.663  38.675  46.094  1.00  0.00     0.059 C 
BRANCH   5   6
ATOM      6  C   UNL     1      18.067  38.295  46.453  1.00  0.00     0.042 C 
ATOM      7  O   UNL     1      18.443  37.097  46.353  1.00  0.00    -0.550 OA
ATOM      8  O   UNL     1      18.947  39.255  46.936  1.00  0.00    -0.550 OA
ENDBRANCH   5   6
ENDBRANCH   1   5
TORSDOF 3
ENDMDL
MODEL 4
REMARK VINA RESULT:    -1.623      1.107      1.632
REMARK INTER + INTRA:          -1.934
REMARK INTER:                  -1.852
REMARK INTRA:                  -0.082
REMARK UNBOUND:                -0.027
REMARK SMILES O=C([O-])CCC(=O)[O-]
REMARK SMILES IDX 4 1 2 2 1 3 3 4 5 5 6 6 7 7 8 8
REMARK H PARENT
REMARK Flexibility Score: inf
ROOT
ATOM      1  C   UNL     1      16.151  38.257  47.344  1.00  0.00     0.059 C 
ENDROOT
BRANCH   1   2
ATOM      2  C   UNL     1      17.303  38.341  46.391  1.00  0.00     0.042 C 
ATOM      3  O   UNL     1      17.098  38.538  45.164  1.00  0.00    -0.550 OA
ATOM      4  O   UNL     1      18.605  38.243  46.863  1.00  0.00    -0.550 OA
ENDBRANCH   1   2
BRANCH   1   5
ATOM      5  C   UNL     1      15.253  39.496  47.256  1.00  0.00     0.059 C 
BRANCH   5   6
ATOM      6  C   UNL     1      13.906  39.163  46.693  1.00  0.00     0.042 C 
ATOM      7  O   UNL     1      13.392  38.032  46.907  1.00  0.00    -0.550 OA
ATOM      8  O   UNL     1      13.234  40.084  45.899  1.00  0.00    -0.550 OA
ENDBRANCH   5   6
ENDBRANCH   1   5
TORSDOF 3
ENDMDL
MODEL 5
REMARK VINA RESULT:    -0.968     17.881     19.072
REMARK INTER + INTRA:          -1.164
REMARK INTER:                  -1.096
REMARK INTRA:                  -0.068
REMARK UNBOUND:                -0.027
REMARK SMILES O=C([O-])CCC(=O)[O-]
REMARK SMILES IDX 4 1 2 2 1 3 3 4 5 5 6 6 7 7 8 8
REMARK H PARENT
REMARK Flexibility Score: inf
ROOT
ATOM      1  C   UNL     1      17.361  19.875  50.839  1.00  0.00     0.059 C 
ENDROOT
BRANCH   1   2
ATOM      2  C   UNL     1      16.303  20.809  51.342  1.00  0.00     0.042 C 
ATOM      3  O   UNL     1      16.293  22.013  50.973  1.00  0.00    -0.550 OA
ATOM      4  O   UNL     1      15.304  20.339  52.183  1.00  0.00    -0.550 OA
ENDBRANCH   1   2
BRANCH   1   5
ATOM      5  C   UNL     1      18.339  20.583  49.896  1.00  0.00     0.059 C 
BRANCH   5   6
ATOM      6  C   UNL     1      19.762  20.250  50.224  1.00  0.00     0.042 C 
ATOM      7  O   UNL     1      20.167  20.310  51.416  1.00  0.00    -0.550 OA
ATOM      8  O   UNL     1      20.651  19.914  49.211  1.00  0.00    -0.550 OA
ENDBRANCH   5   6
ENDBRANCH   1   5
TORSDOF 3
ENDMDL
