MODEL 1
REMARK VINA RESULT:    -4.464      0.000      0.000
REMARK INTER + INTRA:          -6.280
REMARK INTER:                  -6.030
REMARK INTRA:                  -0.249
REMARK UNBOUND:                -0.249
REMARK SMILES CCCCCCCC(=O)[O-]
REMARK SMILES IDX 5 1 6 2 7 3 8 4 9 5 10 6 4 7 3 8 2 9 1 10
REMARK H PARENT
REMARK Flexibility Score: inf
ROOT
ATOM      1  C   UNL     1       7.279 -13.499  -2.507  1.00  0.00     0.000 C 
ENDROOT
BRANCH   1   2
ATOM      2  C   UNL     1       7.225 -13.106  -3.990  1.00  0.00     0.006 C 
BRANCH   2   3
ATOM      3  C   UNL     1       5.786 -13.134  -4.513  1.00  0.00     0.053 C 
BRANCH   3   4
ATOM      4  C   UNL     1       5.309 -11.748  -4.814  1.00  0.00     0.041 C 
ATOM      5  O   UNL     1       5.231 -10.891  -3.895  1.00  0.00    -0.550 OA
ATOM      6  O   UNL     1       4.998 -11.389  -6.119  1.00  0.00    -0.550 OA
ENDBRANCH   3   4
ENDBRANCH   2   3
ENDBRANCH   1   2
BRANCH   1   7
ATOM      7  C   UNL     1       7.504 -12.292  -1.581  1.00  0.00     0.000 C 
BRANCH   7   8
ATOM      8  C   UNL     1       8.508 -12.588  -0.457  1.00  0.00    -0.000 C 
BRANCH   8   9
ATOM      9  C   UNL     1       9.104 -11.290   0.100  1.00  0.00    -0.003 C 
ATOM     10  C   UNL     1       8.140 -10.120  -0.077  1.00  0.00     0.004 C 
ENDBRANCH   8   9
ENDBRANCH   7   8
ENDBRANCH   1   7
TORSDOF 6
ENDMDL
MODEL 2
REMARK VINA RESULT:    -4.434      2.351      5.055
REMARK INTER + INTRA:          -6.239
REMARK INTER:                  -6.022
REMARK INTRA:                  -0.217
REMARK UNBOUND:                -0.249
REMARK SMILES CCCCCCCC(=O)[O-]
REMARK SMILES IDX 5 1 6 2 7 3 8 4 9 5 10 6 4 7 3 8 2 9 1 10
REMARK H PARENT
REMARK Flexibility Score: inf
ROOT
ATOM      1  C   UNL     1       7.664 -13.755  -2.703  1.00  0.00     0.000 C 
ENDROOT
BRANCH   1   2
ATOM      2  C   UNL     1       7.214 -13.013  -1.437  1.00  0.00     0.006 C 
BRANCH   2   3
ATOM      3  C   UNL     1       8.410 -12.689  -0.537  1.00  0.00     0.053 C 
BRANCH   3   4
ATOM      4  C   UNL     1       8.587 -11.208  -0.413  1.00  0.00     0.041 C 
ATOM      5  O   UNL     1       9.414 -10.736   0.412  1.00  0.00    -0.550 OA
ATOM      6  O   UNL     1       7.875 -10.351  -1.242  1.00  0.00    -0.550 OA
ENDBRANCH   3   4
ENDBRANCH   2   3
ENDBRANCH   1   2
BRANCH   1   7
ATOM      7  C   UNL     1       7.111 -13.123  -3.991  1.00  0.00     0.000 C 
BRANCH   7   8
ATOM      8  C   UNL     1       5.589 -12.920  -3.943  1.00  0.00    -0.000 C 
BRANCH   8   9
ATOM      9  C   UNL     1       4.974 -13.067  -5.339  1.00  0.00    -0.003 C 
ATOM     10  C   UNL     1       4.717 -11.704  -5.976  1.00  0.00     0.004 C 
ENDBRANCH   8   9
ENDBRANCH   7   8
ENDBRANCH   1   7
TORSDOF 6
ENDMDL
MODEL 3
REMARK VINA RESULT:    -4.402      2.228      4.636
REMARK INTER + INTRA:          -6.195
REMARK INTER:                  -5.817
REMARK INTRA:                  -0.378
REMARK UNBOUND:                -0.249
REMARK SMILES CCCCCCCC(=O)[O-]
REMARK SMILES IDX 5 1 6 2 7 3 8 4 9 5 10 6 4 7 3 8 2 9 1 10
REMARK H PARENT
REMARK Flexibility Score: inf
ROOT
ATOM      1  C   UNL     1       8.458 -12.590  -0.425  1.00  0.00     0.000 C 
ENDROOT
BRANCH   1   2
ATOM      2  C   UNL     1       8.524 -11.109  -0.826  1.00  0.00     0.006 C 
BRANCH   2   3
ATOM      3  C   UNL     1       7.851 -10.227   0.229  1.00  0.00     0.053 C 
BRANCH   3   4
ATOM      4  C   UNL     1       7.159  -9.068  -0.419  1.00  0.00     0.041 C 
ATOM      5  O   UNL     1       6.682  -9.184  -1.578  1.00  0.00    -0.550 OA
ATOM      6  O   UNL     1       6.999  -7.877   0.278  1.00  0.00    -0.550 OA
ENDBRANCH   3   4
ENDBRANCH   2   3
ENDBRANCH   1   2
BRANCH   1   7
ATOM      7  C   UNL     1       7.788 -13.466  -1.497  1.00  0.00     0.000 C 
BRANCH   7   8
ATOM      8  C   UNL     1       6.328 -13.070  -1.758  1.00  0.00    -0.000 C 
BRANCH   8   9
ATOM      9  C   UNL     1       5.976 -13.221  -3.242  1.00  0.00    -0.003 C 
ATOM     10  C   UNL     1       7.234 -13.296  -4.103  1.00  0.00     0.004 C 
ENDBRANCH   8   9
ENDBRANCH   7   8
ENDBRANCH   1   7
TORSDOF 6
ENDMDL
MODEL 4
REMARK VINA RESULT:    -4.385      2.502      5.286
REMARK INTER + INTRA:          -6.173
REMARK INTER:                  -5.983
REMARK INTRA:                  -0.190
REMARK UNBOUND:                -0.249
REMARK SMILES CCCCCCCC(=O)[O-]
REMARK SMILES IDX 5 1 6 2 7 3 8 4 9 5 10 6 4 7 3 8 2 9 1 10
REMARK H PARENT
REMARK Flexibility Score: inf
ROOT
ATOM      1  C   UNL     1       7.647 -13.674  -2.793  1.00  0.00     0.000 C 
ENDROOT
BRANCH   1   2
ATOM      2  C   UNL     1       7.126 -12.907  -1.569  1.00  0.00     0.006 C 
BRANCH   2   3
ATOM      3  C   UNL     1       8.251 -12.656  -0.561  1.00  0.00     0.053 C 
BRANCH   3   4
ATOM      4  C   UNL     1       8.480 -11.188  -0.384  1.00  0.00     0.041 C 
ATOM      5  O   UNL     1       7.724 -10.356  -0.952  1.00  0.00    -0.550 OA
ATOM      6  O   UNL     1       9.497 -10.739   0.449  1.00  0.00    -0.550 OA
ENDBRANCH   3   4
ENDBRANCH   2   3
ENDBRANCH   1   2
BRANCH   1   7
ATOM      7  C   UNL     1       6.966 -13.238  -4.101  1.00  0.00     0.000 C 
BRANCH   7   8
ATOM      8  C   UNL     1       5.449 -13.051  -3.945  1.00  0.00    -0.000 C 
BRANCH   8   9
ATOM      9  C   UNL     1       4.758 -13.019  -5.312  1.00  0.00    -0.003 C 
ATOM     10  C   UNL     1       3.377 -13.667  -5.248  1.00  0.00     0.004 C 
ENDBRANCH   8   9
ENDBRANCH   7   8
ENDBRANCH   1   7
TORSDOF 6
ENDMDL
MODEL 5
REMARK VINA RESULT:    -4.324      0.667      1.437
REMARK INTER + INTRA:          -6.091
REMARK INTER:                  -5.715
REMARK INTRA:                  -0.375
REMARK UNBOUND:                -0.249
REMARK SMILES CCCCCCCC(=O)[O-]
REMARK SMILES IDX 5 1 6 2 7 3 8 4 9 5 10 6 4 7 3 8 2 9 1 10
REMARK H PARENT
REMARK Flexibility Score: inf
ROOT
ATOM      1  C   UNL     1       7.264 -13.396  -2.669  1.00  0.00     0.000 C 
ENDROOT
BRANCH   1   2
ATOM      2  C   UNL     1       7.145 -12.899  -4.117  1.00  0.00     0.006 C 
BRANCH   2   3
ATOM      3  C   UNL     1       5.709 -13.042  -4.628  1.00  0.00     0.053 C 
BRANCH   3   4
ATOM      4  C   UNL     1       5.134 -11.701  -4.962  1.00  0.00     0.041 C 
ATOM      5  O   UNL     1       5.120 -11.297  -6.155  1.00  0.00    -0.550 OA
ATOM      6  O   UNL     1       4.570 -10.919  -3.963  1.00  0.00    -0.550 OA
ENDBRANCH   3   4
ENDBRANCH   2   3
ENDBRANCH   1   2
BRANCH   1   7
ATOM      7  C   UNL     1       6.880 -12.320  -1.639  1.00  0.00     0.000 C 
BRANCH   7   8
ATOM      8  C   UNL     1       7.630 -10.998  -1.857  1.00  0.00    -0.000 C 
BRANCH   8   9
ATOM      9  C   UNL     1       7.975 -10.338  -0.517  1.00  0.00    -0.003 C 
ATOM     10  C   UNL     1       9.117 -11.071   0.181  1.00  0.00     0.004 C 
ENDBRANCH   8   9
ENDBRANCH   7   8
ENDBRANCH   1   7
TORSDOF 6
ENDMDL
MODEL 6
REMARK VINA RESULT:    -4.224      1.309      1.741
REMARK INTER + INTRA:          -5.955
REMARK INTER:                  -5.546
REMARK INTRA:                  -0.410
REMARK UNBOUND:                -0.249
REMARK SMILES CCCCCCCC(=O)[O-]
REMARK SMILES IDX 5 1 6 2 7 3 8 4 9 5 10 6 4 7 3 8 2 9 1 10
REMARK H PARENT
REMARK Flexibility Score: inf
ROOT
ATOM      1  C   UNL     1       7.316 -13.744  -2.431  1.00  0.00     0.000 C 
ENDROOT
BRANCH   1   2
ATOM      2  C   UNL     1       7.210 -12.817  -3.651  1.00  0.00     0.006 C 
BRANCH   2   3
ATOM      3  C   UNL     1       5.971 -13.152  -4.487  1.00  0.00     0.053 C 
BRANCH   3   4
ATOM      4  C   UNL     1       4.723 -12.909  -3.697  1.00  0.00     0.041 C 
ATOM      5  O   UNL     1       3.951 -13.865  -3.422  1.00  0.00    -0.550 OA
ATOM      6  O   UNL     1       4.440 -11.635  -3.222  1.00  0.00    -0.550 OA
ENDBRANCH   3   4
ENDBRANCH   2   3
ENDBRANCH   1   2
BRANCH   1   7
ATOM      7  C   UNL     1       7.846 -13.021  -1.182  1.00  0.00     0.000 C 
BRANCH   7   8
ATOM      8  C   UNL     1       7.161 -11.666  -0.947  1.00  0.00    -0.000 C 
BRANCH   8   9
ATOM      9  C   UNL     1       8.199 -10.554  -0.760  1.00  0.00    -0.003 C 
ATOM     10  C   UNL     1       9.140 -10.866   0.401  1.00  0.00     0.004 C 
ENDBRANCH   8   9
ENDBRANCH   7   8
ENDBRANCH   1   7
TORSDOF 6
ENDMDL
MODEL 7
REMARK VINA RESULT:    -4.211      2.523      5.226
REMARK INTER + INTRA:          -5.937
REMARK INTER:                  -5.663
REMARK INTRA:                  -0.274
REMARK UNBOUND:                -0.249
REMARK SMILES CCCCCCCC(=O)[O-]
REMARK SMILES IDX 5 1 6 2 7 3 8 4 9 5 10 6 4 7 3 8 2 9 1 10
REMARK H PARENT
REMARK Flexibility Score: inf
ROOT
ATOM      1  C   UNL     1       7.061 -13.051  -3.919  1.00  0.00     0.000 C 
ENDROOT
BRANCH   1   2
ATOM      2  C   UNL     1       7.607 -13.710  -2.645  1.00  0.00     0.006 C 
BRANCH   2   3
ATOM      3  C   UNL     1       7.010 -13.060  -1.393  1.00  0.00     0.053 C 
BRANCH   3   4
ATOM      4  C   UNL     1       7.970 -12.076  -0.803  1.00  0.00     0.041 C 
ATOM      5  O   UNL     1       8.846 -12.458   0.017  1.00  0.00    -0.550 OA
ATOM      6  O   UNL     1       7.930 -10.745  -1.197  1.00  0.00    -0.550 OA
ENDBRANCH   3   4
ENDBRANCH   2   3
ENDBRANCH   1   2
BRANCH   1   7
ATOM      7  C   UNL     1       5.525 -13.004  -3.952  1.00  0.00     0.000 C 
BRANCH   7   8
ATOM      8  C   UNL     1       4.959 -13.136  -5.374  1.00  0.00    -0.000 C 
BRANCH   8   9
ATOM      9  C   UNL     1       3.476 -13.522  -5.340  1.00  0.00    -0.003 C 
ATOM     10  C   UNL     1       3.087 -14.097  -3.981  1.00  0.00     0.004 C 
ENDBRANCH   8   9
ENDBRANCH   7   8
ENDBRANCH   1   7
TORSDOF 6
ENDMDL
MODEL 8
REMARK VINA RESULT:    -4.076      2.763      4.736
REMARK INTER + INTRA:          -5.755
REMARK INTER:                  -5.270
REMARK INTRA:                  -0.486
REMARK UNBOUND:                -0.249
REMARK SMILES CCCCCCCC(=O)[O-]
REMARK SMILES IDX 5 1 6 2 7 3 8 4 9 5 10 6 4 7 3 8 2 9 1 10
REMARK H PARENT
REMARK Flexibility Score: inf
ROOT
ATOM      1  C   UNL     1       6.043 -13.365  -4.486  1.00  0.00     0.000 C 
ENDROOT
BRANCH   1   2
ATOM      2  C   UNL     1       7.248 -12.827  -3.701  1.00  0.00     0.006 C 
BRANCH   2   3
ATOM      3  C   UNL     1       7.437 -13.598  -2.392  1.00  0.00     0.053 C 
BRANCH   3   4
ATOM      4  C   UNL     1       7.522 -12.653  -1.234  1.00  0.00     0.041 C 
ATOM      5  O   UNL     1       6.627 -11.785  -1.058  1.00  0.00    -0.550 OA
ATOM      6  O   UNL     1       8.563 -12.765  -0.321  1.00  0.00    -0.550 OA
ENDBRANCH   3   4
ENDBRANCH   2   3
ENDBRANCH   1   2
BRANCH   1   7
ATOM      7  C   UNL     1       4.716 -12.722  -4.051  1.00  0.00     0.000 C 
BRANCH   7   8
ATOM      8  C   UNL     1       3.736 -13.738  -3.446  1.00  0.00    -0.000 C 
BRANCH   8   9
ATOM      9  C   UNL     1       3.741 -13.659  -1.915  1.00  0.00    -0.003 C 
ATOM     10  C   UNL     1       3.348 -14.996  -1.292  1.00  0.00     0.004 C 
ENDBRANCH   8   9
ENDBRANCH   7   8
ENDBRANCH   1   7
TORSDOF 6
ENDMDL
MODEL 9
REMARK VINA RESULT:    -3.861      2.465      3.980
REMARK INTER + INTRA:          -5.464
REMARK INTER:                  -5.290
REMARK INTRA:                  -0.175
REMARK UNBOUND:                -0.249
REMARK SMILES CCCCCCCC(=O)[O-]
REMARK SMILES IDX 5 1 6 2 7 3 8 4 9 5 10 6 4 7 3 8 2 9 1 10
REMARK H PARENT
REMARK Flexibility Score: inf
ROOT
ATOM      1  C   UNL     1       4.957 -11.637  -4.795  1.00  0.00     0.000 C 
ENDROOT
BRANCH   1   2
ATOM      2  C   UNL     1       5.050 -11.267  -6.282  1.00  0.00     0.006 C 
BRANCH   2   3
ATOM      3  C   UNL     1       3.844 -10.426  -6.713  1.00  0.00     0.053 C 
BRANCH   3   4
ATOM      4  C   UNL     1       4.281  -9.291  -7.586  1.00  0.00     0.041 C 
ATOM      5  O   UNL     1       3.826  -9.179  -8.755  1.00  0.00    -0.550 OA
ATOM      6  O   UNL     1       5.152  -8.329  -7.091  1.00  0.00    -0.550 OA
ENDBRANCH   3   4
ENDBRANCH   2   3
ENDBRANCH   1   2
BRANCH   1   7
ATOM      7  C   UNL     1       5.385 -13.088  -4.517  1.00  0.00     0.000 C 
BRANCH   7   8
ATOM      8  C   UNL     1       6.881 -13.211  -4.194  1.00  0.00    -0.000 C 
BRANCH   8   9
ATOM      9  C   UNL     1       7.188 -12.656  -2.799  1.00  0.00    -0.003 C 
ATOM     10  C   UNL     1       7.653 -13.762  -1.855  1.00  0.00     0.004 C 
ENDBRANCH   8   9
ENDBRANCH   7   8
ENDBRANCH   1   7
TORSDOF 6
ENDMDL
