MODEL 1
REMARK VINA RESULT:    -6.055      0.000      0.000
REMARK INTER + INTRA:          -9.287
REMARK INTER:                  -8.179
REMARK INTRA:                  -1.109
REMARK UNBOUND:                -1.109
REMARK SMILES CC(=O)CCC=C(C)CCC=C(C)C
REMARK SMILES IDX 7 1 6 2 8 3 9 4 10 5 11 6 13 7 12 8 14 9 5 10 4 11 2 12 3 13
REMARK SMILES IDX 1 14
REMARK H PARENT
REMARK Flexibility Score: inf
ROOT
ATOM      1  C   UNL     1      -8.213  30.063  43.992  1.00  0.00    -0.077 C 
ATOM      2  C   UNL     1      -7.835  29.020  43.216  1.00  0.00    -0.028 C 
ATOM      3  C   UNL     1      -7.418  30.338  45.242  1.00  0.00     0.039 C 
ENDROOT
BRANCH   1   4
ATOM      4  C   UNL     1      -9.406  30.951  43.689  1.00  0.00     0.034 C 
BRANCH   4   5
ATOM      5  C   UNL     1      -8.985  32.393  43.376  1.00  0.00     0.032 C 
BRANCH   5   6
ATOM      6  C   UNL     1      -8.952  32.653  41.889  1.00  0.00    -0.028 C 
ATOM      7  C   UNL     1      -6.709  33.767  41.940  1.00  0.00     0.039 C 
ATOM      8  C   UNL     1      -7.957  33.292  41.236  1.00  0.00    -0.080 C 
ATOM      9  C   UNL     1      -8.112  33.533  39.756  1.00  0.00     0.039 C 
ENDBRANCH   5   6
ENDBRANCH   4   5
ENDBRANCH   1   4
BRANCH   2  10
ATOM     10  C   UNL     1      -8.458  28.626  41.897  1.00  0.00     0.035 C 
BRANCH  10  11
ATOM     11  C   UNL     1      -7.741  29.302  40.723  1.00  0.00     0.079 C 
BRANCH  11  12
ATOM     12  C   UNL     1      -8.454  29.054  39.420  1.00  0.00     0.130 C 
ATOM     13  O   UNL     1      -9.009  27.982  39.232  1.00  0.00    -0.300 OA
ATOM     14  C   UNL     1      -8.501  30.100  38.347  1.00  0.00     0.087 C 
ENDBRANCH  11  12
ENDBRANCH  10  11
ENDBRANCH   2  10
TORSDOF 6
ENDMDL
MODEL 2
REMARK VINA RESULT:    -5.814      2.145      4.379
REMARK INTER + INTRA:          -8.962
REMARK INTER:                  -7.574
REMARK INTRA:                  -1.387
REMARK UNBOUND:                -1.109
REMARK SMILES CC(=O)CCC=C(C)CCC=C(C)C
REMARK SMILES IDX 7 1 6 2 8 3 9 4 10 5 11 6 13 7 12 8 14 9 5 10 4 11 2 12 3 13
REMARK SMILES IDX 1 14
REMARK H PARENT
REMARK Flexibility Score: inf
ROOT
ATOM      1  C   UNL     1      -8.926  31.325  39.094  1.00  0.00    -0.077 C 
ATOM      2  C   UNL     1      -8.745  30.478  40.134  1.00  0.00    -0.028 C 
ATOM      3  C   UNL     1      -8.228  31.009  37.796  1.00  0.00     0.039 C 
ENDROOT
BRANCH   1   4
ATOM      4  C   UNL     1      -9.765  32.587  39.170  1.00  0.00     0.034 C 
BRANCH   4   5
ATOM      5  C   UNL     1      -8.913  33.828  39.472  1.00  0.00     0.032 C 
BRANCH   5   6
ATOM      6  C   UNL     1      -9.197  34.375  40.851  1.00  0.00    -0.028 C 
ATOM      7  C   UNL     1      -7.046  33.546  41.832  1.00  0.00     0.039 C 
ATOM      8  C   UNL     1      -8.388  34.231  41.923  1.00  0.00    -0.080 C 
ATOM      9  C   UNL     1      -8.853  34.778  43.249  1.00  0.00     0.039 C 
ENDBRANCH   5   6
ENDBRANCH   4   5
ENDBRANCH   1   4
BRANCH   2  10
ATOM     10  C   UNL     1      -9.407  30.584  41.489  1.00  0.00     0.035 C 
BRANCH  10  11
ATOM     11  C   UNL     1      -8.510  30.008  42.589  1.00  0.00     0.079 C 
BRANCH  11  12
ATOM     12  C   UNL     1      -8.641  30.782  43.874  1.00  0.00     0.130 C 
ATOM     13  O   UNL     1      -9.638  31.461  44.069  1.00  0.00    -0.300 OA
ATOM     14  C   UNL     1      -7.571  30.735  44.924  1.00  0.00     0.087 C 
ENDBRANCH  11  12
ENDBRANCH  10  11
ENDBRANCH   2  10
TORSDOF 6
ENDMDL
MODEL 3
REMARK VINA RESULT:    -5.607      1.936      2.709
REMARK INTER + INTRA:          -8.682
REMARK INTER:                  -7.421
REMARK INTRA:                  -1.262
REMARK UNBOUND:                -1.109
REMARK SMILES CC(=O)CCC=C(C)CCC=C(C)C
REMARK SMILES IDX 7 1 6 2 8 3 9 4 10 5 11 6 13 7 12 8 14 9 5 10 4 11 2 12 3 13
REMARK SMILES IDX 1 14
REMARK H PARENT
REMARK Flexibility Score: inf
ROOT
ATOM      1  C   UNL     1      -8.585  29.679  42.701  1.00  0.00    -0.077 C 
ATOM      2  C   UNL     1      -8.620  29.682  41.348  1.00  0.00    -0.028 C 
ATOM      3  C   UNL     1      -7.713  28.655  43.383  1.00  0.00     0.039 C 
ENDROOT
BRANCH   1   4
ATOM      4  C   UNL     1      -9.392  30.627  43.569  1.00  0.00     0.034 C 
BRANCH   4   5
ATOM      5  C   UNL     1      -8.498  31.627  44.315  1.00  0.00     0.032 C 
BRANCH   5   6
ATOM      6  C   UNL     1      -7.524  32.306  43.381  1.00  0.00    -0.028 C 
ATOM      7  C   UNL     1      -8.936  34.355  43.093  1.00  0.00     0.039 C 
ATOM      8  C   UNL     1      -7.719  33.511  42.801  1.00  0.00    -0.080 C 
ATOM      9  C   UNL     1      -6.679  34.017  41.835  1.00  0.00     0.039 C 
ENDBRANCH   5   6
ENDBRANCH   4   5
ENDBRANCH   1   4
BRANCH   2  10
ATOM     10  C   UNL     1      -9.375  30.666  40.485  1.00  0.00     0.035 C 
BRANCH  10  11
ATOM     11  C   UNL     1      -8.463  31.275  39.414  1.00  0.00     0.079 C 
BRANCH  11  12
ATOM     12  C   UNL     1      -8.752  32.738  39.208  1.00  0.00     0.130 C 
ATOM     13  O   UNL     1      -9.717  33.246  39.759  1.00  0.00    -0.300 OA
ATOM     14  C   UNL     1      -7.875  33.590  38.338  1.00  0.00     0.087 C 
ENDBRANCH  11  12
ENDBRANCH  10  11
ENDBRANCH   2  10
TORSDOF 6
ENDMDL
MODEL 4
REMARK VINA RESULT:    -5.467      1.288      3.888
REMARK INTER + INTRA:          -8.493
REMARK INTER:                  -7.401
REMARK INTRA:                  -1.093
REMARK UNBOUND:                -1.109
REMARK SMILES CC(=O)CCC=C(C)CCC=C(C)C
REMARK SMILES IDX 7 1 6 2 8 3 9 4 10 5 11 6 13 7 12 8 14 9 5 10 4 11 2 12 3 13
REMARK SMILES IDX 1 14
REMARK H PARENT
REMARK Flexibility Score: inf
ROOT
ATOM      1  C   UNL     1      -8.050  33.519  41.525  1.00  0.00    -0.077 C 
ATOM      2  C   UNL     1      -8.163  33.372  40.184  1.00  0.00    -0.028 C 
ATOM      3  C   UNL     1      -6.675  33.755  42.096  1.00  0.00     0.039 C 
ENDROOT
BRANCH   1   4
ATOM      4  C   UNL     1      -9.221  33.432  42.485  1.00  0.00     0.034 C 
BRANCH   4   5
ATOM      5  C   UNL     1      -8.940  32.472  43.650  1.00  0.00     0.032 C 
BRANCH   5   6
ATOM      6  C   UNL     1      -8.811  31.044  43.174  1.00  0.00    -0.028 C 
ATOM      7  C   UNL     1      -7.406  30.322  45.119  1.00  0.00     0.039 C 
ATOM      8  C   UNL     1      -8.104  30.079  43.802  1.00  0.00    -0.080 C 
ATOM      9  C   UNL     1      -8.017  28.721  43.156  1.00  0.00     0.039 C 
ENDBRANCH   5   6
ENDBRANCH   4   5
ENDBRANCH   1   4
BRANCH   2  10
ATOM     10  C   UNL     1      -9.454  33.196  39.418  1.00  0.00     0.035 C 
BRANCH  10  11
ATOM     11  C   UNL     1      -9.956  31.750  39.508  1.00  0.00     0.079 C 
BRANCH  11  12
ATOM     12  C   UNL     1      -9.007  30.792  38.839  1.00  0.00     0.130 C 
ATOM     13  O   UNL     1      -8.732  30.942  37.658  1.00  0.00    -0.300 OA
ATOM     14  C   UNL     1      -8.388  29.654  39.595  1.00  0.00     0.087 C 
ENDBRANCH  11  12
ENDBRANCH  10  11
ENDBRANCH   2  10
TORSDOF 6
ENDMDL
MODEL 5
REMARK VINA RESULT:    -5.444      2.058      3.828
REMARK INTER + INTRA:          -8.462
REMARK INTER:                  -6.826
REMARK INTRA:                  -1.637
REMARK UNBOUND:                -1.109
REMARK SMILES CC(=O)CCC=C(C)CCC=C(C)C
REMARK SMILES IDX 7 1 6 2 8 3 9 4 10 5 11 6 13 7 12 8 14 9 5 10 4 11 2 12 3 13
REMARK SMILES IDX 1 14
REMARK H PARENT
REMARK Flexibility Score: inf
ROOT
ATOM      1  C   UNL     1      -8.224  31.981  43.664  1.00  0.00    -0.077 C 
ATOM      2  C   UNL     1      -7.353  32.870  43.133  1.00  0.00    -0.028 C 
ATOM      3  C   UNL     1      -7.689  30.959  44.634  1.00  0.00     0.039 C 
ENDROOT
BRANCH   1   4
ATOM      4  C   UNL     1      -9.701  31.936  43.317  1.00  0.00     0.034 C 
BRANCH   4   5
ATOM      5  C   UNL     1     -10.085  30.636  42.598  1.00  0.00     0.032 C 
BRANCH   5   6
ATOM      6  C   UNL     1      -9.757  30.697  41.125  1.00  0.00    -0.028 C 
ATOM      7  C   UNL     1      -7.802  29.141  41.300  1.00  0.00     0.039 C 
ATOM      8  C   UNL     1      -8.722  30.060  40.534  1.00  0.00    -0.080 C 
ATOM      9  C   UNL     1      -8.491  30.284  39.062  1.00  0.00     0.039 C 
ENDBRANCH   5   6
ENDBRANCH   4   5
ENDBRANCH   1   4
BRANCH   2  10
ATOM     10  C   UNL     1      -7.705  34.006  42.200  1.00  0.00     0.035 C 
BRANCH  10  11
ATOM     11  C   UNL     1      -7.492  33.604  40.736  1.00  0.00     0.079 C 
BRANCH  11  12
ATOM     12  C   UNL     1      -8.683  33.961  39.886  1.00  0.00     0.130 C 
ATOM     13  O   UNL     1      -9.760  34.183  40.419  1.00  0.00    -0.300 OA
ATOM     14  C   UNL     1      -8.574  34.052  38.393  1.00  0.00     0.087 C 
ENDBRANCH  11  12
ENDBRANCH  10  11
ENDBRANCH   2  10
TORSDOF 6
ENDMDL
MODEL 6
REMARK VINA RESULT:    -5.140      2.243      4.003
REMARK INTER + INTRA:          -8.052
REMARK INTER:                  -7.059
REMARK INTRA:                  -0.992
REMARK UNBOUND:                -1.109
REMARK SMILES CC(=O)CCC=C(C)CCC=C(C)C
REMARK SMILES IDX 7 1 6 2 8 3 9 4 10 5 11 6 13 7 12 8 14 9 5 10 4 11 2 12 3 13
REMARK SMILES IDX 1 14
REMARK H PARENT
REMARK Flexibility Score: inf
ROOT
ATOM      1  C   UNL     1      -8.117  29.883  42.900  1.00  0.00    -0.077 C 
ATOM      2  C   UNL     1      -8.531  30.824  43.781  1.00  0.00    -0.028 C 
ATOM      3  C   UNL     1      -7.909  28.480  43.410  1.00  0.00     0.039 C 
ENDROOT
BRANCH   1   4
ATOM      4  C   UNL     1      -7.825  30.166  41.438  1.00  0.00     0.034 C 
BRANCH   4   5
ATOM      5  C   UNL     1      -9.083  30.051  40.567  1.00  0.00     0.032 C 
BRANCH   5   6
ATOM      6  C   UNL     1      -9.536  31.401  40.063  1.00  0.00    -0.028 C 
ATOM      7  C   UNL     1      -8.204  31.270  37.945  1.00  0.00     0.039 C 
ATOM      8  C   UNL     1      -9.129  31.974  38.909  1.00  0.00    -0.080 C 
ATOM      9  C   UNL     1      -9.622  33.360  38.585  1.00  0.00     0.039 C 
ENDBRANCH   5   6
ENDBRANCH   4   5
ENDBRANCH   1   4
BRANCH   2  10
ATOM     10  C   UNL     1      -8.859  32.262  43.452  1.00  0.00     0.035 C 
BRANCH  10  11
ATOM     11  C   UNL     1      -7.585  33.072  43.185  1.00  0.00     0.079 C 
BRANCH  11  12
ATOM     12  C   UNL     1      -7.758  34.009  42.019  1.00  0.00     0.130 C 
ATOM     13  O   UNL     1      -7.054  33.878  41.030  1.00  0.00    -0.300 OA
ATOM     14  C   UNL     1      -8.784  35.104  42.046  1.00  0.00     0.087 C 
ENDBRANCH  11  12
ENDBRANCH  10  11
ENDBRANCH   2  10
TORSDOF 6
ENDMDL
MODEL 7
REMARK VINA RESULT:    -5.117      1.733      3.913
REMARK INTER + INTRA:          -8.021
REMARK INTER:                  -6.703
REMARK INTRA:                  -1.318
REMARK UNBOUND:                -1.109
REMARK SMILES CC(=O)CCC=C(C)CCC=C(C)C
REMARK SMILES IDX 7 1 6 2 8 3 9 4 10 5 11 6 13 7 12 8 14 9 5 10 4 11 2 12 3 13
REMARK SMILES IDX 1 14
REMARK H PARENT
REMARK Flexibility Score: inf
ROOT
ATOM      1  C   UNL     1      -9.114  33.523  39.098  1.00  0.00    -0.077 C 
ATOM      2  C   UNL     1      -8.900  32.186  39.125  1.00  0.00    -0.028 C 
ATOM      3  C   UNL     1      -8.350  34.340  38.088  1.00  0.00     0.039 C 
ENDROOT
BRANCH   1   4
ATOM      4  C   UNL     1     -10.055  34.246  40.043  1.00  0.00     0.034 C 
BRANCH   4   5
ATOM      5  C   UNL     1      -9.308  34.875  41.228  1.00  0.00     0.032 C 
BRANCH   5   6
ATOM      6  C   UNL     1      -9.068  33.871  42.330  1.00  0.00    -0.028 C 
ATOM      7  C   UNL     1      -6.627  33.617  41.827  1.00  0.00     0.039 C 
ATOM      8  C   UNL     1      -7.884  33.276  42.592  1.00  0.00    -0.080 C 
ATOM      9  C   UNL     1      -7.829  32.239  43.684  1.00  0.00     0.039 C 
ENDBRANCH   5   6
ENDBRANCH   4   5
ENDBRANCH   1   4
BRANCH   2  10
ATOM     10  C   UNL     1      -9.614  31.193  40.012  1.00  0.00     0.035 C 
BRANCH  10  11
ATOM     11  C   UNL     1      -8.635  30.161  40.584  1.00  0.00     0.079 C 
BRANCH  11  12
ATOM     12  C   UNL     1      -8.614  28.902  39.758  1.00  0.00     0.130 C 
ATOM     13  O   UNL     1      -8.007  28.887  38.698  1.00  0.00    -0.300 OA
ATOM     14  C   UNL     1      -9.321  27.660  40.214  1.00  0.00     0.087 C 
ENDBRANCH  11  12
ENDBRANCH  10  11
ENDBRANCH   2  10
TORSDOF 6
ENDMDL
MODEL 8
REMARK VINA RESULT:    -5.088      2.081      4.377
REMARK INTER + INTRA:          -7.981
REMARK INTER:                  -7.315
REMARK INTRA:                  -0.665
REMARK UNBOUND:                -1.109
REMARK SMILES CC(=O)CCC=C(C)CCC=C(C)C
REMARK SMILES IDX 7 1 6 2 8 3 9 4 10 5 11 6 13 7 12 8 14 9 5 10 4 11 2 12 3 13
REMARK SMILES IDX 1 14
REMARK H PARENT
REMARK Flexibility Score: inf
ROOT
ATOM      1  C   UNL     1      -8.444  29.129  40.086  1.00  0.00    -0.077 C 
ATOM      2  C   UNL     1      -8.893  30.225  39.431  1.00  0.00    -0.028 C 
ATOM      3  C   UNL     1      -8.929  27.780  39.620  1.00  0.00     0.039 C 
ENDROOT
BRANCH   1   4
ATOM      4  C   UNL     1      -7.504  29.182  41.276  1.00  0.00     0.034 C 
BRANCH   4   5
ATOM      5  C   UNL     1      -8.244  28.967  42.604  1.00  0.00     0.032 C 
BRANCH   5   6
ATOM      6  C   UNL     1      -8.976  30.214  43.040  1.00  0.00    -0.028 C 
ATOM      7  C   UNL     1      -7.501  30.618  45.023  1.00  0.00     0.039 C 
ATOM      8  C   UNL     1      -8.677  30.946  44.135  1.00  0.00    -0.080 C 
ATOM      9  C   UNL     1      -9.553  32.125  44.470  1.00  0.00     0.039 C 
ENDBRANCH   5   6
ENDBRANCH   4   5
ENDBRANCH   1   4
BRANCH   2  10
ATOM     10  C   UNL     1      -8.474  31.652  39.702  1.00  0.00     0.035 C 
BRANCH  10  11
ATOM     11  C   UNL     1      -9.564  32.639  39.271  1.00  0.00     0.079 C 
BRANCH  11  12
ATOM     12  C   UNL     1      -9.214  33.320  37.974  1.00  0.00     0.130 C 
ATOM     13  O   UNL     1      -8.818  32.653  37.031  1.00  0.00    -0.300 OA
ATOM     14  C   UNL     1      -9.345  34.806  37.815  1.00  0.00     0.087 C 
ENDBRANCH  11  12
ENDBRANCH  10  11
ENDBRANCH   2  10
TORSDOF 6
ENDMDL
MODEL 9
REMARK VINA RESULT:    -4.835     17.829     19.461
REMARK INTER + INTRA:          -7.640
REMARK INTER:                  -6.633
REMARK INTRA:                  -1.007
REMARK UNBOUND:                -1.109
REMARK SMILES CC(=O)CCC=C(C)CCC=C(C)C
REMARK SMILES IDX 7 1 6 2 8 3 9 4 10 5 11 6 13 7 12 8 14 9 5 10 4 11 2 12 3 13
REMARK SMILES IDX 1 14
REMARK H PARENT
REMARK Flexibility Score: inf
ROOT
ATOM      1  C   UNL     1      -1.966  16.306  54.035  1.00  0.00    -0.077 C 
ATOM      2  C   UNL     1      -1.912  16.312  52.683  1.00  0.00    -0.028 C 
ATOM      3  C   UNL     1      -1.673  15.011  54.749  1.00  0.00     0.039 C 
ENDROOT
BRANCH   1   4
ATOM      4  C   UNL     1      -2.332  17.519  54.870  1.00  0.00     0.034 C 
BRANCH   4   5
ATOM      5  C   UNL     1      -3.798  17.931  54.675  1.00  0.00     0.032 C 
BRANCH   5   6
ATOM      6  C   UNL     1      -4.736  17.028  55.439  1.00  0.00    -0.028 C 
ATOM      7  C   UNL     1      -5.565  15.842  53.394  1.00  0.00     0.039 C 
ATOM      8  C   UNL     1      -5.555  16.110  54.880  1.00  0.00    -0.080 C 
ATOM      9  C   UNL     1      -6.484  15.337  55.780  1.00  0.00     0.039 C 
ENDBRANCH   5   6
ENDBRANCH   4   5
ENDBRANCH   1   4
BRANCH   2  10
ATOM     10  C   UNL     1      -2.106  17.518  51.794  1.00  0.00     0.035 C 
BRANCH  10  11
ATOM     11  C   UNL     1      -0.759  18.110  51.364  1.00  0.00     0.079 C 
BRANCH  11  12
ATOM     12  C   UNL     1       0.043  17.130  50.550  1.00  0.00     0.130 C 
ATOM     13  O   UNL     1      -0.396  16.733  49.481  1.00  0.00    -0.300 OA
ATOM     14  C   UNL     1       1.376  16.631  51.023  1.00  0.00     0.087 C 
ENDBRANCH  11  12
ENDBRANCH  10  11
ENDBRANCH   2  10
TORSDOF 6
ENDMDL
