MODEL 1
REMARK VINA RESULT:    -2.610      0.000      0.000
REMARK INTER + INTRA:          -2.839
REMARK INTER:                  -2.839
REMARK INTRA:                   0.000
REMARK UNBOUND:                 0.000
REMARK SMILES Oc1cccc(O)c1O
REMARK SMILES IDX 4 1 5 2 6 3 8 4 2 5 3 6 7 7 1 9 9 11
REMARK H PARENT 7 8 1 10 9 12
REMARK Flexibility Score: inf
ROOT
ATOM      1  C   UNL     1     120.976 124.904 123.393  1.00  0.00     0.008 A 
ATOM      2  C   UNL     1     120.875 123.551 123.724  1.00  0.00     0.050 A 
ATOM      3  C   UNL     1     121.717 122.611 123.117  1.00  0.00     0.161 A 
ATOM      4  C   UNL     1     122.668 123.033 122.169  1.00  0.00     0.200 A 
ATOM      5  C   UNL     1     122.766 124.397 121.838  1.00  0.00     0.161 A 
ATOM      6  C   UNL     1     121.918 125.327 122.454  1.00  0.00     0.050 A 
ENDROOT
BRANCH   3   7
ATOM      7  O   UNL     1     121.594 121.268 123.468  1.00  0.00    -0.504 OA
ATOM      8  H   UNL     1     120.868 120.675 123.083  1.00  0.00     0.293 HD
ENDBRANCH   3   7
BRANCH   5   9
ATOM      9  O   UNL     1     123.706 124.823 120.899  1.00  0.00    -0.504 OA
ATOM     10  H   UNL     1     124.183 124.168 120.291  1.00  0.00     0.293 HD
ENDBRANCH   5   9
BRANCH   4  11
ATOM     11  O   UNL     1     123.504 122.092 121.568  1.00  0.00    -0.502 OA
ATOM     12  H   UNL     1     123.630 122.045 120.563  1.00  0.00     0.293 HD
ENDBRANCH   4  11
TORSDOF 3
ENDMDL
MODEL 2
REMARK VINA RESULT:    -2.602      0.169      2.811
REMARK INTER + INTRA:          -2.830
REMARK INTER:                  -2.830
REMARK INTRA:                   0.000
REMARK UNBOUND:                 0.000
REMARK SMILES Oc1cccc(O)c1O
REMARK SMILES IDX 4 1 5 2 6 3 8 4 2 5 3 6 7 7 1 9 9 11
REMARK H PARENT 7 8 1 10 9 12
REMARK Flexibility Score: inf
ROOT
ATOM      1  C   UNL     1     120.940 124.897 123.574  1.00  0.00     0.008 A 
ATOM      2  C   UNL     1     121.803 125.354 122.576  1.00  0.00     0.050 A 
ATOM      3  C   UNL     1     122.607 124.452 121.870  1.00  0.00     0.161 A 
ATOM      4  C   UNL     1     122.546 123.077 122.169  1.00  0.00     0.200 A 
ATOM      5  C   UNL     1     121.675 122.620 123.176  1.00  0.00     0.161 A 
ATOM      6  C   UNL     1     120.875 123.535 123.874  1.00  0.00     0.050 A 
ENDROOT
BRANCH   3   7
ATOM      7  O   UNL     1     123.458 124.937 120.879  1.00  0.00    -0.504 OA
ATOM      8  H   UNL     1     123.578 124.461 119.992  1.00  0.00     0.293 HD
ENDBRANCH   3   7
BRANCH   5   9
ATOM      9  O   UNL     1     121.608 121.260 123.478  1.00  0.00    -0.504 OA
ATOM     10  H   UNL     1     122.343 120.795 123.996  1.00  0.00     0.293 HD
ENDBRANCH   5   9
BRANCH   4  11
ATOM     11  O   UNL     1     123.349 122.182 121.462  1.00  0.00    -0.502 OA
ATOM     12  H   UNL     1     123.077 121.218 121.308  1.00  0.00     0.293 HD
ENDBRANCH   4  11
TORSDOF 3
ENDMDL
MODEL 3
REMARK VINA RESULT:    -2.566      1.707      2.685
REMARK INTER + INTRA:          -2.791
REMARK INTER:                  -2.791
REMARK INTRA:                   0.000
REMARK UNBOUND:                 0.000
REMARK SMILES Oc1cccc(O)c1O
REMARK SMILES IDX 4 1 5 2 6 3 8 4 2 5 3 6 7 7 1 9 9 11
REMARK H PARENT 7 8 1 10 9 12
REMARK Flexibility Score: inf
ROOT
ATOM      1  C   UNL     1     121.989 121.933 123.511  1.00  0.00     0.008 A 
ATOM      2  C   UNL     1     121.215 123.066 123.245  1.00  0.00     0.050 A 
ATOM      3  C   UNL     1     121.691 124.059 122.380  1.00  0.00     0.161 A 
ATOM      4  C   UNL     1     122.954 123.915 121.776  1.00  0.00     0.200 A 
ATOM      5  C   UNL     1     123.731 122.773 122.046  1.00  0.00     0.161 A 
ATOM      6  C   UNL     1     123.242 121.786 122.914  1.00  0.00     0.050 A 
ENDROOT
BRANCH   3   7
ATOM      7  O   UNL     1     120.896 125.177 122.134  1.00  0.00    -0.504 OA
ATOM      8  H   UNL     1     120.686 125.858 122.854  1.00  0.00     0.293 HD
ENDBRANCH   3   7
BRANCH   5   9
ATOM      9  O   UNL     1     124.983 122.623 121.451  1.00  0.00    -0.504 OA
ATOM     10  H   UNL     1     125.290 121.733 121.077  1.00  0.00     0.293 HD
ENDBRANCH   5   9
BRANCH   4  11
ATOM     11  O   UNL     1     123.422 124.907 120.915  1.00  0.00    -0.502 OA
ATOM     12  H   UNL     1     124.140 124.727 120.223  1.00  0.00     0.293 HD
ENDBRANCH   4  11
TORSDOF 3
ENDMDL
MODEL 4
REMARK VINA RESULT:    -2.551      1.696      2.873
REMARK INTER + INTRA:          -2.775
REMARK INTER:                  -2.775
REMARK INTRA:                   0.000
REMARK UNBOUND:                 0.000
REMARK SMILES Oc1cccc(O)c1O
REMARK SMILES IDX 4 1 5 2 6 3 8 4 2 5 3 6 7 7 1 9 9 11
REMARK H PARENT 7 8 1 10 9 12
REMARK Flexibility Score: inf
ROOT
ATOM      1  C   UNL     1     122.003 121.705 123.227  1.00  0.00     0.008 A 
ATOM      2  C   UNL     1     123.194 121.620 122.502  1.00  0.00     0.050 A 
ATOM      3  C   UNL     1     123.623 122.698 121.719  1.00  0.00     0.161 A 
ATOM      4  C   UNL     1     122.848 123.872 121.659  1.00  0.00     0.200 A 
ATOM      5  C   UNL     1     121.648 123.954 122.391  1.00  0.00     0.161 A 
ATOM      6  C   UNL     1     121.232 122.867 123.172  1.00  0.00     0.050 A 
ENDROOT
BRANCH   3   7
ATOM      7  O   UNL     1     124.816 122.584 121.007  1.00  0.00    -0.504 OA
ATOM      8  H   UNL     1     125.481 121.841 121.187  1.00  0.00     0.293 HD
ENDBRANCH   3   7
BRANCH   5   9
ATOM      9  O   UNL     1     120.875 125.114 122.338  1.00  0.00    -0.504 OA
ATOM     10  H   UNL     1     120.977 125.852 123.024  1.00  0.00     0.293 HD
ENDBRANCH   5   9
BRANCH   4  11
ATOM     11  O   UNL     1     123.280 124.943 120.877  1.00  0.00    -0.502 OA
ATOM     12  H   UNL     1     124.159 125.417 121.049  1.00  0.00     0.293 HD
ENDBRANCH   4  11
TORSDOF 3
ENDMDL
MODEL 5
REMARK VINA RESULT:    -2.442      2.112      2.275
REMARK INTER + INTRA:          -2.656
REMARK INTER:                  -2.656
REMARK INTRA:                   0.000
REMARK UNBOUND:                 0.000
REMARK SMILES Oc1cccc(O)c1O
REMARK SMILES IDX 4 1 5 2 6 3 8 4 2 5 3 6 7 7 1 9 9 11
REMARK H PARENT 7 8 1 10 9 12
REMARK Flexibility Score: inf
ROOT
ATOM      1  C   UNL     1     121.151 125.867 123.103  1.00  0.00     0.008 A 
ATOM      2  C   UNL     1     120.875 124.693 122.397  1.00  0.00     0.050 A 
ATOM      3  C   UNL     1     121.583 123.519 122.676  1.00  0.00     0.161 A 
ATOM      4  C   UNL     1     122.579 123.521 123.671  1.00  0.00     0.200 A 
ATOM      5  C   UNL     1     122.854 124.704 124.381  1.00  0.00     0.161 A 
ATOM      6  C   UNL     1     122.136 125.873 124.091  1.00  0.00     0.050 A 
ENDROOT
BRANCH   3   7
ATOM      7  O   UNL     1     121.286 122.363 121.955  1.00  0.00    -0.504 OA
ATOM      8  H   UNL     1     121.763 121.485 122.125  1.00  0.00     0.293 HD
ENDBRANCH   3   7
BRANCH   5   9
ATOM      9  O   UNL     1     123.839 124.715 125.368  1.00  0.00    -0.504 OA
ATOM     10  H   UNL     1     123.614 124.563 126.344  1.00  0.00     0.293 HD
ENDBRANCH   5   9
BRANCH   4  11
ATOM     11  O   UNL     1     123.281 122.347 123.945  1.00  0.00    -0.502 OA
ATOM     12  H   UNL     1     123.006 121.451 123.559  1.00  0.00     0.293 HD
ENDBRANCH   4  11
TORSDOF 3
ENDMDL
MODEL 6
REMARK VINA RESULT:    -2.439      2.114      2.604
REMARK INTER + INTRA:          -2.653
REMARK INTER:                  -2.653
REMARK INTRA:                   0.000
REMARK UNBOUND:                 0.000
REMARK SMILES Oc1cccc(O)c1O
REMARK SMILES IDX 4 1 5 2 6 3 8 4 2 5 3 6 7 7 1 9 9 11
REMARK H PARENT 7 8 1 10 9 12
REMARK Flexibility Score: inf
ROOT
ATOM      1  C   UNL     1     121.172 125.892 123.108  1.00  0.00     0.008 A 
ATOM      2  C   UNL     1     122.164 125.871 124.091  1.00  0.00     0.050 A 
ATOM      3  C   UNL     1     122.867 124.691 124.360  1.00  0.00     0.161 A 
ATOM      4  C   UNL     1     122.571 123.520 123.637  1.00  0.00     0.200 A 
ATOM      5  C   UNL     1     121.570 123.545 122.648  1.00  0.00     0.161 A 
ATOM      6  C   UNL     1     120.875 124.734 122.389  1.00  0.00     0.050 A 
ENDROOT
BRANCH   3   7
ATOM      7  O   UNL     1     123.852 124.700 125.346  1.00  0.00    -0.504 OA
ATOM      8  H   UNL     1     123.635 124.863 126.323  1.00  0.00     0.293 HD
ENDBRANCH   3   7
BRANCH   5   9
ATOM      9  O   UNL     1     121.271 122.389 121.927  1.00  0.00    -0.504 OA
ATOM     10  H   UNL     1     120.847 121.582 122.369  1.00  0.00     0.293 HD
ENDBRANCH   5   9
BRANCH   4  11
ATOM     11  O   UNL     1     123.274 122.346 123.909  1.00  0.00    -0.502 OA
ATOM     12  H   UNL     1     123.852 122.243 124.736  1.00  0.00     0.293 HD
ENDBRANCH   4  11
TORSDOF 3
ENDMDL
MODEL 7
REMARK VINA RESULT:    -2.413     16.257     17.147
REMARK INTER + INTRA:          -2.625
REMARK INTER:                  -2.625
REMARK INTRA:                   0.000
REMARK UNBOUND:                 0.000
REMARK SMILES Oc1cccc(O)c1O
REMARK SMILES IDX 4 1 5 2 6 3 8 4 2 5 3 6 7 7 1 9 9 11
REMARK H PARENT 7 8 1 10 9 12
REMARK Flexibility Score: inf
ROOT
ATOM      1  C   UNL     1     121.470 124.625 139.627  1.00  0.00     0.008 A 
ATOM      2  C   UNL     1     121.111 123.498 140.369  1.00  0.00     0.050 A 
ATOM      3  C   UNL     1     121.933 122.365 140.374  1.00  0.00     0.161 A 
ATOM      4  C   UNL     1     123.126 122.361 139.627  1.00  0.00     0.200 A 
ATOM      5  C   UNL     1     123.485 123.499 138.881  1.00  0.00     0.161 A 
ATOM      6  C   UNL     1     122.653 124.627 138.885  1.00  0.00     0.050 A 
ENDROOT
BRANCH   3   7
ATOM      7  O   UNL     1     121.549 121.255 141.125  1.00  0.00    -0.504 OA
ATOM      8  H   UNL     1     122.208 120.736 141.695  1.00  0.00     0.293 HD
ENDBRANCH   3   7
BRANCH   5   9
ATOM      9  O   UNL     1     124.665 123.504 138.138  1.00  0.00    -0.504 OA
ATOM     10  H   UNL     1     124.819 122.850 137.381  1.00  0.00     0.293 HD
ENDBRANCH   5   9
BRANCH   4  11
ATOM     11  O   UNL     1     123.941 121.230 139.636  1.00  0.00    -0.502 OA
ATOM     12  H   UNL     1     123.905 120.544 140.382  1.00  0.00     0.293 HD
ENDBRANCH   4  11
TORSDOF 3
ENDMDL
MODEL 8
REMARK VINA RESULT:    -2.410     24.430     24.677
REMARK INTER + INTRA:          -2.621
REMARK INTER:                  -2.621
REMARK INTRA:                   0.000
REMARK UNBOUND:                 0.000
REMARK SMILES Oc1cccc(O)c1O
REMARK SMILES IDX 4 1 5 2 6 3 8 4 2 5 3 6 7 7 1 9 9 11
REMARK H PARENT 7 8 1 10 9 12
REMARK Flexibility Score: inf
ROOT
ATOM      1  C   UNL     1     140.697 124.751 139.875  1.00  0.00     0.008 A 
ATOM      2  C   UNL     1     141.125 123.573 139.258  1.00  0.00     0.050 A 
ATOM      3  C   UNL     1     140.305 122.438 139.257  1.00  0.00     0.161 A 
ATOM      4  C   UNL     1     139.045 122.485 139.882  1.00  0.00     0.200 A 
ATOM      5  C   UNL     1     138.617 123.673 140.503  1.00  0.00     0.161 A 
ATOM      6  C   UNL     1     139.448 124.802 140.495  1.00  0.00     0.050 A 
ENDROOT
BRANCH   3   7
ATOM      7  O   UNL     1     140.758 121.278 138.633  1.00  0.00    -0.504 OA
ATOM      8  H   UNL     1     140.920 121.231 137.633  1.00  0.00     0.293 HD
ENDBRANCH   3   7
BRANCH   5   9
ATOM      9  O   UNL     1     137.369 123.728 141.124  1.00  0.00    -0.504 OA
ATOM     10  H   UNL     1     137.222 123.353 142.053  1.00  0.00     0.293 HD
ENDBRANCH   5   9
BRANCH   4  11
ATOM     11  O   UNL     1     138.232 121.351 139.878  1.00  0.00    -0.502 OA
ATOM     12  H   UNL     1     137.950 120.886 140.733  1.00  0.00     0.293 HD
ENDBRANCH   4  11
TORSDOF 3
ENDMDL
