MODEL 1
REMARK VINA RESULT:    -5.159      0.000      0.000
REMARK INTER + INTRA:          -6.669
REMARK INTER:                  -6.366
REMARK INTRA:                  -0.303
REMARK UNBOUND:                -0.303
REMARK SMILES CCOC(=O)c1ccc(O)c(O)c1
REMARK SMILES IDX 4 1 5 2 3 3 2 4 1 5 6 6 13 7 7 8 11 9 8 10 9 11 12 12 10 14
REMARK H PARENT 12 13 10 15
REMARK Flexibility Score: inf
ROOT
ATOM      1  C   UNL     1     -26.274  13.365  54.612  1.00  0.00     0.338 C 
ATOM      2  O   UNL     1     -27.200  12.744  54.021  1.00  0.00    -0.246 OA
ENDROOT
BRANCH   1   3
ATOM      3  O   UNL     1     -25.210  12.658  55.183  1.00  0.00    -0.462 OA
BRANCH   3   4
ATOM      4  C   UNL     1     -24.186  12.048  54.405  1.00  0.00     0.230 C 
ATOM      5  C   UNL     1     -23.021  13.014  54.252  1.00  0.00     0.049 C 
ENDBRANCH   3   4
ENDBRANCH   1   3
BRANCH   1   6
ATOM      6  C   UNL     1     -26.311  14.841  54.704  1.00  0.00     0.064 A 
ATOM      7  C   UNL     1     -27.017  15.604  53.755  1.00  0.00     0.065 A 
ATOM      8  C   UNL     1     -25.639  15.504  55.745  1.00  0.00     0.020 A 
ATOM      9  C   UNL     1     -27.051  17.003  53.846  1.00  0.00     0.158 A 
ATOM     10  C   UNL     1     -25.671  16.897  55.836  1.00  0.00     0.051 A 
ATOM     11  C   UNL     1     -26.374  17.652  54.892  1.00  0.00     0.157 A 
BRANCH   9  12
ATOM     12  O   UNL     1     -27.753  17.750  52.900  1.00  0.00    -0.504 OA
ATOM     13  H   UNL     1     -28.270  17.306  52.149  1.00  0.00     0.293 HD
ENDBRANCH   9  12
BRANCH  11  14
ATOM     14  O   UNL     1     -26.388  19.042  55.007  1.00  0.00    -0.504 OA
ATOM     15  H   UNL     1     -27.166  19.540  55.422  1.00  0.00     0.293 HD
ENDBRANCH  11  14
ENDBRANCH   1   6
TORSDOF 5
ENDMDL
MODEL 2
REMARK VINA RESULT:    -5.127      2.565      5.829
REMARK INTER + INTRA:          -6.629
REMARK INTER:                  -6.335
REMARK INTRA:                  -0.294
REMARK UNBOUND:                -0.303
REMARK SMILES CCOC(=O)c1ccc(O)c(O)c1
REMARK SMILES IDX 4 1 5 2 3 3 2 4 1 5 6 6 13 7 7 8 11 9 8 10 9 11 12 12 10 14
REMARK H PARENT 12 13 10 15
REMARK Flexibility Score: inf
ROOT
ATOM      1  C   UNL     1     -26.632  13.476  55.921  1.00  0.00     0.338 C 
ATOM      2  O   UNL     1     -27.568  13.419  55.077  1.00  0.00    -0.246 OA
ENDROOT
BRANCH   1   3
ATOM      3  O   UNL     1     -26.722  14.353  57.008  1.00  0.00    -0.462 OA
BRANCH   3   4
ATOM      4  C   UNL     1     -26.807  15.766  56.852  1.00  0.00     0.230 C 
ATOM      5  C   UNL     1     -25.586  16.268  56.099  1.00  0.00     0.049 C 
ENDBRANCH   3   4
ENDBRANCH   1   3
BRANCH   1   6
ATOM      6  C   UNL     1     -25.436  12.619  55.764  1.00  0.00     0.064 A 
ATOM      7  C   UNL     1     -25.188  11.559  56.656  1.00  0.00     0.065 A 
ATOM      8  C   UNL     1     -24.528  12.853  54.717  1.00  0.00     0.020 A 
ATOM      9  C   UNL     1     -24.055  10.749  56.505  1.00  0.00     0.158 A 
ATOM     10  C   UNL     1     -23.398  12.047  54.566  1.00  0.00     0.051 A 
ATOM     11  C   UNL     1     -23.155  10.995  55.454  1.00  0.00     0.157 A 
BRANCH   9  12
ATOM     12  O   UNL     1     -23.818   9.701  57.394  1.00  0.00    -0.504 OA
ATOM     13  H   UNL     1     -24.565   9.093  57.709  1.00  0.00     0.293 HD
ENDBRANCH   9  12
BRANCH  11  14
ATOM     14  O   UNL     1     -22.018  10.206  55.278  1.00  0.00    -0.504 OA
ATOM     15  H   UNL     1     -21.993   9.230  55.546  1.00  0.00     0.293 HD
ENDBRANCH  11  14
ENDBRANCH   1   6
TORSDOF 5
ENDMDL
MODEL 3
REMARK VINA RESULT:    -5.121      6.513      7.853
REMARK INTER + INTRA:          -6.622
REMARK INTER:                  -6.351
REMARK INTRA:                  -0.270
REMARK UNBOUND:                -0.303
REMARK SMILES CCOC(=O)c1ccc(O)c(O)c1
REMARK SMILES IDX 4 1 5 2 3 3 2 4 1 5 6 6 13 7 7 8 11 9 8 10 9 11 12 12 10 14
REMARK H PARENT 12 13 10 15
REMARK Flexibility Score: inf
ROOT
ATOM      1  C   UNL     1     -32.597  13.186  54.810  1.00  0.00     0.338 C 
ATOM      2  O   UNL     1     -31.972  13.514  55.856  1.00  0.00    -0.246 OA
ENDROOT
BRANCH   1   3
ATOM      3  O   UNL     1     -33.029  11.866  54.637  1.00  0.00    -0.462 OA
BRANCH   3   4
ATOM      4  C   UNL     1     -33.902  11.215  55.554  1.00  0.00     0.230 C 
ATOM      5  C   UNL     1     -35.324  11.255  55.018  1.00  0.00     0.049 C 
ENDBRANCH   3   4
ENDBRANCH   1   3
BRANCH   1   6
ATOM      6  C   UNL     1     -32.875  14.194  53.764  1.00  0.00     0.064 A 
ATOM      7  C   UNL     1     -31.840  14.691  52.950  1.00  0.00     0.065 A 
ATOM      8  C   UNL     1     -34.182  14.672  53.569  1.00  0.00     0.020 A 
ATOM      9  C   UNL     1     -32.107  15.647  51.959  1.00  0.00     0.158 A 
ATOM     10  C   UNL     1     -34.449  15.625  52.582  1.00  0.00     0.051 A 
ATOM     11  C   UNL     1     -33.418  16.115  51.775  1.00  0.00     0.157 A 
BRANCH   9  12
ATOM     12  O   UNL     1     -31.074  16.132  51.158  1.00  0.00    -0.504 OA
ATOM     13  H   UNL     1     -30.352  15.521  50.793  1.00  0.00     0.293 HD
ENDBRANCH   9  12
BRANCH  11  14
ATOM     14  O   UNL     1     -33.715  17.066  50.799  1.00  0.00    -0.504 OA
ATOM     15  H   UNL     1     -34.596  17.564  50.781  1.00  0.00     0.293 HD
ENDBRANCH  11  14
ENDBRANCH   1   6
TORSDOF 5
ENDMDL
MODEL 4
REMARK VINA RESULT:    -5.109      7.384      8.856
REMARK INTER + INTRA:          -6.607
REMARK INTER:                  -6.442
REMARK INTRA:                  -0.166
REMARK UNBOUND:                -0.303
REMARK SMILES CCOC(=O)c1ccc(O)c(O)c1
REMARK SMILES IDX 4 1 5 2 3 3 2 4 1 5 6 6 13 7 7 8 11 9 8 10 9 11 12 12 10 14
REMARK H PARENT 12 13 10 15
REMARK Flexibility Score: inf
ROOT
ATOM      1  C   UNL     1     -32.280  15.313  51.920  1.00  0.00     0.338 C 
ATOM      2  O   UNL     1     -32.099  14.339  52.702  1.00  0.00    -0.246 OA
ENDROOT
BRANCH   1   3
ATOM      3  O   UNL     1     -31.193  16.098  51.517  1.00  0.00    -0.462 OA
BRANCH   3   4
ATOM      4  C   UNL     1     -29.842  15.673  51.661  1.00  0.00     0.230 C 
ATOM      5  C   UNL     1     -29.120  16.594  52.632  1.00  0.00     0.049 C 
ENDBRANCH   3   4
ENDBRANCH   1   3
BRANCH   1   6
ATOM      6  C   UNL     1     -33.638  15.629  51.427  1.00  0.00     0.064 A 
ATOM      7  C   UNL     1     -33.821  16.403  50.266  1.00  0.00     0.065 A 
ATOM      8  C   UNL     1     -34.769  15.158  52.116  1.00  0.00     0.020 A 
ATOM      9  C   UNL     1     -35.110  16.700  49.802  1.00  0.00     0.158 A 
ATOM     10  C   UNL     1     -36.054  15.455  51.654  1.00  0.00     0.051 A 
ATOM     11  C   UNL     1     -36.232  16.223  50.500  1.00  0.00     0.157 A 
BRANCH   9  12
ATOM     12  O   UNL     1     -35.281  17.467  48.650  1.00  0.00    -0.504 OA
ATOM     13  H   UNL     1     -35.306  18.480  48.685  1.00  0.00     0.293 HD
ENDBRANCH   9  12
BRANCH  11  14
ATOM     14  O   UNL     1     -37.527  16.503  50.064  1.00  0.00    -0.504 OA
ATOM     15  H   UNL     1     -37.724  17.244  49.402  1.00  0.00     0.293 HD
ENDBRANCH  11  14
ENDBRANCH   1   6
TORSDOF 5
ENDMDL
MODEL 5
REMARK VINA RESULT:    -5.072      1.804      2.256
REMARK INTER + INTRA:          -6.562
REMARK INTER:                  -6.245
REMARK INTRA:                  -0.317
REMARK UNBOUND:                -0.303
REMARK SMILES CCOC(=O)c1ccc(O)c(O)c1
REMARK SMILES IDX 4 1 5 2 3 3 2 4 1 5 6 6 13 7 7 8 11 9 8 10 9 11 12 12 10 14
REMARK H PARENT 12 13 10 15
REMARK Flexibility Score: inf
ROOT
ATOM      1  C   UNL     1     -26.524  13.352  52.170  1.00  0.00     0.338 C 
ATOM      2  O   UNL     1     -27.118  13.210  51.065  1.00  0.00    -0.246 OA
ENDROOT
BRANCH   1   3
ATOM      3  O   UNL     1     -25.698  12.332  52.656  1.00  0.00    -0.462 OA
BRANCH   3   4
ATOM      4  C   UNL     1     -26.140  10.986  52.799  1.00  0.00     0.230 C 
ATOM      5  C   UNL     1     -27.252  10.923  53.833  1.00  0.00     0.049 C 
ENDBRANCH   3   4
ENDBRANCH   1   3
BRANCH   1   6
ATOM      6  C   UNL     1     -26.700  14.594  52.953  1.00  0.00     0.064 A 
ATOM      7  C   UNL     1     -27.327  15.720  52.386  1.00  0.00     0.065 A 
ATOM      8  C   UNL     1     -26.240  14.668  54.279  1.00  0.00     0.020 A 
ATOM      9  C   UNL     1     -27.492  16.896  53.132  1.00  0.00     0.158 A 
ATOM     10  C   UNL     1     -26.403  15.839  55.022  1.00  0.00     0.051 A 
ATOM     11  C   UNL     1     -27.027  16.955  54.456  1.00  0.00     0.157 A 
BRANCH   9  12
ATOM     12  O   UNL     1     -28.115  18.005  52.561  1.00  0.00    -0.504 OA
ATOM     13  H   UNL     1     -27.611  18.869  52.391  1.00  0.00     0.293 HD
ENDBRANCH   9  12
BRANCH  11  14
ATOM     14  O   UNL     1     -27.176  18.111  55.222  1.00  0.00    -0.504 OA
ATOM     15  H   UNL     1     -27.307  18.079  56.225  1.00  0.00     0.293 HD
ENDBRANCH  11  14
ENDBRANCH   1   6
TORSDOF 5
ENDMDL
MODEL 6
REMARK VINA RESULT:    -5.068      1.382      2.404
REMARK INTER + INTRA:          -6.557
REMARK INTER:                  -6.299
REMARK INTRA:                  -0.258
REMARK UNBOUND:                -0.303
REMARK SMILES CCOC(=O)c1ccc(O)c(O)c1
REMARK SMILES IDX 4 1 5 2 3 3 2 4 1 5 6 6 13 7 7 8 11 9 8 10 9 11 12 12 10 14
REMARK H PARENT 12 13 10 15
REMARK Flexibility Score: inf
ROOT
ATOM      1  C   UNL     1     -25.546  13.363  54.762  1.00  0.00     0.338 C 
ATOM      2  O   UNL     1     -25.663  13.076  55.985  1.00  0.00    -0.246 OA
ENDROOT
BRANCH   1   3
ATOM      3  O   UNL     1     -24.791  12.538  53.919  1.00  0.00    -0.462 OA
BRANCH   3   4
ATOM      4  C   UNL     1     -24.878  11.118  53.953  1.00  0.00     0.230 C 
ATOM      5  C   UNL     1     -25.791  10.638  52.835  1.00  0.00     0.049 C 
ENDBRANCH   3   4
ENDBRANCH   1   3
BRANCH   1   6
ATOM      6  C   UNL     1     -26.204  14.569  54.215  1.00  0.00     0.064 A 
ATOM      7  C   UNL     1     -26.323  15.738  54.989  1.00  0.00     0.065 A 
ATOM      8  C   UNL     1     -26.722  14.563  52.909  1.00  0.00     0.020 A 
ATOM      9  C   UNL     1     -26.947  16.880  54.467  1.00  0.00     0.158 A 
ATOM     10  C   UNL     1     -27.345  15.700  52.388  1.00  0.00     0.051 A 
ATOM     11  C   UNL     1     -27.461  16.860  53.160  1.00  0.00     0.157 A 
BRANCH   9  12
ATOM     12  O   UNL     1     -27.059  18.033  55.243  1.00  0.00    -0.504 OA
ATOM     13  H   UNL     1     -27.721  18.096  56.009  1.00  0.00     0.293 HD
ENDBRANCH   9  12
BRANCH  11  14
ATOM     14  O   UNL     1     -28.088  17.980  52.614  1.00  0.00    -0.504 OA
ATOM     15  H   UNL     1     -27.772  18.408  51.753  1.00  0.00     0.293 HD
ENDBRANCH  11  14
ENDBRANCH   1   6
TORSDOF 5
ENDMDL
MODEL 7
REMARK VINA RESULT:    -5.004      7.552      9.778
REMARK INTER + INTRA:          -6.478
REMARK INTER:                  -6.288
REMARK INTRA:                  -0.189
REMARK UNBOUND:                -0.303
REMARK SMILES CCOC(=O)c1ccc(O)c(O)c1
REMARK SMILES IDX 4 1 5 2 3 3 2 4 1 5 6 6 13 7 7 8 11 9 8 10 9 11 12 12 10 14
REMARK H PARENT 12 13 10 15
REMARK Flexibility Score: inf
ROOT
ATOM      1  C   UNL     1     -32.094  12.358  54.388  1.00  0.00     0.338 C 
ATOM      2  O   UNL     1     -30.894  12.569  54.721  1.00  0.00    -0.246 OA
ENDROOT
BRANCH   1   3
ATOM      3  O   UNL     1     -32.762  13.272  53.565  1.00  0.00    -0.462 OA
BRANCH   3   4
ATOM      4  C   UNL     1     -33.163  14.562  54.014  1.00  0.00     0.230 C 
ATOM      5  C   UNL     1     -34.394  15.009  53.242  1.00  0.00     0.049 C 
ENDBRANCH   3   4
ENDBRANCH   1   3
BRANCH   1   6
ATOM      6  C   UNL     1     -32.796  11.148  54.867  1.00  0.00     0.064 A 
ATOM      7  C   UNL     1     -33.830  11.244  55.818  1.00  0.00     0.065 A 
ATOM      8  C   UNL     1     -32.440   9.881  54.377  1.00  0.00     0.020 A 
ATOM      9  C   UNL     1     -34.494  10.095  56.269  1.00  0.00     0.158 A 
ATOM     10  C   UNL     1     -33.100   8.735  54.827  1.00  0.00     0.051 A 
ATOM     11  C   UNL     1     -34.127   8.834  55.771  1.00  0.00     0.157 A 
BRANCH   9  12
ATOM     12  O   UNL     1     -35.517  10.201  57.211  1.00  0.00    -0.504 OA
ATOM     13  H   UNL     1     -35.695   9.467  57.887  1.00  0.00     0.293 HD
ENDBRANCH   9  12
BRANCH  11  14
ATOM     14  O   UNL     1     -34.768   7.673  56.202  1.00  0.00    -0.504 OA
ATOM     15  H   UNL     1     -34.428   6.750  55.964  1.00  0.00     0.293 HD
ENDBRANCH  11  14
ENDBRANCH   1   6
TORSDOF 5
ENDMDL
MODEL 8
REMARK VINA RESULT:    -4.982      2.979      6.170
REMARK INTER + INTRA:          -6.451
REMARK INTER:                  -6.163
REMARK INTRA:                  -0.288
REMARK UNBOUND:                -0.303
REMARK SMILES CCOC(=O)c1ccc(O)c(O)c1
REMARK SMILES IDX 4 1 5 2 3 3 2 4 1 5 6 6 13 7 7 8 11 9 8 10 9 11 12 12 10 14
REMARK H PARENT 12 13 10 15
REMARK Flexibility Score: inf
ROOT
ATOM      1  C   UNL     1     -26.723  13.842  55.859  1.00  0.00     0.338 C 
ATOM      2  O   UNL     1     -27.745  13.665  55.140  1.00  0.00    -0.246 OA
ENDROOT
BRANCH   1   3
ATOM      3  O   UNL     1     -26.314  15.140  56.186  1.00  0.00    -0.462 OA
BRANCH   3   4
ATOM      4  C   UNL     1     -27.193  16.103  56.758  1.00  0.00     0.230 C 
ATOM      5  C   UNL     1     -27.643  15.629  58.130  1.00  0.00     0.049 C 
ENDBRANCH   3   4
ENDBRANCH   1   3
BRANCH   1   6
ATOM      6  C   UNL     1     -25.955  12.680  56.356  1.00  0.00     0.064 A 
ATOM      7  C   UNL     1     -26.146  12.197  57.664  1.00  0.00     0.065 A 
ATOM      8  C   UNL     1     -25.019  12.041  55.526  1.00  0.00     0.020 A 
ATOM      9  C   UNL     1     -25.417  11.095  58.133  1.00  0.00     0.158 A 
ATOM     10  C   UNL     1     -24.290  10.943  55.992  1.00  0.00     0.051 A 
ATOM     11  C   UNL     1     -24.484  10.466  57.292  1.00  0.00     0.157 A 
BRANCH   9  12
ATOM     12  O   UNL     1     -25.614  10.624  59.430  1.00  0.00    -0.504 OA
ATOM     13  H   UNL     1     -24.880  10.667  60.129  1.00  0.00     0.293 HD
ENDBRANCH   9  12
BRANCH  11  14
ATOM     14  O   UNL     1     -23.742   9.369  57.730  1.00  0.00    -0.504 OA
ATOM     15  H   UNL     1     -22.735   9.328  57.639  1.00  0.00     0.293 HD
ENDBRANCH  11  14
ENDBRANCH   1   6
TORSDOF 5
ENDMDL
MODEL 9
REMARK VINA RESULT:    -4.953      2.230      3.817
REMARK INTER + INTRA:          -6.415
REMARK INTER:                  -6.227
REMARK INTRA:                  -0.188
REMARK UNBOUND:                -0.303
REMARK SMILES CCOC(=O)c1ccc(O)c(O)c1
REMARK SMILES IDX 4 1 5 2 3 3 2 4 1 5 6 6 13 7 7 8 11 9 8 10 9 11 12 12 10 14
REMARK H PARENT 12 13 10 15
REMARK Flexibility Score: inf
ROOT
ATOM      1  C   UNL     1     -26.489  14.747  56.197  1.00  0.00     0.338 C 
ATOM      2  O   UNL     1     -26.081  13.593  56.507  1.00  0.00    -0.246 OA
ENDROOT
BRANCH   1   3
ATOM      3  O   UNL     1     -26.681  15.712  57.192  1.00  0.00    -0.462 OA
BRANCH   3   4
ATOM      4  C   UNL     1     -27.824  15.724  58.041  1.00  0.00     0.230 C 
ATOM      5  C   UNL     1     -27.405  15.381  59.462  1.00  0.00     0.049 C 
ENDBRANCH   3   4
ENDBRANCH   1   3
BRANCH   1   6
ATOM      6  C   UNL     1     -26.765  15.082  54.783  1.00  0.00     0.064 A 
ATOM      7  C   UNL     1     -27.217  16.365  54.422  1.00  0.00     0.065 A 
ATOM      8  C   UNL     1     -26.578  14.119  53.777  1.00  0.00     0.020 A 
ATOM      9  C   UNL     1     -27.478  16.679  53.081  1.00  0.00     0.158 A 
ATOM     10  C   UNL     1     -26.838  14.431  52.440  1.00  0.00     0.051 A 
ATOM     11  C   UNL     1     -27.287  15.706  52.085  1.00  0.00     0.157 A 
BRANCH   9  12
ATOM     12  O   UNL     1     -27.926  17.953  52.734  1.00  0.00    -0.504 OA
ATOM     13  H   UNL     1     -28.237  18.616  53.435  1.00  0.00     0.293 HD
ENDBRANCH   9  12
BRANCH  11  14
ATOM     14  O   UNL     1     -27.539  15.989  50.743  1.00  0.00    -0.504 OA
ATOM     15  H   UNL     1     -27.541  16.935  50.383  1.00  0.00     0.293 HD
ENDBRANCH  11  14
ENDBRANCH   1   6
TORSDOF 5
ENDMDL
