MODEL 1
REMARK VINA RESULT:    -3.860      0.000      0.000
REMARK INTER + INTRA:          -4.574
REMARK INTER:                  -4.537
REMARK INTRA:                  -0.037
REMARK UNBOUND:                -0.037
REMARK SMILES [NH3+][C@@H](CO)C(=O)[O-]
REMARK SMILES IDX 3 1 2 2 1 3 5 7 6 8 7 9 4 10
REMARK H PARENT 1 4 1 5 1 6 4 11
REMARK Flexibility Score: inf
ROOT
ATOM      1  C   UNL     1     134.012 123.731 145.815  1.00  0.00     0.227 C 
ENDROOT
BRANCH   1   2
ATOM      2  C   UNL     1     135.149 124.487 146.525  1.00  0.00     0.253 C 
BRANCH   2   3
ATOM      3  N   UNL     1     135.330 124.008 147.901  1.00  0.00    -0.348 N 
ATOM      4  H   UNL     1     134.445 124.139 148.443  1.00  0.00     0.345 HD
ATOM      5  H   UNL     1     136.105 124.528 148.376  1.00  0.00     0.345 HD
ATOM      6  H   UNL     1     135.555 122.987 147.895  1.00  0.00     0.345 HD
ENDBRANCH   2   3
BRANCH   2   7
ATOM      7  C   UNL     1     134.860 125.964 146.522  1.00  0.00     0.102 C 
ATOM      8  O   UNL     1     135.798 126.792 146.382  1.00  0.00    -0.544 OA
ATOM      9  O   UNL     1     133.556 126.424 146.658  1.00  0.00    -0.544 OA
ENDBRANCH   2   7
ENDBRANCH   1   2
BRANCH   1  10
ATOM     10  O   UNL     1     133.295 122.946 146.730  1.00  0.00    -0.390 OA
ATOM     11  H   UNL     1     133.953 122.358 147.184  1.00  0.00     0.210 HD
ENDBRANCH   1  10
TORSDOF 4
ENDMDL
MODEL 2
REMARK VINA RESULT:    -3.661      2.358      2.965
REMARK INTER + INTRA:          -4.340
REMARK INTER:                  -4.305
REMARK INTRA:                  -0.035
REMARK UNBOUND:                -0.037
REMARK SMILES [NH3+][C@@H](CO)C(=O)[O-]
REMARK SMILES IDX 3 1 2 2 1 3 5 7 6 8 7 9 4 10
REMARK H PARENT 1 4 1 5 1 6 4 11
REMARK Flexibility Score: inf
ROOT
ATOM      1  C   UNL     1     135.013 124.918 146.860  1.00  0.00     0.227 C 
ENDROOT
BRANCH   1   2
ATOM      2  C   UNL     1     134.009 124.212 145.933  1.00  0.00     0.253 C 
BRANCH   2   3
ATOM      3  N   UNL     1     133.380 123.066 146.601  1.00  0.00    -0.348 N 
ATOM      4  H   UNL     1     132.770 122.549 145.927  1.00  0.00     0.345 HD
ATOM      5  H   UNL     1     132.802 123.382 147.415  1.00  0.00     0.345 HD
ATOM      6  H   UNL     1     134.116 122.405 146.941  1.00  0.00     0.345 HD
ENDBRANCH   2   3
BRANCH   2   7
ATOM      7  C   UNL     1     134.703 123.763 144.675  1.00  0.00     0.102 C 
ATOM      8  O   UNL     1     135.354 122.686 144.662  1.00  0.00    -0.544 OA
ATOM      9  O   UNL     1     134.619 124.526 143.517  1.00  0.00    -0.544 OA
ENDBRANCH   2   7
ENDBRANCH   1   2
BRANCH   1  10
ATOM     10  O   UNL     1     135.366 124.083 147.932  1.00  0.00    -0.390 OA
ATOM     11  H   UNL     1     134.523 123.834 148.393  1.00  0.00     0.210 HD
ENDBRANCH   1  10
TORSDOF 4
ENDMDL
MODEL 3
REMARK VINA RESULT:    -3.611      1.902      2.150
REMARK INTER + INTRA:          -4.282
REMARK INTER:                  -4.248
REMARK INTRA:                  -0.034
REMARK UNBOUND:                -0.037
REMARK SMILES [NH3+][C@@H](CO)C(=O)[O-]
REMARK SMILES IDX 3 1 2 2 1 3 5 7 6 8 7 9 4 10
REMARK H PARENT 1 4 1 5 1 6 4 11
REMARK Flexibility Score: inf
ROOT
ATOM      1  C   UNL     1     132.715 125.140 145.907  1.00  0.00     0.227 C 
ENDROOT
BRANCH   1   2
ATOM      2  C   UNL     1     133.765 124.018 145.833  1.00  0.00     0.253 C 
BRANCH   2   3
ATOM      3  N   UNL     1     133.465 122.943 146.788  1.00  0.00    -0.348 N 
ATOM      4  H   UNL     1     132.835 122.236 146.344  1.00  0.00     0.345 HD
ATOM      5  H   UNL     1     133.002 123.327 147.645  1.00  0.00     0.345 HD
ATOM      6  H   UNL     1     134.349 122.458 147.065  1.00  0.00     0.345 HD
ENDBRANCH   2   3
BRANCH   2   7
ATOM      7  C   UNL     1     135.135 124.582 146.098  1.00  0.00     0.102 C 
ATOM      8  O   UNL     1     136.161 123.951 145.732  1.00  0.00    -0.544 OA
ATOM      9  O   UNL     1     135.277 125.809 146.735  1.00  0.00    -0.544 OA
ENDBRANCH   2   7
ENDBRANCH   1   2
BRANCH   1  10
ATOM     10  O   UNL     1     131.805 124.897 146.947  1.00  0.00    -0.390 OA
ATOM     11  H   UNL     1     131.398 125.770 147.185  1.00  0.00     0.210 HD
ENDBRANCH   1  10
TORSDOF 4
ENDMDL
MODEL 4
REMARK VINA RESULT:    -3.287      8.902      9.850
REMARK INTER + INTRA:          -3.901
REMARK INTER:                  -3.685
REMARK INTRA:                  -0.216
REMARK UNBOUND:                -0.037
REMARK SMILES [NH3+][C@@H](CO)C(=O)[O-]
REMARK SMILES IDX 3 1 2 2 1 3 5 7 6 8 7 9 4 10
REMARK H PARENT 1 4 1 5 1 6 4 11
REMARK Flexibility Score: inf
ROOT
ATOM      1  C   UNL     1     142.913 126.726 149.489  1.00  0.00     0.227 C 
ENDROOT
BRANCH   1   2
ATOM      2  C   UNL     1     143.000 126.601 151.020  1.00  0.00     0.253 C 
BRANCH   2   3
ATOM      3  N   UNL     1     141.740 126.102 151.587  1.00  0.00    -0.348 N 
ATOM      4  H   UNL     1     141.517 126.618 152.469  1.00  0.00     0.345 HD
ATOM      5  H   UNL     1     141.806 125.078 151.793  1.00  0.00     0.345 HD
ATOM      6  H   UNL     1     140.958 126.266 150.912  1.00  0.00     0.345 HD
ENDBRANCH   2   3
BRANCH   2   7
ATOM      7  C   UNL     1     143.349 127.935 151.622  1.00  0.00     0.102 C 
ATOM      8  O   UNL     1     142.465 128.823 151.749  1.00  0.00    -0.544 OA
ATOM      9  O   UNL     1     144.644 128.192 152.056  1.00  0.00    -0.544 OA
ENDBRANCH   2   7
ENDBRANCH   1   2
BRANCH   1  10
ATOM     10  O   UNL     1     141.760 127.435 149.117  1.00  0.00    -0.390 OA
ATOM     11  H   UNL     1     141.192 127.508 149.928  1.00  0.00     0.210 HD
ENDBRANCH   1  10
TORSDOF 4
ENDMDL
MODEL 5
REMARK VINA RESULT:    -3.266      9.693     10.317
REMARK INTER + INTRA:          -3.876
REMARK INTER:                  -3.681
REMARK INTRA:                  -0.195
REMARK UNBOUND:                -0.037
REMARK SMILES [NH3+][C@@H](CO)C(=O)[O-]
REMARK SMILES IDX 3 1 2 2 1 3 5 7 6 8 7 9 4 10
REMARK H PARENT 1 4 1 5 1 6 4 11
REMARK Flexibility Score: inf
ROOT
ATOM      1  C   UNL     1     141.311 129.348 151.401  1.00  0.00     0.227 C 
ENDROOT
BRANCH   1   2
ATOM      2  C   UNL     1     142.160 128.208 150.813  1.00  0.00     0.253 C 
BRANCH   2   3
ATOM      3  N   UNL     1     141.820 126.919 151.429  1.00  0.00    -0.348 N 
ATOM      4  H   UNL     1     142.325 126.145 150.939  1.00  0.00     0.345 HD
ATOM      5  H   UNL     1     140.789 126.744 151.378  1.00  0.00     0.345 HD
ATOM      6  H   UNL     1     142.120 126.914 152.431  1.00  0.00     0.345 HD
ENDBRANCH   2   3
BRANCH   2   7
ATOM      7  C   UNL     1     143.622 128.508 151.008  1.00  0.00     0.102 C 
ATOM      8  O   UNL     1     144.181 128.245 152.104  1.00  0.00    -0.544 OA
ATOM      9  O   UNL     1     144.367 129.064 149.975  1.00  0.00    -0.544 OA
ENDBRANCH   2   7
ENDBRANCH   1   2
BRANCH   1  10
ATOM     10  O   UNL     1     141.306 129.288 152.803  1.00  0.00    -0.390 OA
ATOM     11  H   UNL     1     141.030 130.184 153.130  1.00  0.00     0.210 HD
ENDBRANCH   1  10
TORSDOF 4
ENDMDL
MODEL 6
REMARK VINA RESULT:    -3.260      9.306      9.917
REMARK INTER + INTRA:          -3.869
REMARK INTER:                  -3.467
REMARK INTRA:                  -0.402
REMARK UNBOUND:                -0.037
REMARK SMILES [NH3+][C@@H](CO)C(=O)[O-]
REMARK SMILES IDX 3 1 2 2 1 3 5 7 6 8 7 9 4 10
REMARK H PARENT 1 4 1 5 1 6 4 11
REMARK Flexibility Score: inf
ROOT
ATOM      1  C   UNL     1     141.814 129.067 151.317  1.00  0.00     0.227 C 
ENDROOT
BRANCH   1   2
ATOM      2  C   UNL     1     142.527 128.128 150.329  1.00  0.00     0.253 C 
BRANCH   2   3
ATOM      3  N   UNL     1     141.617 127.679 149.268  1.00  0.00    -0.348 N 
ATOM      4  H   UNL     1     142.081 126.945 148.685  1.00  0.00     0.345 HD
ATOM      5  H   UNL     1     141.338 128.481 148.654  1.00  0.00     0.345 HD
ATOM      6  H   UNL     1     140.758 127.258 149.692  1.00  0.00     0.345 HD
ENDBRANCH   2   3
BRANCH   2   7
ATOM      7  C   UNL     1     143.090 126.943 151.067  1.00  0.00     0.102 C 
ATOM      8  O   UNL     1     144.319 126.892 151.338  1.00  0.00    -0.544 OA
ATOM      9  O   UNL     1     142.257 125.905 151.466  1.00  0.00    -0.544 OA
ENDBRANCH   2   7
ENDBRANCH   1   2
BRANCH   1  10
ATOM     10  O   UNL     1     142.122 128.716 152.640  1.00  0.00    -0.390 OA
ATOM     11  H   UNL     1     143.110 128.637 152.696  1.00  0.00     0.210 HD
ENDBRANCH   1  10
TORSDOF 4
ENDMDL
MODEL 7
REMARK VINA RESULT:    -3.251     10.166     10.697
REMARK INTER + INTRA:          -3.858
REMARK INTER:                  -3.629
REMARK INTRA:                  -0.229
REMARK UNBOUND:                -0.037
REMARK SMILES [NH3+][C@@H](CO)C(=O)[O-]
REMARK SMILES IDX 3 1 2 2 1 3 5 7 6 8 7 9 4 10
REMARK H PARENT 1 4 1 5 1 6 4 11
REMARK Flexibility Score: inf
ROOT
ATOM      1  C   UNL     1     144.297 127.695 151.510  1.00  0.00     0.227 C 
ENDROOT
BRANCH   1   2
ATOM      2  C   UNL     1     142.920 128.340 151.743  1.00  0.00     0.253 C 
BRANCH   2   3
ATOM      3  N   UNL     1     141.836 127.368 151.551  1.00  0.00    -0.348 N 
ATOM      4  H   UNL     1     142.197 126.397 151.699  1.00  0.00     0.345 HD
ATOM      5  H   UNL     1     141.437 127.444 150.586  1.00  0.00     0.345 HD
ATOM      6  H   UNL     1     141.078 127.539 152.250  1.00  0.00     0.345 HD
ENDBRANCH   2   3
BRANCH   2   7
ATOM      7  C   UNL     1     142.741 129.509 150.812  1.00  0.00     0.102 C 
ATOM      8  O   UNL     1     143.400 129.573 149.741  1.00  0.00    -0.544 OA
ATOM      9  O   UNL     1     141.836 130.518 151.119  1.00  0.00    -0.544 OA
ENDBRANCH   2   7
ENDBRANCH   1   2
BRANCH   1  10
ATOM     10  O   UNL     1     145.325 128.602 151.813  1.00  0.00    -0.390 OA
ATOM     11  H   UNL     1     145.280 128.772 152.790  1.00  0.00     0.210 HD
ENDBRANCH   1  10
TORSDOF 4
ENDMDL
MODEL 8
REMARK VINA RESULT:    -3.232      9.368      9.685
REMARK INTER + INTRA:          -3.836
REMARK INTER:                  -3.824
REMARK INTRA:                  -0.013
REMARK UNBOUND:                -0.037
REMARK SMILES [NH3+][C@@H](CO)C(=O)[O-]
REMARK SMILES IDX 3 1 2 2 1 3 5 7 6 8 7 9 4 10
REMARK H PARENT 1 4 1 5 1 6 4 11
REMARK Flexibility Score: inf
ROOT
ATOM      1  C   UNL     1     142.662 127.282 151.370  1.00  0.00     0.227 C 
ENDROOT
BRANCH   1   2
ATOM      2  C   UNL     1     142.043 128.651 151.700  1.00  0.00     0.253 C 
BRANCH   2   3
ATOM      3  N   UNL     1     140.577 128.575 151.749  1.00  0.00    -0.348 N 
ATOM      4  H   UNL     1     140.237 127.825 151.104  1.00  0.00     0.345 HD
ATOM      5  H   UNL     1     140.149 129.489 151.470  1.00  0.00     0.345 HD
ATOM      6  H   UNL     1     140.266 128.332 152.717  1.00  0.00     0.345 HD
ENDBRANCH   2   3
BRANCH   2   7
ATOM      7  C   UNL     1     142.477 129.668 150.679  1.00  0.00     0.102 C 
ATOM      8  O   UNL     1     141.971 130.820 150.678  1.00  0.00    -0.544 OA
ATOM      9  O   UNL     1     143.450 129.346 149.739  1.00  0.00    -0.544 OA
ENDBRANCH   2   7
ENDBRANCH   1   2
BRANCH   1  10
ATOM     10  O   UNL     1     141.732 126.254 151.587  1.00  0.00    -0.390 OA
ATOM     11  H   UNL     1     141.433 125.942 150.693  1.00  0.00     0.210 HD
ENDBRANCH   1  10
TORSDOF 4
ENDMDL
MODEL 9
REMARK VINA RESULT:    -3.223      8.982      9.329
REMARK INTER + INTRA:          -3.825
REMARK INTER:                  -3.413
REMARK INTRA:                  -0.412
REMARK UNBOUND:                -0.037
REMARK SMILES [NH3+][C@@H](CO)C(=O)[O-]
REMARK SMILES IDX 3 1 2 2 1 3 5 7 6 8 7 9 4 10
REMARK H PARENT 1 4 1 5 1 6 4 11
REMARK Flexibility Score: inf
ROOT
ATOM      1  C   UNL     1     142.292 125.908 151.373  1.00  0.00     0.227 C 
ENDROOT
BRANCH   1   2
ATOM      2  C   UNL     1     143.054 127.237 151.227  1.00  0.00     0.253 C 
BRANCH   2   3
ATOM      3  N   UNL     1     142.474 128.281 152.082  1.00  0.00    -0.348 N 
ATOM      4  H   UNL     1     141.775 128.839 151.540  1.00  0.00     0.345 HD
ATOM      5  H   UNL     1     143.220 128.920 152.443  1.00  0.00     0.345 HD
ATOM      6  H   UNL     1     141.978 127.842 152.891  1.00  0.00     0.345 HD
ENDBRANCH   2   3
BRANCH   2   7
ATOM      7  C   UNL     1     143.040 127.677 149.787  1.00  0.00     0.102 C 
ATOM      8  O   UNL     1     143.967 127.327 149.010  1.00  0.00    -0.544 OA
ATOM      9  O   UNL     1     141.999 128.459 149.303  1.00  0.00    -0.544 OA
ENDBRANCH   2   7
ENDBRANCH   1   2
BRANCH   1  10
ATOM     10  O   UNL     1     141.711 125.536 150.151  1.00  0.00    -0.390 OA
ATOM     11  H   UNL     1     142.441 125.182 149.580  1.00  0.00     0.210 HD
ENDBRANCH   1  10
TORSDOF 4
ENDMDL
