MODEL 1
REMARK VINA RESULT:    -3.387      0.000      0.000
REMARK INTER + INTRA:          -7.395
REMARK INTER:                  -5.962
REMARK INTRA:                  -1.433
REMARK UNBOUND:                -1.433
REMARK SMILES CCCCCCCCCCCCCCC(=O)[O-]
REMARK SMILES IDX 9 1 10 2 11 3 12 4 13 5 14 6 15 7 16 8 17 9 8 10 7 11 6 12
REMARK SMILES IDX 5 13 4 14 3 15 2 16 1 17
REMARK H PARENT
REMARK Flexibility Score: inf
ROOT
ATOM      1  C   UNL     1      64.147  28.943  60.454  1.00  0.00     0.000 C 
ENDROOT
BRANCH   1   2
ATOM      2  C   UNL     1      64.870  30.096  59.736  1.00  0.00     0.000 C 
BRANCH   2   3
ATOM      3  C   UNL     1      64.175  31.451  59.943  1.00  0.00     0.000 C 
BRANCH   3   4
ATOM      4  C   UNL     1      64.329  32.386  58.731  1.00  0.00     0.000 C 
BRANCH   4   5
ATOM      5  C   UNL     1      64.359  33.870  59.130  1.00  0.00     0.006 C 
BRANCH   5   6
ATOM      6  C   UNL     1      63.746  34.123  60.514  1.00  0.00     0.053 C 
BRANCH   6   7
ATOM      7  C   UNL     1      64.636  35.011  61.325  1.00  0.00     0.041 C 
ATOM      8  O   UNL     1      64.262  35.420  62.457  1.00  0.00    -0.550 OA
ATOM      9  O   UNL     1      65.898  35.346  60.855  1.00  0.00    -0.550 OA
ENDBRANCH   6   7
ENDBRANCH   5   6
ENDBRANCH   4   5
ENDBRANCH   3   4
ENDBRANCH   2   3
ENDBRANCH   1   2
BRANCH   1  10
ATOM     10  C   UNL     1      62.852  29.399  61.145  1.00  0.00     0.000 C 
BRANCH  10  11
ATOM     11  C   UNL     1      61.696  28.404  60.955  1.00  0.00    -0.000 C 
BRANCH  11  12
ATOM     12  C   UNL     1      60.403  29.079  60.468  1.00  0.00    -0.000 C 
BRANCH  12  13
ATOM     13  C   UNL     1      60.005  28.689  59.028  1.00  0.00    -0.000 C 
BRANCH  13  14
ATOM     14  C   UNL     1      59.862  29.916  58.109  1.00  0.00    -0.000 C 
BRANCH  14  15
ATOM     15  C   UNL     1      60.843  31.046  58.484  1.00  0.00    -0.000 C 
BRANCH  15  16
ATOM     16  C   UNL     1      60.420  32.429  57.962  1.00  0.00    -0.003 C 
ATOM     17  C   UNL     1      58.925  32.697  58.120  1.00  0.00     0.004 C 
ENDBRANCH  15  16
ENDBRANCH  14  15
ENDBRANCH  13  14
ENDBRANCH  12  13
ENDBRANCH  11  12
ENDBRANCH  10  11
ENDBRANCH   1  10
TORSDOF 13
ENDMDL
MODEL 2
REMARK VINA RESULT:    -3.314     13.934     15.810
REMARK INTER + INTRA:          -7.266
REMARK INTER:                  -5.276
REMARK INTRA:                  -1.990
REMARK UNBOUND:                -1.433
REMARK SMILES CCCCCCCCCCCCCCC(=O)[O-]
REMARK SMILES IDX 9 1 10 2 11 3 12 4 13 5 14 6 15 7 16 8 17 9 8 10 7 11 6 12
REMARK SMILES IDX 5 13 4 14 3 15 2 16 1 17
REMARK H PARENT
REMARK Flexibility Score: inf
ROOT
ATOM      1  C   UNL     1      60.108  17.506  50.422  1.00  0.00     0.000 C 
ENDROOT
BRANCH   1   2
ATOM      2  C   UNL     1      60.473  18.611  51.429  1.00  0.00     0.000 C 
BRANCH   2   3
ATOM      3  C   UNL     1      60.332  20.022  50.836  1.00  0.00     0.000 C 
BRANCH   3   4
ATOM      4  C   UNL     1      60.078  20.004  49.319  1.00  0.00     0.000 C 
BRANCH   4   5
ATOM      5  C   UNL     1      60.756  21.177  48.593  1.00  0.00     0.006 C 
BRANCH   5   6
ATOM      6  C   UNL     1      62.158  21.480  49.139  1.00  0.00     0.053 C 
BRANCH   6   7
ATOM      7  C   UNL     1      62.308  22.944  49.409  1.00  0.00     0.041 C 
ATOM      8  O   UNL     1      61.311  23.627  49.764  1.00  0.00    -0.550 OA
ATOM      9  O   UNL     1      63.557  23.543  49.319  1.00  0.00    -0.550 OA
ENDBRANCH   6   7
ENDBRANCH   5   6
ENDBRANCH   4   5
ENDBRANCH   3   4
ENDBRANCH   2   3
ENDBRANCH   1   2
BRANCH   1  10
ATOM     10  C   UNL     1      59.034  16.549  50.963  1.00  0.00     0.000 C 
BRANCH  10  11
ATOM     11  C   UNL     1      57.751  16.556  50.116  1.00  0.00    -0.000 C 
BRANCH  11  12
ATOM     12  C   UNL     1      57.179  17.970  49.913  1.00  0.00    -0.000 C 
BRANCH  12  13
ATOM     13  C   UNL     1      55.707  18.111  50.355  1.00  0.00    -0.000 C 
BRANCH  13  14
ATOM     14  C   UNL     1      55.564  18.902  51.668  1.00  0.00    -0.000 C 
BRANCH  14  15
ATOM     15  C   UNL     1      56.901  19.523  52.125  1.00  0.00    -0.000 C 
BRANCH  15  16
ATOM     16  C   UNL     1      57.361  19.045  53.512  1.00  0.00    -0.003 C 
ATOM     17  C   UNL     1      56.964  17.600  53.810  1.00  0.00     0.004 C 
ENDBRANCH  15  16
ENDBRANCH  14  15
ENDBRANCH  13  14
ENDBRANCH  12  13
ENDBRANCH  11  12
ENDBRANCH  10  11
ENDBRANCH   1  10
TORSDOF 13
ENDMDL
MODEL 3
REMARK VINA RESULT:    -3.287      2.926      5.579
REMARK INTER + INTRA:          -7.219
REMARK INTER:                  -5.779
REMARK INTRA:                  -1.439
REMARK UNBOUND:                -1.433
REMARK SMILES CCCCCCCCCCCCCCC(=O)[O-]
REMARK SMILES IDX 9 1 10 2 11 3 12 4 13 5 14 6 15 7 16 8 17 9 8 10 7 11 6 12
REMARK SMILES IDX 5 13 4 14 3 15 2 16 1 17
REMARK H PARENT
REMARK Flexibility Score: inf
ROOT
ATOM      1  C   UNL     1      61.781  30.215  58.674  1.00  0.00     0.000 C 
ENDROOT
BRANCH   1   2
ATOM      2  C   UNL     1      60.997  29.655  59.873  1.00  0.00     0.000 C 
BRANCH   2   3
ATOM      3  C   UNL     1      61.878  28.833  60.827  1.00  0.00     0.000 C 
BRANCH   3   4
ATOM      4  C   UNL     1      63.282  29.439  61.005  1.00  0.00     0.000 C 
BRANCH   4   5
ATOM      5  C   UNL     1      64.396  28.497  60.523  1.00  0.00     0.006 C 
BRANCH   5   6
ATOM      6  C   UNL     1      65.536  29.241  59.815  1.00  0.00     0.053 C 
BRANCH   6   7
ATOM      7  C   UNL     1      66.755  28.378  59.737  1.00  0.00     0.041 C 
ATOM      8  O   UNL     1      67.018  27.746  58.679  1.00  0.00    -0.550 OA
ATOM      9  O   UNL     1      67.628  28.309  60.815  1.00  0.00    -0.550 OA
ENDBRANCH   6   7
ENDBRANCH   5   6
ENDBRANCH   4   5
ENDBRANCH   3   4
ENDBRANCH   2   3
ENDBRANCH   1   2
BRANCH   1  10
ATOM     10  C   UNL     1      61.807  31.751  58.653  1.00  0.00     0.000 C 
BRANCH  10  11
ATOM     11  C   UNL     1      62.945  32.314  57.787  1.00  0.00    -0.000 C 
BRANCH  11  12
ATOM     12  C   UNL     1      64.276  32.425  58.551  1.00  0.00    -0.000 C 
BRANCH  12  13
ATOM     13  C   UNL     1      64.112  32.881  60.017  1.00  0.00    -0.000 C 
BRANCH  13  14
ATOM     14  C   UNL     1      64.452  34.370  60.206  1.00  0.00    -0.000 C 
BRANCH  14  15
ATOM     15  C   UNL     1      63.823  34.955  61.489  1.00  0.00    -0.000 C 
BRANCH  15  16
ATOM     16  C   UNL     1      62.716  35.988  61.217  1.00  0.00    -0.003 C 
ATOM     17  C   UNL     1      61.874  35.654  59.987  1.00  0.00     0.004 C 
ENDBRANCH  15  16
ENDBRANCH  14  15
ENDBRANCH  13  14
ENDBRANCH  12  13
ENDBRANCH  11  12
ENDBRANCH  10  11
ENDBRANCH   1  10
TORSDOF 13
ENDMDL
MODEL 4
REMARK VINA RESULT:    -3.253     14.203     16.213
REMARK INTER + INTRA:          -7.158
REMARK INTER:                  -4.993
REMARK INTRA:                  -2.165
REMARK UNBOUND:                -1.433
REMARK SMILES CCCCCCCCCCCCCCC(=O)[O-]
REMARK SMILES IDX 9 1 10 2 11 3 12 4 13 5 14 6 15 7 16 8 17 9 8 10 7 11 6 12
REMARK SMILES IDX 5 13 4 14 3 15 2 16 1 17
REMARK H PARENT
REMARK Flexibility Score: inf
ROOT
ATOM      1  C   UNL     1      56.548  18.641  52.530  1.00  0.00     0.000 C 
ENDROOT
BRANCH   1   2
ATOM      2  C   UNL     1      57.177  20.045  52.559  1.00  0.00     0.000 C 
BRANCH   2   3
ATOM      3  C   UNL     1      58.713  20.007  52.513  1.00  0.00     0.000 C 
BRANCH   3   4
ATOM      4  C   UNL     1      59.303  21.062  51.561  1.00  0.00     0.000 C 
BRANCH   4   5
ATOM      5  C   UNL     1      60.570  20.569  50.846  1.00  0.00     0.006 C 
BRANCH   5   6
ATOM      6  C   UNL     1      60.591  20.938  49.356  1.00  0.00     0.053 C 
BRANCH   6   7
ATOM      7  C   UNL     1      61.210  22.287  49.162  1.00  0.00     0.041 C 
ATOM      8  O   UNL     1      60.495  23.323  49.205  1.00  0.00    -0.550 OA
ATOM      9  O   UNL     1      62.581  22.404  48.983  1.00  0.00    -0.550 OA
ENDBRANCH   6   7
ENDBRANCH   5   6
ENDBRANCH   4   5
ENDBRANCH   3   4
ENDBRANCH   2   3
ENDBRANCH   1   2
BRANCH   1  10
ATOM     10  C   UNL     1      55.584  18.452  51.348  1.00  0.00     0.000 C 
BRANCH  10  11
ATOM     11  C   UNL     1      56.316  18.245  50.012  1.00  0.00    -0.000 C 
BRANCH  11  12
ATOM     12  C   UNL     1      57.381  17.138  50.081  1.00  0.00    -0.000 C 
BRANCH  12  13
ATOM     13  C   UNL     1      58.796  17.615  49.686  1.00  0.00    -0.000 C 
BRANCH  13  14
ATOM     14  C   UNL     1      59.895  16.941  50.527  1.00  0.00    -0.000 C 
BRANCH  14  15
ATOM     15  C   UNL     1      59.314  16.039  51.636  1.00  0.00    -0.000 C 
BRANCH  15  16
ATOM     16  C   UNL     1      59.638  16.525  53.058  1.00  0.00    -0.003 C 
ATOM     17  C   UNL     1      58.650  16.014  54.105  1.00  0.00     0.004 C 
ENDBRANCH  15  16
ENDBRANCH  14  15
ENDBRANCH  13  14
ENDBRANCH  12  13
ENDBRANCH  11  12
ENDBRANCH  10  11
ENDBRANCH   1  10
TORSDOF 13
ENDMDL
MODEL 5
REMARK VINA RESULT:    -3.249      5.550      8.504
REMARK INTER + INTRA:          -7.151
REMARK INTER:                  -5.215
REMARK INTRA:                  -1.936
REMARK UNBOUND:                -1.433
REMARK SMILES CCCCCCCCCCCCCCC(=O)[O-]
REMARK SMILES IDX 9 1 10 2 11 3 12 4 13 5 14 6 15 7 16 8 17 9 8 10 7 11 6 12
REMARK SMILES IDX 5 13 4 14 3 15 2 16 1 17
REMARK H PARENT
REMARK Flexibility Score: inf
ROOT
ATOM      1  C   UNL     1      70.059  27.458  60.248  1.00  0.00     0.000 C 
ENDROOT
BRANCH   1   2
ATOM      2  C   UNL     1      69.142  28.255  61.191  1.00  0.00     0.000 C 
BRANCH   2   3
ATOM      3  C   UNL     1      67.670  28.227  60.750  1.00  0.00     0.000 C 
BRANCH   3   4
ATOM      4  C   UNL     1      67.507  28.356  59.225  1.00  0.00     0.000 C 
BRANCH   4   5
ATOM      5  C   UNL     1      66.414  29.363  58.832  1.00  0.00     0.006 C 
BRANCH   5   6
ATOM      6  C   UNL     1      65.005  28.887  59.212  1.00  0.00     0.053 C 
BRANCH   6   7
ATOM      7  C   UNL     1      64.358  29.864  60.143  1.00  0.00     0.041 C 
ATOM      8  O   UNL     1      63.682  29.451  61.123  1.00  0.00    -0.550 OA
ATOM      9  O   UNL     1      64.541  31.227  59.958  1.00  0.00    -0.550 OA
ENDBRANCH   6   7
ENDBRANCH   5   6
ENDBRANCH   4   5
ENDBRANCH   3   4
ENDBRANCH   2   3
ENDBRANCH   1   2
BRANCH   1  10
ATOM     10  C   UNL     1      71.537  27.854  60.391  1.00  0.00     0.000 C 
BRANCH  10  11
ATOM     11  C   UNL     1      71.763  28.932  61.463  1.00  0.00    -0.000 C 
BRANCH  11  12
ATOM     12  C   UNL     1      72.763  30.013  61.020  1.00  0.00    -0.000 C 
BRANCH  12  13
ATOM     13  C   UNL     1      72.516  30.535  59.588  1.00  0.00    -0.000 C 
BRANCH  13  14
ATOM     14  C   UNL     1      71.255  31.413  59.496  1.00  0.00    -0.000 C 
BRANCH  14  15
ATOM     15  C   UNL     1      70.208  30.832  58.523  1.00  0.00    -0.000 C 
BRANCH  15  16
ATOM     16  C   UNL     1      70.810  30.314  57.206  1.00  0.00    -0.003 C 
ATOM     17  C   UNL     1      70.440  28.862  56.908  1.00  0.00     0.004 C 
ENDBRANCH  15  16
ENDBRANCH  14  15
ENDBRANCH  13  14
ENDBRANCH  12  13
ENDBRANCH  11  12
ENDBRANCH  10  11
ENDBRANCH   1  10
TORSDOF 13
ENDMDL
MODEL 6
REMARK VINA RESULT:    -3.209     12.908     15.139
REMARK INTER + INTRA:          -7.080
REMARK INTER:                  -4.991
REMARK INTRA:                  -2.089
REMARK UNBOUND:                -1.433
REMARK SMILES CCCCCCCCCCCCCCC(=O)[O-]
REMARK SMILES IDX 9 1 10 2 11 3 12 4 13 5 14 6 15 7 16 8 17 9 8 10 7 11 6 12
REMARK SMILES IDX 5 13 4 14 3 15 2 16 1 17
REMARK H PARENT
REMARK Flexibility Score: inf
ROOT
ATOM      1  C   UNL     1      59.923  19.779  49.647  1.00  0.00     0.000 C 
ENDROOT
BRANCH   1   2
ATOM      2  C   UNL     1      60.541  19.476  51.023  1.00  0.00     0.000 C 
BRANCH   2   3
ATOM      3  C   UNL     1      60.645  20.725  51.914  1.00  0.00     0.000 C 
BRANCH   3   4
ATOM      4  C   UNL     1      59.697  21.851  51.466  1.00  0.00     0.000 C 
BRANCH   4   5
ATOM      5  C   UNL     1      60.442  23.158  51.150  1.00  0.00     0.006 C 
BRANCH   5   6
ATOM      6  C   UNL     1      60.413  23.510  49.657  1.00  0.00     0.053 C 
BRANCH   6   7
ATOM      7  C   UNL     1      59.642  24.772  49.433  1.00  0.00     0.041 C 
ATOM      8  O   UNL     1      58.412  24.818  49.701  1.00  0.00    -0.550 OA
ATOM      9  O   UNL     1      60.290  25.911  48.975  1.00  0.00    -0.550 OA
ENDBRANCH   6   7
ENDBRANCH   5   6
ENDBRANCH   4   5
ENDBRANCH   3   4
ENDBRANCH   2   3
ENDBRANCH   1   2
BRANCH   1  10
ATOM     10  C   UNL     1      59.264  18.544  49.014  1.00  0.00     0.000 C 
BRANCH  10  11
ATOM     11  C   UNL     1      59.112  17.378  50.004  1.00  0.00    -0.000 C 
BRANCH  11  12
ATOM     12  C   UNL     1      57.671  16.842  50.077  1.00  0.00    -0.000 C 
BRANCH  12  13
ATOM     13  C   UNL     1      56.601  17.952  50.147  1.00  0.00    -0.000 C 
BRANCH  13  14
ATOM     14  C   UNL     1      56.189  18.276  51.594  1.00  0.00    -0.000 C 
BRANCH  14  15
ATOM     15  C   UNL     1      56.924  19.514  52.148  1.00  0.00    -0.000 C 
BRANCH  15  16
ATOM     16  C   UNL     1      57.578  19.280  53.521  1.00  0.00    -0.003 C 
ATOM     17  C   UNL     1      58.329  17.953  53.608  1.00  0.00     0.004 C 
ENDBRANCH  15  16
ENDBRANCH  14  15
ENDBRANCH  13  14
ENDBRANCH  12  13
ENDBRANCH  11  12
ENDBRANCH  10  11
ENDBRANCH   1  10
TORSDOF 13
ENDMDL
MODEL 7
REMARK VINA RESULT:    -3.201      7.446      9.213
REMARK INTER + INTRA:          -7.067
REMARK INTER:                  -4.892
REMARK INTRA:                  -2.175
REMARK UNBOUND:                -1.433
REMARK SMILES CCCCCCCCCCCCCCC(=O)[O-]
REMARK SMILES IDX 9 1 10 2 11 3 12 4 13 5 14 6 15 7 16 8 17 9 8 10 7 11 6 12
REMARK SMILES IDX 5 13 4 14 3 15 2 16 1 17
REMARK H PARENT
REMARK Flexibility Score: inf
ROOT
ATOM      1  C   UNL     1      71.966  27.808  57.233  1.00  0.00     0.000 C 
ENDROOT
BRANCH   1   2
ATOM      2  C   UNL     1      71.545  29.178  56.674  1.00  0.00     0.000 C 
BRANCH   2   3
ATOM      3  C   UNL     1      70.025  29.400  56.731  1.00  0.00     0.000 C 
BRANCH   3   4
ATOM      4  C   UNL     1      69.595  30.243  57.944  1.00  0.00     0.000 C 
BRANCH   4   5
ATOM      5  C   UNL     1      69.920  31.735  57.770  1.00  0.00     0.006 C 
BRANCH   5   6
ATOM      6  C   UNL     1      71.034  32.212  58.712  1.00  0.00     0.053 C 
BRANCH   6   7
ATOM      7  C   UNL     1      70.676  33.531  59.319  1.00  0.00     0.041 C 
ATOM      8  O   UNL     1      70.997  33.789  60.510  1.00  0.00    -0.550 OA
ATOM      9  O   UNL     1      70.031  34.495  58.557  1.00  0.00    -0.550 OA
ENDBRANCH   6   7
ENDBRANCH   5   6
ENDBRANCH   4   5
ENDBRANCH   3   4
ENDBRANCH   2   3
ENDBRANCH   1   2
BRANCH   1  10
ATOM     10  C   UNL     1      73.007  27.925  58.357  1.00  0.00     0.000 C 
BRANCH  10  11
ATOM     11  C   UNL     1      73.106  29.348  58.929  1.00  0.00    -0.000 C 
BRANCH  11  12
ATOM     12  C   UNL     1      72.985  29.384  60.462  1.00  0.00    -0.000 C 
BRANCH  12  13
ATOM     13  C   UNL     1      71.921  28.414  61.021  1.00  0.00    -0.000 C 
BRANCH  13  14
ATOM     14  C   UNL     1      70.601  29.128  61.362  1.00  0.00    -0.000 C 
BRANCH  14  15
ATOM     15  C   UNL     1      69.366  28.284  60.983  1.00  0.00    -0.000 C 
BRANCH  15  16
ATOM     16  C   UNL     1      69.690  27.093  60.066  1.00  0.00    -0.003 C 
ATOM     17  C   UNL     1      68.454  26.290  59.667  1.00  0.00     0.004 C 
ENDBRANCH  15  16
ENDBRANCH  14  15
ENDBRANCH  13  14
ENDBRANCH  12  13
ENDBRANCH  11  12
ENDBRANCH  10  11
ENDBRANCH   1  10
TORSDOF 13
ENDMDL
MODEL 8
REMARK VINA RESULT:    -3.197      3.137      5.748
REMARK INTER + INTRA:          -7.059
REMARK INTER:                  -5.410
REMARK INTRA:                  -1.649
REMARK UNBOUND:                -1.433
REMARK SMILES CCCCCCCCCCCCCCC(=O)[O-]
REMARK SMILES IDX 9 1 10 2 11 3 12 4 13 5 14 6 15 7 16 8 17 9 8 10 7 11 6 12
REMARK SMILES IDX 5 13 4 14 3 15 2 16 1 17
REMARK H PARENT
REMARK Flexibility Score: inf
ROOT
ATOM      1  C   UNL     1      63.931  28.805  60.288  1.00  0.00     0.000 C 
ENDROOT
BRANCH   1   2
ATOM      2  C   UNL     1      62.672  29.234  61.061  1.00  0.00     0.000 C 
BRANCH   2   3
ATOM      3  C   UNL     1      61.488  28.277  60.845  1.00  0.00     0.000 C 
BRANCH   3   4
ATOM      4  C   UNL     1      60.281  28.968  60.188  1.00  0.00     0.000 C 
BRANCH   4   5
ATOM      5  C   UNL     1      60.694  30.117  59.255  1.00  0.00     0.006 C 
BRANCH   5   6
ATOM      6  C   UNL     1      60.526  29.765  57.771  1.00  0.00     0.053 C 
BRANCH   6   7
ATOM      7  C   UNL     1      61.708  28.989  57.281  1.00  0.00     0.041 C 
ATOM      8  O   UNL     1      62.773  29.586  56.970  1.00  0.00    -0.550 OA
ATOM      9  O   UNL     1      61.651  27.603  57.216  1.00  0.00    -0.550 OA
ENDBRANCH   6   7
ENDBRANCH   5   6
ENDBRANCH   4   5
ENDBRANCH   3   4
ENDBRANCH   2   3
ENDBRANCH   1   2
BRANCH   1  10
ATOM     10  C   UNL     1      64.840  29.994  59.939  1.00  0.00     0.000 C 
BRANCH  10  11
ATOM     11  C   UNL     1      64.176  31.352  60.216  1.00  0.00    -0.000 C 
BRANCH  11  12
ATOM     12  C   UNL     1      63.916  32.161  58.934  1.00  0.00    -0.000 C 
BRANCH  12  13
ATOM     13  C   UNL     1      63.018  33.397  59.155  1.00  0.00    -0.000 C 
BRANCH  13  14
ATOM     14  C   UNL     1      63.661  34.689  58.621  1.00  0.00    -0.000 C 
BRANCH  14  15
ATOM     15  C   UNL     1      63.652  35.823  59.668  1.00  0.00    -0.000 C 
BRANCH  15  16
ATOM     16  C   UNL     1      63.121  35.387  61.044  1.00  0.00    -0.003 C 
ATOM     17  C   UNL     1      64.200  35.377  62.125  1.00  0.00     0.004 C 
ENDBRANCH  15  16
ENDBRANCH  14  15
ENDBRANCH  13  14
ENDBRANCH  12  13
ENDBRANCH  11  12
ENDBRANCH  10  11
ENDBRANCH   1  10
TORSDOF 13
ENDMDL
MODEL 9
REMARK VINA RESULT:    -3.178     13.216     15.261
REMARK INTER + INTRA:          -7.026
REMARK INTER:                  -6.511
REMARK INTRA:                  -0.516
REMARK UNBOUND:                -1.433
REMARK SMILES CCCCCCCCCCCCCCC(=O)[O-]
REMARK SMILES IDX 9 1 10 2 11 3 12 4 13 5 14 6 15 7 16 8 17 9 8 10 7 11 6 12
REMARK SMILES IDX 5 13 4 14 3 15 2 16 1 17
REMARK H PARENT
REMARK Flexibility Score: inf
ROOT
ATOM      1  C   UNL     1      60.110  23.451  50.055  1.00  0.00     0.000 C 
ENDROOT
BRANCH   1   2
ATOM      2  C   UNL     1      60.868  22.254  49.456  1.00  0.00     0.000 C 
BRANCH   2   3
ATOM      3  C   UNL     1      60.988  21.077  50.438  1.00  0.00     0.000 C 
BRANCH   3   4
ATOM      4  C   UNL     1      59.681  20.275  50.562  1.00  0.00     0.000 C 
BRANCH   4   5
ATOM      5  C   UNL     1      59.860  18.794  50.191  1.00  0.00     0.006 C 
BRANCH   5   6
ATOM      6  C   UNL     1      58.898  18.341  49.085  1.00  0.00     0.053 C 
BRANCH   6   7
ATOM      7  C   UNL     1      57.718  17.636  49.676  1.00  0.00     0.041 C 
ATOM      8  O   UNL     1      57.836  16.462  50.115  1.00  0.00    -0.550 OA
ATOM      9  O   UNL     1      56.500  18.294  49.788  1.00  0.00    -0.550 OA
ENDBRANCH   6   7
ENDBRANCH   5   6
ENDBRANCH   4   5
ENDBRANCH   3   4
ENDBRANCH   2   3
ENDBRANCH   1   2
BRANCH   1  10
ATOM     10  C   UNL     1      60.574  24.794  49.470  1.00  0.00     0.000 C 
BRANCH  10  11
ATOM     11  C   UNL     1      59.403  25.694  49.044  1.00  0.00    -0.000 C 
BRANCH  11  12
ATOM     12  C   UNL     1      59.849  27.118  48.672  1.00  0.00    -0.000 C 
BRANCH  12  13
ATOM     13  C   UNL     1      58.878  28.217  49.154  1.00  0.00    -0.000 C 
BRANCH  13  14
ATOM     14  C   UNL     1      57.782  27.662  50.082  1.00  0.00    -0.000 C 
BRANCH  14  15
ATOM     15  C   UNL     1      56.396  28.268  49.778  1.00  0.00    -0.000 C 
BRANCH  15  16
ATOM     16  C   UNL     1      56.133  29.600  50.500  1.00  0.00    -0.003 C 
ATOM     17  C   UNL     1      55.134  30.492  49.765  1.00  0.00     0.004 C 
ENDBRANCH  15  16
ENDBRANCH  14  15
ENDBRANCH  13  14
ENDBRANCH  12  13
ENDBRANCH  11  12
ENDBRANCH  10  11
ENDBRANCH   1  10
TORSDOF 13
ENDMDL
