MODEL 1
REMARK VINA RESULT:    -3.991      0.000      0.000
REMARK INTER + INTRA:          -6.391
REMARK INTER:                  -6.091
REMARK INTRA:                  -0.300
REMARK UNBOUND:                -0.300
REMARK SMILES O=C([O-])CCCCCCCCC(=O)[O-]
REMARK SMILES IDX 7 1 6 2 5 3 4 4 2 5 1 6 3 7 8 8 9 9 10 10 11 11 12 12 13 13
REMARK SMILES IDX 14 14
REMARK H PARENT
REMARK Flexibility Score: inf
ROOT
ATOM      1  C   UNL     1     120.175  71.438   3.791  1.00  0.00     0.000 C 
ENDROOT
BRANCH   1   2
ATOM      2  C   UNL     1     120.815  70.999   5.120  1.00  0.00     0.000 C 
BRANCH   2   3
ATOM      3  C   UNL     1     120.263  71.774   6.331  1.00  0.00     0.006 C 
BRANCH   3   4
ATOM      4  C   UNL     1     120.989  71.485   7.655  1.00  0.00     0.053 C 
BRANCH   4   5
ATOM      5  C   UNL     1     120.638  72.480   8.718  1.00  0.00     0.041 C 
ATOM      6  O   UNL     1     120.883  73.703   8.547  1.00  0.00    -0.550 OA
ATOM      7  O   UNL     1     120.008  72.060   9.883  1.00  0.00    -0.550 OA
ENDBRANCH   4   5
ENDBRANCH   3   4
ENDBRANCH   2   3
ENDBRANCH   1   2
BRANCH   1   8
ATOM      8  C   UNL     1     121.019  72.488   3.049  1.00  0.00     0.000 C 
BRANCH   8   9
ATOM      9  C   UNL     1     120.634  72.610   1.564  1.00  0.00     0.000 C 
BRANCH   9  10
ATOM     10  C   UNL     1     120.158  71.276   0.966  1.00  0.00     0.006 C 
BRANCH  10  11
ATOM     11  C   UNL     1     121.275  70.523   0.233  1.00  0.00     0.053 C 
BRANCH  11  12
ATOM     12  C   UNL     1     120.746  69.253  -0.357  1.00  0.00     0.041 C 
ATOM     13  O   UNL     1     120.798  68.180   0.299  1.00  0.00    -0.550 OA
ATOM     14  O   UNL     1     120.240  69.245  -1.650  1.00  0.00    -0.550 OA
ENDBRANCH  11  12
ENDBRANCH  10  11
ENDBRANCH   9  10
ENDBRANCH   8   9
ENDBRANCH   1   8
TORSDOF 9
ENDMDL
MODEL 2
REMARK VINA RESULT:    -3.865      3.695      5.798
REMARK INTER + INTRA:          -6.199
REMARK INTER:                  -5.850
REMARK INTRA:                  -0.349
REMARK UNBOUND:                -0.300
REMARK SMILES O=C([O-])CCCCCCCCC(=O)[O-]
REMARK SMILES IDX 7 1 6 2 5 3 4 4 2 5 1 6 3 7 8 8 9 9 10 10 11 11 12 12 13 13
REMARK SMILES IDX 14 14
REMARK H PARENT
REMARK Flexibility Score: inf
ROOT
ATOM      1  C   UNL     1     120.633  68.536  -0.564  1.00  0.00     0.000 C 
ENDROOT
BRANCH   1   2
ATOM      2  C   UNL     1     121.059  69.966  -0.186  1.00  0.00     0.000 C 
BRANCH   2   3
ATOM      3  C   UNL     1     120.373  70.472   1.096  1.00  0.00     0.006 C 
BRANCH   3   4
ATOM      4  C   UNL     1     120.786  71.891   1.520  1.00  0.00     0.053 C 
BRANCH   4   5
ATOM      5  C   UNL     1     120.867  72.032   3.009  1.00  0.00     0.041 C 
ATOM      6  O   UNL     1     120.469  73.087   3.568  1.00  0.00    -0.550 OA
ATOM      7  O   UNL     1     121.352  70.983   3.781  1.00  0.00    -0.550 OA
ENDBRANCH   4   5
ENDBRANCH   3   4
ENDBRANCH   2   3
ENDBRANCH   1   2
BRANCH   1   8
ATOM      8  C   UNL     1     119.875  68.481  -1.901  1.00  0.00     0.000 C 
BRANCH   8   9
ATOM      9  C   UNL     1     120.285  69.615  -2.859  1.00  0.00     0.000 C 
BRANCH   9  10
ATOM     10  C   UNL     1     119.952  69.296  -4.325  1.00  0.00     0.006 C 
BRANCH  10  11
ATOM     11  C   UNL     1     120.268  67.843  -4.702  1.00  0.00     0.053 C 
BRANCH  11  12
ATOM     12  C   UNL     1     120.759  67.766  -6.114  1.00  0.00     0.041 C 
ATOM     13  O   UNL     1     121.006  66.649  -6.640  1.00  0.00    -0.550 OA
ATOM     14  O   UNL     1     120.990  68.932  -6.833  1.00  0.00    -0.550 OA
ENDBRANCH  11  12
ENDBRANCH  10  11
ENDBRANCH   9  10
ENDBRANCH   8   9
ENDBRANCH   1   8
TORSDOF 9
ENDMDL
MODEL 3
REMARK VINA RESULT:    -3.858      0.614      7.836
REMARK INTER + INTRA:          -6.188
REMARK INTER:                  -5.896
REMARK INTRA:                  -0.292
REMARK UNBOUND:                -0.300
REMARK SMILES O=C([O-])CCCCCCCCC(=O)[O-]
REMARK SMILES IDX 7 1 6 2 5 3 4 4 2 5 1 6 3 7 8 8 9 9 10 10 11 11 12 12 13 13
REMARK SMILES IDX 14 14
REMARK H PARENT
REMARK Flexibility Score: inf
ROOT
ATOM      1  C   UNL     1     121.246  72.052   3.055  1.00  0.00     0.000 C 
ENDROOT
BRANCH   1   2
ATOM      2  C   UNL     1     120.768  72.781   1.787  1.00  0.00     0.000 C 
BRANCH   2   3
ATOM      3  C   UNL     1     120.016  71.852   0.815  1.00  0.00     0.006 C 
BRANCH   3   4
ATOM      4  C   UNL     1     120.177  70.353   1.117  1.00  0.00     0.053 C 
BRANCH   4   5
ATOM      5  C   UNL     1     120.570  69.573  -0.100  1.00  0.00     0.041 C 
ATOM      6  O   UNL     1     120.132  69.904  -1.233  1.00  0.00    -0.550 OA
ATOM      7  O   UNL     1     121.447  68.502   0.014  1.00  0.00    -0.550 OA
ENDBRANCH   4   5
ENDBRANCH   3   4
ENDBRANCH   2   3
ENDBRANCH   1   2
BRANCH   1   8
ATOM      8  C   UNL     1     120.278  72.229   4.237  1.00  0.00     0.000 C 
BRANCH   8   9
ATOM      9  C   UNL     1     120.524  71.204   5.359  1.00  0.00     0.000 C 
BRANCH   9  10
ATOM     10  C   UNL     1     119.973  71.672   6.716  1.00  0.00     0.006 C 
BRANCH  10  11
ATOM     11  C   UNL     1     120.989  71.511   7.854  1.00  0.00     0.053 C 
BRANCH  11  12
ATOM     12  C   UNL     1     120.662  72.442   8.979  1.00  0.00     0.041 C 
ATOM     13  O   UNL     1     120.822  73.683   8.841  1.00  0.00    -0.550 OA
ATOM     14  O   UNL     1     120.227  71.935  10.197  1.00  0.00    -0.550 OA
ENDBRANCH  11  12
ENDBRANCH  10  11
ENDBRANCH   9  10
ENDBRANCH   8   9
ENDBRANCH   1   8
TORSDOF 9
ENDMDL
MODEL 4
REMARK VINA RESULT:    -3.838      3.076      8.829
REMARK INTER + INTRA:          -6.157
REMARK INTER:                  -5.794
REMARK INTRA:                  -0.363
REMARK UNBOUND:                -0.300
REMARK SMILES O=C([O-])CCCCCCCCC(=O)[O-]
REMARK SMILES IDX 7 1 6 2 5 3 4 4 2 5 1 6 3 7 8 8 9 9 10 10 11 11 12 12 13 13
REMARK SMILES IDX 14 14
REMARK H PARENT
REMARK Flexibility Score: inf
ROOT
ATOM      1  C   UNL     1     121.215  68.991  -0.521  1.00  0.00     0.000 C 
ENDROOT
BRANCH   1   2
ATOM      2  C   UNL     1     119.875  68.613  -1.176  1.00  0.00     0.000 C 
BRANCH   2   3
ATOM      3  C   UNL     1     119.994  68.409  -2.698  1.00  0.00     0.006 C 
BRANCH   3   4
ATOM      4  C   UNL     1     120.260  69.698  -3.492  1.00  0.00     0.053 C 
BRANCH   4   5
ATOM      5  C   UNL     1     120.468  69.427  -4.951  1.00  0.00     0.041 C 
ATOM      6  O   UNL     1     120.564  68.243  -5.368  1.00  0.00    -0.550 OA
ATOM      7  O   UNL     1     120.522  70.482  -5.853  1.00  0.00    -0.550 OA
ENDBRANCH   4   5
ENDBRANCH   3   4
ENDBRANCH   2   3
ENDBRANCH   1   2
BRANCH   1   8
ATOM      8  C   UNL     1     121.221  70.430   0.022  1.00  0.00     0.000 C 
BRANCH   8   9
ATOM      9  C   UNL     1     119.983  70.740   0.883  1.00  0.00     0.000 C 
BRANCH   9  10
ATOM     10  C   UNL     1     119.965  72.192   1.389  1.00  0.00     0.006 C 
BRANCH  10  11
ATOM     11  C   UNL     1     121.050  72.467   2.438  1.00  0.00     0.053 C 
BRANCH  11  12
ATOM     12  C   UNL     1     120.604  71.991   3.785  1.00  0.00     0.041 C 
ATOM     13  O   UNL     1     120.134  72.806   4.621  1.00  0.00    -0.550 OA
ATOM     14  O   UNL     1     120.753  70.655   4.134  1.00  0.00    -0.550 OA
ENDBRANCH  11  12
ENDBRANCH  10  11
ENDBRANCH   9  10
ENDBRANCH   8   9
ENDBRANCH   1   8
TORSDOF 9
ENDMDL
MODEL 5
REMARK VINA RESULT:    -3.785      2.297      7.209
REMARK INTER + INTRA:          -6.077
REMARK INTER:                  -5.701
REMARK INTRA:                  -0.377
REMARK UNBOUND:                -0.300
REMARK SMILES O=C([O-])CCCCCCCCC(=O)[O-]
REMARK SMILES IDX 7 1 6 2 5 3 4 4 2 5 1 6 3 7 8 8 9 9 10 10 11 11 12 12 13 13
REMARK SMILES IDX 14 14
REMARK H PARENT
REMARK Flexibility Score: inf
ROOT
ATOM      1  C   UNL     1     120.839  71.084   0.747  1.00  0.00     0.000 C 
ENDROOT
BRANCH   1   2
ATOM      2  C   UNL     1     120.028  70.299  -0.298  1.00  0.00     0.000 C 
BRANCH   2   3
ATOM      3  C   UNL     1     120.593  68.889  -0.554  1.00  0.00     0.006 C 
BRANCH   3   4
ATOM      4  C   UNL     1     119.899  67.773   0.243  1.00  0.00     0.053 C 
BRANCH   4   5
ATOM      5  C   UNL     1     120.195  66.415  -0.316  1.00  0.00     0.041 C 
ATOM      6  O   UNL     1     120.152  66.218  -1.558  1.00  0.00    -0.550 OA
ATOM      7  O   UNL     1     120.552  65.375   0.535  1.00  0.00    -0.550 OA
ENDBRANCH   4   5
ENDBRANCH   3   4
ENDBRANCH   2   3
ENDBRANCH   1   2
BRANCH   1   8
ATOM      8  C   UNL     1     120.249  72.476   1.027  1.00  0.00     0.000 C 
BRANCH   8   9
ATOM      9  C   UNL     1     120.817  73.110   2.309  1.00  0.00     0.000 C 
BRANCH   9  10
ATOM     10  C   UNL     1     119.875  72.950   3.513  1.00  0.00     0.006 C 
BRANCH  10  11
ATOM     11  C   UNL     1     120.614  72.536   4.792  1.00  0.00     0.053 C 
BRANCH  11  12
ATOM     12  C   UNL     1     120.299  71.114   5.138  1.00  0.00     0.041 C 
ATOM     13  O   UNL     1     120.192  70.763   6.342  1.00  0.00    -0.550 OA
ATOM     14  O   UNL     1     120.172  70.166   4.131  1.00  0.00    -0.550 OA
ENDBRANCH  11  12
ENDBRANCH  10  11
ENDBRANCH   9  10
ENDBRANCH   8   9
ENDBRANCH   1   8
TORSDOF 9
ENDMDL
MODEL 6
REMARK VINA RESULT:    -3.624      1.204      1.852
REMARK INTER + INTRA:          -5.831
REMARK INTER:                  -5.567
REMARK INTRA:                  -0.264
REMARK UNBOUND:                -0.300
REMARK SMILES O=C([O-])CCCCCCCCC(=O)[O-]
REMARK SMILES IDX 7 1 6 2 5 3 4 4 2 5 1 6 3 7 8 8 9 9 10 10 11 11 12 12 13 13
REMARK SMILES IDX 14 14
REMARK H PARENT
REMARK Flexibility Score: inf
ROOT
ATOM      1  C   UNL     1     120.058  71.811   2.772  1.00  0.00     0.000 C 
ENDROOT
BRANCH   1   2
ATOM      2  C   UNL     1     120.590  71.196   4.078  1.00  0.00     0.000 C 
BRANCH   2   3
ATOM      3  C   UNL     1     120.108  71.951   5.331  1.00  0.00     0.006 C 
BRANCH   3   4
ATOM      4  C   UNL     1     120.629  71.377   6.658  1.00  0.00     0.053 C 
BRANCH   4   5
ATOM      5  C   UNL     1     120.480  72.348   7.789  1.00  0.00     0.041 C 
ATOM      6  O   UNL     1     120.232  73.559   7.555  1.00  0.00    -0.550 OA
ATOM      7  O   UNL     1     120.580  71.906   9.103  1.00  0.00    -0.550 OA
ENDBRANCH   4   5
ENDBRANCH   3   4
ENDBRANCH   2   3
ENDBRANCH   1   2
BRANCH   1   8
ATOM      8  C   UNL     1     119.920  70.773   1.645  1.00  0.00     0.000 C 
BRANCH   8   9
ATOM      9  C   UNL     1     120.959  70.975   0.528  1.00  0.00     0.000 C 
BRANCH   9  10
ATOM     10  C   UNL     1     121.359  69.654  -0.150  1.00  0.00     0.006 C 
BRANCH  10  11
ATOM     11  C   UNL     1     120.186  68.982  -0.875  1.00  0.00     0.053 C 
BRANCH  11  12
ATOM     12  C   UNL     1     120.239  67.498  -0.688  1.00  0.00     0.041 C 
ATOM     13  O   UNL     1     120.228  66.732  -1.687  1.00  0.00    -0.550 OA
ATOM     14  O   UNL     1     120.251  66.959   0.592  1.00  0.00    -0.550 OA
ENDBRANCH  11  12
ENDBRANCH  10  11
ENDBRANCH   9  10
ENDBRANCH   8   9
ENDBRANCH   1   8
TORSDOF 9
ENDMDL
MODEL 7
REMARK VINA RESULT:    -3.530      5.106     11.118
REMARK INTER + INTRA:          -5.687
REMARK INTER:                  -5.252
REMARK INTRA:                  -0.436
REMARK UNBOUND:                -0.300
REMARK SMILES O=C([O-])CCCCCCCCC(=O)[O-]
REMARK SMILES IDX 7 1 6 2 5 3 4 4 2 5 1 6 3 7 8 8 9 9 10 10 11 11 12 12 13 13
REMARK SMILES IDX 14 14
REMARK H PARENT
REMARK Flexibility Score: inf
ROOT
ATOM      1  C   UNL     1     120.800  69.961  -5.015  1.00  0.00     0.000 C 
ENDROOT
BRANCH   1   2
ATOM      2  C   UNL     1     119.916  70.209  -6.250  1.00  0.00     0.000 C 
BRANCH   2   3
ATOM      3  C   UNL     1     120.003  69.069  -7.282  1.00  0.00     0.006 C 
BRANCH   3   4
ATOM      4  C   UNL     1     120.566  67.751  -6.727  1.00  0.00     0.053 C 
BRANCH   4   5
ATOM      5  C   UNL     1     121.414  67.034  -7.733  1.00  0.00     0.041 C 
ATOM      6  O   UNL     1     122.066  67.685  -8.590  1.00  0.00    -0.550 OA
ATOM      7  O   UNL     1     121.510  65.648  -7.700  1.00  0.00    -0.550 OA
ENDBRANCH   4   5
ENDBRANCH   3   4
ENDBRANCH   2   3
ENDBRANCH   1   2
BRANCH   1   8
ATOM      8  C   UNL     1     119.988  69.910  -3.710  1.00  0.00     0.000 C 
BRANCH   8   9
ATOM      9  C   UNL     1     120.142  68.569  -2.971  1.00  0.00     0.000 C 
BRANCH   9  10
ATOM     10  C   UNL     1     119.876  68.693  -1.462  1.00  0.00     0.006 C 
BRANCH  10  11
ATOM     11  C   UNL     1     120.473  69.971  -0.858  1.00  0.00     0.053 C 
BRANCH  11  12
ATOM     12  C   UNL     1     120.550  69.856   0.632  1.00  0.00     0.041 C 
ATOM     13  O   UNL     1     120.065  68.852   1.216  1.00  0.00    -0.550 OA
ATOM     14  O   UNL     1     121.114  70.882   1.380  1.00  0.00    -0.550 OA
ENDBRANCH  11  12
ENDBRANCH  10  11
ENDBRANCH   9  10
ENDBRANCH   8   9
ENDBRANCH   1   8
TORSDOF 9
ENDMDL
MODEL 8
REMARK VINA RESULT:    -3.390      4.614      7.274
REMARK INTER + INTRA:          -5.473
REMARK INTER:                  -5.214
REMARK INTRA:                  -0.259
REMARK UNBOUND:                -0.300
REMARK SMILES O=C([O-])CCCCCCCCC(=O)[O-]
REMARK SMILES IDX 7 1 6 2 5 3 4 4 2 5 1 6 3 7 8 8 9 9 10 10 11 11 12 12 13 13
REMARK SMILES IDX 14 14
REMARK H PARENT
REMARK Flexibility Score: inf
ROOT
ATOM      1  C   UNL     1     120.614  69.735  -2.233  1.00  0.00     0.000 C 
ENDROOT
BRANCH   1   2
ATOM      2  C   UNL     1     119.875  68.970  -1.121  1.00  0.00     0.000 C 
BRANCH   2   3
ATOM      3  C   UNL     1     119.914  69.704   0.233  1.00  0.00     0.006 C 
BRANCH   3   4
ATOM      4  C   UNL     1     121.086  70.686   0.390  1.00  0.00     0.053 C 
BRANCH   4   5
ATOM      5  C   UNL     1     120.884  71.625   1.539  1.00  0.00     0.041 C 
ATOM      6  O   UNL     1     121.086  71.235   2.719  1.00  0.00    -0.550 OA
ATOM      7  O   UNL     1     120.504  72.941   1.303  1.00  0.00    -0.550 OA
ENDBRANCH   4   5
ENDBRANCH   3   4
ENDBRANCH   2   3
ENDBRANCH   1   2
BRANCH   1   8
ATOM      8  C   UNL     1     119.875  69.675  -3.581  1.00  0.00     0.000 C 
BRANCH   8   9
ATOM      9  C   UNL     1     119.875  68.262  -4.191  1.00  0.00     0.000 C 
BRANCH   9  10
ATOM     10  C   UNL     1     120.508  68.226  -5.592  1.00  0.00     0.006 C 
BRANCH  10  11
ATOM     11  C   UNL     1     120.767  66.797  -6.088  1.00  0.00     0.053 C 
BRANCH  11  12
ATOM     12  C   UNL     1     121.393  66.823  -7.447  1.00  0.00     0.041 C 
ATOM     13  O   UNL     1     121.743  67.917  -7.962  1.00  0.00    -0.550 OA
ATOM     14  O   UNL     1     121.545  65.644  -8.165  1.00  0.00    -0.550 OA
ENDBRANCH  11  12
ENDBRANCH  10  11
ENDBRANCH   9  10
ENDBRANCH   8   9
ENDBRANCH   1   8
TORSDOF 9
ENDMDL
