MODEL 1
REMARK VINA RESULT:    -3.870      0.000      0.000
REMARK INTER + INTRA:          -4.944
REMARK INTER:                  -4.775
REMARK INTRA:                  -0.170
REMARK UNBOUND:                -0.170
REMARK SMILES [NH3+][C@@H](Cc1ccc(O)cc1)C(=O)[O-]
REMARK SMILES IDX 3 1 2 2 1 3 11 7 12 8 13 9 4 10 5 11 10 12 6 13 9 14 7 15
REMARK SMILES IDX 8 16
REMARK H PARENT 1 4 1 5 1 6 8 17
REMARK Flexibility Score: inf
ROOT
ATOM      1  C   UNL     1      11.585   0.059  -0.303  1.00  0.00     0.107 C 
ENDROOT
BRANCH   1   2
ATOM      2  C   UNL     1      11.371   1.519   0.152  1.00  0.00     0.232 C 
BRANCH   2   3
ATOM      3  N   UNL     1       9.952   1.800   0.407  1.00  0.00    -0.350 N 
ATOM      4  H   UNL     1       9.376   1.486  -0.409  1.00  0.00     0.345 HD
ATOM      5  H   UNL     1       9.806   2.828   0.524  1.00  0.00     0.345 HD
ATOM      6  H   UNL     1       9.624   1.305   1.268  1.00  0.00     0.345 HD
ENDBRANCH   2   3
BRANCH   2   7
ATOM      7  C   UNL     1      11.904   2.457  -0.898  1.00  0.00     0.099 C 
ATOM      8  O   UNL     1      12.057   2.059  -2.083  1.00  0.00    -0.544 OA
ATOM      9  O   UNL     1      12.213   3.772  -0.571  1.00  0.00    -0.544 OA
ENDBRANCH   2   7
ENDBRANCH   1   2
BRANCH   1  10
ATOM     10  C   UNL     1      12.288  -0.760   0.750  1.00  0.00    -0.041 A 
ATOM     11  C   UNL     1      13.507  -1.393   0.456  1.00  0.00     0.008 A 
ATOM     12  C   UNL     1      11.750  -0.871   2.043  1.00  0.00     0.008 A 
ATOM     13  C   UNL     1      14.172  -2.134   1.436  1.00  0.00     0.046 A 
ATOM     14  C   UNL     1      12.418  -1.612   3.023  1.00  0.00     0.046 A 
ATOM     15  C   UNL     1      13.631  -2.247   2.721  1.00  0.00     0.115 A 
BRANCH  15  16
ATOM     16  O   UNL     1      14.304  -2.989   3.688  1.00  0.00    -0.508 OA
ATOM     17  H   UNL     1      14.933  -2.548   4.351  1.00  0.00     0.293 HD
ENDBRANCH  15  16
ENDBRANCH   1  10
TORSDOF 5
ENDMDL
MODEL 2
REMARK VINA RESULT:    -3.828      1.502      2.129
REMARK INTER + INTRA:          -4.893
REMARK INTER:                  -4.724
REMARK INTRA:                  -0.169
REMARK UNBOUND:                -0.170
REMARK SMILES [NH3+][C@@H](Cc1ccc(O)cc1)C(=O)[O-]
REMARK SMILES IDX 3 1 2 2 1 3 11 7 12 8 13 9 4 10 5 11 10 12 6 13 9 14 7 15
REMARK SMILES IDX 8 16
REMARK H PARENT 1 4 1 5 1 6 8 17
REMARK Flexibility Score: inf
ROOT
ATOM      1  C   UNL     1      11.867  -0.372   0.034  1.00  0.00     0.107 C 
ENDROOT
BRANCH   1   2
ATOM      2  C   UNL     1      10.605   0.188   0.726  1.00  0.00     0.232 C 
BRANCH   2   3
ATOM      3  N   UNL     1       9.439  -0.674   0.497  1.00  0.00    -0.350 N 
ATOM      4  H   UNL     1       8.675  -0.423   1.167  1.00  0.00     0.345 HD
ATOM      5  H   UNL     1       9.694  -1.674   0.665  1.00  0.00     0.345 HD
ATOM      6  H   UNL     1       9.084  -0.569  -0.481  1.00  0.00     0.345 HD
ENDBRANCH   2   3
BRANCH   2   7
ATOM      7  C   UNL     1      10.329   1.579   0.220  1.00  0.00     0.099 C 
ATOM      8  O   UNL     1       9.236   2.144   0.488  1.00  0.00    -0.544 OA
ATOM      9  O   UNL     1      11.285   2.254  -0.529  1.00  0.00    -0.544 OA
ENDBRANCH   2   7
ENDBRANCH   1   2
BRANCH   1  10
ATOM     10  C   UNL     1      12.748  -1.127   0.997  1.00  0.00    -0.041 A 
ATOM     11  C   UNL     1      12.391  -1.224   2.352  1.00  0.00     0.008 A 
ATOM     12  C   UNL     1      13.911  -1.770   0.544  1.00  0.00     0.008 A 
ATOM     13  C   UNL     1      13.194  -1.943   3.243  1.00  0.00     0.046 A 
ATOM     14  C   UNL     1      14.712  -2.488   1.437  1.00  0.00     0.046 A 
ATOM     15  C   UNL     1      14.355  -2.576   2.789  1.00  0.00     0.115 A 
BRANCH  15  16
ATOM     16  O   UNL     1      15.146  -3.288   3.689  1.00  0.00    -0.508 OA
ATOM     17  H   UNL     1      15.317  -4.281   3.572  1.00  0.00     0.293 HD
ENDBRANCH  15  16
ENDBRANCH   1  10
TORSDOF 5
ENDMDL
MODEL 3
REMARK VINA RESULT:    -3.823      1.708      2.322
REMARK INTER + INTRA:          -4.887
REMARK INTER:                  -4.701
REMARK INTRA:                  -0.185
REMARK UNBOUND:                -0.170
REMARK SMILES [NH3+][C@@H](Cc1ccc(O)cc1)C(=O)[O-]
REMARK SMILES IDX 3 1 2 2 1 3 11 7 12 8 13 9 4 10 5 11 10 12 6 13 9 14 7 15
REMARK SMILES IDX 8 16
REMARK H PARENT 1 4 1 5 1 6 8 17
REMARK Flexibility Score: inf
ROOT
ATOM      1  C   UNL     1      10.480   0.033   1.912  1.00  0.00     0.107 C 
ENDROOT
BRANCH   1   2
ATOM      2  C   UNL     1      10.719   1.552   2.055  1.00  0.00     0.232 C 
BRANCH   2   3
ATOM      3  N   UNL     1      10.002   2.103   3.212  1.00  0.00    -0.350 N 
ATOM      4  H   UNL     1       9.273   1.425   3.534  1.00  0.00     0.345 HD
ATOM      5  H   UNL     1       9.517   2.990   2.944  1.00  0.00     0.345 HD
ATOM      6  H   UNL     1      10.662   2.297   4.001  1.00  0.00     0.345 HD
ENDBRANCH   2   3
BRANCH   2   7
ATOM      7  C   UNL     1      10.284   2.251   0.795  1.00  0.00     0.099 C 
ATOM      8  O   UNL     1       9.079   2.206   0.430  1.00  0.00    -0.544 OA
ATOM      9  O   UNL     1      11.204   2.965   0.036  1.00  0.00    -0.544 OA
ENDBRANCH   2   7
ENDBRANCH   1   2
BRANCH   1  10
ATOM     10  C   UNL     1      11.774  -0.733   1.813  1.00  0.00    -0.041 A 
ATOM     11  C   UNL     1      12.273  -1.424   2.930  1.00  0.00     0.008 A 
ATOM     12  C   UNL     1      12.475  -0.793   0.598  1.00  0.00     0.008 A 
ATOM     13  C   UNL     1      13.461  -2.155   2.835  1.00  0.00     0.046 A 
ATOM     14  C   UNL     1      13.663  -1.525   0.505  1.00  0.00     0.046 A 
ATOM     15  C   UNL     1      14.159  -2.207   1.625  1.00  0.00     0.115 A 
BRANCH  15  16
ATOM     16  O   UNL     1      15.342  -2.939   1.545  1.00  0.00    -0.508 OA
ATOM     17  H   UNL     1      16.151  -2.701   2.108  1.00  0.00     0.293 HD
ENDBRANCH  15  16
ENDBRANCH   1  10
TORSDOF 5
ENDMDL
MODEL 4
REMARK VINA RESULT:    -3.810      2.392      5.463
REMARK INTER + INTRA:          -4.871
REMARK INTER:                  -4.682
REMARK INTRA:                  -0.189
REMARK UNBOUND:                -0.170
REMARK SMILES [NH3+][C@@H](Cc1ccc(O)cc1)C(=O)[O-]
REMARK SMILES IDX 3 1 2 2 1 3 11 7 12 8 13 9 4 10 5 11 10 12 6 13 9 14 7 15
REMARK SMILES IDX 8 16
REMARK H PARENT 1 4 1 5 1 6 8 17
REMARK Flexibility Score: inf
ROOT
ATOM      1  C   UNL     1      13.491  -1.235   0.448  1.00  0.00     0.107 C 
ENDROOT
BRANCH   1   2
ATOM      2  C   UNL     1      13.591  -2.013   1.778  1.00  0.00     0.232 C 
BRANCH   2   3
ATOM      3  N   UNL     1      14.181  -1.189   2.840  1.00  0.00    -0.350 N 
ATOM      4  H   UNL     1      13.616  -0.318   2.970  1.00  0.00     0.345 HD
ATOM      5  H   UNL     1      15.151  -0.903   2.574  1.00  0.00     0.345 HD
ATOM      6  H   UNL     1      14.213  -1.714   3.745  1.00  0.00     0.345 HD
ENDBRANCH   2   3
BRANCH   2   7
ATOM      7  C   UNL     1      14.410  -3.259   1.572  1.00  0.00     0.099 C 
ATOM      8  O   UNL     1      14.314  -4.220   2.379  1.00  0.00    -0.544 OA
ATOM      9  O   UNL     1      15.264  -3.362   0.480  1.00  0.00    -0.544 OA
ENDBRANCH   2   7
ENDBRANCH   1   2
BRANCH   1  10
ATOM     10  C   UNL     1      12.318  -0.287   0.439  1.00  0.00    -0.041 A 
ATOM     11  C   UNL     1      11.056  -0.721   0.877  1.00  0.00     0.008 A 
ATOM     12  C   UNL     1      12.482   1.045   0.026  1.00  0.00     0.008 A 
ATOM     13  C   UNL     1       9.972   0.162   0.891  1.00  0.00     0.046 A 
ATOM     14  C   UNL     1      11.396   1.926   0.041  1.00  0.00     0.046 A 
ATOM     15  C   UNL     1      10.138   1.486   0.474  1.00  0.00     0.115 A 
BRANCH  15  16
ATOM     16  O   UNL     1       9.049   2.354   0.492  1.00  0.00    -0.508 OA
ATOM     17  H   UNL     1       9.000   3.128   1.146  1.00  0.00     0.293 HD
ENDBRANCH  15  16
ENDBRANCH   1  10
TORSDOF 5
ENDMDL
MODEL 5
REMARK VINA RESULT:    -3.730      3.346      5.475
REMARK INTER + INTRA:          -4.772
REMARK INTER:                  -4.570
REMARK INTRA:                  -0.203
REMARK UNBOUND:                -0.170
REMARK SMILES [NH3+][C@@H](Cc1ccc(O)cc1)C(=O)[O-]
REMARK SMILES IDX 3 1 2 2 1 3 11 7 12 8 13 9 4 10 5 11 10 12 6 13 9 14 7 15
REMARK SMILES IDX 8 16
REMARK H PARENT 1 4 1 5 1 6 8 17
REMARK Flexibility Score: inf
ROOT
ATOM      1  C   UNL     1      14.624  -2.257   1.747  1.00  0.00     0.107 C 
ENDROOT
BRANCH   1   2
ATOM      2  C   UNL     1      14.614  -3.702   1.201  1.00  0.00     0.232 C 
BRANCH   2   3
ATOM      3  N   UNL     1      14.952  -4.674   2.248  1.00  0.00    -0.350 N 
ATOM      4  H   UNL     1      15.400  -5.517   1.819  1.00  0.00     0.345 HD
ATOM      5  H   UNL     1      14.084  -4.989   2.739  1.00  0.00     0.345 HD
ATOM      6  H   UNL     1      15.609  -4.256   2.947  1.00  0.00     0.345 HD
ENDBRANCH   2   3
BRANCH   2   7
ATOM      7  C   UNL     1      15.584  -3.815   0.056  1.00  0.00     0.099 C 
ATOM      8  O   UNL     1      16.526  -2.986  -0.059  1.00  0.00    -0.544 OA
ATOM      9  O   UNL     1      15.459  -4.844  -0.869  1.00  0.00    -0.544 OA
ENDBRANCH   2   7
ENDBRANCH   1   2
BRANCH   1  10
ATOM     10  C   UNL     1      13.321  -1.547   1.481  1.00  0.00    -0.041 A 
ATOM     11  C   UNL     1      13.044  -1.037   0.202  1.00  0.00     0.008 A 
ATOM     12  C   UNL     1      12.359  -1.419   2.495  1.00  0.00     0.008 A 
ATOM     13  C   UNL     1      11.827  -0.397  -0.055  1.00  0.00     0.046 A 
ATOM     14  C   UNL     1      11.142  -0.780   2.237  1.00  0.00     0.046 A 
ATOM     15  C   UNL     1      10.874  -0.267   0.961  1.00  0.00     0.115 A 
BRANCH  15  16
ATOM     16  O   UNL     1       9.666   0.372   0.691  1.00  0.00    -0.508 OA
ATOM     17  H   UNL     1       9.155   0.866   1.415  1.00  0.00     0.293 HD
ENDBRANCH  15  16
ENDBRANCH   1  10
TORSDOF 5
ENDMDL
MODEL 6
REMARK VINA RESULT:    -3.724      2.147      2.557
REMARK INTER + INTRA:          -4.765
REMARK INTER:                  -4.535
REMARK INTRA:                  -0.229
REMARK UNBOUND:                -0.170
REMARK SMILES [NH3+][C@@H](Cc1ccc(O)cc1)C(=O)[O-]
REMARK SMILES IDX 3 1 2 2 1 3 11 7 12 8 13 9 4 10 5 11 10 12 6 13 9 14 7 15
REMARK SMILES IDX 8 16
REMARK H PARENT 1 4 1 5 1 6 8 17
REMARK Flexibility Score: inf
ROOT
ATOM      1  C   UNL     1      11.800  -0.463   0.298  1.00  0.00     0.107 C 
ENDROOT
BRANCH   1   2
ATOM      2  C   UNL     1      11.225   0.685   1.156  1.00  0.00     0.232 C 
BRANCH   2   3
ATOM      3  N   UNL     1      10.249   0.188   2.134  1.00  0.00    -0.350 N 
ATOM      4  H   UNL     1      10.005   0.947   2.811  1.00  0.00     0.345 HD
ATOM      5  H   UNL     1      10.659  -0.605   2.678  1.00  0.00     0.345 HD
ATOM      6  H   UNL     1       9.377  -0.138   1.656  1.00  0.00     0.345 HD
ENDBRANCH   2   3
BRANCH   2   7
ATOM      7  C   UNL     1      10.585   1.711   0.261  1.00  0.00     0.099 C 
ATOM      8  O   UNL     1      11.230   2.198  -0.706  1.00  0.00    -0.544 OA
ATOM      9  O   UNL     1       9.273   2.114   0.482  1.00  0.00    -0.544 OA
ENDBRANCH   2   7
ENDBRANCH   1   2
BRANCH   1  10
ATOM     10  C   UNL     1      13.272  -0.673   0.554  1.00  0.00    -0.041 A 
ATOM     11  C   UNL     1      13.796  -1.974   0.633  1.00  0.00     0.008 A 
ATOM     12  C   UNL     1      14.137   0.426   0.681  1.00  0.00     0.008 A 
ATOM     13  C   UNL     1      15.163  -2.172   0.847  1.00  0.00     0.046 A 
ATOM     14  C   UNL     1      15.504   0.225   0.895  1.00  0.00     0.046 A 
ATOM     15  C   UNL     1      16.020  -1.075   0.979  1.00  0.00     0.115 A 
BRANCH  15  16
ATOM     16  O   UNL     1      17.380  -1.287   1.193  1.00  0.00    -0.508 OA
ATOM     17  H   UNL     1      18.020  -1.437   0.421  1.00  0.00     0.293 HD
ENDBRANCH  15  16
ENDBRANCH   1  10
TORSDOF 5
ENDMDL
MODEL 7
REMARK VINA RESULT:    -3.637      2.871      4.942
REMARK INTER + INTRA:          -4.658
REMARK INTER:                  -4.450
REMARK INTRA:                  -0.208
REMARK UNBOUND:                -0.170
REMARK SMILES [NH3+][C@@H](Cc1ccc(O)cc1)C(=O)[O-]
REMARK SMILES IDX 3 1 2 2 1 3 11 7 12 8 13 9 4 10 5 11 10 12 6 13 9 14 7 15
REMARK SMILES IDX 8 16
REMARK H PARENT 1 4 1 5 1 6 8 17
REMARK Flexibility Score: inf
ROOT
ATOM      1  C   UNL     1      13.514  -2.001   1.636  1.00  0.00     0.107 C 
ENDROOT
BRANCH   1   2
ATOM      2  C   UNL     1      14.630  -2.066   0.570  1.00  0.00     0.232 C 
BRANCH   2   3
ATOM      3  N   UNL     1      15.042  -3.450   0.308  1.00  0.00    -0.350 N 
ATOM      4  H   UNL     1      14.198  -4.056   0.188  1.00  0.00     0.345 HD
ATOM      5  H   UNL     1      15.589  -3.821   1.118  1.00  0.00     0.345 HD
ATOM      6  H   UNL     1      15.629  -3.506  -0.557  1.00  0.00     0.345 HD
ENDBRANCH   2   3
BRANCH   2   7
ATOM      7  C   UNL     1      15.810  -1.250   1.027  1.00  0.00     0.099 C 
ATOM      8  O   UNL     1      15.929  -0.051   0.662  1.00  0.00    -0.544 OA
ATOM      9  O   UNL     1      16.764  -1.810   1.868  1.00  0.00    -0.544 OA
ENDBRANCH   2   7
ENDBRANCH   1   2
BRANCH   1  10
ATOM     10  C   UNL     1      12.472  -0.966   1.296  1.00  0.00    -0.041 A 
ATOM     11  C   UNL     1      12.450  -0.377   0.021  1.00  0.00     0.008 A 
ATOM     12  C   UNL     1      11.492  -0.606   2.236  1.00  0.00     0.008 A 
ATOM     13  C   UNL     1      11.471   0.566  -0.305  1.00  0.00     0.046 A 
ATOM     14  C   UNL     1      10.514   0.338   1.908  1.00  0.00     0.046 A 
ATOM     15  C   UNL     1      10.502   0.926   0.637  1.00  0.00     0.115 A 
BRANCH  15  16
ATOM     16  O   UNL     1       9.532   1.868   0.299  1.00  0.00    -0.508 OA
ATOM     17  H   UNL     1       9.435   2.211  -0.651  1.00  0.00     0.293 HD
ENDBRANCH  15  16
ENDBRANCH   1  10
TORSDOF 5
ENDMDL
MODEL 8
REMARK VINA RESULT:    -3.621      2.878      5.130
REMARK INTER + INTRA:          -4.638
REMARK INTER:                  -4.442
REMARK INTRA:                  -0.196
REMARK UNBOUND:                -0.170
REMARK SMILES [NH3+][C@@H](Cc1ccc(O)cc1)C(=O)[O-]
REMARK SMILES IDX 3 1 2 2 1 3 11 7 12 8 13 9 4 10 5 11 10 12 6 13 9 14 7 15
REMARK SMILES IDX 8 16
REMARK H PARENT 1 4 1 5 1 6 8 17
REMARK Flexibility Score: inf
ROOT
ATOM      1  C   UNL     1      13.546  -2.065   1.739  1.00  0.00     0.107 C 
ENDROOT
BRANCH   1   2
ATOM      2  C   UNL     1      14.650  -2.218   0.669  1.00  0.00     0.232 C 
BRANCH   2   3
ATOM      3  N   UNL     1      15.006  -3.627   0.463  1.00  0.00    -0.350 N 
ATOM      4  H   UNL     1      15.086  -3.827  -0.561  1.00  0.00     0.345 HD
ATOM      5  H   UNL     1      14.258  -4.247   0.851  1.00  0.00     0.345 HD
ATOM      6  H   UNL     1      15.915  -3.853   0.928  1.00  0.00     0.345 HD
ENDBRANCH   2   3
BRANCH   2   7
ATOM      7  C   UNL     1      15.865  -1.431   1.083  1.00  0.00     0.099 C 
ATOM      8  O   UNL     1      16.524  -1.774   2.100  1.00  0.00    -0.544 OA
ATOM      9  O   UNL     1      16.277  -0.335   0.335  1.00  0.00    -0.544 OA
ENDBRANCH   2   7
ENDBRANCH   1   2
BRANCH   1  10
ATOM     10  C   UNL     1      12.501  -1.059   1.327  1.00  0.00    -0.041 A 
ATOM     11  C   UNL     1      11.473  -0.705   2.217  1.00  0.00     0.008 A 
ATOM     12  C   UNL     1      12.563  -0.441   0.068  1.00  0.00     0.008 A 
ATOM     13  C   UNL     1      10.515   0.244   1.848  1.00  0.00     0.046 A 
ATOM     14  C   UNL     1      11.604   0.509  -0.299  1.00  0.00     0.046 A 
ATOM     15  C   UNL     1      10.577   0.853   0.590  1.00  0.00     0.115 A 
BRANCH  15  16
ATOM     16  O   UNL     1       9.616   1.797   0.235  1.00  0.00    -0.508 OA
ATOM     17  H   UNL     1       8.629   1.566   0.217  1.00  0.00     0.293 HD
ENDBRANCH  15  16
ENDBRANCH   1  10
TORSDOF 5
ENDMDL
MODEL 9
REMARK VINA RESULT:    -3.493      2.501      5.160
REMARK INTER + INTRA:          -4.480
REMARK INTER:                  -4.215
REMARK INTRA:                  -0.265
REMARK UNBOUND:                -0.170
REMARK SMILES [NH3+][C@@H](Cc1ccc(O)cc1)C(=O)[O-]
REMARK SMILES IDX 3 1 2 2 1 3 11 7 12 8 13 9 4 10 5 11 10 12 6 13 9 14 7 15
REMARK SMILES IDX 8 16
REMARK H PARENT 1 4 1 5 1 6 8 17
REMARK Flexibility Score: inf
ROOT
ATOM      1  C   UNL     1      10.397  -0.952   2.667  1.00  0.00     0.107 C 
ENDROOT
BRANCH   1   2
ATOM      2  C   UNL     1      11.615  -1.423   3.490  1.00  0.00     0.232 C 
BRANCH   2   3
ATOM      3  N   UNL     1      11.235  -2.438   4.481  1.00  0.00    -0.350 N 
ATOM      4  H   UNL     1      10.635  -2.005   5.221  1.00  0.00     0.345 HD
ATOM      5  H   UNL     1      12.088  -2.823   4.946  1.00  0.00     0.345 HD
ATOM      6  H   UNL     1      10.708  -3.221   4.028  1.00  0.00     0.345 HD
ENDBRANCH   2   3
BRANCH   2   7
ATOM      7  C   UNL     1      12.247  -0.242   4.176  1.00  0.00     0.099 C 
ATOM      8  O   UNL     1      13.416   0.116   3.871  1.00  0.00    -0.544 OA
ATOM      9  O   UNL     1      11.540   0.472   5.135  1.00  0.00    -0.544 OA
ENDBRANCH   2   7
ENDBRANCH   1   2
BRANCH   1  10
ATOM     10  C   UNL     1      10.809  -0.129   1.473  1.00  0.00    -0.041 A 
ATOM     11  C   UNL     1      10.429   1.220   1.379  1.00  0.00     0.008 A 
ATOM     12  C   UNL     1      11.605  -0.691   0.461  1.00  0.00     0.008 A 
ATOM     13  C   UNL     1      10.829   1.991   0.285  1.00  0.00     0.046 A 
ATOM     14  C   UNL     1      12.004   0.082  -0.633  1.00  0.00     0.046 A 
ATOM     15  C   UNL     1      11.616   1.426  -0.724  1.00  0.00     0.115 A 
BRANCH  15  16
ATOM     16  O   UNL     1      12.008   2.207  -1.809  1.00  0.00    -0.508 OA
ATOM     17  H   UNL     1      12.420   1.792  -2.638  1.00  0.00     0.293 HD
ENDBRANCH  15  16
ENDBRANCH   1  10
TORSDOF 5
ENDMDL
