MODEL 1
REMARK VINA RESULT:    -3.623      0.000      0.000
REMARK INTER + INTRA:          -3.848
REMARK INTER:                  -3.834
REMARK INTRA:                  -0.014
REMARK UNBOUND:                -0.014
REMARK SMILES O=Cc1ccccc1
REMARK SMILES IDX 6 1 5 2 4 3 3 4 8 5 7 6 2 7 1 8
REMARK H PARENT
REMARK Flexibility Score: inf
ROOT
ATOM      1  C   UNL     1     -27.953 -18.879 -32.528  1.00  0.00     0.000 A 
ATOM      2  C   UNL     1     -28.073 -18.875 -31.136  1.00  0.00     0.001 A 
ATOM      3  C   UNL     1     -29.337 -18.934 -30.541  1.00  0.00     0.011 A 
ATOM      4  C   UNL     1     -30.493 -18.999 -31.336  1.00  0.00     0.014 A 
ATOM      5  C   UNL     1     -30.364 -19.003 -32.737  1.00  0.00     0.011 A 
ATOM      6  C   UNL     1     -29.097 -18.942 -33.327  1.00  0.00     0.001 A 
ENDROOT
BRANCH   4   7
ATOM      7  C   UNL     1     -31.817 -19.062 -30.693  1.00  0.00     0.260 C 
ATOM      8  O   UNL     1     -31.929 -19.239 -29.450  1.00  0.00    -0.298 OA
ENDBRANCH   4   7
TORSDOF 1
ENDMDL
MODEL 2
REMARK VINA RESULT:    -3.620      0.108      1.715
REMARK INTER + INTRA:          -3.845
REMARK INTER:                  -3.832
REMARK INTRA:                  -0.013
REMARK UNBOUND:                -0.014
REMARK SMILES O=Cc1ccccc1
REMARK SMILES IDX 6 1 5 2 4 3 3 4 8 5 7 6 2 7 1 8
REMARK H PARENT
REMARK Flexibility Score: inf
ROOT
ATOM      1  C   UNL     1     -28.058 -18.876 -32.652  1.00  0.00     0.000 A 
ATOM      2  C   UNL     1     -29.245 -18.944 -33.384  1.00  0.00     0.001 A 
ATOM      3  C   UNL     1     -30.475 -19.014 -32.722  1.00  0.00     0.011 A 
ATOM      4  C   UNL     1     -30.525 -19.013 -31.318  1.00  0.00     0.014 A 
ATOM      5  C   UNL     1     -29.324 -18.943 -30.587  1.00  0.00     0.011 A 
ATOM      6  C   UNL     1     -28.097 -18.875 -31.255  1.00  0.00     0.001 A 
ENDROOT
BRANCH   4   7
ATOM      7  C   UNL     1     -31.829 -19.086 -30.636  1.00  0.00     0.260 C 
ATOM      8  O   UNL     1     -31.904 -19.294 -29.396  1.00  0.00    -0.298 OA
ENDBRANCH   4   7
TORSDOF 1
ENDMDL
MODEL 3
REMARK VINA RESULT:    -3.590      1.238      1.501
REMARK INTER + INTRA:          -3.814
REMARK INTER:                  -3.806
REMARK INTRA:                  -0.009
REMARK UNBOUND:                -0.014
REMARK SMILES O=Cc1ccccc1
REMARK SMILES IDX 6 1 5 2 4 3 3 4 8 5 7 6 2 7 1 8
REMARK H PARENT
REMARK Flexibility Score: inf
ROOT
ATOM      1  C   UNL     1     -29.218 -20.007 -33.491  1.00  0.00     0.000 A 
ATOM      2  C   UNL     1     -28.715 -19.224 -32.449  1.00  0.00     0.001 A 
ATOM      3  C   UNL     1     -29.392 -19.164 -31.227  1.00  0.00     0.011 A 
ATOM      4  C   UNL     1     -30.579 -19.890 -31.038  1.00  0.00     0.014 A 
ATOM      5  C   UNL     1     -31.079 -20.677 -32.092  1.00  0.00     0.011 A 
ATOM      6  C   UNL     1     -30.399 -20.732 -33.313  1.00  0.00     0.001 A 
ENDROOT
BRANCH   4   7
ATOM      7  C   UNL     1     -31.280 -19.816 -29.744  1.00  0.00     0.260 C 
ATOM      8  O   UNL     1     -32.128 -18.913 -29.514  1.00  0.00    -0.298 OA
ENDBRANCH   4   7
TORSDOF 1
ENDMDL
MODEL 4
REMARK VINA RESULT:    -3.584      2.343      2.779
REMARK INTER + INTRA:          -3.807
REMARK INTER:                  -3.794
REMARK INTRA:                  -0.013
REMARK UNBOUND:                -0.014
REMARK SMILES O=Cc1ccccc1
REMARK SMILES IDX 6 1 5 2 4 3 3 4 8 5 7 6 2 7 1 8
REMARK H PARENT
REMARK Flexibility Score: inf
ROOT
ATOM      1  C   UNL     1     -28.670 -18.875 -31.029  1.00  0.00     0.000 A 
ATOM      2  C   UNL     1     -29.880 -19.297 -30.474  1.00  0.00     0.001 A 
ATOM      3  C   UNL     1     -30.765 -20.073 -31.228  1.00  0.00     0.011 A 
ATOM      4  C   UNL     1     -30.443 -20.436 -32.547  1.00  0.00     0.014 A 
ATOM      5  C   UNL     1     -29.221 -20.008 -33.099  1.00  0.00     0.011 A 
ATOM      6  C   UNL     1     -28.341 -19.230 -32.340  1.00  0.00     0.001 A 
ENDROOT
BRANCH   4   7
ATOM      7  C   UNL     1     -31.387 -21.255 -33.328  1.00  0.00     0.260 C 
ATOM      8  O   UNL     1     -31.133 -21.583 -34.518  1.00  0.00    -0.298 OA
ENDBRANCH   4   7
TORSDOF 1
ENDMDL
MODEL 5
REMARK VINA RESULT:    -3.581      2.222      2.897
REMARK INTER + INTRA:          -3.804
REMARK INTER:                  -3.790
REMARK INTRA:                  -0.014
REMARK UNBOUND:                -0.014
REMARK SMILES O=Cc1ccccc1
REMARK SMILES IDX 6 1 5 2 4 3 3 4 8 5 7 6 2 7 1 8
REMARK H PARENT
REMARK Flexibility Score: inf
ROOT
ATOM      1  C   UNL     1     -28.493 -18.875 -31.014  1.00  0.00     0.000 A 
ATOM      2  C   UNL     1     -28.277 -19.203 -32.355  1.00  0.00     0.001 A 
ATOM      3  C   UNL     1     -29.254 -19.900 -33.072  1.00  0.00     0.011 A 
ATOM      4  C   UNL     1     -30.458 -20.273 -32.453  1.00  0.00     0.014 A 
ATOM      5  C   UNL     1     -30.669 -19.938 -31.103  1.00  0.00     0.011 A 
ATOM      6  C   UNL     1     -29.688 -19.242 -30.389  1.00  0.00     0.001 A 
ENDROOT
BRANCH   4   7
ATOM      7  C   UNL     1     -31.477 -21.007 -33.224  1.00  0.00     0.260 C 
ATOM      8  O   UNL     1     -31.206 -21.510 -34.347  1.00  0.00    -0.298 OA
ENDBRANCH   4   7
TORSDOF 1
ENDMDL
MODEL 6
REMARK VINA RESULT:    -3.401     22.639     23.424
REMARK INTER + INTRA:          -3.614
REMARK INTER:                  -3.604
REMARK INTRA:                  -0.010
REMARK UNBOUND:                -0.014
REMARK SMILES O=Cc1ccccc1
REMARK SMILES IDX 6 1 5 2 4 3 3 4 8 5 7 6 2 7 1 8
REMARK H PARENT
REMARK Flexibility Score: inf
ROOT
ATOM      1  C   UNL     1     -16.518 -36.975 -39.021  1.00  0.00     0.000 A 
ATOM      2  C   UNL     1     -16.489 -38.355 -38.804  1.00  0.00     0.001 A 
ATOM      3  C   UNL     1     -17.677 -39.053 -38.566  1.00  0.00     0.011 A 
ATOM      4  C   UNL     1     -18.906 -38.374 -38.546  1.00  0.00     0.014 A 
ATOM      5  C   UNL     1     -18.928 -36.984 -38.766  1.00  0.00     0.011 A 
ATOM      6  C   UNL     1     -17.736 -36.291 -39.002  1.00  0.00     0.001 A 
ENDROOT
BRANCH   4   7
ATOM      7  C   UNL     1     -20.149 -39.125 -38.294  1.00  0.00     0.260 C 
ATOM      8  O   UNL     1     -21.136 -39.029 -39.071  1.00  0.00    -0.298 OA
ENDBRANCH   4   7
TORSDOF 1
ENDMDL
MODEL 7
REMARK VINA RESULT:    -3.326     22.288     23.170
REMARK INTER + INTRA:          -3.534
REMARK INTER:                  -3.520
REMARK INTRA:                  -0.014
REMARK UNBOUND:                -0.014
REMARK SMILES O=Cc1ccccc1
REMARK SMILES IDX 6 1 5 2 4 3 3 4 8 5 7 6 2 7 1 8
REMARK H PARENT
REMARK Flexibility Score: inf
ROOT
ATOM      1  C   UNL     1     -20.592 -38.080 -38.377  1.00  0.00     0.000 A 
ATOM      2  C   UNL     1     -20.143 -36.757 -38.379  1.00  0.00     0.001 A 
ATOM      3  C   UNL     1     -18.790 -36.476 -38.591  1.00  0.00     0.011 A 
ATOM      4  C   UNL     1     -17.874 -37.519 -38.804  1.00  0.00     0.014 A 
ATOM      5  C   UNL     1     -18.334 -38.850 -38.801  1.00  0.00     0.011 A 
ATOM      6  C   UNL     1     -19.688 -39.125 -38.588  1.00  0.00     0.001 A 
ENDROOT
BRANCH   4   7
ATOM      7  C   UNL     1     -16.451 -37.206 -39.027  1.00  0.00     0.260 C 
ATOM      8  O   UNL     1     -16.055 -36.013 -39.123  1.00  0.00    -0.298 OA
ENDBRANCH   4   7
TORSDOF 1
ENDMDL
MODEL 8
REMARK VINA RESULT:    -3.220      6.564      7.459
REMARK INTER + INTRA:          -3.422
REMARK INTER:                  -3.411
REMARK INTRA:                  -0.011
REMARK UNBOUND:                -0.014
REMARK SMILES O=Cc1ccccc1
REMARK SMILES IDX 6 1 5 2 4 3 3 4 8 5 7 6 2 7 1 8
REMARK H PARENT
REMARK Flexibility Score: inf
ROOT
ATOM      1  C   UNL     1     -31.875 -23.771 -39.125  1.00  0.00     0.000 A 
ATOM      2  C   UNL     1     -31.764 -24.492 -37.934  1.00  0.00     0.001 A 
ATOM      3  C   UNL     1     -32.024 -23.868 -36.710  1.00  0.00     0.011 A 
ATOM      4  C   UNL     1     -32.399 -22.515 -36.669  1.00  0.00     0.014 A 
ATOM      5  C   UNL     1     -32.509 -21.796 -37.874  1.00  0.00     0.011 A 
ATOM      6  C   UNL     1     -32.246 -22.425 -39.095  1.00  0.00     0.001 A 
ENDROOT
BRANCH   4   7
ATOM      7  C   UNL     1     -32.670 -21.872 -35.371  1.00  0.00     0.260 C 
ATOM      8  O   UNL     1     -31.871 -21.995 -34.405  1.00  0.00    -0.298 OA
ENDBRANCH   4   7
TORSDOF 1
ENDMDL
MODEL 9
REMARK VINA RESULT:    -1.879      3.026      3.632
REMARK INTER + INTRA:          -2.003
REMARK INTER:                  -1.994
REMARK INTRA:                  -0.009
REMARK UNBOUND:                -0.014
REMARK SMILES O=Cc1ccccc1
REMARK SMILES IDX 6 1 5 2 4 3 3 4 8 5 7 6 2 7 1 8
REMARK H PARENT
REMARK Flexibility Score: inf
ROOT
ATOM      1  C   UNL     1     -31.388 -19.625 -29.823  1.00  0.00     0.000 A 
ATOM      2  C   UNL     1     -30.771 -20.857 -30.053  1.00  0.00     0.001 A 
ATOM      3  C   UNL     1     -30.639 -21.342 -31.358  1.00  0.00     0.011 A 
ATOM      4  C   UNL     1     -31.122 -20.595 -32.445  1.00  0.00     0.014 A 
ATOM      5  C   UNL     1     -31.742 -19.355 -32.205  1.00  0.00     0.011 A 
ATOM      6  C   UNL     1     -31.873 -18.875 -30.897  1.00  0.00     0.001 A 
ENDROOT
BRANCH   4   7
ATOM      7  C   UNL     1     -30.974 -21.121 -33.813  1.00  0.00     0.260 C 
ATOM      8  O   UNL     1     -31.907 -21.759 -34.370  1.00  0.00    -0.298 OA
ENDBRANCH   4   7
TORSDOF 1
ENDMDL
