MODEL 1
REMARK VINA RESULT:    -5.270      0.000      0.000
REMARK INTER + INTRA:          -5.940
REMARK INTER:                  -5.886
REMARK INTRA:                  -0.053
REMARK UNBOUND:                -0.053
REMARK SMILES COc1cc2ccc(=O)oc2c(O)c1O
REMARK SMILES IDX 3 1 14 2 12 3 11 4 5 5 4 6 6 7 7 8 8 9 9 10 10 11 2 12 1 13
REMARK SMILES IDX 15 14 13 16
REMARK H PARENT 15 15 13 17
REMARK Flexibility Score: inf
ROOT
ATOM      1  C   UNL     1       7.626  -4.404 -10.594  1.00  0.00     0.165 A 
ATOM      2  C   UNL     1       7.229  -4.438  -9.246  1.00  0.00     0.204 A 
ATOM      3  C   UNL     1       7.950  -5.226  -8.314  1.00  0.00     0.205 A 
ATOM      4  C   UNL     1       9.058  -5.968  -8.746  1.00  0.00     0.184 A 
ATOM      5  C   UNL     1       9.453  -5.931 -10.100  1.00  0.00     0.025 A 
ATOM      6  C   UNL     1       8.739  -5.152 -11.016  1.00  0.00     0.062 A 
ATOM      7  C   UNL     1      10.563  -6.685 -10.493  1.00  0.00     0.020 A 
ATOM      8  C   UNL     1      11.245  -7.447  -9.546  1.00  0.00     0.094 A 
ATOM      9  C   UNL     1      10.798  -7.437  -8.221  1.00  0.00     0.336 A 
ATOM     10  O   UNL     1      11.399  -8.118  -7.350  1.00  0.00    -0.246 OA
ATOM     11  O   UNL     1       9.739  -6.710  -7.874  1.00  0.00    -0.419 OA
ENDROOT
BRANCH   1  12
ATOM     12  O   UNL     1       6.884  -3.610 -11.483  1.00  0.00    -0.493 OA
ATOM     13  C   UNL     1       7.362  -3.143 -12.741  1.00  0.00     0.278 C 
ENDBRANCH   1  12
BRANCH   2  14
ATOM     14  O   UNL     1       6.117  -3.677  -8.877  1.00  0.00    -0.502 OA
ATOM     15  H   UNL     1       6.159  -2.707  -8.599  1.00  0.00     0.293 HD
ENDBRANCH   2  14
BRANCH   3  16
ATOM     16  O   UNL     1       7.601  -5.298  -6.963  1.00  0.00    -0.502 OA
ATOM     17  H   UNL     1       8.251  -5.507  -6.219  1.00  0.00     0.293 HD
ENDBRANCH   3  16
TORSDOF 3
ENDMDL
MODEL 2
REMARK VINA RESULT:    -5.262      3.773      4.900
REMARK INTER + INTRA:          -5.930
REMARK INTER:                  -5.867
REMARK INTRA:                  -0.063
REMARK UNBOUND:                -0.053
REMARK SMILES COc1cc2ccc(=O)oc2c(O)c1O
REMARK SMILES IDX 3 1 14 2 12 3 11 4 5 5 4 6 6 7 7 8 8 9 9 10 10 11 2 12 1 13
REMARK SMILES IDX 15 14 13 16
REMARK H PARENT 15 15 13 17
REMARK Flexibility Score: inf
ROOT
ATOM      1  C   UNL     1       8.565  -6.036  -5.585  1.00  0.00     0.165 A 
ATOM      2  C   UNL     1       9.750  -5.646  -6.233  1.00  0.00     0.204 A 
ATOM      3  C   UNL     1      10.220  -6.378  -7.353  1.00  0.00     0.205 A 
ATOM      4  C   UNL     1       9.496  -7.488  -7.807  1.00  0.00     0.184 A 
ATOM      5  C   UNL     1       8.307  -7.876  -7.155  1.00  0.00     0.025 A 
ATOM      6  C   UNL     1       7.847  -7.152  -6.051  1.00  0.00     0.062 A 
ATOM      7  C   UNL     1       7.612  -8.989  -7.637  1.00  0.00     0.020 A 
ATOM      8  C   UNL     1       8.107  -9.682  -8.741  1.00  0.00     0.094 A 
ATOM      9  C   UNL     1       9.292  -9.241  -9.338  1.00  0.00     0.336 A 
ATOM     10  O   UNL     1       9.757  -9.852 -10.336  1.00  0.00    -0.246 OA
ATOM     11  O   UNL     1       9.933  -8.179  -8.859  1.00  0.00    -0.419 OA
ENDROOT
BRANCH   1  12
ATOM     12  O   UNL     1       8.135  -5.283  -4.480  1.00  0.00    -0.493 OA
ATOM     13  C   UNL     1       8.347  -5.651  -3.120  1.00  0.00     0.278 C 
ENDBRANCH   1  12
BRANCH   2  14
ATOM     14  O   UNL     1      10.428  -4.531  -5.733  1.00  0.00    -0.502 OA
ATOM     15  H   UNL     1      11.346  -4.242  -6.035  1.00  0.00     0.293 HD
ENDBRANCH   2  14
BRANCH   3  16
ATOM     16  O   UNL     1      11.391  -6.037  -8.035  1.00  0.00    -0.502 OA
ATOM     17  H   UNL     1      12.321  -6.254  -7.709  1.00  0.00     0.293 HD
ENDBRANCH   3  16
TORSDOF 3
ENDMDL
MODEL 3
REMARK VINA RESULT:    -5.130      3.143      4.513
REMARK INTER + INTRA:          -5.784
REMARK INTER:                  -5.793
REMARK INTRA:                   0.009
REMARK UNBOUND:                -0.053
REMARK SMILES COc1cc2ccc(=O)oc2c(O)c1O
REMARK SMILES IDX 3 1 14 2 12 3 11 4 5 5 4 6 6 7 7 8 8 9 9 10 10 11 2 12 1 13
REMARK SMILES IDX 15 14 13 16
REMARK H PARENT 15 15 13 17
REMARK Flexibility Score: inf
ROOT
ATOM      1  C   UNL     1       8.499  -6.065  -6.517  1.00  0.00     0.165 A 
ATOM      2  C   UNL     1       9.810  -5.723  -6.890  1.00  0.00     0.204 A 
ATOM      3  C   UNL     1      10.369  -6.252  -8.080  1.00  0.00     0.205 A 
ATOM      4  C   UNL     1       9.607  -7.116  -8.879  1.00  0.00     0.184 A 
ATOM      5  C   UNL     1       8.291  -7.456  -8.500  1.00  0.00     0.025 A 
ATOM      6  C   UNL     1       7.743  -6.932  -7.326  1.00  0.00     0.062 A 
ATOM      7  C   UNL     1       7.562  -8.321  -9.322  1.00  0.00     0.020 A 
ATOM      8  C   UNL     1       8.148  -8.820 -10.485  1.00  0.00     0.094 A 
ATOM      9  C   UNL     1       9.456  -8.440 -10.798  1.00  0.00     0.336 A 
ATOM     10  O   UNL     1      10.005  -8.879 -11.843  1.00  0.00    -0.246 OA
ATOM     11  O   UNL     1      10.128  -7.616  -9.998  1.00  0.00    -0.419 OA
ENDROOT
BRANCH   1  12
ATOM     12  O   UNL     1       7.983  -5.518  -5.331  1.00  0.00    -0.493 OA
ATOM     13  C   UNL     1       8.186  -6.067  -4.032  1.00  0.00     0.278 C 
ENDBRANCH   1  12
BRANCH   2  14
ATOM     14  O   UNL     1      10.519  -4.858  -6.053  1.00  0.00    -0.502 OA
ATOM     15  H   UNL     1      11.283  -5.144  -5.458  1.00  0.00     0.293 HD
ENDBRANCH   2  14
BRANCH   3  16
ATOM     16  O   UNL     1      11.667  -5.948  -8.501  1.00  0.00    -0.502 OA
ATOM     17  H   UNL     1      12.422  -5.700  -7.878  1.00  0.00     0.293 HD
ENDBRANCH   3  16
TORSDOF 3
ENDMDL
MODEL 4
REMARK VINA RESULT:    -5.010      3.595      4.685
REMARK INTER + INTRA:          -5.649
REMARK INTER:                  -5.593
REMARK INTRA:                  -0.056
REMARK UNBOUND:                -0.053
REMARK SMILES COc1cc2ccc(=O)oc2c(O)c1O
REMARK SMILES IDX 3 1 14 2 12 3 11 4 5 5 4 6 6 7 7 8 8 9 9 10 10 11 2 12 1 13
REMARK SMILES IDX 15 14 13 16
REMARK H PARENT 15 15 13 17
REMARK Flexibility Score: inf
ROOT
ATOM      1  C   UNL     1      11.440  -7.715  -9.962  1.00  0.00     0.165 A 
ATOM      2  C   UNL     1      11.493  -6.622  -9.079  1.00  0.00     0.204 A 
ATOM      3  C   UNL     1      10.591  -6.547  -7.989  1.00  0.00     0.205 A 
ATOM      4  C   UNL     1       9.649  -7.567  -7.799  1.00  0.00     0.184 A 
ATOM      5  C   UNL     1       9.599  -8.662  -8.686  1.00  0.00     0.025 A 
ATOM      6  C   UNL     1      10.490  -8.733  -9.760  1.00  0.00     0.062 A 
ATOM      7  C   UNL     1       8.645  -9.659  -8.464  1.00  0.00     0.020 A 
ATOM      8  C   UNL     1       7.775  -9.548  -7.380  1.00  0.00     0.094 A 
ATOM      9  C   UNL     1       7.881  -8.435  -6.541  1.00  0.00     0.336 A 
ATOM     10  O   UNL     1       7.105  -8.314  -5.556  1.00  0.00    -0.246 OA
ATOM     11  O   UNL     1       8.798  -7.500  -6.775  1.00  0.00    -0.419 OA
ENDROOT
BRANCH   1  12
ATOM     12  O   UNL     1      12.353  -7.751 -11.028  1.00  0.00    -0.493 OA
ATOM     13  C   UNL     1      12.903  -8.943 -11.581  1.00  0.00     0.278 C 
ENDBRANCH   1  12
BRANCH   2  14
ATOM     14  O   UNL     1      12.454  -5.638  -9.322  1.00  0.00    -0.502 OA
ATOM     15  H   UNL     1      12.870  -5.461 -10.225  1.00  0.00     0.293 HD
ENDBRANCH   2  14
BRANCH   3  16
ATOM     16  O   UNL     1      10.597  -5.484  -7.081  1.00  0.00    -0.502 OA
ATOM     17  H   UNL     1      10.804  -5.579  -6.098  1.00  0.00     0.293 HD
ENDBRANCH   3  16
TORSDOF 3
ENDMDL
MODEL 5
REMARK VINA RESULT:    -4.980      2.603      4.067
REMARK INTER + INTRA:          -5.616
REMARK INTER:                  -5.546
REMARK INTRA:                  -0.070
REMARK UNBOUND:                -0.053
REMARK SMILES COc1cc2ccc(=O)oc2c(O)c1O
REMARK SMILES IDX 3 1 14 2 12 3 11 4 5 5 4 6 6 7 7 8 8 9 9 10 10 11 2 12 1 13
REMARK SMILES IDX 15 14 13 16
REMARK H PARENT 15 15 13 17
REMARK Flexibility Score: inf
ROOT
ATOM      1  C   UNL     1       9.558  -7.006 -11.377  1.00  0.00     0.165 A 
ATOM      2  C   UNL     1      10.821  -6.643 -10.879  1.00  0.00     0.204 A 
ATOM      3  C   UNL     1      10.954  -6.197  -9.541  1.00  0.00     0.205 A 
ATOM      4  C   UNL     1       9.820  -6.122  -8.720  1.00  0.00     0.184 A 
ATOM      5  C   UNL     1       8.554  -6.488  -9.223  1.00  0.00     0.025 A 
ATOM      6  C   UNL     1       8.427  -6.927 -10.544  1.00  0.00     0.062 A 
ATOM      7  C   UNL     1       7.446  -6.399  -8.375  1.00  0.00     0.020 A 
ATOM      8  C   UNL     1       7.619  -5.955  -7.065  1.00  0.00     0.094 A 
ATOM      9  C   UNL     1       8.903  -5.609  -6.633  1.00  0.00     0.336 A 
ATOM     10  O   UNL     1       9.082  -5.205  -5.454  1.00  0.00    -0.246 OA
ATOM     11  O   UNL     1       9.940  -5.703  -7.461  1.00  0.00    -0.419 OA
ENDROOT
BRANCH   1  12
ATOM     12  O   UNL     1       9.470  -7.444 -12.709  1.00  0.00    -0.493 OA
ATOM     13  C   UNL     1       9.256  -8.796 -13.103  1.00  0.00     0.278 C 
ENDBRANCH   1  12
BRANCH   2  14
ATOM     14  O   UNL     1      11.913  -6.739 -11.746  1.00  0.00    -0.502 OA
ATOM     15  H   UNL     1      12.821  -7.089 -11.478  1.00  0.00     0.293 HD
ENDBRANCH   2  14
BRANCH   3  16
ATOM     16  O   UNL     1      12.184  -5.822  -8.993  1.00  0.00    -0.502 OA
ATOM     17  H   UNL     1      12.507  -6.103  -8.079  1.00  0.00     0.293 HD
ENDBRANCH   3  16
TORSDOF 3
ENDMDL
MODEL 6
REMARK VINA RESULT:    -4.957     15.257     16.536
REMARK INTER + INTRA:          -5.590
REMARK INTER:                  -5.522
REMARK INTRA:                  -0.068
REMARK UNBOUND:                -0.053
REMARK SMILES COc1cc2ccc(=O)oc2c(O)c1O
REMARK SMILES IDX 3 1 14 2 12 3 11 4 5 5 4 6 6 7 7 8 8 9 9 10 10 11 2 12 1 13
REMARK SMILES IDX 15 14 13 16
REMARK H PARENT 15 15 13 17
REMARK Flexibility Score: inf
ROOT
ATOM      1  C   UNL     1      19.052  -0.719 -17.788  1.00  0.00     0.165 A 
ATOM      2  C   UNL     1      20.200   0.032 -17.484  1.00  0.00     0.204 A 
ATOM      3  C   UNL     1      21.106   0.391 -18.513  1.00  0.00     0.205 A 
ATOM      4  C   UNL     1      20.848  -0.006 -19.832  1.00  0.00     0.184 A 
ATOM      5  C   UNL     1      19.694  -0.759 -20.133  1.00  0.00     0.025 A 
ATOM      6  C   UNL     1      18.803  -1.112 -19.115  1.00  0.00     0.062 A 
ATOM      7  C   UNL     1      19.471  -1.138 -21.461  1.00  0.00     0.020 A 
ATOM      8  C   UNL     1      20.386  -0.765 -22.444  1.00  0.00     0.094 A 
ATOM      9  C   UNL     1      21.508  -0.018 -22.073  1.00  0.00     0.336 A 
ATOM     10  O   UNL     1      22.348   0.329 -22.945  1.00  0.00    -0.246 OA
ATOM     11  O   UNL     1      21.696   0.329 -20.803  1.00  0.00    -0.419 OA
ENDROOT
BRANCH   1  12
ATOM     12  O   UNL     1      18.180  -1.053 -16.739  1.00  0.00    -0.493 OA
ATOM     13  C   UNL     1      18.117  -2.333 -16.117  1.00  0.00     0.278 C 
ENDBRANCH   1  12
BRANCH   2  14
ATOM     14  O   UNL     1      20.402   0.398 -16.150  1.00  0.00    -0.502 OA
ATOM     15  H   UNL     1      21.236   0.852 -15.806  1.00  0.00     0.293 HD
ENDBRANCH   2  14
BRANCH   3  16
ATOM     16  O   UNL     1      22.263   1.136 -18.269  1.00  0.00    -0.502 OA
ATOM     17  H   UNL     1      22.621   1.345 -17.348  1.00  0.00     0.293 HD
ENDBRANCH   3  16
TORSDOF 3
ENDMDL
MODEL 7
REMARK VINA RESULT:    -4.895      2.208      3.199
REMARK INTER + INTRA:          -5.521
REMARK INTER:                  -5.468
REMARK INTRA:                  -0.053
REMARK UNBOUND:                -0.053
REMARK SMILES COc1cc2ccc(=O)oc2c(O)c1O
REMARK SMILES IDX 3 1 14 2 12 3 11 4 5 5 4 6 6 7 7 8 8 9 9 10 10 11 2 12 1 13
REMARK SMILES IDX 15 14 13 16
REMARK H PARENT 15 15 13 17
REMARK Flexibility Score: inf
ROOT
ATOM      1  C   UNL     1       7.877  -5.214 -11.737  1.00  0.00     0.165 A 
ATOM      2  C   UNL     1       8.081  -6.569 -12.054  1.00  0.00     0.204 A 
ATOM      3  C   UNL     1       8.279  -7.516 -11.019  1.00  0.00     0.205 A 
ATOM      4  C   UNL     1       8.270  -7.095  -9.683  1.00  0.00     0.184 A 
ATOM      5  C   UNL     1       8.065  -5.735  -9.369  1.00  0.00     0.025 A 
ATOM      6  C   UNL     1       7.869  -4.802 -10.393  1.00  0.00     0.062 A 
ATOM      7  C   UNL     1       8.062  -5.352  -8.025  1.00  0.00     0.020 A 
ATOM      8  C   UNL     1       8.261  -6.315  -7.036  1.00  0.00     0.094 A 
ATOM      9  C   UNL     1       8.458  -7.645  -7.420  1.00  0.00     0.336 A 
ATOM     10  O   UNL     1       8.639  -8.531  -6.544  1.00  0.00    -0.246 OA
ATOM     11  O   UNL     1       8.455  -7.982  -8.707  1.00  0.00    -0.419 OA
ENDROOT
BRANCH   1  12
ATOM     12  O   UNL     1       7.684  -4.308 -12.793  1.00  0.00    -0.493 OA
ATOM     13  C   UNL     1       7.215  -2.973 -12.636  1.00  0.00     0.278 C 
ENDBRANCH   1  12
BRANCH   2  14
ATOM     14  O   UNL     1       8.080  -6.927 -13.404  1.00  0.00    -0.502 OA
ATOM     15  H   UNL     1       8.914  -7.099 -13.947  1.00  0.00     0.293 HD
ENDBRANCH   2  14
BRANCH   3  16
ATOM     16  O   UNL     1       8.487  -8.875 -11.275  1.00  0.00    -0.502 OA
ATOM     17  H   UNL     1       7.746  -9.555 -11.366  1.00  0.00     0.293 HD
ENDBRANCH   3  16
TORSDOF 3
ENDMDL
MODEL 8
REMARK VINA RESULT:    -4.838      2.464      4.853
REMARK INTER + INTRA:          -5.457
REMARK INTER:                  -5.401
REMARK INTRA:                  -0.057
REMARK UNBOUND:                -0.053
REMARK SMILES COc1cc2ccc(=O)oc2c(O)c1O
REMARK SMILES IDX 3 1 14 2 12 3 11 4 5 5 4 6 6 7 7 8 8 9 9 10 10 11 2 12 1 13
REMARK SMILES IDX 15 14 13 16
REMARK H PARENT 15 15 13 17
REMARK Flexibility Score: inf
ROOT
ATOM      1  C   UNL     1       8.095  -6.648  -6.823  1.00  0.00     0.165 A 
ATOM      2  C   UNL     1       8.364  -7.931  -7.328  1.00  0.00     0.204 A 
ATOM      3  C   UNL     1       8.439  -8.141  -8.728  1.00  0.00     0.205 A 
ATOM      4  C   UNL     1       8.244  -7.062  -9.600  1.00  0.00     0.184 A 
ATOM      5  C   UNL     1       7.975  -5.775  -9.090  1.00  0.00     0.025 A 
ATOM      6  C   UNL     1       7.902  -5.572  -7.708  1.00  0.00     0.062 A 
ATOM      7  C   UNL     1       7.786  -4.724  -9.992  1.00  0.00     0.020 A 
ATOM      8  C   UNL     1       7.868  -4.972 -11.361  1.00  0.00     0.094 A 
ATOM      9  C   UNL     1       8.138  -6.272 -11.797  1.00  0.00     0.336 A 
ATOM     10  O   UNL     1       8.216  -6.518 -13.030  1.00  0.00    -0.246 OA
ATOM     11  O   UNL     1       8.313  -7.254 -10.917  1.00  0.00    -0.419 OA
ENDROOT
BRANCH   1  12
ATOM     12  O   UNL     1       8.030  -6.484  -5.430  1.00  0.00    -0.493 OA
ATOM     13  C   UNL     1       8.460  -5.319  -4.732  1.00  0.00     0.278 C 
ENDBRANCH   1  12
BRANCH   2  14
ATOM     14  O   UNL     1       8.548  -8.966  -6.407  1.00  0.00    -0.502 OA
ATOM     15  H   UNL     1       8.821  -9.906  -6.656  1.00  0.00     0.293 HD
ENDBRANCH   2  14
BRANCH   3  16
ATOM     16  O   UNL     1       8.702  -9.395  -9.286  1.00  0.00    -0.502 OA
ATOM     17  H   UNL     1       8.405 -10.271  -8.881  1.00  0.00     0.293 HD
ENDBRANCH   3  16
TORSDOF 3
ENDMDL
MODEL 9
REMARK VINA RESULT:    -4.768     11.045     11.589
REMARK INTER + INTRA:          -5.379
REMARK INTER:                  -5.325
REMARK INTRA:                  -0.054
REMARK UNBOUND:                -0.053
REMARK SMILES COc1cc2ccc(=O)oc2c(O)c1O
REMARK SMILES IDX 3 1 14 2 12 3 11 4 5 5 4 6 6 7 7 8 8 9 9 10 10 11 2 12 1 13
REMARK SMILES IDX 15 14 13 16
REMARK H PARENT 15 15 13 17
REMARK Flexibility Score: inf
ROOT
ATOM      1  C   UNL     1      12.745   3.619  -4.479  1.00  0.00     0.165 A 
ATOM      2  C   UNL     1      12.213   2.794  -5.485  1.00  0.00     0.204 A 
ATOM      3  C   UNL     1      12.858   2.706  -6.744  1.00  0.00     0.205 A 
ATOM      4  C   UNL     1      14.025   3.445  -6.977  1.00  0.00     0.184 A 
ATOM      5  C   UNL     1      14.556   4.272  -5.965  1.00  0.00     0.025 A 
ATOM      6  C   UNL     1      13.917   4.356  -4.724  1.00  0.00     0.062 A 
ATOM      7  C   UNL     1      15.722   4.994  -6.235  1.00  0.00     0.020 A 
ATOM      8  C   UNL     1      16.325   4.881  -7.487  1.00  0.00     0.094 A 
ATOM      9  C   UNL     1      15.744   4.042  -8.443  1.00  0.00     0.336 A 
ATOM     10  O   UNL     1      16.273   3.925  -9.579  1.00  0.00    -0.246 OA
ATOM     11  O   UNL     1      14.634   3.366  -8.159  1.00  0.00    -0.419 OA
ENDROOT
BRANCH   1  12
ATOM     12  O   UNL     1      12.075   3.676  -3.246  1.00  0.00    -0.493 OA
ATOM     13  C   UNL     1      11.132   4.681  -2.884  1.00  0.00     0.278 C 
ENDBRANCH   1  12
BRANCH   2  14
ATOM     14  O   UNL     1      11.047   2.082  -5.192  1.00  0.00    -0.502 OA
ATOM     15  H   UNL     1      10.223   2.078  -5.775  1.00  0.00     0.293 HD
ENDBRANCH   2  14
BRANCH   3  16
ATOM     16  O   UNL     1      12.374   1.903  -7.781  1.00  0.00    -0.502 OA
ATOM     17  H   UNL     1      11.424   1.567  -7.843  1.00  0.00     0.293 HD
ENDBRANCH   3  16
TORSDOF 3
ENDMDL
