MODEL 1
REMARK VINA RESULT:    -3.952      0.000      0.000
REMARK INTER + INTRA:          -6.226
REMARK INTER:                  -5.570
REMARK INTRA:                  -0.656
REMARK UNBOUND:                -0.656
REMARK SMILES CCCCCCCCC(=O)[O-]
REMARK SMILES IDX 6 1 7 2 8 3 9 4 10 5 11 6 5 7 4 8 3 9 2 10 1 11
REMARK H PARENT
REMARK Flexibility Score: inf
ROOT
ATOM      1  C   UNL     1      27.379   6.307   8.556  1.00  0.00     0.000 C 
ENDROOT
BRANCH   1   2
ATOM      2  C   UNL     1      27.765   7.741   8.969  1.00  0.00     0.006 C 
BRANCH   2   3
ATOM      3  C   UNL     1      27.209   8.838   8.045  1.00  0.00     0.053 C 
BRANCH   3   4
ATOM      4  C   UNL     1      26.139   9.643   8.714  1.00  0.00     0.041 C 
ATOM      5  O   UNL     1      25.812  10.768   8.253  1.00  0.00    -0.550 OA
ATOM      6  O   UNL     1      25.526   9.168   9.867  1.00  0.00    -0.550 OA
ENDBRANCH   3   4
ENDBRANCH   2   3
ENDBRANCH   1   2
BRANCH   1   7
ATOM      7  C   UNL     1      27.748   5.919   7.109  1.00  0.00     0.000 C 
BRANCH   7   8
ATOM      8  C   UNL     1      26.593   5.339   6.275  1.00  0.00    -0.000 C 
BRANCH   8   9
ATOM      9  C   UNL     1      25.769   6.421   5.562  1.00  0.00    -0.000 C 
BRANCH   9  10
ATOM     10  C   UNL     1      24.508   6.767   6.364  1.00  0.00    -0.003 C 
ATOM     11  C   UNL     1      23.886   8.072   5.878  1.00  0.00     0.004 C 
ENDBRANCH   9  10
ENDBRANCH   8   9
ENDBRANCH   7   8
ENDBRANCH   1   7
TORSDOF 7
ENDMDL
MODEL 2
REMARK VINA RESULT:    -3.896      2.081      3.919
REMARK INTER + INTRA:          -6.146
REMARK INTER:                  -5.546
REMARK INTRA:                  -0.601
REMARK UNBOUND:                -0.656
REMARK SMILES CCCCCCCCC(=O)[O-]
REMARK SMILES IDX 6 1 7 2 8 3 9 4 10 5 11 6 5 7 4 8 3 9 2 10 1 11
REMARK H PARENT
REMARK Flexibility Score: inf
ROOT
ATOM      1  C   UNL     1      27.315   5.432   6.577  1.00  0.00     0.000 C 
ENDROOT
BRANCH   1   2
ATOM      2  C   UNL     1      26.109   6.087   5.875  1.00  0.00     0.006 C 
BRANCH   2   3
ATOM      3  C   UNL     1      25.116   6.773   6.827  1.00  0.00     0.053 C 
BRANCH   3   4
ATOM      4  C   UNL     1      24.059   7.528   6.083  1.00  0.00     0.041 C 
ATOM      5  O   UNL     1      22.867   7.121   6.089  1.00  0.00    -0.550 OA
ATOM      6  O   UNL     1      24.394   8.663   5.355  1.00  0.00    -0.550 OA
ENDBRANCH   3   4
ENDBRANCH   2   3
ENDBRANCH   1   2
BRANCH   1   7
ATOM      7  C   UNL     1      28.069   6.342   7.569  1.00  0.00     0.000 C 
BRANCH   7   8
ATOM      8  C   UNL     1      28.107   5.834   9.021  1.00  0.00    -0.000 C 
BRANCH   8   9
ATOM      9  C   UNL     1      27.549   6.853  10.025  1.00  0.00    -0.000 C 
BRANCH   9  10
ATOM     10  C   UNL     1      27.516   8.260   9.416  1.00  0.00    -0.003 C 
ATOM     11  C   UNL     1      26.171   8.937   9.664  1.00  0.00     0.004 C 
ENDBRANCH   9  10
ENDBRANCH   8   9
ENDBRANCH   7   8
ENDBRANCH   1   7
TORSDOF 7
ENDMDL
MODEL 3
REMARK VINA RESULT:    -3.796      1.226      3.033
REMARK INTER + INTRA:          -6.006
REMARK INTER:                  -5.684
REMARK INTRA:                  -0.323
REMARK UNBOUND:                -0.656
REMARK SMILES CCCCCCCCC(=O)[O-]
REMARK SMILES IDX 6 1 7 2 8 3 9 4 10 5 11 6 5 7 4 8 3 9 2 10 1 11
REMARK H PARENT
REMARK Flexibility Score: inf
ROOT
ATOM      1  C   UNL     1      24.622   7.073   6.232  1.00  0.00     0.000 C 
ENDROOT
BRANCH   1   2
ATOM      2  C   UNL     1      24.822   8.495   6.794  1.00  0.00     0.006 C 
BRANCH   2   3
ATOM      3  C   UNL     1      26.091   8.668   7.646  1.00  0.00     0.053 C 
BRANCH   3   4
ATOM      4  C   UNL     1      25.898   9.671   8.740  1.00  0.00     0.041 C 
ATOM      5  O   UNL     1      26.067  10.898   8.511  1.00  0.00    -0.550 OA
ATOM      6  O   UNL     1      25.563   9.251  10.021  1.00  0.00    -0.550 OA
ENDBRANCH   3   4
ENDBRANCH   2   3
ENDBRANCH   1   2
BRANCH   1   7
ATOM      7  C   UNL     1      25.552   5.996   6.828  1.00  0.00     0.000 C 
BRANCH   7   8
ATOM      8  C   UNL     1      26.717   5.566   5.919  1.00  0.00    -0.000 C 
BRANCH   8   9
ATOM      9  C   UNL     1      28.029   5.356   6.688  1.00  0.00    -0.000 C 
BRANCH   9  10
ATOM     10  C   UNL     1      27.833   4.371   7.847  1.00  0.00    -0.003 C 
ATOM     11  C   UNL     1      27.414   2.995   7.338  1.00  0.00     0.004 C 
ENDBRANCH   9  10
ENDBRANCH   8   9
ENDBRANCH   7   8
ENDBRANCH   1   7
TORSDOF 7
ENDMDL
MODEL 4
REMARK VINA RESULT:    -3.788     11.996     13.956
REMARK INTER + INTRA:          -5.995
REMARK INTER:                  -5.748
REMARK INTRA:                  -0.246
REMARK UNBOUND:                -0.656
REMARK SMILES CCCCCCCCC(=O)[O-]
REMARK SMILES IDX 6 1 7 2 8 3 9 4 10 5 11 6 5 7 4 8 3 9 2 10 1 11
REMARK H PARENT
REMARK Flexibility Score: inf
ROOT
ATOM      1  C   UNL     1      15.006   2.999   2.534  1.00  0.00     0.000 C 
ENDROOT
BRANCH   1   2
ATOM      2  C   UNL     1      15.068   2.617   1.041  1.00  0.00     0.006 C 
BRANCH   2   3
ATOM      3  C   UNL     1      15.460   3.773   0.106  1.00  0.00     0.053 C 
BRANCH   3   4
ATOM      4  C   UNL     1      15.357   3.386  -1.336  1.00  0.00     0.041 C 
ATOM      5  O   UNL     1      16.007   2.400  -1.775  1.00  0.00    -0.550 OA
ATOM      6  O   UNL     1      14.570   4.132  -2.205  1.00  0.00    -0.550 OA
ENDBRANCH   3   4
ENDBRANCH   2   3
ENDBRANCH   1   2
BRANCH   1   7
ATOM      7  C   UNL     1      15.357   1.861   3.516  1.00  0.00     0.000 C 
BRANCH   7   8
ATOM      8  C   UNL     1      14.390   1.704   4.703  1.00  0.00    -0.000 C 
BRANCH   8   9
ATOM      9  C   UNL     1      15.098   1.781   6.063  1.00  0.00    -0.000 C 
BRANCH   9  10
ATOM     10  C   UNL     1      16.511   2.359   5.915  1.00  0.00    -0.003 C 
ATOM     11  C   UNL     1      17.542   1.484   6.621  1.00  0.00     0.004 C 
ENDBRANCH   9  10
ENDBRANCH   8   9
ENDBRANCH   7   8
ENDBRANCH   1   7
TORSDOF 7
ENDMDL
MODEL 5
REMARK VINA RESULT:    -3.755     14.556     15.942
REMARK INTER + INTRA:          -5.948
REMARK INTER:                  -5.098
REMARK INTRA:                  -0.850
REMARK UNBOUND:                -0.656
REMARK SMILES CCCCCCCCC(=O)[O-]
REMARK SMILES IDX 6 1 7 2 8 3 9 4 10 5 11 6 5 7 4 8 3 9 2 10 1 11
REMARK H PARENT
REMARK Flexibility Score: inf
ROOT
ATOM      1  C   UNL     1      14.968   3.486  -1.657  1.00  0.00     0.000 C 
ENDROOT
BRANCH   1   2
ATOM      2  C   UNL     1      14.577   1.997  -1.737  1.00  0.00     0.006 C 
BRANCH   2   3
ATOM      3  C   UNL     1      13.097   1.746  -2.070  1.00  0.00     0.053 C 
BRANCH   3   4
ATOM      4  C   UNL     1      12.188   2.260  -0.998  1.00  0.00     0.041 C 
ATOM      5  O   UNL     1      12.057   1.623   0.080  1.00  0.00    -0.550 OA
ATOM      6  O   UNL     1      11.458   3.425  -1.201  1.00  0.00    -0.550 OA
ENDBRANCH   3   4
ENDBRANCH   2   3
ENDBRANCH   1   2
BRANCH   1   7
ATOM      7  C   UNL     1      15.555   3.938  -0.303  1.00  0.00     0.000 C 
BRANCH   7   8
ATOM      8  C   UNL     1      15.415   2.918   0.841  1.00  0.00    -0.000 C 
BRANCH   8   9
ATOM      9  C   UNL     1      14.477   3.398   1.957  1.00  0.00    -0.000 C 
BRANCH   9  10
ATOM     10  C   UNL     1      13.797   4.718   1.573  1.00  0.00    -0.003 C 
ATOM     11  C   UNL     1      12.326   4.720   1.979  1.00  0.00     0.004 C 
ENDBRANCH   9  10
ENDBRANCH   8   9
ENDBRANCH   7   8
ENDBRANCH   1   7
TORSDOF 7
ENDMDL
MODEL 6
REMARK VINA RESULT:    -3.690     14.521     16.095
REMARK INTER + INTRA:          -5.856
REMARK INTER:                  -5.249
REMARK INTRA:                  -0.608
REMARK UNBOUND:                -0.656
REMARK SMILES CCCCCCCCC(=O)[O-]
REMARK SMILES IDX 6 1 7 2 8 3 9 4 10 5 11 6 5 7 4 8 3 9 2 10 1 11
REMARK H PARENT
REMARK Flexibility Score: inf
ROOT
ATOM      1  C   UNL     1      14.500   3.637  -1.774  1.00  0.00     0.000 C 
ENDROOT
BRANCH   1   2
ATOM      2  C   UNL     1      13.317   2.680  -1.524  1.00  0.00     0.006 C 
BRANCH   2   3
ATOM      3  C   UNL     1      13.213   1.522  -2.529  1.00  0.00     0.053 C 
BRANCH   3   4
ATOM      4  C   UNL     1      14.113   0.382  -2.164  1.00  0.00     0.041 C 
ATOM      5  O   UNL     1      15.005  -0.002  -2.966  1.00  0.00    -0.550 OA
ATOM      6  O   UNL     1      13.945  -0.279  -0.953  1.00  0.00    -0.550 OA
ENDBRANCH   3   4
ENDBRANCH   2   3
ENDBRANCH   1   2
BRANCH   1   7
ATOM      7  C   UNL     1      15.508   3.751  -0.611  1.00  0.00     0.000 C 
BRANCH   7   8
ATOM      8  C   UNL     1      15.296   2.747   0.536  1.00  0.00    -0.000 C 
BRANCH   8   9
ATOM      9  C   UNL     1      14.839   3.417   1.840  1.00  0.00    -0.000 C 
BRANCH   9  10
ATOM     10  C   UNL     1      14.051   4.700   1.549  1.00  0.00    -0.003 C 
ATOM     11  C   UNL     1      12.581   4.542   1.929  1.00  0.00     0.004 C 
ENDBRANCH   9  10
ENDBRANCH   8   9
ENDBRANCH   7   8
ENDBRANCH   1   7
TORSDOF 7
ENDMDL
MODEL 7
REMARK VINA RESULT:    -3.686     14.339     16.070
REMARK INTER + INTRA:          -5.851
REMARK INTER:                  -5.110
REMARK INTRA:                  -0.741
REMARK UNBOUND:                -0.656
REMARK SMILES CCCCCCCCC(=O)[O-]
REMARK SMILES IDX 6 1 7 2 8 3 9 4 10 5 11 6 5 7 4 8 3 9 2 10 1 11
REMARK H PARENT
REMARK Flexibility Score: inf
ROOT
ATOM      1  C   UNL     1      15.604  17.241   1.815  1.00  0.00     0.000 C 
ENDROOT
BRANCH   1   2
ATOM      2  C   UNL     1      15.984  18.721   1.612  1.00  0.00     0.006 C 
BRANCH   2   3
ATOM      3  C   UNL     1      17.367  18.939   0.976  1.00  0.00     0.053 C 
BRANCH   3   4
ATOM      4  C   UNL     1      18.315  17.828   1.305  1.00  0.00     0.041 C 
ATOM      5  O   UNL     1      18.888  17.795   2.425  1.00  0.00    -0.550 OA
ATOM      6  O   UNL     1      18.593  16.846   0.361  1.00  0.00    -0.550 OA
ENDBRANCH   3   4
ENDBRANCH   2   3
ENDBRANCH   1   2
BRANCH   1   7
ATOM      7  C   UNL     1      14.253  16.821   1.198  1.00  0.00     0.000 C 
BRANCH   7   8
ATOM      8  C   UNL     1      14.001  17.334  -0.230  1.00  0.00    -0.000 C 
BRANCH   8   9
ATOM      9  C   UNL     1      14.719  16.499  -1.300  1.00  0.00    -0.000 C 
BRANCH   9  10
ATOM     10  C   UNL     1      15.776  17.336  -2.031  1.00  0.00    -0.003 C 
ATOM     11  C   UNL     1      15.328  18.787  -2.176  1.00  0.00     0.004 C 
ENDBRANCH   9  10
ENDBRANCH   8   9
ENDBRANCH   7   8
ENDBRANCH   1   7
TORSDOF 7
ENDMDL
MODEL 8
REMARK VINA RESULT:    -3.682     14.231     15.402
REMARK INTER + INTRA:          -5.845
REMARK INTER:                  -5.108
REMARK INTRA:                  -0.737
REMARK UNBOUND:                -0.656
REMARK SMILES CCCCCCCCC(=O)[O-]
REMARK SMILES IDX 6 1 7 2 8 3 9 4 10 5 11 6 5 7 4 8 3 9 2 10 1 11
REMARK H PARENT
REMARK Flexibility Score: inf
ROOT
ATOM      1  C   UNL     1      15.381   2.713   0.828  1.00  0.00     0.000 C 
ENDROOT
BRANCH   1   2
ATOM      2  C   UNL     1      14.575   3.327   1.989  1.00  0.00     0.006 C 
BRANCH   2   3
ATOM      3  C   UNL     1      13.751   4.567   1.604  1.00  0.00     0.053 C 
BRANCH   3   4
ATOM      4  C   UNL     1      12.286   4.265   1.534  1.00  0.00     0.041 C 
ATOM      5  O   UNL     1      11.890   3.129   1.164  1.00  0.00    -0.550 OA
ATOM      6  O   UNL     1      11.355   5.250   1.845  1.00  0.00    -0.550 OA
ENDBRANCH   3   4
ENDBRANCH   2   3
ENDBRANCH   1   2
BRANCH   1   7
ATOM      7  C   UNL     1      15.686   3.675  -0.339  1.00  0.00     0.000 C 
BRANCH   7   8
ATOM      8  C   UNL     1      15.253   3.174  -1.728  1.00  0.00    -0.000 C 
BRANCH   8   9
ATOM      9  C   UNL     1      13.750   3.352  -1.986  1.00  0.00    -0.000 C 
BRANCH   9  10
ATOM     10  C   UNL     1      13.032   1.997  -2.000  1.00  0.00    -0.003 C 
ATOM     11  C   UNL     1      14.012   0.856  -2.254  1.00  0.00     0.004 C 
ENDBRANCH   9  10
ENDBRANCH   8   9
ENDBRANCH   7   8
ENDBRANCH   1   7
TORSDOF 7
ENDMDL
MODEL 9
REMARK VINA RESULT:    -2.651      1.499      2.103
REMARK INTER + INTRA:          -4.392
REMARK INTER:                  -3.858
REMARK INTRA:                  -0.534
REMARK UNBOUND:                -0.656
REMARK SMILES CCCCCCCCC(=O)[O-]
REMARK SMILES IDX 6 1 7 2 8 3 9 4 10 5 11 6 5 7 4 8 3 9 2 10 1 11
REMARK H PARENT
REMARK Flexibility Score: inf
ROOT
ATOM      1  C   UNL     1      26.845   4.695   7.175  1.00  0.00     0.000 C 
ENDROOT
BRANCH   1   2
ATOM      2  C   UNL     1      27.724   5.104   8.375  1.00  0.00     0.006 C 
BRANCH   2   3
ATOM      3  C   UNL     1      28.125   6.588   8.391  1.00  0.00     0.053 C 
BRANCH   3   4
ATOM      4  C   UNL     1      27.296   7.380   9.353  1.00  0.00     0.041 C 
ATOM      5  O   UNL     1      26.535   8.291   8.933  1.00  0.00    -0.550 OA
ATOM      6  O   UNL     1      27.389   7.138  10.719  1.00  0.00    -0.550 OA
ENDBRANCH   3   4
ENDBRANCH   2   3
ENDBRANCH   1   2
BRANCH   1   7
ATOM      7  C   UNL     1      27.033   5.549   5.904  1.00  0.00     0.000 C 
BRANCH   7   8
ATOM      8  C   UNL     1      25.844   6.458   5.548  1.00  0.00    -0.000 C 
BRANCH   8   9
ATOM      9  C   UNL     1      24.703   6.378   6.572  1.00  0.00    -0.000 C 
BRANCH   9  10
ATOM     10  C   UNL     1      23.503   7.220   6.124  1.00  0.00    -0.003 C 
ATOM     11  C   UNL     1      23.948   8.585   5.608  1.00  0.00     0.004 C 
ENDBRANCH   9  10
ENDBRANCH   8   9
ENDBRANCH   7   8
ENDBRANCH   1   7
TORSDOF 7
ENDMDL
