MODEL 1
REMARK VINA RESULT:    -5.925      0.000      0.000
REMARK INTER + INTRA:          -7.692
REMARK INTER:                  -7.310
REMARK INTRA:                  -0.382
REMARK UNBOUND:                -0.382
REMARK SMILES Oc1cc(O)c2cc(O)c(-c3cc(O)c(O)c(O)c3)[o+]c2c1
REMARK SMILES IDX 10 1 20 2 21 3 22 4 2 5 3 6 4 7 6 8 7 9 8 10 11 11 12 12
REMARK SMILES IDX 13 13 19 14 15 15 17 16 14 17 16 19 18 21 9 23 1 25 5 27
REMARK H PARENT 14 18 16 20 18 22 9 24 1 26 5 28
REMARK Flexibility Score: inf
ROOT
ATOM      1  C   UNL     1       6.995  10.687  35.811  1.00  0.00     0.402 A 
ATOM      2  O   UNL     1       8.089  10.509  36.546  1.00  0.00    -0.202 OA
ATOM      3  C   UNL     1       8.109  10.640  37.869  1.00  0.00     0.368 A 
ATOM      4  C   UNL     1       9.310  10.435  38.554  1.00  0.00     0.162 A 
ATOM      5  C   UNL     1       9.360  10.568  39.944  1.00  0.00     0.128 A 
ATOM      6  C   UNL     1       8.206  10.909  40.652  1.00  0.00     0.093 A 
ATOM      7  C   UNL     1       6.991  11.119  39.990  1.00  0.00     0.136 A 
ATOM      8  C   UNL     1       6.934  10.982  38.577  1.00  0.00     0.125 A 
ATOM      9  C   UNL     1       5.757  11.161  37.832  1.00  0.00     0.078 A 
ATOM     10  C   UNL     1       5.777  11.004  36.442  1.00  0.00     0.223 A 
ENDROOT
BRANCH   1  11
ATOM     11  C   UNL     1       7.102  10.523  34.343  1.00  0.00     0.091 A 
ATOM     12  C   UNL     1       7.289  11.628  33.495  1.00  0.00     0.068 A 
ATOM     13  C   UNL     1       7.411  11.450  32.110  1.00  0.00     0.162 A 
ATOM     14  C   UNL     1       7.073   9.235  33.790  1.00  0.00     0.068 A 
ATOM     15  C   UNL     1       7.358  10.157  31.562  1.00  0.00     0.200 A 
ATOM     16  C   UNL     1       7.191   9.047  32.408  1.00  0.00     0.162 A 
BRANCH  13  17
ATOM     17  O   UNL     1       7.590  12.553  31.278  1.00  0.00    -0.504 OA
ATOM     18  H   UNL     1       8.012  13.411  31.614  1.00  0.00     0.293 HD
ENDBRANCH  13  17
BRANCH  15  19
ATOM     19  O   UNL     1       7.472   9.962  30.185  1.00  0.00    -0.502 OA
ATOM     20  H   UNL     1       6.662   9.843  29.588  1.00  0.00     0.293 HD
ENDBRANCH  15  19
BRANCH  16  21
ATOM     21  O   UNL     1       7.142   7.751  31.896  1.00  0.00    -0.504 OA
ATOM     22  H   UNL     1       6.353   7.138  32.059  1.00  0.00     0.293 HD
ENDBRANCH  16  21
ENDBRANCH   1  11
BRANCH  10  23
ATOM     23  O   UNL     1       4.599  11.133  35.707  1.00  0.00    -0.500 OA
ATOM     24  H   UNL     1       4.598  11.492  34.760  1.00  0.00     0.294 HD
ENDBRANCH  10  23
BRANCH   5  25
ATOM     25  O   UNL     1      10.554  10.366  40.634  1.00  0.00    -0.507 OA
ATOM     26  H   UNL     1      10.714  10.775  41.548  1.00  0.00     0.293 HD
ENDBRANCH   5  25
BRANCH   7  27
ATOM     27  O   UNL     1       5.882  11.460  40.770  1.00  0.00    -0.507 OA
ATOM     28  H   UNL     1       5.580  12.406  40.951  1.00  0.00     0.293 HD
ENDBRANCH   7  27
TORSDOF 7
ENDMDL
MODEL 2
REMARK VINA RESULT:    -5.323      2.093      3.123
REMARK INTER + INTRA:          -6.949
REMARK INTER:                  -6.587
REMARK INTRA:                  -0.363
REMARK UNBOUND:                -0.382
REMARK SMILES Oc1cc(O)c2cc(O)c(-c3cc(O)c(O)c(O)c3)[o+]c2c1
REMARK SMILES IDX 10 1 20 2 21 3 22 4 2 5 3 6 4 7 6 8 7 9 8 10 11 11 12 12
REMARK SMILES IDX 13 13 19 14 15 15 17 16 14 17 16 19 18 21 9 23 1 25 5 27
REMARK H PARENT 14 18 16 20 18 22 9 24 1 26 5 28
REMARK Flexibility Score: inf
ROOT
ATOM      1  C   UNL     1       7.953  11.457  35.786  1.00  0.00     0.402 A 
ATOM      2  O   UNL     1       8.269  10.799  36.898  1.00  0.00    -0.202 OA
ATOM      3  C   UNL     1       9.033  11.310  37.857  1.00  0.00     0.368 A 
ATOM      4  C   UNL     1       9.311  10.538  38.989  1.00  0.00     0.162 A 
ATOM      5  C   UNL     1      10.115  11.050  40.011  1.00  0.00     0.128 A 
ATOM      6  C   UNL     1      10.644  12.337  39.901  1.00  0.00     0.093 A 
ATOM      7  C   UNL     1      10.381  13.130  38.779  1.00  0.00     0.136 A 
ATOM      8  C   UNL     1       9.563  12.617  37.738  1.00  0.00     0.125 A 
ATOM      9  C   UNL     1       9.235  13.345  36.583  1.00  0.00     0.078 A 
ATOM     10  C   UNL     1       8.418  12.773  35.602  1.00  0.00     0.223 A 
ENDROOT
BRANCH   1  11
ATOM     11  C   UNL     1       7.100  10.776  34.785  1.00  0.00     0.091 A 
ATOM     12  C   UNL     1       7.643   9.873  33.855  1.00  0.00     0.068 A 
ATOM     13  C   UNL     1       6.815   9.220  32.931  1.00  0.00     0.162 A 
ATOM     14  C   UNL     1       5.715  10.991  34.800  1.00  0.00     0.068 A 
ATOM     15  C   UNL     1       5.430   9.460  32.938  1.00  0.00     0.200 A 
ATOM     16  C   UNL     1       4.881  10.346  33.880  1.00  0.00     0.162 A 
BRANCH  13  17
ATOM     17  O   UNL     1       7.364   8.332  32.008  1.00  0.00    -0.504 OA
ATOM     18  H   UNL     1       7.212   7.332  32.077  1.00  0.00     0.293 HD
ENDBRANCH  13  17
BRANCH  15  19
ATOM     19  O   UNL     1       4.593   8.823  32.021  1.00  0.00    -0.502 OA
ATOM     20  H   UNL     1       4.200   9.307  31.223  1.00  0.00     0.293 HD
ENDBRANCH  15  19
BRANCH  16  21
ATOM     21  O   UNL     1       3.510  10.599  33.918  1.00  0.00    -0.504 OA
ATOM     22  H   UNL     1       3.136  11.540  33.908  1.00  0.00     0.293 HD
ENDBRANCH  16  21
ENDBRANCH   1  11
BRANCH  10  23
ATOM     23  O   UNL     1       8.052  13.514  34.478  1.00  0.00    -0.500 OA
ATOM     24  H   UNL     1       8.016  14.525  34.495  1.00  0.00     0.294 HD
ENDBRANCH  10  23
BRANCH   5  25
ATOM     25  O   UNL     1      10.397  10.286  41.142  1.00  0.00    -0.507 OA
ATOM     26  H   UNL     1      10.297   9.277  41.139  1.00  0.00     0.293 HD
ENDBRANCH   5  25
BRANCH   7  27
ATOM     27  O   UNL     1      10.950  14.407  38.743  1.00  0.00    -0.507 OA
ATOM     28  H   UNL     1      11.942  14.590  38.719  1.00  0.00     0.293 HD
ENDBRANCH   7  27
TORSDOF 7
ENDMDL
MODEL 3
REMARK VINA RESULT:    -5.205      2.478      7.775
REMARK INTER + INTRA:          -6.804
REMARK INTER:                  -6.424
REMARK INTRA:                  -0.380
REMARK UNBOUND:                -0.382
REMARK SMILES Oc1cc(O)c2cc(O)c(-c3cc(O)c(O)c(O)c3)[o+]c2c1
REMARK SMILES IDX 10 1 20 2 21 3 22 4 2 5 3 6 4 7 6 8 7 9 8 10 11 11 12 12
REMARK SMILES IDX 13 13 19 14 15 15 17 16 14 17 16 19 18 21 9 23 1 25 5 27
REMARK H PARENT 14 18 16 20 18 22 9 24 1 26 5 28
REMARK Flexibility Score: inf
ROOT
ATOM      1  C   UNL     1       7.584  11.309  32.411  1.00  0.00     0.402 A 
ATOM      2  O   UNL     1       7.854  12.549  32.012  1.00  0.00    -0.202 OA
ATOM      3  C   UNL     1       8.482  12.829  30.875  1.00  0.00     0.368 A 
ATOM      4  C   UNL     1       8.723  14.165  30.543  1.00  0.00     0.162 A 
ATOM      5  C   UNL     1       9.385  14.488  29.355  1.00  0.00     0.128 A 
ATOM      6  C   UNL     1       9.809  13.472  28.497  1.00  0.00     0.093 A 
ATOM      7  C   UNL     1       9.580  12.126  28.806  1.00  0.00     0.136 A 
ATOM      8  C   UNL     1       8.906  11.792  30.010  1.00  0.00     0.125 A 
ATOM      9  C   UNL     1       8.622  10.472  30.395  1.00  0.00     0.078 A 
ATOM     10  C   UNL     1       7.948  10.221  31.595  1.00  0.00     0.223 A 
ENDROOT
BRANCH   1  11
ATOM     11  C   UNL     1       6.886  11.125  33.704  1.00  0.00     0.091 A 
ATOM     12  C   UNL     1       5.484  11.065  33.777  1.00  0.00     0.068 A 
ATOM     13  C   UNL     1       4.842  10.866  35.007  1.00  0.00     0.162 A 
ATOM     14  C   UNL     1       7.639  10.949  34.874  1.00  0.00     0.068 A 
ATOM     15  C   UNL     1       5.604  10.714  36.179  1.00  0.00     0.200 A 
ATOM     16  C   UNL     1       7.008  10.753  36.108  1.00  0.00     0.162 A 
BRANCH  13  17
ATOM     17  O   UNL     1       3.451  10.815  35.069  1.00  0.00    -0.504 OA
ATOM     18  H   UNL     1       2.887  10.682  34.238  1.00  0.00     0.293 HD
ENDBRANCH  13  17
BRANCH  15  19
ATOM     19  O   UNL     1       4.982  10.521  37.413  1.00  0.00    -0.502 OA
ATOM     20  H   UNL     1       5.083   9.662  37.939  1.00  0.00     0.293 HD
ENDBRANCH  15  19
BRANCH  16  21
ATOM     21  O   UNL     1       7.792  10.597  37.250  1.00  0.00    -0.504 OA
ATOM     22  H   UNL     1       7.397  10.319  38.140  1.00  0.00     0.293 HD
ENDBRANCH  16  21
ENDBRANCH   1  11
BRANCH  10  23
ATOM     23  O   UNL     1       7.622   8.913  31.954  1.00  0.00    -0.500 OA
ATOM     24  H   UNL     1       8.162   8.398  32.637  1.00  0.00     0.294 HD
ENDBRANCH  10  23
BRANCH   5  25
ATOM     25  O   UNL     1       9.629  15.818  29.017  1.00  0.00    -0.507 OA
ATOM     26  H   UNL     1       9.399  16.576  29.650  1.00  0.00     0.293 HD
ENDBRANCH   5  25
BRANCH   7  27
ATOM     27  O   UNL     1      10.039  11.168  27.897  1.00  0.00    -0.507 OA
ATOM     28  H   UNL     1      10.347  10.241  28.150  1.00  0.00     0.293 HD
ENDBRANCH   7  27
TORSDOF 7
ENDMDL
MODEL 4
REMARK VINA RESULT:    -5.200      6.715     11.369
REMARK INTER + INTRA:          -6.798
REMARK INTER:                  -6.824
REMARK INTRA:                   0.026
REMARK UNBOUND:                -0.382
REMARK SMILES Oc1cc(O)c2cc(O)c(-c3cc(O)c(O)c(O)c3)[o+]c2c1
REMARK SMILES IDX 10 1 20 2 21 3 22 4 2 5 3 6 4 7 6 8 7 9 8 10 11 11 12 12
REMARK SMILES IDX 13 13 19 14 15 15 17 16 14 17 16 19 18 21 9 23 1 25 5 27
REMARK H PARENT 14 18 16 20 18 22 9 24 1 26 5 28
REMARK Flexibility Score: inf
ROOT
ATOM      1  C   UNL     1      12.694  15.590  41.557  1.00  0.00     0.402 A 
ATOM      2  O   UNL     1      11.960  14.577  41.105  1.00  0.00    -0.202 OA
ATOM      3  C   UNL     1      11.418  14.552  39.892  1.00  0.00     0.368 A 
ATOM      4  C   UNL     1      10.660  13.442  39.509  1.00  0.00     0.162 A 
ATOM      5  C   UNL     1      10.076  13.391  38.240  1.00  0.00     0.128 A 
ATOM      6  C   UNL     1      10.251  14.454  37.351  1.00  0.00     0.093 A 
ATOM      7  C   UNL     1      11.006  15.576  37.710  1.00  0.00     0.136 A 
ATOM      8  C   UNL     1      11.603  15.632  38.997  1.00  0.00     0.125 A 
ATOM      9  C   UNL     1      12.387  16.710  39.438  1.00  0.00     0.078 A 
ATOM     10  C   UNL     1      12.948  16.692  40.719  1.00  0.00     0.223 A 
ENDROOT
BRANCH   1  11
ATOM     11  C   UNL     1      13.235  15.505  42.933  1.00  0.00     0.091 A 
ATOM     12  C   UNL     1      14.566  15.856  43.218  1.00  0.00     0.068 A 
ATOM     13  C   UNL     1      15.053  15.792  44.531  1.00  0.00     0.162 A 
ATOM     14  C   UNL     1      12.390  15.120  43.984  1.00  0.00     0.068 A 
ATOM     15  C   UNL     1      14.205  15.383  45.575  1.00  0.00     0.200 A 
ATOM     16  C   UNL     1      12.868  15.050  45.297  1.00  0.00     0.162 A 
BRANCH  13  17
ATOM     17  O   UNL     1      16.376  16.136  44.802  1.00  0.00    -0.504 OA
ATOM     18  H   UNL     1      16.861  15.781  45.618  1.00  0.00     0.293 HD
ENDBRANCH  13  17
BRANCH  15  19
ATOM     19  O   UNL     1      14.675  15.307  46.886  1.00  0.00    -0.502 OA
ATOM     20  H   UNL     1      14.434  15.999  47.586  1.00  0.00     0.293 HD
ENDBRANCH  15  19
BRANCH  16  21
ATOM     21  O   UNL     1      11.999  14.649  46.311  1.00  0.00    -0.504 OA
ATOM     22  H   UNL     1      10.994  14.752  46.231  1.00  0.00     0.293 HD
ENDBRANCH  16  21
ENDBRANCH   1  11
BRANCH  10  23
ATOM     23  O   UNL     1      13.767  17.740  41.139  1.00  0.00    -0.500 OA
ATOM     24  H   UNL     1      13.778  18.055  42.101  1.00  0.00     0.294 HD
ENDBRANCH  10  23
BRANCH   5  25
ATOM     25  O   UNL     1       9.318  12.289  37.851  1.00  0.00    -0.507 OA
ATOM     26  H   UNL     1       9.347  11.416  38.367  1.00  0.00     0.293 HD
ENDBRANCH   5  25
BRANCH   7  27
ATOM     27  O   UNL     1      11.131  16.599  36.765  1.00  0.00    -0.507 OA
ATOM     28  H   UNL     1      10.412  17.276  36.557  1.00  0.00     0.293 HD
ENDBRANCH   7  27
TORSDOF 7
ENDMDL
MODEL 5
REMARK VINA RESULT:    -5.180      6.352     10.948
REMARK INTER + INTRA:          -6.774
REMARK INTER:                  -6.619
REMARK INTRA:                  -0.155
REMARK UNBOUND:                -0.382
REMARK SMILES Oc1cc(O)c2cc(O)c(-c3cc(O)c(O)c(O)c3)[o+]c2c1
REMARK SMILES IDX 10 1 20 2 21 3 22 4 2 5 3 6 4 7 6 8 7 9 8 10 11 11 12 12
REMARK SMILES IDX 13 13 19 14 15 15 17 16 14 17 16 19 18 21 9 23 1 25 5 27
REMARK H PARENT 14 18 16 20 18 22 9 24 1 26 5 28
REMARK Flexibility Score: inf
ROOT
ATOM      1  C   UNL     1      11.173  14.117  43.793  1.00  0.00     0.402 A 
ATOM      2  O   UNL     1      11.116  13.136  42.897  1.00  0.00    -0.202 OA
ATOM      3  C   UNL     1       9.982  12.548  42.529  1.00  0.00     0.368 A 
ATOM      4  C   UNL     1      10.024  11.523  41.580  1.00  0.00     0.162 A 
ATOM      5  C   UNL     1       8.847  10.886  41.178  1.00  0.00     0.128 A 
ATOM      6  C   UNL     1       7.623  11.275  41.726  1.00  0.00     0.093 A 
ATOM      7  C   UNL     1       7.554  12.300  42.678  1.00  0.00     0.136 A 
ATOM      8  C   UNL     1       8.746  12.952  43.089  1.00  0.00     0.125 A 
ATOM      9  C   UNL     1       8.771  13.997  44.026  1.00  0.00     0.078 A 
ATOM     10  C   UNL     1       9.985  14.595  44.378  1.00  0.00     0.223 A 
ENDROOT
BRANCH   1  11
ATOM     11  C   UNL     1      12.499  14.685  44.127  1.00  0.00     0.091 A 
ATOM     12  C   UNL     1      12.957  14.742  45.454  1.00  0.00     0.068 A 
ATOM     13  C   UNL     1      14.226  15.261  45.748  1.00  0.00     0.162 A 
ATOM     14  C   UNL     1      13.341  15.124  43.095  1.00  0.00     0.068 A 
ATOM     15  C   UNL     1      15.054  15.721  44.709  1.00  0.00     0.200 A 
ATOM     16  C   UNL     1      14.608  15.647  43.378  1.00  0.00     0.162 A 
BRANCH  13  17
ATOM     17  O   UNL     1      14.668  15.319  47.068  1.00  0.00    -0.504 OA
ATOM     18  H   UNL     1      14.084  15.690  47.809  1.00  0.00     0.293 HD
ENDBRANCH  13  17
BRANCH  15  19
ATOM     19  O   UNL     1      16.317  16.246  44.984  1.00  0.00    -0.502 OA
ATOM     20  H   UNL     1      17.120  15.655  45.159  1.00  0.00     0.293 HD
ENDBRANCH  15  19
BRANCH  16  21
ATOM     21  O   UNL     1      15.408  16.086  42.324  1.00  0.00    -0.504 OA
ATOM     22  H   UNL     1      16.278  16.582  42.479  1.00  0.00     0.293 HD
ENDBRANCH  16  21
ENDBRANCH   1  11
BRANCH  10  23
ATOM     23  O   UNL     1      10.005  15.666  45.271  1.00  0.00    -0.500 OA
ATOM     24  H   UNL     1       9.949  16.625  44.954  1.00  0.00     0.294 HD
ENDBRANCH  10  23
BRANCH   5  25
ATOM     25  O   UNL     1       8.880   9.863  40.233  1.00  0.00    -0.507 OA
ATOM     26  H   UNL     1       8.154   9.157  40.189  1.00  0.00     0.293 HD
ENDBRANCH   5  25
BRANCH   7  27
ATOM     27  O   UNL     1       6.291  12.628  43.181  1.00  0.00    -0.507 OA
ATOM     28  H   UNL     1       5.463  12.065  43.058  1.00  0.00     0.293 HD
ENDBRANCH   7  27
TORSDOF 7
ENDMDL
MODEL 6
REMARK VINA RESULT:    -5.144      5.539     10.271
REMARK INTER + INTRA:          -6.729
REMARK INTER:                  -6.397
REMARK INTRA:                  -0.332
REMARK UNBOUND:                -0.382
REMARK SMILES Oc1cc(O)c2cc(O)c(-c3cc(O)c(O)c(O)c3)[o+]c2c1
REMARK SMILES IDX 10 1 20 2 21 3 22 4 2 5 3 6 4 7 6 8 7 9 8 10 11 11 12 12
REMARK SMILES IDX 13 13 19 14 15 15 17 16 14 17 16 19 18 21 9 23 1 25 5 27
REMARK H PARENT 14 18 16 20 18 22 9 24 1 26 5 28
REMARK Flexibility Score: inf
ROOT
ATOM      1  C   UNL     1      11.370  13.974  42.023  1.00  0.00     0.402 A 
ATOM      2  O   UNL     1      11.082  14.150  40.736  1.00  0.00    -0.202 OA
ATOM      3  C   UNL     1      10.424  13.256  40.006  1.00  0.00     0.368 A 
ATOM      4  C   UNL     1      10.170  13.532  38.659  1.00  0.00     0.162 A 
ATOM      5  C   UNL     1       9.484  12.608  37.868  1.00  0.00     0.128 A 
ATOM      6  C   UNL     1       9.048  11.403  38.424  1.00  0.00     0.093 A 
ATOM      7  C   UNL     1       9.289  11.103  39.770  1.00  0.00     0.136 A 
ATOM      8  C   UNL     1       9.985  12.039  40.579  1.00  0.00     0.125 A 
ATOM      9  C   UNL     1      10.258  11.829  41.940  1.00  0.00     0.078 A 
ATOM     10  C   UNL     1      10.945  12.801  42.676  1.00  0.00     0.223 A 
ENDROOT
BRANCH   1  11
ATOM     11  C   UNL     1      12.118  15.040  42.727  1.00  0.00     0.091 A 
ATOM     12  C   UNL     1      11.472  15.936  43.595  1.00  0.00     0.068 A 
ATOM     13  C   UNL     1      12.201  16.924  44.271  1.00  0.00     0.162 A 
ATOM     14  C   UNL     1      13.509  15.125  42.570  1.00  0.00     0.068 A 
ATOM     15  C   UNL     1      13.592  17.017  44.090  1.00  0.00     0.200 A 
ATOM     16  C   UNL     1      14.246  16.109  43.238  1.00  0.00     0.162 A 
BRANCH  13  17
ATOM     17  O   UNL     1      11.549  17.812  45.125  1.00  0.00    -0.504 OA
ATOM     18  H   UNL     1      10.553  17.981  45.056  1.00  0.00     0.293 HD
ENDBRANCH  13  17
BRANCH  15  19
ATOM     19  O   UNL     1      14.333  17.997  44.750  1.00  0.00    -0.502 OA
ATOM     20  H   UNL     1      15.137  18.444  44.325  1.00  0.00     0.293 HD
ENDBRANCH  15  19
BRANCH  16  21
ATOM     21  O   UNL     1      15.625  16.169  43.043  1.00  0.00    -0.504 OA
ATOM     22  H   UNL     1      16.066  16.934  42.546  1.00  0.00     0.293 HD
ENDBRANCH  16  21
ENDBRANCH   1  11
BRANCH  10  23
ATOM     23  O   UNL     1      11.174  12.615  44.039  1.00  0.00    -0.500 OA
ATOM     24  H   UNL     1      10.804  13.251  44.733  1.00  0.00     0.294 HD
ENDBRANCH  10  23
BRANCH   5  25
ATOM     25  O   UNL     1       9.227  12.875  36.524  1.00  0.00    -0.507 OA
ATOM     26  H   UNL     1       9.362  12.170  35.808  1.00  0.00     0.293 HD
ENDBRANCH   5  25
BRANCH   7  27
ATOM     27  O   UNL     1       8.824   9.875  40.250  1.00  0.00    -0.507 OA
ATOM     28  H   UNL     1       9.398   9.191  40.720  1.00  0.00     0.293 HD
ENDBRANCH   7  27
TORSDOF 7
ENDMDL
MODEL 7
REMARK VINA RESULT:    -5.143      1.956      6.932
REMARK INTER + INTRA:          -6.728
REMARK INTER:                  -6.460
REMARK INTRA:                  -0.268
REMARK UNBOUND:                -0.382
REMARK SMILES Oc1cc(O)c2cc(O)c(-c3cc(O)c(O)c(O)c3)[o+]c2c1
REMARK SMILES IDX 10 1 20 2 21 3 22 4 2 5 3 6 4 7 6 8 7 9 8 10 11 11 12 12
REMARK SMILES IDX 13 13 19 14 15 15 17 16 14 17 16 19 18 21 9 23 1 25 5 27
REMARK H PARENT 14 18 16 20 18 22 9 24 1 26 5 28
REMARK Flexibility Score: inf
ROOT
ATOM      1  C   UNL     1       7.403  10.876  35.929  1.00  0.00     0.402 A 
ATOM      2  O   UNL     1       7.908  10.786  34.703  1.00  0.00    -0.202 OA
ATOM      3  C   UNL     1       7.213  10.353  33.656  1.00  0.00     0.368 A 
ATOM      4  C   UNL     1       7.833  10.291  32.405  1.00  0.00     0.162 A 
ATOM      5  C   UNL     1       7.126   9.836  31.289  1.00  0.00     0.128 A 
ATOM      6  C   UNL     1       5.793   9.441  31.424  1.00  0.00     0.093 A 
ATOM      7  C   UNL     1       5.149   9.493  32.665  1.00  0.00     0.136 A 
ATOM      8  C   UNL     1       5.862   9.956  33.802  1.00  0.00     0.125 A 
ATOM      9  C   UNL     1       5.293  10.055  35.082  1.00  0.00     0.078 A 
ATOM     10  C   UNL     1       6.058  10.526  36.155  1.00  0.00     0.223 A 
ENDROOT
BRANCH   1  11
ATOM     11  C   UNL     1       8.282  11.364  37.016  1.00  0.00     0.091 A 
ATOM     12  C   UNL     1       8.662  10.530  38.081  1.00  0.00     0.068 A 
ATOM     13  C   UNL     1       9.515  11.004  39.088  1.00  0.00     0.162 A 
ATOM     14  C   UNL     1       8.793  12.669  36.955  1.00  0.00     0.068 A 
ATOM     15  C   UNL     1      10.003  12.321  39.031  1.00  0.00     0.200 A 
ATOM     16  C   UNL     1       9.642  13.152  37.957  1.00  0.00     0.162 A 
BRANCH  13  17
ATOM     17  O   UNL     1       9.881  10.170  40.142  1.00  0.00    -0.504 OA
ATOM     18  H   UNL     1      10.564  10.456  40.834  1.00  0.00     0.293 HD
ENDBRANCH  13  17
BRANCH  15  19
ATOM     19  O   UNL     1      10.848  12.811  40.027  1.00  0.00    -0.502 OA
ATOM     20  H   UNL     1      10.515  13.025  40.960  1.00  0.00     0.293 HD
ENDBRANCH  15  19
BRANCH  16  21
ATOM     21  O   UNL     1      10.116  14.461  37.867  1.00  0.00    -0.504 OA
ATOM     22  H   UNL     1      10.687  14.774  37.091  1.00  0.00     0.293 HD
ENDBRANCH  16  21
ENDBRANCH   1  11
BRANCH  10  23
ATOM     23  O   UNL     1       5.479  10.671  37.416  1.00  0.00    -0.500 OA
ATOM     24  H   UNL     1       6.033  10.893  38.233  1.00  0.00     0.294 HD
ENDBRANCH  10  23
BRANCH   5  25
ATOM     25  O   UNL     1       7.738   9.772  30.039  1.00  0.00    -0.507 OA
ATOM     26  H   UNL     1       7.273  10.109  29.203  1.00  0.00     0.293 HD
ENDBRANCH   5  25
BRANCH   7  27
ATOM     27  O   UNL     1       3.815   9.077  32.717  1.00  0.00    -0.507 OA
ATOM     28  H   UNL     1       3.267   9.021  33.563  1.00  0.00     0.293 HD
ENDBRANCH   7  27
TORSDOF 7
ENDMDL
MODEL 8
REMARK VINA RESULT:    -5.018      8.850     12.770
REMARK INTER + INTRA:          -6.573
REMARK INTER:                  -6.259
REMARK INTRA:                  -0.314
REMARK UNBOUND:                -0.382
REMARK SMILES Oc1cc(O)c2cc(O)c(-c3cc(O)c(O)c(O)c3)[o+]c2c1
REMARK SMILES IDX 10 1 20 2 21 3 22 4 2 5 3 6 4 7 6 8 7 9 8 10 11 11 12 12
REMARK SMILES IDX 13 13 19 14 15 15 17 16 14 17 16 19 18 21 9 23 1 25 5 27
REMARK H PARENT 14 18 16 20 18 22 9 24 1 26 5 28
REMARK Flexibility Score: inf
ROOT
ATOM      1  C   UNL     1      13.704  17.833  41.304  1.00  0.00     0.402 A 
ATOM      2  O   UNL     1      13.417  16.992  40.314  1.00  0.00    -0.202 OA
ATOM      3  C   UNL     1      13.084  17.390  39.091  1.00  0.00     0.368 A 
ATOM      4  C   UNL     1      12.796  16.429  38.118  1.00  0.00     0.162 A 
ATOM      5  C   UNL     1      12.440  16.820  36.824  1.00  0.00     0.128 A 
ATOM      6  C   UNL     1      12.370  18.177  36.502  1.00  0.00     0.093 A 
ATOM      7  C   UNL     1      12.653  19.159  37.459  1.00  0.00     0.136 A 
ATOM      8  C   UNL     1      13.018  18.767  38.774  1.00  0.00     0.125 A 
ATOM      9  C   UNL     1      13.332  19.682  39.792  1.00  0.00     0.078 A 
ATOM     10  C   UNL     1      13.688  19.220  41.064  1.00  0.00     0.223 A 
ENDROOT
BRANCH   1  11
ATOM     11  C   UNL     1      14.051  17.267  42.627  1.00  0.00     0.091 A 
ATOM     12  C   UNL     1      15.377  17.256  43.093  1.00  0.00     0.068 A 
ATOM     13  C   UNL     1      15.683  16.737  44.359  1.00  0.00     0.162 A 
ATOM     14  C   UNL     1      13.031  16.781  43.459  1.00  0.00     0.068 A 
ATOM     15  C   UNL     1      14.657  16.231  45.176  1.00  0.00     0.200 A 
ATOM     16  C   UNL     1      13.327  16.259  44.722  1.00  0.00     0.162 A 
BRANCH  13  17
ATOM     17  O   UNL     1      17.001  16.725  44.809  1.00  0.00    -0.504 OA
ATOM     18  H   UNL     1      17.600  15.918  44.680  1.00  0.00     0.293 HD
ENDBRANCH  13  17
BRANCH  15  19
ATOM     19  O   UNL     1      14.944  15.706  46.437  1.00  0.00    -0.502 OA
ATOM     20  H   UNL     1      14.906  14.712  46.628  1.00  0.00     0.293 HD
ENDBRANCH  15  19
BRANCH  16  21
ATOM     21  O   UNL     1      12.285  15.773  45.512  1.00  0.00    -0.504 OA
ATOM     22  H   UNL     1      11.439  15.388  45.110  1.00  0.00     0.293 HD
ENDBRANCH  16  21
ENDBRANCH   1  11
BRANCH  10  23
ATOM     23  O   UNL     1      14.047  20.126  42.062  1.00  0.00    -0.500 OA
ATOM     24  H   UNL     1      13.402  20.828  42.402  1.00  0.00     0.294 HD
ENDBRANCH  10  23
BRANCH   5  25
ATOM     25  O   UNL     1      12.152  15.868  35.849  1.00  0.00    -0.507 OA
ATOM     26  H   UNL     1      11.335  15.272  35.914  1.00  0.00     0.293 HD
ENDBRANCH   5  25
BRANCH   7  27
ATOM     27  O   UNL     1      12.558  20.496  37.059  1.00  0.00    -0.507 OA
ATOM     28  H   UNL     1      12.951  20.866  36.206  1.00  0.00     0.293 HD
ENDBRANCH   7  27
TORSDOF 7
ENDMDL
MODEL 9
REMARK VINA RESULT:    -5.009      2.725      4.538
REMARK INTER + INTRA:          -6.563
REMARK INTER:                  -6.208
REMARK INTRA:                  -0.355
REMARK UNBOUND:                -0.382
REMARK SMILES Oc1cc(O)c2cc(O)c(-c3cc(O)c(O)c(O)c3)[o+]c2c1
REMARK SMILES IDX 10 1 20 2 21 3 22 4 2 5 3 6 4 7 6 8 7 9 8 10 11 11 12 12
REMARK SMILES IDX 13 13 19 14 15 15 17 16 14 17 16 19 18 21 9 23 1 25 5 27
REMARK H PARENT 14 18 16 20 18 22 9 24 1 26 5 28
REMARK Flexibility Score: inf
ROOT
ATOM      1  C   UNL     1       8.607  11.447  38.883  1.00  0.00     0.402 A 
ATOM      2  O   UNL     1       9.245  12.613  38.877  1.00  0.00    -0.202 OA
ATOM      3  C   UNL     1       9.976  13.052  39.897  1.00  0.00     0.368 A 
ATOM      4  C   UNL     1      10.607  14.295  39.796  1.00  0.00     0.162 A 
ATOM      5  C   UNL     1      11.378  14.782  40.855  1.00  0.00     0.128 A 
ATOM      6  C   UNL     1      11.519  14.023  42.019  1.00  0.00     0.093 A 
ATOM      7  C   UNL     1      10.898  12.776  42.145  1.00  0.00     0.136 A 
ATOM      8  C   UNL     1      10.114  12.275  41.071  1.00  0.00     0.125 A 
ATOM      9  C   UNL     1       9.467  11.030  41.104  1.00  0.00     0.078 A 
ATOM     10  C   UNL     1       8.716  10.601  40.004  1.00  0.00     0.223 A 
ENDROOT
BRANCH   1  11
ATOM     11  C   UNL     1       7.816  11.073  37.689  1.00  0.00     0.091 A 
ATOM     12  C   UNL     1       6.415  11.182  37.676  1.00  0.00     0.068 A 
ATOM     13  C   UNL     1       5.685  10.846  36.527  1.00  0.00     0.162 A 
ATOM     14  C   UNL     1       8.479  10.654  36.526  1.00  0.00     0.068 A 
ATOM     15  C   UNL     1       6.357  10.405  35.374  1.00  0.00     0.200 A 
ATOM     16  C   UNL     1       7.760  10.314  35.376  1.00  0.00     0.162 A 
BRANCH  13  17
ATOM     17  O   UNL     1       4.296  10.952  36.527  1.00  0.00    -0.504 OA
ATOM     18  H   UNL     1       3.819  11.694  37.026  1.00  0.00     0.293 HD
ENDBRANCH  13  17
BRANCH  15  19
ATOM     19  O   UNL     1       5.646  10.061  34.223  1.00  0.00    -0.502 OA
ATOM     20  H   UNL     1       5.238  10.758  33.613  1.00  0.00     0.293 HD
ENDBRANCH  15  19
BRANCH  16  21
ATOM     21  O   UNL     1       8.456   9.888  34.245  1.00  0.00    -0.504 OA
ATOM     22  H   UNL     1       8.632   8.908  34.059  1.00  0.00     0.293 HD
ENDBRANCH  16  21
ENDBRANCH   1  11
BRANCH  10  23
ATOM     23  O   UNL     1       8.113   9.344  40.016  1.00  0.00    -0.500 OA
ATOM     24  H   UNL     1       7.189   9.199  40.404  1.00  0.00     0.294 HD
ENDBRANCH  10  23
BRANCH   5  25
ATOM     25  O   UNL     1      12.010  16.020  40.762  1.00  0.00    -0.507 OA
ATOM     26  H   UNL     1      12.238  16.433  39.865  1.00  0.00     0.293 HD
ENDBRANCH   5  25
BRANCH   7  27
ATOM     27  O   UNL     1      11.085  12.080  43.343  1.00  0.00    -0.507 OA
ATOM     28  H   UNL     1      10.428  12.076  44.110  1.00  0.00     0.293 HD
ENDBRANCH   7  27
TORSDOF 7
ENDMDL
