MODEL 1
REMARK VINA RESULT:    -5.679      0.000      0.000
REMARK INTER + INTRA:          -6.996
REMARK INTER:                  -6.343
REMARK INTRA:                  -0.653
REMARK UNBOUND:                -0.653
REMARK SMILES C=C(C)[C@@H]1CC[C@@]2(C(=O)[O-])CC[C@@]3(C)[C@H](CC[C@@H]4[C@@]5(C)CCC(=O)C(C)(C)[C@@H]5CC[C@]43C)[C@@H]12
REMARK SMILES IDX 7 1 6 2 33 3 11 4 5 5 15 6 4 7 12 8 16 9 13 10 17 11 31 12
REMARK SMILES IDX 14 13 18 14 30 15 32 16 19 17 29 18 21 19 20 20 28 21 22 22
REMARK SMILES IDX 25 23 23 24 26 25 27 26 24 27 8 28 9 29 10 30 2 31 3 32 1 33
REMARK H PARENT
REMARK Flexibility Score: inf
ROOT
ATOM      1  C   UNL     1      18.397  29.873  30.021  1.00  0.00     0.014 C 
ATOM      2  C   UNL     1      17.455  30.385  28.916  1.00  0.00     0.014 C 
ATOM      3  C   UNL     1      18.298  30.928  31.168  1.00  0.00     0.012 C 
ATOM      4  C   UNL     1      19.844  29.663  29.501  1.00  0.00     0.014 C 
ATOM      5  C   UNL     1      16.399  31.228  29.621  1.00  0.00     0.009 C 
ATOM      6  C   UNL     1      19.630  31.694  31.512  1.00  0.00     0.000 C 
ATOM      7  C   UNL     1      17.112  31.863  30.817  1.00  0.00     0.018 C 
ATOM      8  C   UNL     1      20.715  30.911  29.281  1.00  0.00     0.008 C 
ATOM      9  C   UNL     1      20.402  30.858  32.567  1.00  0.00     0.005 C 
ATOM     10  C   UNL     1      20.529  32.129  30.268  1.00  0.00    -0.024 C 
ATOM     11  C   UNL     1      21.722  31.477  33.001  1.00  0.00     0.005 C 
ATOM     12  C   UNL     1      21.952  32.740  30.773  1.00  0.00    -0.024 C 
ATOM     13  C   UNL     1      19.783  33.238  29.458  1.00  0.00     0.012 C 
ATOM     14  C   UNL     1      22.637  31.716  31.775  1.00  0.00     0.002 C 
ATOM     15  C   UNL     1      22.911  33.024  29.560  1.00  0.00     0.008 C 
ATOM     16  C   UNL     1      21.713  34.125  31.468  1.00  0.00     0.012 C 
ATOM     17  C   UNL     1      24.181  31.933  32.128  1.00  0.00    -0.025 C 
ATOM     18  C   UNL     1      24.362  33.305  29.953  1.00  0.00     0.006 C 
ATOM     19  C   UNL     1      24.728  30.628  32.801  1.00  0.00     0.015 C 
ATOM     20  C   UNL     1      24.391  33.120  33.125  1.00  0.00     0.012 C 
ATOM     21  C   UNL     1      24.952  32.126  30.764  1.00  0.00     0.008 C 
ATOM     22  C   UNL     1      26.253  30.573  32.956  1.00  0.00     0.077 C 
ATOM     23  C   UNL     1      26.532  32.095  30.832  1.00  0.00     0.027 C 
ATOM     24  C   UNL     1      26.958  30.898  31.677  1.00  0.00     0.138 C 
ATOM     25  C   UNL     1      27.119  31.930  29.397  1.00  0.00     0.020 C 
ATOM     26  C   UNL     1      27.148  33.376  31.444  1.00  0.00     0.020 C 
ATOM     27  O   UNL     1      27.944  30.240  31.373  1.00  0.00    -0.299 OA
ENDROOT
BRANCH   1  28
ATOM     28  C   UNL     1      17.860  28.512  30.480  1.00  0.00     0.048 C 
ATOM     29  O   UNL     1      17.318  28.378  31.609  1.00  0.00    -0.550 OA
ATOM     30  O   UNL     1      17.867  27.420  29.618  1.00  0.00    -0.550 OA
ENDBRANCH   1  28
BRANCH   7  31
ATOM     31  C   UNL     1      16.199  32.172  32.005  1.00  0.00    -0.077 C 
ATOM     32  C   UNL     1      15.040  31.261  32.314  1.00  0.00     0.039 C 
ATOM     33  C   UNL     1      16.369  33.262  32.772  1.00  0.00     0.008 C 
ENDBRANCH   7  31
TORSDOF 2
ENDMDL
MODEL 2
REMARK VINA RESULT:    -5.655      2.000      7.916
REMARK INTER + INTRA:          -6.969
REMARK INTER:                  -6.688
REMARK INTRA:                  -0.281
REMARK UNBOUND:                -0.653
REMARK SMILES C=C(C)[C@@H]1CC[C@@]2(C(=O)[O-])CC[C@@]3(C)[C@H](CC[C@@H]4[C@@]5(C)CCC(=O)C(C)(C)[C@@H]5CC[C@]43C)[C@@H]12
REMARK SMILES IDX 7 1 6 2 33 3 11 4 5 5 15 6 4 7 12 8 16 9 13 10 17 11 31 12
REMARK SMILES IDX 14 13 18 14 30 15 32 16 19 17 29 18 21 19 20 20 28 21 22 22
REMARK SMILES IDX 25 23 23 24 26 25 27 26 24 27 8 28 9 29 10 30 2 31 3 32 1 33
REMARK H PARENT
REMARK Flexibility Score: inf
ROOT
ATOM      1  C   UNL     1      24.475  29.863  30.020  1.00  0.00     0.014 C 
ATOM      2  C   UNL     1      25.445  29.279  31.063  1.00  0.00     0.014 C 
ATOM      3  C   UNL     1      24.504  31.407  30.250  1.00  0.00     0.012 C 
ATOM      4  C   UNL     1      23.053  29.250  30.140  1.00  0.00     0.014 C 
ATOM      5  C   UNL     1      26.453  30.382  31.364  1.00  0.00     0.009 C 
ATOM      6  C   UNL     1      23.142  32.061  30.693  1.00  0.00     0.000 C 
ATOM      7  C   UNL     1      25.680  31.695  31.219  1.00  0.00     0.018 C 
ATOM      8  C   UNL     1      22.162  29.728  31.299  1.00  0.00     0.008 C 
ATOM      9  C   UNL     1      22.351  32.430  29.410  1.00  0.00     0.005 C 
ATOM     10  C   UNL     1      22.281  31.236  31.752  1.00  0.00    -0.024 C 
ATOM     11  C   UNL     1      21.000  33.076  29.680  1.00  0.00     0.005 C 
ATOM     12  C   UNL     1      20.825  31.932  31.976  1.00  0.00    -0.024 C 
ATOM     13  C   UNL     1      23.030  31.222  33.124  1.00  0.00     0.012 C 
ATOM     14  C   UNL     1      20.127  32.155  30.567  1.00  0.00     0.002 C 
ATOM     15  C   UNL     1      19.906  31.045  32.894  1.00  0.00     0.008 C 
ATOM     16  C   UNL     1      21.004  33.294  32.732  1.00  0.00     0.012 C 
ATOM     17  C   UNL     1      18.566  32.499  30.552  1.00  0.00    -0.025 C 
ATOM     18  C   UNL     1      18.435  31.463  32.908  1.00  0.00     0.006 C 
ATOM     19  C   UNL     1      18.025  32.299  29.094  1.00  0.00     0.015 C 
ATOM     20  C   UNL     1      18.290  33.979  30.974  1.00  0.00     0.012 C 
ATOM     21  C   UNL     1      17.844  31.445  31.478  1.00  0.00     0.008 C 
ATOM     22  C   UNL     1      16.497  32.328  28.964  1.00  0.00     0.077 C 
ATOM     23  C   UNL     1      16.263  31.413  31.416  1.00  0.00     0.027 C 
ATOM     24  C   UNL     1      15.834  31.420  29.952  1.00  0.00     0.138 C 
ATOM     25  C   UNL     1      15.736  30.107  32.086  1.00  0.00     0.020 C 
ATOM     26  C   UNL     1      15.593  32.609  32.133  1.00  0.00     0.020 C 
ATOM     27  O   UNL     1      14.877  30.756  29.579  1.00  0.00    -0.299 OA
ENDROOT
BRANCH   1  28
ATOM     28  C   UNL     1      25.026  29.503  28.636  1.00  0.00     0.048 C 
ATOM     29  O   UNL     1      26.211  29.789  28.317  1.00  0.00    -0.550 OA
ATOM     30  O   UNL     1      24.263  28.762  27.739  1.00  0.00    -0.550 OA
ENDBRANCH   1  28
BRANCH   7  31
ATOM     31  C   UNL     1      26.539  32.892  30.806  1.00  0.00    -0.077 C 
ATOM     32  C   UNL     1      28.006  32.913  31.150  1.00  0.00     0.039 C 
ATOM     33  C   UNL     1      26.022  33.959  30.175  1.00  0.00     0.008 C 
ENDBRANCH   7  31
TORSDOF 2
ENDMDL
MODEL 3
REMARK VINA RESULT:    -5.497      1.926      8.023
REMARK INTER + INTRA:          -6.792
REMARK INTER:                  -6.458
REMARK INTRA:                  -0.335
REMARK UNBOUND:                -0.653
REMARK SMILES C=C(C)[C@@H]1CC[C@@]2(C(=O)[O-])CC[C@@]3(C)[C@H](CC[C@@H]4[C@@]5(C)CCC(=O)C(C)(C)[C@@H]5CC[C@]43C)[C@@H]12
REMARK SMILES IDX 7 1 6 2 33 3 11 4 5 5 15 6 4 7 12 8 16 9 13 10 17 11 31 12
REMARK SMILES IDX 14 13 18 14 30 15 32 16 19 17 29 18 21 19 20 20 28 21 22 22
REMARK SMILES IDX 25 23 23 24 26 25 27 26 24 27 8 28 9 29 10 30 2 31 3 32 1 33
REMARK H PARENT
REMARK Flexibility Score: inf
ROOT
ATOM      1  C   UNL     1      24.324  29.848  30.785  1.00  0.00     0.014 C 
ATOM      2  C   UNL     1      25.277  30.161  31.954  1.00  0.00     0.014 C 
ATOM      3  C   UNL     1      23.702  31.223  30.384  1.00  0.00     0.012 C 
ATOM      4  C   UNL     1      23.264  28.781  31.168  1.00  0.00     0.014 C 
ATOM      5  C   UNL     1      25.704  31.612  31.772  1.00  0.00     0.009 C 
ATOM      6  C   UNL     1      22.142  31.347  30.559  1.00  0.00     0.000 C 
ATOM      7  C   UNL     1      24.505  32.316  31.135  1.00  0.00     0.018 C 
ATOM      8  C   UNL     1      22.091  29.222  32.060  1.00  0.00     0.008 C 
ATOM      9  C   UNL     1      21.474  30.846  29.251  1.00  0.00     0.005 C 
ATOM     10  C   UNL     1      21.531  30.687  31.875  1.00  0.00    -0.024 C 
ATOM     11  C   UNL     1      19.954  30.905  29.271  1.00  0.00     0.005 C 
ATOM     12  C   UNL     1      19.903  30.727  31.836  1.00  0.00    -0.024 C 
ATOM     13  C   UNL     1      22.006  31.497  33.125  1.00  0.00     0.012 C 
ATOM     14  C   UNL     1      19.396  30.098  30.469  1.00  0.00     0.002 C 
ATOM     15  C   UNL     1      19.285  29.939  33.049  1.00  0.00     0.008 C 
ATOM     16  C   UNL     1      19.408  32.207  31.986  1.00  0.00     0.012 C 
ATOM     17  C   UNL     1      17.848  29.713  30.350  1.00  0.00    -0.025 C 
ATOM     18  C   UNL     1      17.785  29.664  32.926  1.00  0.00     0.006 C 
ATOM     19  C   UNL     1      17.660  28.783  29.102  1.00  0.00     0.015 C 
ATOM     20  C   UNL     1      16.946  30.975  30.157  1.00  0.00     0.012 C 
ATOM     21  C   UNL     1      17.474  28.873  31.632  1.00  0.00     0.008 C 
ATOM     22  C   UNL     1      16.286  28.109  29.003  1.00  0.00     0.077 C 
ATOM     23  C   UNL     1      16.066  28.152  31.622  1.00  0.00     0.027 C 
ATOM     24  C   UNL     1      15.896  27.438  30.283  1.00  0.00     0.138 C 
ATOM     25  C   UNL     1      16.007  27.093  32.764  1.00  0.00     0.020 C 
ATOM     26  C   UNL     1      14.875  29.120  31.819  1.00  0.00     0.020 C 
ATOM     27  O   UNL     1      15.351  26.345  30.224  1.00  0.00    -0.299 OA
ENDROOT
BRANCH   1  28
ATOM     28  C   UNL     1      25.176  29.277  29.646  1.00  0.00     0.048 C 
ATOM     29  O   UNL     1      26.028  29.992  29.054  1.00  0.00    -0.550 OA
ATOM     30  O   UNL     1      25.100  27.929  29.310  1.00  0.00    -0.550 OA
ENDBRANCH   1  28
BRANCH   7  31
ATOM     31  C   UNL     1      24.869  33.521  30.264  1.00  0.00    -0.077 C 
ATOM     32  C   UNL     1      26.262  34.090  30.320  1.00  0.00     0.039 C 
ATOM     33  C   UNL     1      23.970  34.125  29.469  1.00  0.00     0.008 C 
ENDBRANCH   7  31
TORSDOF 2
ENDMDL
MODEL 4
REMARK VINA RESULT:    -5.433      1.445      1.876
REMARK INTER + INTRA:          -6.722
REMARK INTER:                  -6.358
REMARK INTRA:                  -0.364
REMARK UNBOUND:                -0.653
REMARK SMILES C=C(C)[C@@H]1CC[C@@]2(C(=O)[O-])CC[C@@]3(C)[C@H](CC[C@@H]4[C@@]5(C)CCC(=O)C(C)(C)[C@@H]5CC[C@]43C)[C@@H]12
REMARK SMILES IDX 7 1 6 2 33 3 11 4 5 5 15 6 4 7 12 8 16 9 13 10 17 11 31 12
REMARK SMILES IDX 14 13 18 14 30 15 32 16 19 17 29 18 21 19 20 20 28 21 22 22
REMARK SMILES IDX 25 23 23 24 26 25 27 26 24 27 8 28 9 29 10 30 2 31 3 32 1 33
REMARK H PARENT
REMARK Flexibility Score: inf
ROOT
ATOM      1  C   UNL     1      18.182  30.177  29.317  1.00  0.00     0.014 C 
ATOM      2  C   UNL     1      16.958  31.092  29.129  1.00  0.00     0.014 C 
ATOM      3  C   UNL     1      18.312  29.976  30.860  1.00  0.00     0.012 C 
ATOM      4  C   UNL     1      19.459  30.771  28.664  1.00  0.00     0.014 C 
ATOM      5  C   UNL     1      16.065  30.855  30.341  1.00  0.00     0.009 C 
ATOM      6  C   UNL     1      19.635  30.524  31.514  1.00  0.00     0.000 C 
ATOM      7  C   UNL     1      17.017  30.545  31.498  1.00  0.00     0.018 C 
ATOM      8  C   UNL     1      20.162  31.930  29.390  1.00  0.00     0.008 C 
ATOM      9  C   UNL     1      20.703  29.401  31.442  1.00  0.00     0.005 C 
ATOM     10  C   UNL     1      20.156  31.929  30.969  1.00  0.00    -0.024 C 
ATOM     11  C   UNL     1      22.048  29.786  32.040  1.00  0.00     0.005 C 
ATOM     12  C   UNL     1      21.618  32.282  31.594  1.00  0.00    -0.024 C 
ATOM     13  C   UNL     1      19.158  33.051  31.403  1.00  0.00     0.012 C 
ATOM     14  C   UNL     1      22.602  31.058  31.353  1.00  0.00     0.002 C 
ATOM     15  C   UNL     1      22.216  33.584  30.944  1.00  0.00     0.008 C 
ATOM     16  C   UNL     1      21.476  32.590  33.125  1.00  0.00     0.012 C 
ATOM     17  C   UNL     1      24.168  31.303  31.565  1.00  0.00    -0.025 C 
ATOM     18  C   UNL     1      23.698  33.816  31.242  1.00  0.00     0.006 C 
ATOM     19  C   UNL     1      24.951  30.110  30.917  1.00  0.00     0.015 C 
ATOM     20  C   UNL     1      24.548  31.369  33.080  1.00  0.00     0.012 C 
ATOM     21  C   UNL     1      24.550  32.612  30.772  1.00  0.00     0.008 C 
ATOM     22  C   UNL     1      26.465  30.323  30.797  1.00  0.00     0.077 C 
ATOM     23  C   UNL     1      26.094  32.918  30.610  1.00  0.00     0.027 C 
ATOM     24  C   UNL     1      26.798  31.639  30.166  1.00  0.00     0.138 C 
ATOM     25  C   UNL     1      26.303  34.010  29.517  1.00  0.00     0.020 C 
ATOM     26  C   UNL     1      26.762  33.424  31.911  1.00  0.00     0.020 C 
ATOM     27  O   UNL     1      27.713  31.680  29.356  1.00  0.00    -0.299 OA
ENDROOT
BRANCH   1  28
ATOM     28  C   UNL     1      17.870  28.850  28.616  1.00  0.00     0.048 C 
ATOM     29  O   UNL     1      18.634  28.394  27.723  1.00  0.00    -0.550 OA
ATOM     30  O   UNL     1      16.792  28.069  29.022  1.00  0.00    -0.550 OA
ENDBRANCH   1  28
BRANCH   7  31
ATOM     31  C   UNL     1      16.421  29.648  32.584  1.00  0.00    -0.077 C 
ATOM     32  C   UNL     1      15.037  29.931  33.109  1.00  0.00     0.039 C 
ATOM     33  C   UNL     1      17.107  28.628  33.125  1.00  0.00     0.008 C 
ENDBRANCH   7  31
TORSDOF 2
ENDMDL
MODEL 5
REMARK VINA RESULT:    -4.936      1.842      2.364
REMARK INTER + INTRA:          -6.166
REMARK INTER:                  -5.664
REMARK INTRA:                  -0.502
REMARK UNBOUND:                -0.653
REMARK SMILES C=C(C)[C@@H]1CC[C@@]2(C(=O)[O-])CC[C@@]3(C)[C@H](CC[C@@H]4[C@@]5(C)CCC(=O)C(C)(C)[C@@H]5CC[C@]43C)[C@@H]12
REMARK SMILES IDX 7 1 6 2 33 3 11 4 5 5 15 6 4 7 12 8 16 9 13 10 17 11 31 12
REMARK SMILES IDX 14 13 18 14 30 15 32 16 19 17 29 18 21 19 20 20 28 21 22 22
REMARK SMILES IDX 25 23 23 24 26 25 27 26 24 27 8 28 9 29 10 30 2 31 3 32 1 33
REMARK H PARENT
REMARK Flexibility Score: inf
ROOT
ATOM      1  C   UNL     1      18.766  28.225  28.932  1.00  0.00     0.014 C 
ATOM      2  C   UNL     1      17.464  28.713  28.272  1.00  0.00     0.014 C 
ATOM      3  C   UNL     1      18.573  28.479  30.460  1.00  0.00     0.012 C 
ATOM      4  C   UNL     1      20.017  28.932  28.344  1.00  0.00     0.014 C 
ATOM      5  C   UNL     1      16.379  28.585  29.335  1.00  0.00     0.009 C 
ATOM      6  C   UNL     1      19.575  29.500  31.119  1.00  0.00     0.000 C 
ATOM      7  C   UNL     1      17.080  28.845  30.670  1.00  0.00     0.018 C 
ATOM      8  C   UNL     1      20.292  30.382  28.778  1.00  0.00     0.008 C 
ATOM      9  C   UNL     1      20.830  28.709  31.574  1.00  0.00     0.005 C 
ATOM     10  C   UNL     1      19.921  30.796  30.256  1.00  0.00    -0.024 C 
ATOM     11  C   UNL     1      21.898  29.569  32.233  1.00  0.00     0.005 C 
ATOM     12  C   UNL     1      21.101  31.663  30.970  1.00  0.00    -0.024 C 
ATOM     13  C   UNL     1      18.650  31.699  30.152  1.00  0.00     0.012 C 
ATOM     14  C   UNL     1      22.334  30.713  31.285  1.00  0.00     0.002 C 
ATOM     15  C   UNL     1      21.564  32.855  30.056  1.00  0.00     0.008 C 
ATOM     16  C   UNL     1      20.551  32.316  32.286  1.00  0.00     0.012 C 
ATOM     17  C   UNL     1      23.729  31.397  31.663  1.00  0.00    -0.025 C 
ATOM     18  C   UNL     1      22.862  33.529  30.503  1.00  0.00     0.006 C 
ATOM     19  C   UNL     1      24.860  30.317  31.554  1.00  0.00     0.015 C 
ATOM     20  C   UNL     1      23.729  31.955  33.124  1.00  0.00     0.012 C 
ATOM     21  C   UNL     1      24.019  32.504  30.576  1.00  0.00     0.008 C 
ATOM     22  C   UNL     1      26.289  30.871  31.622  1.00  0.00     0.077 C 
ATOM     23  C   UNL     1      25.467  33.141  30.581  1.00  0.00     0.027 C 
ATOM     24  C   UNL     1      26.492  32.014  30.677  1.00  0.00     0.138 C 
ATOM     25  C   UNL     1      25.705  33.922  29.253  1.00  0.00     0.020 C 
ATOM     26  C   UNL     1      25.704  34.125  31.751  1.00  0.00     0.020 C 
ATOM     27  O   UNL     1      27.543  32.073  30.055  1.00  0.00    -0.299 OA
ENDROOT
BRANCH   1  28
ATOM     28  C   UNL     1      18.891  26.727  28.636  1.00  0.00     0.048 C 
ATOM     29  O   UNL     1      18.057  26.142  27.894  1.00  0.00    -0.550 OA
ATOM     30  O   UNL     1      19.987  26.002  29.094  1.00  0.00    -0.550 OA
ENDBRANCH   1  28
BRANCH   7  31
ATOM     31  C   UNL     1      16.437  28.145  31.868  1.00  0.00    -0.077 C 
ATOM     32  C   UNL     1      15.565  26.936  31.648  1.00  0.00     0.039 C 
ATOM     33  C   UNL     1      16.590  28.595  33.125  1.00  0.00     0.008 C 
ENDBRANCH   7  31
TORSDOF 2
ENDMDL
MODEL 6
REMARK VINA RESULT:    -4.123      2.114      3.658
REMARK INTER + INTRA:          -5.258
REMARK INTER:                  -4.939
REMARK INTRA:                  -0.319
REMARK UNBOUND:                -0.653
REMARK SMILES C=C(C)[C@@H]1CC[C@@]2(C(=O)[O-])CC[C@@]3(C)[C@H](CC[C@@H]4[C@@]5(C)CCC(=O)C(C)(C)[C@@H]5CC[C@]43C)[C@@H]12
REMARK SMILES IDX 7 1 6 2 33 3 11 4 5 5 15 6 4 7 12 8 16 9 13 10 17 11 31 12
REMARK SMILES IDX 14 13 18 14 30 15 32 16 19 17 29 18 21 19 20 20 28 21 22 22
REMARK SMILES IDX 25 23 23 24 26 25 27 26 24 27 8 28 9 29 10 30 2 31 3 32 1 33
REMARK H PARENT
REMARK Flexibility Score: inf
ROOT
ATOM      1  C   UNL     1      18.227  32.415  30.460  1.00  0.00     0.014 C 
ATOM      2  C   UNL     1      17.136  32.451  31.545  1.00  0.00     0.014 C 
ATOM      3  C   UNL     1      18.401  30.905  30.101  1.00  0.00     0.012 C 
ATOM      4  C   UNL     1      19.542  33.090  30.934  1.00  0.00     0.014 C 
ATOM      5  C   UNL     1      16.277  31.212  31.320  1.00  0.00     0.009 C 
ATOM      6  C   UNL     1      19.817  30.287  30.401  1.00  0.00     0.000 C 
ATOM      7  C   UNL     1      17.230  30.145  30.777  1.00  0.00     0.018 C 
ATOM      8  C   UNL     1      20.435  32.311  31.915  1.00  0.00     0.008 C 
ATOM      9  C   UNL     1      20.713  30.519  29.155  1.00  0.00     0.005 C 
ATOM     10  C   UNL     1      20.503  30.740  31.767  1.00  0.00    -0.024 C 
ATOM     11  C   UNL     1      22.125  29.972  29.298  1.00  0.00     0.005 C 
ATOM     12  C   UNL     1      22.028  30.176  31.859  1.00  0.00    -0.024 C 
ATOM     13  C   UNL     1      19.694  30.152  32.969  1.00  0.00     0.012 C 
ATOM     14  C   UNL     1      22.818  30.580  30.542  1.00  0.00     0.002 C 
ATOM     15  C   UNL     1      22.771  30.746  33.124  1.00  0.00     0.008 C 
ATOM     16  C   UNL     1      22.004  28.618  32.039  1.00  0.00     0.012 C 
ATOM     17  C   UNL     1      24.411  30.441  30.552  1.00  0.00    -0.025 C 
ATOM     18  C   UNL     1      24.283  30.519  33.125  1.00  0.00     0.006 C 
ATOM     19  C   UNL     1      24.988  31.235  29.330  1.00  0.00     0.015 C 
ATOM     20  C   UNL     1      24.869  28.951  30.424  1.00  0.00     0.012 C 
ATOM     21  C   UNL     1      24.935  31.141  31.866  1.00  0.00     0.008 C 
ATOM     22  C   UNL     1      26.510  31.427  29.346  1.00  0.00     0.077 C 
ATOM     23  C   UNL     1      26.497  31.368  31.974  1.00  0.00     0.027 C 
ATOM     24  C   UNL     1      26.993  31.961  30.659  1.00  0.00     0.138 C 
ATOM     25  C   UNL     1      26.805  32.373  33.125  1.00  0.00     0.020 C 
ATOM     26  C   UNL     1      27.290  30.071  32.261  1.00  0.00     0.020 C 
ATOM     27  O   UNL     1      27.866  32.818  30.651  1.00  0.00    -0.299 OA
ENDROOT
BRANCH   1  28
ATOM     28  C   UNL     1      17.699  33.207  29.259  1.00  0.00     0.048 C 
ATOM     29  O   UNL     1      18.439  34.023  28.646  1.00  0.00    -0.550 OA
ATOM     30  O   UNL     1      16.425  32.968  28.755  1.00  0.00    -0.550 OA
ENDBRANCH   1  28
BRANCH   7  31
ATOM     31  C   UNL     1      16.566  29.106  29.872  1.00  0.00    -0.077 C 
ATOM     32  C   UNL     1      15.076  29.149  29.652  1.00  0.00     0.039 C 
ATOM     33  C   UNL     1      17.263  28.117  29.287  1.00  0.00     0.008 C 
ENDBRANCH   7  31
TORSDOF 2
ENDMDL
MODEL 7
REMARK VINA RESULT:    -3.294      2.119      3.253
REMARK INTER + INTRA:          -4.332
REMARK INTER:                  -3.778
REMARK INTRA:                  -0.554
REMARK UNBOUND:                -0.653
REMARK SMILES C=C(C)[C@@H]1CC[C@@]2(C(=O)[O-])CC[C@@]3(C)[C@H](CC[C@@H]4[C@@]5(C)CCC(=O)C(C)(C)[C@@H]5CC[C@]43C)[C@@H]12
REMARK SMILES IDX 7 1 6 2 33 3 11 4 5 5 15 6 4 7 12 8 16 9 13 10 17 11 31 12
REMARK SMILES IDX 14 13 18 14 30 15 32 16 19 17 29 18 21 19 20 20 28 21 22 22
REMARK SMILES IDX 25 23 23 24 26 25 27 26 24 27 8 28 9 29 10 30 2 31 3 32 1 33
REMARK H PARENT
REMARK Flexibility Score: inf
ROOT
ATOM      1  C   UNL     1      19.196  32.699  30.138  1.00  0.00     0.014 C 
ATOM      2  C   UNL     1      18.507  33.791  30.976  1.00  0.00     0.014 C 
ATOM      3  C   UNL     1      19.343  31.476  31.097  1.00  0.00     0.012 C 
ATOM      4  C   UNL     1      20.547  33.183  29.547  1.00  0.00     0.014 C 
ATOM      5  C   UNL     1      17.703  33.059  32.043  1.00  0.00     0.009 C 
ATOM      6  C   UNL     1      20.818  31.025  31.415  1.00  0.00     0.000 C 
ATOM      7  C   UNL     1      18.500  31.792  32.360  1.00  0.00     0.018 C 
ATOM      8  C   UNL     1      21.754  33.273  30.497  1.00  0.00     0.008 C 
ATOM      9  C   UNL     1      21.253  30.014  30.321  1.00  0.00     0.005 C 
ATOM     10  C   UNL     1      21.873  32.198  31.648  1.00  0.00    -0.024 C 
ATOM     11  C   UNL     1      22.669  29.486  30.495  1.00  0.00     0.005 C 
ATOM     12  C   UNL     1      23.381  31.597  31.780  1.00  0.00    -0.024 C 
ATOM     13  C   UNL     1      21.528  32.943  32.978  1.00  0.00     0.012 C 
ATOM     14  C   UNL     1      23.682  30.656  30.536  1.00  0.00     0.002 C 
ATOM     15  C   UNL     1      24.449  32.749  31.850  1.00  0.00     0.008 C 
ATOM     16  C   UNL     1      23.515  30.802  33.125  1.00  0.00     0.012 C 
ATOM     17  C   UNL     1      25.200  30.234  30.267  1.00  0.00    -0.025 C 
ATOM     18  C   UNL     1      25.894  32.284  31.667  1.00  0.00     0.006 C 
ATOM     19  C   UNL     1      25.306  29.648  28.817  1.00  0.00     0.015 C 
ATOM     20  C   UNL     1      25.688  29.139  31.271  1.00  0.00     0.012 C 
ATOM     21  C   UNL     1      26.069  31.550  30.315  1.00  0.00     0.008 C 
ATOM     22  C   UNL     1      26.738  29.445  28.307  1.00  0.00     0.077 C 
ATOM     23  C   UNL     1      27.566  31.430  29.818  1.00  0.00     0.027 C 
ATOM     24  C   UNL     1      27.579  30.669  28.495  1.00  0.00     0.138 C 
ATOM     25  C   UNL     1      28.160  32.852  29.583  1.00  0.00     0.020 C 
ATOM     26  C   UNL     1      28.492  30.696  30.818  1.00  0.00     0.020 C 
ATOM     27  O   UNL     1      28.347  30.990  27.598  1.00  0.00    -0.299 OA
ENDROOT
BRANCH   1  28
ATOM     28  C   UNL     1      18.263  32.369  28.967  1.00  0.00     0.048 C 
ATOM     29  O   UNL     1      17.965  31.176  28.693  1.00  0.00    -0.550 OA
ATOM     30  O   UNL     1      17.642  33.385  28.247  1.00  0.00    -0.550 OA
ENDBRANCH   1  28
BRANCH   7  31
ATOM     31  C   UNL     1      17.650  30.615  32.844  1.00  0.00    -0.077 C 
ATOM     32  C   UNL     1      18.280  29.256  33.008  1.00  0.00     0.039 C 
ATOM     33  C   UNL     1      16.336  30.738  33.095  1.00  0.00     0.008 C 
ENDBRANCH   7  31
TORSDOF 2
ENDMDL
