MODEL 1
REMARK VINA RESULT:    -2.776      0.000      0.000
REMARK INTER + INTRA:          -3.019
REMARK INTER:                  -3.019
REMARK INTRA:                   0.000
REMARK UNBOUND:                 0.000
REMARK SMILES [NH3+]CC(=O)[O-]
REMARK SMILES IDX 2 1 1 2 3 6 4 7 5 8
REMARK H PARENT 1 3 1 4 1 5
REMARK Flexibility Score: inf
ROOT
ATOM      1  C   UNL     1      34.395  56.751  23.993  1.00  0.00     0.312 C 
ENDROOT
BRANCH   1   2
ATOM      2  N   UNL     1      34.053  56.971  22.589  1.00  0.00    -0.353 N 
ATOM      3  H   UNL     1      33.504  56.153  22.239  1.00  0.00     0.344 HD
ATOM      4  H   UNL     1      34.925  57.064  22.018  1.00  0.00     0.344 HD
ATOM      5  H   UNL     1      33.472  57.836  22.492  1.00  0.00     0.344 HD
ENDBRANCH   1   2
BRANCH   1   6
ATOM      6  C   UNL     1      33.160  56.506  24.805  1.00  0.00     0.096 C 
ATOM      7  O   UNL     1      32.857  55.337  25.159  1.00  0.00    -0.544 OA
ATOM      8  O   UNL     1      32.373  57.575  25.212  1.00  0.00    -0.544 OA
ENDBRANCH   1   6
TORSDOF 2
ENDMDL
MODEL 2
REMARK VINA RESULT:    -2.771     12.119     12.460
REMARK INTER + INTRA:          -3.014
REMARK INTER:                  -3.014
REMARK INTRA:                   0.000
REMARK UNBOUND:                 0.000
REMARK SMILES [NH3+]CC(=O)[O-]
REMARK SMILES IDX 2 1 1 2 3 6 4 7 5 8
REMARK H PARENT 1 3 1 4 1 5
REMARK Flexibility Score: inf
ROOT
ATOM      1  C   UNL     1      30.296  44.724  24.202  1.00  0.00     0.312 C 
ENDROOT
BRANCH   1   2
ATOM      2  N   UNL     1      30.616  46.094  24.596  1.00  0.00    -0.353 N 
ATOM      3  H   UNL     1      29.728  46.635  24.708  1.00  0.00     0.344 HD
ATOM      4  H   UNL     1      31.200  46.553  23.859  1.00  0.00     0.344 HD
ATOM      5  H   UNL     1      31.130  46.096  25.508  1.00  0.00     0.344 HD
ENDBRANCH   1   2
BRANCH   1   6
ATOM      6  C   UNL     1      29.634  44.703  22.859  1.00  0.00     0.096 C 
ATOM      7  O   UNL     1      28.619  45.415  22.642  1.00  0.00    -0.544 OA
ATOM      8  O   UNL     1      30.170  43.936  21.832  1.00  0.00    -0.544 OA
ENDBRANCH   1   6
TORSDOF 2
ENDMDL
MODEL 3
REMARK VINA RESULT:    -2.727      9.552      9.779
REMARK INTER + INTRA:          -2.967
REMARK INTER:                  -2.967
REMARK INTRA:                   0.000
REMARK UNBOUND:                 0.000
REMARK SMILES [NH3+]CC(=O)[O-]
REMARK SMILES IDX 2 1 1 2 3 6 4 7 5 8
REMARK H PARENT 1 3 1 4 1 5
REMARK Flexibility Score: inf
ROOT
ATOM      1  C   UNL     1      28.221  49.285  25.114  1.00  0.00     0.312 C 
ENDROOT
BRANCH   1   2
ATOM      2  N   UNL     1      26.912  48.696  24.841  1.00  0.00    -0.353 N 
ATOM      3  H   UNL     1      26.376  48.621  25.736  1.00  0.00     0.344 HD
ATOM      4  H   UNL     1      27.027  47.739  24.434  1.00  0.00     0.344 HD
ATOM      5  H   UNL     1      26.377  49.302  24.176  1.00  0.00     0.344 HD
ENDBRANCH   1   2
BRANCH   1   6
ATOM      6  C   UNL     1      28.945  48.497  26.162  1.00  0.00     0.096 C 
ATOM      7  O   UNL     1      28.784  48.767  27.381  1.00  0.00    -0.544 OA
ATOM      8  O   UNL     1      29.757  47.432  25.795  1.00  0.00    -0.544 OA
ENDBRANCH   1   6
TORSDOF 2
ENDMDL
MODEL 4
REMARK VINA RESULT:    -2.610      4.082      4.587
REMARK INTER + INTRA:          -2.839
REMARK INTER:                  -2.839
REMARK INTRA:                   0.000
REMARK UNBOUND:                 0.000
REMARK SMILES [NH3+]CC(=O)[O-]
REMARK SMILES IDX 2 1 1 2 3 6 4 7 5 8
REMARK H PARENT 1 3 1 4 1 5
REMARK Flexibility Score: inf
ROOT
ATOM      1  C   UNL     1      31.799  59.998  22.098  1.00  0.00     0.312 C 
ENDROOT
BRANCH   1   2
ATOM      2  N   UNL     1      31.234  61.151  21.400  1.00  0.00    -0.353 N 
ATOM      3  H   UNL     1      30.841  60.837  20.483  1.00  0.00     0.344 HD
ATOM      4  H   UNL     1      31.979  61.863  21.222  1.00  0.00     0.344 HD
ATOM      5  H   UNL     1      30.466  61.575  21.970  1.00  0.00     0.344 HD
ENDBRANCH   1   2
BRANCH   1   6
ATOM      6  C   UNL     1      31.409  60.013  23.544  1.00  0.00     0.096 C 
ATOM      7  O   UNL     1      30.744  60.975  24.010  1.00  0.00    -0.544 OA
ATOM      8  O   UNL     1      31.736  58.941  24.364  1.00  0.00    -0.544 OA
ENDBRANCH   1   6
TORSDOF 2
ENDMDL
MODEL 5
REMARK VINA RESULT:    -2.534     10.142     10.598
REMARK INTER + INTRA:          -2.756
REMARK INTER:                  -2.756
REMARK INTRA:                   0.000
REMARK UNBOUND:                 0.000
REMARK SMILES [NH3+]CC(=O)[O-]
REMARK SMILES IDX 2 1 1 2 3 6 4 7 5 8
REMARK H PARENT 1 3 1 4 1 5
REMARK Flexibility Score: inf
ROOT
ATOM      1  C   UNL     1      29.823  46.339  25.585  1.00  0.00     0.312 C 
ENDROOT
BRANCH   1   2
ATOM      2  N   UNL     1      30.546  45.919  24.387  1.00  0.00    -0.353 N 
ATOM      3  H   UNL     1      29.885  45.426  23.744  1.00  0.00     0.344 HD
ATOM      4  H   UNL     1      31.319  45.262  24.646  1.00  0.00     0.344 HD
ATOM      5  H   UNL     1      30.940  46.753  23.893  1.00  0.00     0.344 HD
ENDBRANCH   1   2
BRANCH   1   6
ATOM      6  C   UNL     1      28.842  47.421  25.257  1.00  0.00     0.096 C 
ATOM      7  O   UNL     1      28.928  48.546  25.816  1.00  0.00    -0.544 OA
ATOM      8  O   UNL     1      27.863  47.204  24.296  1.00  0.00    -0.544 OA
ENDBRANCH   1   6
TORSDOF 2
ENDMDL
MODEL 6
REMARK VINA RESULT:    -2.527      4.840      5.148
REMARK INTER + INTRA:          -2.749
REMARK INTER:                  -2.749
REMARK INTRA:                   0.000
REMARK UNBOUND:                 0.000
REMARK SMILES [NH3+]CC(=O)[O-]
REMARK SMILES IDX 2 1 1 2 3 6 4 7 5 8
REMARK H PARENT 1 3 1 4 1 5
REMARK Flexibility Score: inf
ROOT
ATOM      1  C   UNL     1      31.368  60.616  22.591  1.00  0.00     0.312 C 
ENDROOT
BRANCH   1   2
ATOM      2  N   UNL     1      30.999  59.493  23.451  1.00  0.00    -0.353 N 
ATOM      3  H   UNL     1      31.573  59.529  24.324  1.00  0.00     0.344 HD
ATOM      4  H   UNL     1      31.186  58.588  22.960  1.00  0.00     0.344 HD
ATOM      5  H   UNL     1      29.987  59.555  23.709  1.00  0.00     0.344 HD
ENDBRANCH   1   2
BRANCH   1   6
ATOM      6  C   UNL     1      32.124  60.136  21.391  1.00  0.00     0.096 C 
ATOM      7  O   UNL     1      33.028  59.268  21.518  1.00  0.00    -0.544 OA
ATOM      8  O   UNL     1      31.796  60.608  20.127  1.00  0.00    -0.544 OA
ENDBRANCH   1   6
TORSDOF 2
ENDMDL
MODEL 7
REMARK VINA RESULT:    -2.521     10.003     10.340
REMARK INTER + INTRA:          -2.742
REMARK INTER:                  -2.742
REMARK INTRA:                   0.000
REMARK UNBOUND:                 0.000
REMARK SMILES [NH3+]CC(=O)[O-]
REMARK SMILES IDX 2 1 1 2 3 6 4 7 5 8
REMARK H PARENT 1 3 1 4 1 5
REMARK Flexibility Score: inf
ROOT
ATOM      1  C   UNL     1      29.893  46.059  25.716  1.00  0.00     0.312 C 
ENDROOT
BRANCH   1   2
ATOM      2  N   UNL     1      30.585  45.921  24.437  1.00  0.00    -0.353 N 
ATOM      3  H   UNL     1      31.486  45.412  24.588  1.00  0.00     0.344 HD
ATOM      4  H   UNL     1      30.794  46.866  24.037  1.00  0.00     0.344 HD
ATOM      5  H   UNL     1      29.996  45.375  23.766  1.00  0.00     0.344 HD
ENDBRANCH   1   2
BRANCH   1   6
ATOM      6  C   UNL     1      29.674  47.504  26.044  1.00  0.00     0.096 C 
ATOM      7  O   UNL     1      28.710  48.131  25.531  1.00  0.00    -0.544 OA
ATOM      8  O   UNL     1      30.504  48.144  26.956  1.00  0.00    -0.544 OA
ENDBRANCH   1   6
TORSDOF 2
ENDMDL
MODEL 8
REMARK VINA RESULT:    -2.510      2.710      3.083
REMARK INTER + INTRA:          -2.730
REMARK INTER:                  -2.730
REMARK INTRA:                   0.000
REMARK UNBOUND:                 0.000
REMARK SMILES [NH3+]CC(=O)[O-]
REMARK SMILES IDX 2 1 1 2 3 6 4 7 5 8
REMARK H PARENT 1 3 1 4 1 5
REMARK Flexibility Score: inf
ROOT
ATOM      1  C   UNL     1      31.676  59.631  24.690  1.00  0.00     0.312 C 
ENDROOT
BRANCH   1   2
ATOM      2  N   UNL     1      30.991  59.536  23.403  1.00  0.00    -0.353 N 
ATOM      3  H   UNL     1      31.703  59.469  22.640  1.00  0.00     0.344 HD
ATOM      4  H   UNL     1      30.404  60.388  23.245  1.00  0.00     0.344 HD
ATOM      5  H   UNL     1      30.388  58.681  23.379  1.00  0.00     0.344 HD
ENDBRANCH   1   2
BRANCH   1   6
ATOM      6  C   UNL     1      31.982  58.267  25.228  1.00  0.00     0.096 C 
ATOM      7  O   UNL     1      31.247  57.757  26.114  1.00  0.00    -0.544 OA
ATOM      8  O   UNL     1      33.047  57.540  24.713  1.00  0.00    -0.544 OA
ENDBRANCH   1   6
TORSDOF 2
ENDMDL
MODEL 9
REMARK VINA RESULT:    -2.470     14.904     15.188
REMARK INTER + INTRA:          -2.686
REMARK INTER:                  -2.686
REMARK INTRA:                   0.000
REMARK UNBOUND:                 0.000
REMARK SMILES [NH3+]CC(=O)[O-]
REMARK SMILES IDX 2 1 1 2 3 6 4 7 5 8
REMARK H PARENT 1 3 1 4 1 5
REMARK Flexibility Score: inf
ROOT
ATOM      1  C   UNL     1      28.820  44.548  14.999  1.00  0.00     0.312 C 
ENDROOT
BRANCH   1   2
ATOM      2  N   UNL     1      27.614  43.723  15.030  1.00  0.00    -0.353 N 
ATOM      3  H   UNL     1      27.870  42.734  14.805  1.00  0.00     0.344 HD
ATOM      4  H   UNL     1      26.927  44.064  14.319  1.00  0.00     0.344 HD
ATOM      5  H   UNL     1      27.183  43.752  15.983  1.00  0.00     0.344 HD
ENDBRANCH   1   2
BRANCH   1   6
ATOM      6  C   UNL     1      28.652  45.761  15.861  1.00  0.00     0.096 C 
ATOM      7  O   UNL     1      29.429  45.961  16.831  1.00  0.00    -0.544 OA
ATOM      8  O   UNL     1      27.669  46.696  15.562  1.00  0.00    -0.544 OA
ENDBRANCH   1   6
TORSDOF 2
ENDMDL
