MODEL 1
REMARK VINA RESULT:    -6.163      0.000      0.000
REMARK INTER + INTRA:         -12.921
REMARK INTER:                 -11.568
REMARK INTRA:                  -1.354
REMARK UNBOUND:                -1.354
REMARK SMILES CCCCCCCCC=CCCCCCCCC(=O)[O-]
REMARK SMILES IDX 10 1 9 2 11 3 12 4 13 5 14 6 15 7 16 8 17 9 18 10 19 11
REMARK SMILES IDX 20 12 8 13 7 14 6 15 5 16 4 17 3 18 2 19 1 20
REMARK H PARENT
REMARK Flexibility Score: inf
ROOT
ATOM      1  C   UNL     1       3.767 -55.619 -29.227  1.00  0.00    -0.031 C 
ATOM      2  C   UNL     1       5.107 -55.594 -29.285  1.00  0.00    -0.031 C 
ENDROOT
BRANCH   1   3
ATOM      3  C   UNL     1       3.018 -55.100 -28.029  1.00  0.00     0.027 C 
BRANCH   3   4
ATOM      4  C   UNL     1       3.767 -55.342 -26.705  1.00  0.00     0.004 C 
BRANCH   4   5
ATOM      5  C   UNL     1       3.167 -56.459 -25.832  1.00  0.00     0.000 C 
BRANCH   5   6
ATOM      6  C   UNL     1       4.239 -57.288 -25.106  1.00  0.00     0.000 C 
BRANCH   6   7
ATOM      7  C   UNL     1       5.499 -57.518 -25.961  1.00  0.00     0.000 C 
BRANCH   7   8
ATOM      8  C   UNL     1       6.700 -58.109 -25.201  1.00  0.00     0.006 C 
BRANCH   8   9
ATOM      9  C   UNL     1       6.359 -58.521 -23.763  1.00  0.00     0.053 C 
BRANCH   9  10
ATOM     10  C   UNL     1       7.416 -58.047 -22.818  1.00  0.00     0.041 C 
ATOM     11  O   UNL     1       8.525 -57.644 -23.258  1.00  0.00    -0.550 OA
ATOM     12  O   UNL     1       7.196 -58.095 -21.447  1.00  0.00    -0.550 OA
ENDBRANCH   9  10
ENDBRANCH   8   9
ENDBRANCH   7   8
ENDBRANCH   6   7
ENDBRANCH   5   6
ENDBRANCH   4   5
ENDBRANCH   3   4
ENDBRANCH   1   3
BRANCH   2  13
ATOM     13  C   UNL     1       5.851 -56.090 -30.497  1.00  0.00     0.027 C 
BRANCH  13  14
ATOM     14  C   UNL     1       6.012 -55.005 -31.571  1.00  0.00     0.004 C 
BRANCH  14  15
ATOM     15  C   UNL     1       7.466 -54.884 -32.057  1.00  0.00     0.000 C 
BRANCH  15  16
ATOM     16  C   UNL     1       8.424 -55.833 -31.314  1.00  0.00     0.000 C 
BRANCH  16  17
ATOM     17  C   UNL     1       9.748 -55.194 -30.848  1.00  0.00    -0.000 C 
BRANCH  17  18
ATOM     18  C   UNL     1       9.595 -53.960 -29.942  1.00  0.00    -0.000 C 
BRANCH  18  19
ATOM     19  C   UNL     1       9.934 -54.253 -28.474  1.00  0.00    -0.003 C 
ATOM     20  C   UNL     1      10.225 -55.736 -28.263  1.00  0.00     0.004 C 
ENDBRANCH  18  19
ENDBRANCH  17  18
ENDBRANCH  16  17
ENDBRANCH  15  16
ENDBRANCH  14  15
ENDBRANCH  13  14
ENDBRANCH   2  13
TORSDOF 15
ENDMDL
MODEL 2
REMARK VINA RESULT:    -6.152      1.337      3.228
REMARK INTER + INTRA:         -12.900
REMARK INTER:                 -10.900
REMARK INTRA:                  -2.000
REMARK UNBOUND:                -1.354
REMARK SMILES CCCCCCCCC=CCCCCCCCC(=O)[O-]
REMARK SMILES IDX 10 1 9 2 11 3 12 4 13 5 14 6 15 7 16 8 17 9 18 10 19 11
REMARK SMILES IDX 20 12 8 13 7 14 6 15 5 16 4 17 3 18 2 19 1 20
REMARK H PARENT
REMARK Flexibility Score: inf
ROOT
ATOM      1  C   UNL     1       6.793 -55.728 -29.095  1.00  0.00    -0.031 C 
ATOM      2  C   UNL     1       7.897 -56.489 -29.088  1.00  0.00    -0.031 C 
ENDROOT
BRANCH   1   3
ATOM      3  C   UNL     1       5.724 -55.896 -30.141  1.00  0.00     0.027 C 
BRANCH   3   4
ATOM      4  C   UNL     1       4.386 -55.247 -29.738  1.00  0.00     0.004 C 
BRANCH   4   5
ATOM      5  C   UNL     1       3.405 -56.203 -29.037  1.00  0.00     0.000 C 
BRANCH   5   6
ATOM      6  C   UNL     1       4.113 -57.363 -28.318  1.00  0.00     0.000 C 
BRANCH   6   7
ATOM      7  C   UNL     1       4.240 -57.137 -26.800  1.00  0.00     0.000 C 
BRANCH   7   8
ATOM      8  C   UNL     1       5.615 -57.493 -26.205  1.00  0.00     0.006 C 
BRANCH   8   9
ATOM      9  C   UNL     1       5.539 -57.938 -24.738  1.00  0.00     0.053 C 
BRANCH   9  10
ATOM     10  C   UNL     1       6.906 -58.234 -24.210  1.00  0.00     0.041 C 
ATOM     11  O   UNL     1       7.099 -58.329 -22.969  1.00  0.00    -0.550 OA
ATOM     12  O   UNL     1       7.979 -58.356 -25.084  1.00  0.00    -0.550 OA
ENDBRANCH   9  10
ENDBRANCH   8   9
ENDBRANCH   7   8
ENDBRANCH   6   7
ENDBRANCH   5   6
ENDBRANCH   4   5
ENDBRANCH   3   4
ENDBRANCH   1   3
BRANCH   2  13
ATOM     13  C   UNL     1       8.952 -56.336 -28.024  1.00  0.00     0.027 C 
BRANCH  13  14
ATOM     14  C   UNL     1      10.252 -55.726 -28.569  1.00  0.00     0.004 C 
BRANCH  14  15
ATOM     15  C   UNL     1      10.274 -54.194 -28.430  1.00  0.00     0.000 C 
BRANCH  15  16
ATOM     16  C   UNL     1       9.669 -53.476 -29.650  1.00  0.00     0.000 C 
BRANCH  16  17
ATOM     17  C   UNL     1       9.844 -54.210 -30.995  1.00  0.00    -0.000 C 
BRANCH  17  18
ATOM     18  C   UNL     1       8.610 -54.190 -31.915  1.00  0.00    -0.000 C 
BRANCH  18  19
ATOM     19  C   UNL     1       8.609 -55.337 -32.935  1.00  0.00    -0.003 C 
ATOM     20  C   UNL     1       9.472 -56.499 -32.455  1.00  0.00     0.004 C 
ENDBRANCH  18  19
ENDBRANCH  17  18
ENDBRANCH  16  17
ENDBRANCH  15  16
ENDBRANCH  14  15
ENDBRANCH  13  14
ENDBRANCH   2  13
TORSDOF 15
ENDMDL
MODEL 3
REMARK VINA RESULT:    -6.055      1.181      1.998
REMARK INTER + INTRA:         -12.719
REMARK INTER:                 -11.091
REMARK INTRA:                  -1.627
REMARK UNBOUND:                -1.354
REMARK SMILES CCCCCCCCC=CCCCCCCCC(=O)[O-]
REMARK SMILES IDX 10 1 9 2 11 3 12 4 13 5 14 6 15 7 16 8 17 9 18 10 19 11
REMARK SMILES IDX 20 12 8 13 7 14 6 15 5 16 4 17 3 18 2 19 1 20
REMARK H PARENT
REMARK Flexibility Score: inf
ROOT
ATOM      1  C   UNL     1       3.208 -54.979 -28.639  1.00  0.00    -0.031 C 
ATOM      2  C   UNL     1       4.348 -55.664 -28.806  1.00  0.00    -0.031 C 
ENDROOT
BRANCH   1   3
ATOM      3  C   UNL     1       2.633 -54.722 -27.272  1.00  0.00     0.027 C 
BRANCH   3   4
ATOM      4  C   UNL     1       3.603 -55.096 -26.135  1.00  0.00     0.004 C 
BRANCH   4   5
ATOM      5  C   UNL     1       2.992 -56.005 -25.054  1.00  0.00     0.000 C 
BRANCH   5   6
ATOM      6  C   UNL     1       3.642 -57.397 -25.008  1.00  0.00     0.000 C 
BRANCH   6   7
ATOM      7  C   UNL     1       4.791 -57.554 -26.023  1.00  0.00     0.000 C 
BRANCH   7   8
ATOM      8  C   UNL     1       6.150 -57.940 -25.409  1.00  0.00     0.006 C 
BRANCH   8   9
ATOM      9  C   UNL     1       6.122 -58.004 -23.877  1.00  0.00     0.053 C 
BRANCH   9  10
ATOM     10  C   UNL     1       7.413 -58.547 -23.353  1.00  0.00     0.041 C 
ATOM     11  O   UNL     1       7.458 -59.701 -22.852  1.00  0.00    -0.550 OA
ATOM     12  O   UNL     1       8.558 -57.760 -23.372  1.00  0.00    -0.550 OA
ENDBRANCH   9  10
ENDBRANCH   8   9
ENDBRANCH   7   8
ENDBRANCH   6   7
ENDBRANCH   5   6
ENDBRANCH   4   5
ENDBRANCH   3   4
ENDBRANCH   1   3
BRANCH   2  13
ATOM     13  C   UNL     1       4.934 -55.896 -30.174  1.00  0.00     0.027 C 
BRANCH  13  14
ATOM     14  C   UNL     1       6.420 -56.281 -30.119  1.00  0.00     0.004 C 
BRANCH  14  15
ATOM     15  C   UNL     1       7.041 -55.990 -28.742  1.00  0.00     0.000 C 
BRANCH  15  16
ATOM     16  C   UNL     1       8.569 -55.815 -28.803  1.00  0.00     0.000 C 
BRANCH  16  17
ATOM     17  C   UNL     1       9.056 -54.560 -29.555  1.00  0.00    -0.000 C 
BRANCH  17  18
ATOM     18  C   UNL     1      10.092 -54.823 -30.663  1.00  0.00    -0.000 C 
BRANCH  18  19
ATOM     19  C   UNL     1       9.520 -54.625 -32.073  1.00  0.00    -0.003 C 
ATOM     20  C   UNL     1       9.498 -55.941 -32.846  1.00  0.00     0.004 C 
ENDBRANCH  18  19
ENDBRANCH  17  18
ENDBRANCH  16  17
ENDBRANCH  15  16
ENDBRANCH  14  15
ENDBRANCH  13  14
ENDBRANCH   2  13
TORSDOF 15
ENDMDL
MODEL 4
REMARK VINA RESULT:    -5.934      3.592      6.761
REMARK INTER + INTRA:         -12.490
REMARK INTER:                 -10.915
REMARK INTRA:                  -1.575
REMARK UNBOUND:                -1.354
REMARK SMILES CCCCCCCCC=CCCCCCCCC(=O)[O-]
REMARK SMILES IDX 10 1 9 2 11 3 12 4 13 5 14 6 15 7 16 8 17 9 18 10 19 11
REMARK SMILES IDX 20 12 8 13 7 14 6 15 5 16 4 17 3 18 2 19 1 20
REMARK H PARENT
REMARK Flexibility Score: inf
ROOT
ATOM      1  C   UNL     1       3.350 -55.790 -28.788  1.00  0.00    -0.031 C 
ATOM      2  C   UNL     1       3.896 -55.571 -27.584  1.00  0.00    -0.031 C 
ENDROOT
BRANCH   1   3
ATOM      3  C   UNL     1       4.126 -56.441 -29.902  1.00  0.00     0.027 C 
BRANCH   3   4
ATOM      4  C   UNL     1       4.863 -55.422 -30.791  1.00  0.00     0.004 C 
BRANCH   4   5
ATOM      5  C   UNL     1       6.397 -55.548 -30.762  1.00  0.00     0.000 C 
BRANCH   5   6
ATOM      6  C   UNL     1       6.898 -56.455 -29.625  1.00  0.00     0.000 C 
BRANCH   6   7
ATOM      7  C   UNL     1       8.053 -55.826 -28.824  1.00  0.00     0.000 C 
BRANCH   7   8
ATOM      8  C   UNL     1       8.791 -54.680 -29.541  1.00  0.00     0.006 C 
BRANCH   8   9
ATOM      9  C   UNL     1      10.041 -55.148 -30.297  1.00  0.00     0.053 C 
BRANCH   9  10
ATOM     10  C   UNL     1       9.917 -54.838 -31.755  1.00  0.00     0.041 C 
ATOM     11  O   UNL     1      10.603 -55.473 -32.598  1.00  0.00    -0.550 OA
ATOM     12  O   UNL     1       9.081 -53.813 -32.179  1.00  0.00    -0.550 OA
ENDBRANCH   9  10
ENDBRANCH   8   9
ENDBRANCH   7   8
ENDBRANCH   6   7
ENDBRANCH   5   6
ENDBRANCH   4   5
ENDBRANCH   3   4
ENDBRANCH   1   3
BRANCH   2  13
ATOM     13  C   UNL     1       3.108 -54.945 -26.464  1.00  0.00     0.027 C 
BRANCH  13  14
ATOM     14  C   UNL     1       3.454 -55.547 -25.094  1.00  0.00     0.004 C 
BRANCH  14  15
ATOM     15  C   UNL     1       3.546 -57.081 -25.145  1.00  0.00     0.000 C 
BRANCH  15  16
ATOM     16  C   UNL     1       4.920 -57.611 -24.697  1.00  0.00     0.000 C 
BRANCH  16  17
ATOM     17  C   UNL     1       5.880 -57.992 -25.842  1.00  0.00    -0.000 C 
BRANCH  17  18
ATOM     18  C   UNL     1       7.357 -58.139 -25.435  1.00  0.00    -0.000 C 
BRANCH  18  19
ATOM     19  C   UNL     1       7.531 -58.719 -24.024  1.00  0.00    -0.003 C 
ATOM     20  C   UNL     1       8.323 -57.767 -23.133  1.00  0.00     0.004 C 
ENDBRANCH  18  19
ENDBRANCH  17  18
ENDBRANCH  16  17
ENDBRANCH  15  16
ENDBRANCH  14  15
ENDBRANCH  13  14
ENDBRANCH   2  13
TORSDOF 15
ENDMDL
MODEL 5
REMARK VINA RESULT:    -5.907      2.936      4.413
REMARK INTER + INTRA:         -12.441
REMARK INTER:                 -10.520
REMARK INTRA:                  -1.920
REMARK UNBOUND:                -1.354
REMARK SMILES CCCCCCCCC=CCCCCCCCC(=O)[O-]
REMARK SMILES IDX 10 1 9 2 11 3 12 4 13 5 14 6 15 7 16 8 17 9 18 10 19 11
REMARK SMILES IDX 20 12 8 13 7 14 6 15 5 16 4 17 3 18 2 19 1 20
REMARK H PARENT
REMARK Flexibility Score: inf
ROOT
ATOM      1  C   UNL     1       6.517 -55.378 -29.570  1.00  0.00    -0.031 C 
ATOM      2  C   UNL     1       7.336 -56.428 -29.419  1.00  0.00    -0.031 C 
ENDROOT
BRANCH   1   3
ATOM      3  C   UNL     1       5.460 -55.347 -30.642  1.00  0.00     0.027 C 
BRANCH   3   4
ATOM      4  C   UNL     1       4.616 -56.634 -30.686  1.00  0.00     0.004 C 
BRANCH   4   5
ATOM      5  C   UNL     1       3.713 -56.842 -29.457  1.00  0.00     0.000 C 
BRANCH   5   6
ATOM      6  C   UNL     1       3.235 -55.519 -28.837  1.00  0.00     0.000 C 
BRANCH   6   7
ATOM      7  C   UNL     1       3.407 -55.478 -27.307  1.00  0.00     0.000 C 
BRANCH   7   8
ATOM      8  C   UNL     1       2.316 -54.696 -26.553  1.00  0.00     0.006 C 
BRANCH   8   9
ATOM      9  C   UNL     1       1.578 -55.545 -25.510  1.00  0.00     0.053 C 
BRANCH   9  10
ATOM     10  C   UNL     1       2.083 -55.243 -24.136  1.00  0.00     0.041 C 
ATOM     11  O   UNL     1       3.118 -55.815 -23.702  1.00  0.00    -0.550 OA
ATOM     12  O   UNL     1       1.385 -54.367 -23.315  1.00  0.00    -0.550 OA
ENDBRANCH   9  10
ENDBRANCH   8   9
ENDBRANCH   7   8
ENDBRANCH   6   7
ENDBRANCH   5   6
ENDBRANCH   4   5
ENDBRANCH   3   4
ENDBRANCH   1   3
BRANCH   2  13
ATOM     13  C   UNL     1       8.374 -56.467 -28.329  1.00  0.00     0.027 C 
BRANCH  13  14
ATOM     14  C   UNL     1       9.731 -55.914 -28.790  1.00  0.00     0.004 C 
BRANCH  14  15
ATOM     15  C   UNL     1       9.862 -54.406 -28.520  1.00  0.00     0.000 C 
BRANCH  15  16
ATOM     16  C   UNL     1       9.761 -53.560 -29.802  1.00  0.00     0.000 C 
BRANCH  16  17
ATOM     17  C   UNL     1       9.924 -54.344 -31.119  1.00  0.00    -0.000 C 
BRANCH  17  18
ATOM     18  C   UNL     1       8.795 -54.140 -32.145  1.00  0.00    -0.000 C 
BRANCH  18  19
ATOM     19  C   UNL     1       8.452 -55.422 -32.916  1.00  0.00    -0.003 C 
ATOM     20  C   UNL     1       9.629 -56.393 -32.919  1.00  0.00     0.004 C 
ENDBRANCH  18  19
ENDBRANCH  17  18
ENDBRANCH  16  17
ENDBRANCH  15  16
ENDBRANCH  14  15
ENDBRANCH  13  14
ENDBRANCH   2  13
TORSDOF 15
ENDMDL
MODEL 6
REMARK VINA RESULT:    -5.884      4.379      7.993
REMARK INTER + INTRA:         -12.396
REMARK INTER:                 -10.769
REMARK INTRA:                  -1.627
REMARK UNBOUND:                -1.354
REMARK SMILES CCCCCCCCC=CCCCCCCCC(=O)[O-]
REMARK SMILES IDX 10 1 9 2 11 3 12 4 13 5 14 6 15 7 16 8 17 9 18 10 19 11
REMARK SMILES IDX 20 12 8 13 7 14 6 15 5 16 4 17 3 18 2 19 1 20
REMARK H PARENT
REMARK Flexibility Score: inf
ROOT
ATOM      1  C   UNL     1       8.350 -56.482 -28.140  1.00  0.00    -0.031 C 
ATOM      2  C   UNL     1       7.186 -56.044 -28.643  1.00  0.00    -0.031 C 
ENDROOT
BRANCH   1   3
ATOM      3  C   UNL     1       9.670 -55.927 -28.603  1.00  0.00     0.027 C 
BRANCH   3   4
ATOM      4  C   UNL     1       9.878 -54.457 -28.191  1.00  0.00     0.004 C 
BRANCH   4   5
ATOM      5  C   UNL     1       9.654 -53.443 -29.327  1.00  0.00     0.000 C 
BRANCH   5   6
ATOM      6  C   UNL     1       9.692 -54.092 -30.721  1.00  0.00     0.000 C 
BRANCH   6   7
ATOM      7  C   UNL     1       8.339 -54.016 -31.453  1.00  0.00     0.000 C 
BRANCH   7   8
ATOM      8  C   UNL     1       7.909 -55.316 -32.158  1.00  0.00     0.006 C 
BRANCH   8   9
ATOM      9  C   UNL     1       9.069 -56.299 -32.369  1.00  0.00     0.053 C 
BRANCH   9  10
ATOM     10  C   UNL     1       9.794 -55.988 -33.639  1.00  0.00     0.041 C 
ATOM     11  O   UNL     1      10.992 -55.600 -33.605  1.00  0.00    -0.550 OA
ATOM     12  O   UNL     1       9.133 -56.077 -34.857  1.00  0.00    -0.550 OA
ENDBRANCH   9  10
ENDBRANCH   8   9
ENDBRANCH   7   8
ENDBRANCH   6   7
ENDBRANCH   5   6
ENDBRANCH   4   5
ENDBRANCH   3   4
ENDBRANCH   1   3
BRANCH   2  13
ATOM     13  C   UNL     1       5.867 -56.584 -28.158  1.00  0.00     0.027 C 
BRANCH  13  14
ATOM     14  C   UNL     1       4.843 -56.738 -29.292  1.00  0.00     0.004 C 
BRANCH  14  15
ATOM     15  C   UNL     1       3.430 -56.313 -28.857  1.00  0.00     0.000 C 
BRANCH  15  16
ATOM     16  C   UNL     1       3.369 -54.852 -28.376  1.00  0.00     0.000 C 
BRANCH  16  17
ATOM     17  C   UNL     1       3.080 -54.668 -26.873  1.00  0.00    -0.000 C 
BRANCH  17  18
ATOM     18  C   UNL     1       2.067 -55.662 -26.276  1.00  0.00    -0.000 C 
BRANCH  18  19
ATOM     19  C   UNL     1       0.952 -54.971 -25.479  1.00  0.00    -0.003 C 
ATOM     20  C   UNL     1       0.718 -53.550 -25.982  1.00  0.00     0.004 C 
ENDBRANCH  18  19
ENDBRANCH  17  18
ENDBRANCH  16  17
ENDBRANCH  15  16
ENDBRANCH  14  15
ENDBRANCH  13  14
ENDBRANCH   2  13
TORSDOF 15
ENDMDL
MODEL 7
REMARK VINA RESULT:    -5.880      1.566      2.521
REMARK INTER + INTRA:         -12.390
REMARK INTER:                 -10.537
REMARK INTRA:                  -1.853
REMARK UNBOUND:                -1.354
REMARK SMILES CCCCCCCCC=CCCCCCCCC(=O)[O-]
REMARK SMILES IDX 10 1 9 2 11 3 12 4 13 5 14 6 15 7 16 8 17 9 18 10 19 11
REMARK SMILES IDX 20 12 8 13 7 14 6 15 5 16 4 17 3 18 2 19 1 20
REMARK H PARENT
REMARK Flexibility Score: inf
ROOT
ATOM      1  C   UNL     1       3.302 -54.821 -27.642  1.00  0.00    -0.031 C 
ATOM      2  C   UNL     1       3.004 -55.882 -28.406  1.00  0.00    -0.031 C 
ENDROOT
BRANCH   1   3
ATOM      3  C   UNL     1       2.229 -53.955 -27.038  1.00  0.00     0.027 C 
BRANCH   3   4
ATOM      4  C   UNL     1       2.650 -53.331 -25.694  1.00  0.00     0.004 C 
BRANCH   4   5
ATOM      5  C   UNL     1       2.991 -54.356 -24.598  1.00  0.00     0.000 C 
BRANCH   5   6
ATOM      6  C   UNL     1       1.938 -55.470 -24.476  1.00  0.00     0.000 C 
BRANCH   6   7
ATOM      7  C   UNL     1       2.525 -56.875 -24.703  1.00  0.00     0.000 C 
BRANCH   7   8
ATOM      8  C   UNL     1       4.028 -57.008 -24.395  1.00  0.00     0.006 C 
BRANCH   8   9
ATOM      9  C   UNL     1       4.818 -57.683 -25.524  1.00  0.00     0.053 C 
BRANCH   9  10
ATOM     10  C   UNL     1       6.185 -58.061 -25.052  1.00  0.00     0.041 C 
ATOM     11  O   UNL     1       7.151 -58.080 -25.861  1.00  0.00    -0.550 OA
ATOM     12  O   UNL     1       6.386 -58.440 -23.731  1.00  0.00    -0.550 OA
ENDBRANCH   9  10
ENDBRANCH   8   9
ENDBRANCH   7   8
ENDBRANCH   6   7
ENDBRANCH   5   6
ENDBRANCH   4   5
ENDBRANCH   3   4
ENDBRANCH   1   3
BRANCH   2  13
ATOM     13  C   UNL     1       4.080 -56.761 -28.986  1.00  0.00     0.027 C 
BRANCH  13  14
ATOM     14  C   UNL     1       4.470 -56.349 -30.413  1.00  0.00     0.004 C 
BRANCH  14  15
ATOM     15  C   UNL     1       5.848 -55.667 -30.462  1.00  0.00     0.000 C 
BRANCH  15  16
ATOM     16  C   UNL     1       6.728 -56.013 -29.247  1.00  0.00     0.000 C 
BRANCH  16  17
ATOM     17  C   UNL     1       8.245 -56.027 -29.520  1.00  0.00    -0.000 C 
BRANCH  17  18
ATOM     18  C   UNL     1       8.655 -55.635 -30.951  1.00  0.00    -0.000 C 
BRANCH  18  19
ATOM     19  C   UNL     1       9.299 -54.243 -31.025  1.00  0.00    -0.003 C 
ATOM     20  C   UNL     1       9.651 -53.726 -29.633  1.00  0.00     0.004 C 
ENDBRANCH  18  19
ENDBRANCH  17  18
ENDBRANCH  16  17
ENDBRANCH  15  16
ENDBRANCH  14  15
ENDBRANCH  13  14
ENDBRANCH   2  13
TORSDOF 15
ENDMDL
MODEL 8
REMARK VINA RESULT:    -5.835      2.876      7.143
REMARK INTER + INTRA:         -12.306
REMARK INTER:                 -10.972
REMARK INTRA:                  -1.334
REMARK UNBOUND:                -1.354
REMARK SMILES CCCCCCCCC=CCCCCCCCC(=O)[O-]
REMARK SMILES IDX 10 1 9 2 11 3 12 4 13 5 14 6 15 7 16 8 17 9 18 10 19 11
REMARK SMILES IDX 20 12 8 13 7 14 6 15 5 16 4 17 3 18 2 19 1 20
REMARK H PARENT
REMARK Flexibility Score: inf
ROOT
ATOM      1  C   UNL     1       5.399 -55.578 -30.616  1.00  0.00    -0.031 C 
ATOM      2  C   UNL     1       4.529 -56.572 -30.383  1.00  0.00    -0.031 C 
ENDROOT
BRANCH   1   3
ATOM      3  C   UNL     1       5.575 -54.986 -31.988  1.00  0.00     0.027 C 
BRANCH   3   4
ATOM      4  C   UNL     1       7.050 -54.929 -32.430  1.00  0.00     0.004 C 
BRANCH   4   5
ATOM      5  C   UNL     1       7.962 -55.948 -31.725  1.00  0.00     0.000 C 
BRANCH   5   6
ATOM      6  C   UNL     1       9.447 -55.552 -31.774  1.00  0.00     0.000 C 
BRANCH   6   7
ATOM      7  C   UNL     1       9.717 -54.165 -31.160  1.00  0.00     0.000 C 
BRANCH   7   8
ATOM      8  C   UNL     1       9.420 -54.055 -29.653  1.00  0.00     0.006 C 
BRANCH   8   9
ATOM      9  C   UNL     1      10.462 -54.767 -28.780  1.00  0.00     0.053 C 
BRANCH   9  10
ATOM     10  C   UNL     1       9.859 -55.964 -28.118  1.00  0.00     0.041 C 
ATOM     11  O   UNL     1      10.535 -56.646 -27.303  1.00  0.00    -0.550 OA
ATOM     12  O   UNL     1       8.565 -56.358 -28.437  1.00  0.00    -0.550 OA
ENDBRANCH   9  10
ENDBRANCH   8   9
ENDBRANCH   7   8
ENDBRANCH   6   7
ENDBRANCH   5   6
ENDBRANCH   4   5
ENDBRANCH   3   4
ENDBRANCH   1   3
BRANCH   2  13
ATOM     13  C   UNL     1       4.337 -57.143 -29.004  1.00  0.00     0.027 C 
BRANCH  13  14
ATOM     14  C   UNL     1       4.743 -56.158 -27.898  1.00  0.00     0.004 C 
BRANCH  14  15
ATOM     15  C   UNL     1       3.616 -55.942 -26.873  1.00  0.00     0.000 C 
BRANCH  15  16
ATOM     16  C   UNL     1       2.603 -54.872 -27.318  1.00  0.00     0.000 C 
BRANCH  16  17
ATOM     17  C   UNL     1       1.522 -54.520 -26.276  1.00  0.00    -0.000 C 
BRANCH  17  18
ATOM     18  C   UNL     1       1.427 -55.486 -25.081  1.00  0.00    -0.000 C 
BRANCH  18  19
ATOM     19  C   UNL     1       0.016 -56.059 -24.888  1.00  0.00    -0.003 C 
ATOM     20  C   UNL     1      -1.023 -55.219 -25.625  1.00  0.00     0.004 C 
ENDBRANCH  18  19
ENDBRANCH  17  18
ENDBRANCH  16  17
ENDBRANCH  15  16
ENDBRANCH  14  15
ENDBRANCH  13  14
ENDBRANCH   2  13
TORSDOF 15
ENDMDL
MODEL 9
REMARK VINA RESULT:    -5.808      1.571      2.823
REMARK INTER + INTRA:         -12.254
REMARK INTER:                 -10.859
REMARK INTRA:                  -1.395
REMARK UNBOUND:                -1.354
REMARK SMILES CCCCCCCCC=CCCCCCCCC(=O)[O-]
REMARK SMILES IDX 10 1 9 2 11 3 12 4 13 5 14 6 15 7 16 8 17 9 18 10 19 11
REMARK SMILES IDX 20 12 8 13 7 14 6 15 5 16 4 17 3 18 2 19 1 20
REMARK H PARENT
REMARK Flexibility Score: inf
ROOT
ATOM      1  C   UNL     1       4.798 -56.585 -28.833  1.00  0.00    -0.031 C 
ATOM      2  C   UNL     1       5.562 -56.013 -29.776  1.00  0.00    -0.031 C 
ENDROOT
BRANCH   1   3
ATOM      3  C   UNL     1       3.370 -56.163 -28.610  1.00  0.00     0.027 C 
BRANCH   3   4
ATOM      4  C   UNL     1       3.247 -54.927 -27.699  1.00  0.00     0.004 C 
BRANCH   4   5
ATOM      5  C   UNL     1       2.134 -55.029 -26.640  1.00  0.00     0.000 C 
BRANCH   5   6
ATOM      6  C   UNL     1       2.666 -55.423 -25.252  1.00  0.00     0.000 C 
BRANCH   6   7
ATOM      7  C   UNL     1       3.051 -56.911 -25.159  1.00  0.00     0.000 C 
BRANCH   7   8
ATOM      8  C   UNL     1       4.446 -57.185 -24.568  1.00  0.00     0.006 C 
BRANCH   8   9
ATOM      9  C   UNL     1       5.366 -57.953 -25.526  1.00  0.00     0.053 C 
BRANCH   9  10
ATOM     10  C   UNL     1       6.724 -58.122 -24.925  1.00  0.00     0.041 C 
ATOM     11  O   UNL     1       6.880 -58.034 -23.678  1.00  0.00    -0.550 OA
ATOM     12  O   UNL     1       7.827 -58.327 -25.744  1.00  0.00    -0.550 OA
ENDBRANCH   9  10
ENDBRANCH   8   9
ENDBRANCH   7   8
ENDBRANCH   6   7
ENDBRANCH   5   6
ENDBRANCH   4   5
ENDBRANCH   3   4
ENDBRANCH   1   3
BRANCH   2  13
ATOM     13  C   UNL     1       6.981 -56.457 -30.014  1.00  0.00     0.027 C 
BRANCH  13  14
ATOM     14  C   UNL     1       7.971 -55.809 -29.035  1.00  0.00     0.004 C 
BRANCH  14  15
ATOM     15  C   UNL     1       8.652 -54.569 -29.637  1.00  0.00     0.000 C 
BRANCH  15  16
ATOM     16  C   UNL     1       8.455 -54.462 -31.160  1.00  0.00     0.000 C 
BRANCH  16  17
ATOM     17  C   UNL     1       9.728 -54.129 -31.964  1.00  0.00    -0.000 C 
BRANCH  17  18
ATOM     18  C   UNL     1      10.506 -55.348 -32.491  1.00  0.00    -0.000 C 
BRANCH  18  19
ATOM     19  C   UNL     1       9.590 -56.432 -33.075  1.00  0.00    -0.003 C 
ATOM     20  C   UNL     1       9.075 -56.031 -34.454  1.00  0.00     0.004 C 
ENDBRANCH  18  19
ENDBRANCH  17  18
ENDBRANCH  16  17
ENDBRANCH  15  16
ENDBRANCH  14  15
ENDBRANCH  13  14
ENDBRANCH   2  13
TORSDOF 15
ENDMDL
