MODEL 1
REMARK VINA RESULT:    -4.146      0.000      0.000
REMARK INTER + INTRA:          -4.427
REMARK INTER:                  -4.389
REMARK INTRA:                  -0.038
REMARK UNBOUND:                -0.038
REMARK SMILES COc1ccc2ccc(=O)oc2c1
REMARK SMILES IDX 3 1 13 2 12 3 6 4 5 5 4 6 7 7 8 8 9 9 10 10 11 11 2 12 1 13
REMARK H PARENT
REMARK Flexibility Score: inf
ROOT
ATOM      1  C   UNL     1      73.519  38.364  19.794  1.00  0.00     0.122 A 
ATOM      2  C   UNL     1      72.238  38.856  19.515  1.00  0.00     0.094 A 
ATOM      3  C   UNL     1      71.511  39.544  20.493  1.00  0.00     0.142 A 
ATOM      4  C   UNL     1      72.073  39.745  21.772  1.00  0.00     0.018 A 
ATOM      5  C   UNL     1      73.354  39.256  22.057  1.00  0.00     0.016 A 
ATOM      6  C   UNL     1      74.074  38.568  21.075  1.00  0.00     0.047 A 
ATOM      7  C   UNL     1      71.323  40.437  22.729  1.00  0.00     0.019 A 
ATOM      8  C   UNL     1      70.052  40.904  22.394  1.00  0.00     0.094 A 
ATOM      9  C   UNL     1      69.560  40.668  21.107  1.00  0.00     0.336 A 
ATOM     10  O   UNL     1      68.415  41.081  20.786  1.00  0.00    -0.246 OA
ATOM     11  O   UNL     1      70.295  40.007  20.216  1.00  0.00    -0.423 OA
ENDROOT
BRANCH   1  12
ATOM     12  O   UNL     1      74.205  37.682  18.779  1.00  0.00    -0.497 OA
ATOM     13  C   UNL     1      73.647  36.634  17.994  1.00  0.00     0.278 C 
ENDBRANCH   1  12
TORSDOF 1
ENDMDL
MODEL 2
REMARK VINA RESULT:    -4.144      2.548      5.072
REMARK INTER + INTRA:          -4.424
REMARK INTER:                  -4.393
REMARK INTRA:                  -0.031
REMARK UNBOUND:                -0.038
REMARK SMILES COc1ccc2ccc(=O)oc2c1
REMARK SMILES IDX 3 1 13 2 12 3 6 4 5 5 4 6 7 7 8 8 9 9 10 10 11 11 2 12 1 13
REMARK H PARENT
REMARK Flexibility Score: inf
ROOT
ATOM      1  C   UNL     1      70.977  40.053  21.742  1.00  0.00     0.122 A 
ATOM      2  C   UNL     1      72.028  40.506  22.548  1.00  0.00     0.094 A 
ATOM      3  C   UNL     1      73.355  40.199  22.228  1.00  0.00     0.142 A 
ATOM      4  C   UNL     1      73.638  39.425  21.082  1.00  0.00     0.018 A 
ATOM      5  C   UNL     1      72.591  38.969  20.271  1.00  0.00     0.016 A 
ATOM      6  C   UNL     1      71.268  39.280  20.598  1.00  0.00     0.047 A 
ATOM      7  C   UNL     1      74.975  39.134  20.787  1.00  0.00     0.019 A 
ATOM      8  C   UNL     1      75.980  39.612  21.627  1.00  0.00     0.094 A 
ATOM      9  C   UNL     1      75.624  40.373  22.745  1.00  0.00     0.336 A 
ATOM     10  O   UNL     1      76.517  40.814  23.516  1.00  0.00    -0.246 OA
ATOM     11  O   UNL     1      74.345  40.636  23.003  1.00  0.00    -0.423 OA
ENDROOT
BRANCH   1  12
ATOM     12  O   UNL     1      69.666  40.389  22.106  1.00  0.00    -0.497 OA
ATOM     13  C   UNL     1      68.753  41.094  21.272  1.00  0.00     0.278 C 
ENDBRANCH   1  12
TORSDOF 1
ENDMDL
MODEL 3
REMARK VINA RESULT:    -4.107      3.371      4.996
REMARK INTER + INTRA:          -4.385
REMARK INTER:                  -4.348
REMARK INTRA:                  -0.037
REMARK UNBOUND:                -0.038
REMARK SMILES COc1ccc2ccc(=O)oc2c1
REMARK SMILES IDX 3 1 13 2 12 3 6 4 5 5 4 6 7 7 8 8 9 9 10 10 11 11 2 12 1 13
REMARK H PARENT
REMARK Flexibility Score: inf
ROOT
ATOM      1  C   UNL     1      75.686  40.260  21.423  1.00  0.00     0.122 A 
ATOM      2  C   UNL     1      74.699  39.272  21.518  1.00  0.00     0.094 A 
ATOM      3  C   UNL     1      74.325  38.527  20.394  1.00  0.00     0.142 A 
ATOM      4  C   UNL     1      74.951  38.772  19.153  1.00  0.00     0.018 A 
ATOM      5  C   UNL     1      75.939  39.758  19.051  1.00  0.00     0.016 A 
ATOM      6  C   UNL     1      76.306  40.499  20.179  1.00  0.00     0.047 A 
ATOM      7  C   UNL     1      74.557  38.010  18.047  1.00  0.00     0.019 A 
ATOM      8  C   UNL     1      73.567  37.041  18.202  1.00  0.00     0.094 A 
ATOM      9  C   UNL     1      72.993  36.853  19.463  1.00  0.00     0.336 A 
ATOM     10  O   UNL     1      72.098  35.982  19.623  1.00  0.00    -0.246 OA
ATOM     11  O   UNL     1      73.386  37.591  20.498  1.00  0.00    -0.423 OA
ENDROOT
BRANCH   1  12
ATOM     12  O   UNL     1      76.023  40.978  22.579  1.00  0.00    -0.497 OA
ATOM     13  C   UNL     1      76.443  40.384  23.803  1.00  0.00     0.278 C 
ENDBRANCH   1  12
TORSDOF 1
ENDMDL
MODEL 4
REMARK VINA RESULT:    -4.098      3.341      4.240
REMARK INTER + INTRA:          -4.375
REMARK INTER:                  -4.339
REMARK INTRA:                  -0.036
REMARK UNBOUND:                -0.038
REMARK SMILES COc1ccc2ccc(=O)oc2c1
REMARK SMILES IDX 3 1 13 2 12 3 6 4 5 5 4 6 7 7 8 8 9 9 10 10 11 11 2 12 1 13
REMARK H PARENT
REMARK Flexibility Score: inf
ROOT
ATOM      1  C   UNL     1      73.045  36.872  19.206  1.00  0.00     0.122 A 
ATOM      2  C   UNL     1      73.111  37.574  20.416  1.00  0.00     0.094 A 
ATOM      3  C   UNL     1      74.076  38.567  20.612  1.00  0.00     0.142 A 
ATOM      4  C   UNL     1      74.993  38.866  19.581  1.00  0.00     0.018 A 
ATOM      5  C   UNL     1      74.932  38.168  18.368  1.00  0.00     0.016 A 
ATOM      6  C   UNL     1      73.965  37.176  18.180  1.00  0.00     0.047 A 
ATOM      7  C   UNL     1      75.947  39.865  19.806  1.00  0.00     0.019 A 
ATOM      8  C   UNL     1      75.964  40.529  21.031  1.00  0.00     0.094 A 
ATOM      9  C   UNL     1      75.024  40.179  22.006  1.00  0.00     0.336 A 
ATOM     10  O   UNL     1      75.024  40.769  23.119  1.00  0.00    -0.246 OA
ATOM     11  O   UNL     1      74.128  39.226  21.766  1.00  0.00    -0.423 OA
ENDROOT
BRANCH   1  12
ATOM     12  O   UNL     1      72.058  35.886  19.060  1.00  0.00    -0.497 OA
ATOM     13  C   UNL     1      71.848  35.126  17.875  1.00  0.00     0.278 C 
ENDBRANCH   1  12
TORSDOF 1
ENDMDL
MODEL 5
REMARK VINA RESULT:    -4.097      3.291      4.475
REMARK INTER + INTRA:          -4.375
REMARK INTER:                  -4.344
REMARK INTRA:                  -0.030
REMARK UNBOUND:                -0.038
REMARK SMILES COc1ccc2ccc(=O)oc2c1
REMARK SMILES IDX 3 1 13 2 12 3 6 4 5 5 4 6 7 7 8 8 9 9 10 10 11 11 2 12 1 13
REMARK H PARENT
REMARK Flexibility Score: inf
ROOT
ATOM      1  C   UNL     1      72.968  37.332  18.845  1.00  0.00     0.122 A 
ATOM      2  C   UNL     1      74.052  38.120  18.438  1.00  0.00     0.094 A 
ATOM      3  C   UNL     1      74.736  38.920  19.360  1.00  0.00     0.142 A 
ATOM      4  C   UNL     1      74.332  38.933  20.712  1.00  0.00     0.018 A 
ATOM      5  C   UNL     1      73.250  38.146  21.125  1.00  0.00     0.016 A 
ATOM      6  C   UNL     1      72.570  37.351  20.198  1.00  0.00     0.047 A 
ATOM      7  C   UNL     1      75.036  39.742  21.611  1.00  0.00     0.019 A 
ATOM      8  C   UNL     1      76.107  40.506  21.148  1.00  0.00     0.094 A 
ATOM      9  C   UNL     1      76.450  40.442  19.793  1.00  0.00     0.336 A 
ATOM     10  O   UNL     1      77.414  41.125  19.356  1.00  0.00    -0.246 OA
ATOM     11  O   UNL     1      75.764  39.664  18.960  1.00  0.00    -0.423 OA
ENDROOT
BRANCH   1  12
ATOM     12  O   UNL     1      72.316  36.548  17.882  1.00  0.00    -0.497 OA
ATOM     13  C   UNL     1      72.305  35.125  17.876  1.00  0.00     0.278 C 
ENDBRANCH   1  12
TORSDOF 1
ENDMDL
MODEL 6
REMARK VINA RESULT:    -3.920      2.431      3.560
REMARK INTER + INTRA:          -4.187
REMARK INTER:                  -4.150
REMARK INTRA:                  -0.037
REMARK UNBOUND:                -0.038
REMARK SMILES COc1ccc2ccc(=O)oc2c1
REMARK SMILES IDX 3 1 13 2 12 3 6 4 5 5 4 6 7 7 8 8 9 9 10 10 11 11 2 12 1 13
REMARK H PARENT
REMARK Flexibility Score: inf
ROOT
ATOM      1  C   UNL     1      75.367  40.098  22.315  1.00  0.00     0.122 A 
ATOM      2  C   UNL     1      74.113  40.452  22.830  1.00  0.00     0.094 A 
ATOM      3  C   UNL     1      72.943  40.151  22.125  1.00  0.00     0.142 A 
ATOM      4  C   UNL     1      73.025  39.483  20.884  1.00  0.00     0.018 A 
ATOM      5  C   UNL     1      74.275  39.126  20.365  1.00  0.00     0.016 A 
ATOM      6  C   UNL     1      75.440  39.431  21.075  1.00  0.00     0.047 A 
ATOM      7  C   UNL     1      71.837  39.194  20.203  1.00  0.00     0.019 A 
ATOM      8  C   UNL     1      70.618  39.572  20.764  1.00  0.00     0.094 A 
ATOM      9  C   UNL     1      70.615  40.231  21.998  1.00  0.00     0.336 A 
ATOM     10  O   UNL     1      69.523  40.580  22.521  1.00  0.00    -0.246 OA
ATOM     11  O   UNL     1      71.758  40.493  22.625  1.00  0.00    -0.423 OA
ENDROOT
BRANCH   1  12
ATOM     12  O   UNL     1      76.509  40.423  23.061  1.00  0.00    -0.497 OA
ATOM     13  C   UNL     1      76.688  40.108  24.438  1.00  0.00     0.278 C 
ENDBRANCH   1  12
TORSDOF 1
ENDMDL
MODEL 7
REMARK VINA RESULT:    -3.858      1.066      4.553
REMARK INTER + INTRA:          -4.122
REMARK INTER:                  -4.079
REMARK INTRA:                  -0.043
REMARK UNBOUND:                -0.038
REMARK SMILES COc1ccc2ccc(=O)oc2c1
REMARK SMILES IDX 3 1 13 2 12 3 6 4 5 5 4 6 7 7 8 8 9 9 10 10 11 11 2 12 1 13
REMARK H PARENT
REMARK Flexibility Score: inf
ROOT
ATOM      1  C   UNL     1      69.624  40.651  21.144  1.00  0.00     0.122 A 
ATOM      2  C   UNL     1      70.436  40.085  20.153  1.00  0.00     0.094 A 
ATOM      3  C   UNL     1      71.723  39.629  20.461  1.00  0.00     0.142 A 
ATOM      4  C   UNL     1      72.207  39.739  21.783  1.00  0.00     0.018 A 
ATOM      5  C   UNL     1      71.399  40.304  22.778  1.00  0.00     0.016 A 
ATOM      6  C   UNL     1      70.115  40.759  22.461  1.00  0.00     0.047 A 
ATOM      7  C   UNL     1      73.497  39.274  22.061  1.00  0.00     0.019 A 
ATOM      8  C   UNL     1      74.260  38.720  21.034  1.00  0.00     0.094 A 
ATOM      9  C   UNL     1      73.714  38.643  19.749  1.00  0.00     0.336 A 
ATOM     10  O   UNL     1      74.387  38.146  18.809  1.00  0.00    -0.246 OA
ATOM     11  O   UNL     1      72.484  39.093  19.511  1.00  0.00    -0.423 OA
ENDROOT
BRANCH   1  12
ATOM     12  O   UNL     1      68.343  41.092  20.782  1.00  0.00    -0.497 OA
ATOM     13  C   UNL     1      67.844  41.110  19.449  1.00  0.00     0.278 C 
ENDBRANCH   1  12
TORSDOF 1
ENDMDL
MODEL 8
REMARK VINA RESULT:    -3.763      1.717      2.228
REMARK INTER + INTRA:          -4.021
REMARK INTER:                  -3.978
REMARK INTRA:                  -0.043
REMARK UNBOUND:                -0.038
REMARK SMILES COc1ccc2ccc(=O)oc2c1
REMARK SMILES IDX 3 1 13 2 12 3 6 4 5 5 4 6 7 7 8 8 9 9 10 10 11 11 2 12 1 13
REMARK H PARENT
REMARK Flexibility Score: inf
ROOT
ATOM      1  C   UNL     1      73.592  37.623  18.876  1.00  0.00     0.122 A 
ATOM      2  C   UNL     1      72.556  37.920  19.770  1.00  0.00     0.094 A 
ATOM      3  C   UNL     1      72.662  39.001  20.651  1.00  0.00     0.142 A 
ATOM      4  C   UNL     1      73.824  39.803  20.638  1.00  0.00     0.018 A 
ATOM      5  C   UNL     1      74.864  39.512  19.745  1.00  0.00     0.016 A 
ATOM      6  C   UNL     1      74.750  38.428  18.870  1.00  0.00     0.047 A 
ATOM      7  C   UNL     1      73.902  40.879  21.529  1.00  0.00     0.019 A 
ATOM      8  C   UNL     1      72.839  41.125  22.397  1.00  0.00     0.094 A 
ATOM      9  C   UNL     1      71.719  40.288  22.353  1.00  0.00     0.336 A 
ATOM     10  O   UNL     1      70.749  40.495  23.129  1.00  0.00    -0.246 OA
ATOM     11  O   UNL     1      71.671  39.273  21.495  1.00  0.00    -0.423 OA
ENDROOT
BRANCH   1  12
ATOM     12  O   UNL     1      73.435  36.528  18.014  1.00  0.00    -0.497 OA
ATOM     13  C   UNL     1      72.463  35.502  18.185  1.00  0.00     0.278 C 
ENDBRANCH   1  12
TORSDOF 1
ENDMDL
MODEL 9
REMARK VINA RESULT:    -3.712      2.374      5.409
REMARK INTER + INTRA:          -3.967
REMARK INTER:                  -3.936
REMARK INTRA:                  -0.030
REMARK UNBOUND:                -0.038
REMARK SMILES COc1ccc2ccc(=O)oc2c1
REMARK SMILES IDX 3 1 13 2 12 3 6 4 5 5 4 6 7 7 8 8 9 9 10 10 11 11 2 12 1 13
REMARK H PARENT
REMARK Flexibility Score: inf
ROOT
ATOM      1  C   UNL     1      72.726  39.414  21.605  1.00  0.00     0.122 A 
ATOM      2  C   UNL     1      73.827  40.137  21.129  1.00  0.00     0.094 A 
ATOM      3  C   UNL     1      74.565  39.674  20.035  1.00  0.00     0.142 A 
ATOM      4  C   UNL     1      74.196  38.467  19.403  1.00  0.00     0.018 A 
ATOM      5  C   UNL     1      73.096  37.739  19.873  1.00  0.00     0.016 A 
ATOM      6  C   UNL     1      72.365  38.209  20.969  1.00  0.00     0.047 A 
ATOM      7  C   UNL     1      74.952  38.028  18.310  1.00  0.00     0.019 A 
ATOM      8  C   UNL     1      76.039  38.790  17.881  1.00  0.00     0.094 A 
ATOM      9  C   UNL     1      76.344  39.976  18.556  1.00  0.00     0.336 A 
ATOM     10  O   UNL     1      77.321  40.678  18.184  1.00  0.00    -0.246 OA
ATOM     11  O   UNL     1      75.609  40.370  19.592  1.00  0.00    -0.423 OA
ENDROOT
BRANCH   1  12
ATOM     12  O   UNL     1      72.021  39.923  22.705  1.00  0.00    -0.497 OA
ATOM     13  C   UNL     1      70.675  40.383  22.656  1.00  0.00     0.278 C 
ENDBRANCH   1  12
TORSDOF 1
ENDMDL
