MODEL 1
REMARK VINA RESULT:    -3.804      0.000      0.000
REMARK INTER + INTRA:          -4.469
REMARK INTER:                  -4.472
REMARK INTRA:                   0.003
REMARK UNBOUND:                 0.003
REMARK SMILES O=c1c(O)c(-c2ccc(O)c(O)c2)oc2cc(O)ccc12
REMARK SMILES IDX 5 1 3 2 2 3 1 4 21 5 15 6 14 7 16 8 17 9 19 10 20 11 6 12
REMARK SMILES IDX 7 13 8 14 9 15 13 16 11 17 10 18 12 20 4 22 18 24
REMARK H PARENT 10 19 12 21 4 23 18 25
REMARK Flexibility Score: inf
ROOT
ATOM      1  C   UNL     1     -11.289 -15.986  31.788  1.00  0.00     0.180 A 
ATOM      2  C   UNL     1     -10.625 -17.219  31.628  1.00  0.00     0.208 A 
ATOM      3  C   UNL     1     -10.753 -17.906  30.410  1.00  0.00     0.235 A 
ATOM      4  O   UNL     1     -10.159 -19.005  30.240  1.00  0.00    -0.285 OA
ATOM      5  C   UNL     1     -11.553 -17.361  29.393  1.00  0.00     0.069 A 
ATOM      6  C   UNL     1     -12.205 -16.133  29.639  1.00  0.00     0.142 A 
ATOM      7  O   UNL     1     -12.048 -15.511  30.802  1.00  0.00    -0.452 OA
ATOM      8  C   UNL     1     -13.017 -15.563  28.653  1.00  0.00     0.094 A 
ATOM      9  C   UNL     1     -13.187 -16.202  27.421  1.00  0.00     0.119 A 
ATOM     10  C   UNL     1     -12.540 -17.421  27.173  1.00  0.00     0.047 A 
ATOM     11  C   UNL     1     -11.727 -18.000  28.151  1.00  0.00     0.020 A 
ENDROOT
BRANCH   1  12
ATOM     12  C   UNL     1     -11.188 -15.194  33.034  1.00  0.00     0.025 A 
ATOM     13  C   UNL     1      -9.946 -14.926  33.632  1.00  0.00     0.016 A 
ATOM     14  C   UNL     1      -9.875 -14.157  34.794  1.00  0.00     0.051 A 
ATOM     15  C   UNL     1     -11.033 -13.629  35.375  1.00  0.00     0.157 A 
ATOM     16  C   UNL     1     -12.349 -14.648  33.602  1.00  0.00     0.062 A 
ATOM     17  C   UNL     1     -12.287 -13.875  34.768  1.00  0.00     0.158 A 
BRANCH  15  18
ATOM     18  O   UNL     1     -10.893 -12.872  36.540  1.00  0.00    -0.504 OA
ATOM     19  H   UNL     1     -11.648 -12.680  37.183  1.00  0.00     0.293 HD
ENDBRANCH  15  18
BRANCH  17  20
ATOM     20  O   UNL     1     -13.486 -13.374  35.284  1.00  0.00    -0.504 OA
ATOM     21  H   UNL     1     -13.540 -12.670  36.005  1.00  0.00     0.293 HD
ENDBRANCH  17  20
ENDBRANCH   1  12
BRANCH   2  22
ATOM     22  O   UNL     1      -9.876 -17.761  32.676  1.00  0.00    -0.502 OA
ATOM     23  H   UNL     1     -10.308 -18.202  33.478  1.00  0.00     0.293 HD
ENDBRANCH   2  22
BRANCH   9  24
ATOM     24  O   UNL     1     -13.999 -15.620  26.451  1.00  0.00    -0.508 OA
ATOM     25  H   UNL     1     -14.959 -15.917  26.316  1.00  0.00     0.293 HD
ENDBRANCH   9  24
TORSDOF 5
ENDMDL
MODEL 2
REMARK VINA RESULT:    -3.147      3.275      4.797
REMARK INTER + INTRA:          -3.696
REMARK INTER:                  -3.446
REMARK INTRA:                  -0.250
REMARK UNBOUND:                 0.003
REMARK SMILES O=c1c(O)c(-c2ccc(O)c(O)c2)oc2cc(O)ccc12
REMARK SMILES IDX 5 1 3 2 2 3 1 4 21 5 15 6 14 7 16 8 17 9 19 10 20 11 6 12
REMARK SMILES IDX 7 13 8 14 9 15 13 16 11 17 10 18 12 20 4 22 18 24
REMARK H PARENT 10 19 12 21 4 23 18 25
REMARK Flexibility Score: inf
ROOT
ATOM      1  C   UNL     1     -12.409 -16.888  29.685  1.00  0.00     0.180 A 
ATOM      2  C   UNL     1     -12.326 -17.187  28.309  1.00  0.00     0.208 A 
ATOM      3  C   UNL     1     -12.972 -16.343  27.393  1.00  0.00     0.235 A 
ATOM      4  O   UNL     1     -12.903 -16.584  26.156  1.00  0.00    -0.285 OA
ATOM      5  C   UNL     1     -13.699 -15.238  27.866  1.00  0.00     0.069 A 
ATOM      6  C   UNL     1     -13.753 -15.020  29.259  1.00  0.00     0.142 A 
ATOM      7  O   UNL     1     -13.119 -15.838  30.092  1.00  0.00    -0.452 OA
ATOM      8  C   UNL     1     -14.475 -13.936  29.769  1.00  0.00     0.094 A 
ATOM      9  C   UNL     1     -15.143 -13.063  28.905  1.00  0.00     0.119 A 
ATOM     10  C   UNL     1     -15.090 -13.276  27.521  1.00  0.00     0.047 A 
ATOM     11  C   UNL     1     -14.372 -14.357  27.000  1.00  0.00     0.020 A 
ENDROOT
BRANCH   1  12
ATOM     12  C   UNL     1     -11.739 -17.718  30.712  1.00  0.00     0.025 A 
ATOM     13  C   UNL     1     -10.593 -17.267  31.385  1.00  0.00     0.016 A 
ATOM     14  C   UNL     1      -9.994 -18.059  32.366  1.00  0.00     0.051 A 
ATOM     15  C   UNL     1     -10.530 -19.306  32.705  1.00  0.00     0.157 A 
ATOM     16  C   UNL     1     -12.292 -18.959  31.064  1.00  0.00     0.062 A 
ATOM     17  C   UNL     1     -11.697 -19.761  32.047  1.00  0.00     0.158 A 
BRANCH  15  18
ATOM     18  O   UNL     1      -9.880 -20.051  33.691  1.00  0.00    -0.504 OA
ATOM     19  H   UNL     1      -9.019 -19.768  34.137  1.00  0.00     0.293 HD
ENDBRANCH  15  18
BRANCH  17  20
ATOM     20  O   UNL     1     -12.296 -20.989  32.337  1.00  0.00    -0.504 OA
ATOM     21  H   UNL     1     -11.878 -21.884  32.131  1.00  0.00     0.293 HD
ENDBRANCH  17  20
ENDBRANCH   1  12
BRANCH   2  22
ATOM     22  O   UNL     1     -11.637 -18.321  27.872  1.00  0.00    -0.502 OA
ATOM     23  H   UNL     1     -12.063 -19.015  27.270  1.00  0.00     0.293 HD
ENDBRANCH   2  22
BRANCH   9  24
ATOM     24  O   UNL     1     -15.856 -11.989  29.431  1.00  0.00    -0.508 OA
ATOM     25  H   UNL     1     -16.695 -12.128  29.981  1.00  0.00     0.293 HD
ENDBRANCH   9  24
TORSDOF 5
ENDMDL
MODEL 3
REMARK VINA RESULT:    -2.021      1.799      2.373
REMARK INTER + INTRA:          -2.373
REMARK INTER:                  -2.245
REMARK INTRA:                  -0.128
REMARK UNBOUND:                 0.003
REMARK SMILES O=c1c(O)c(-c2ccc(O)c(O)c2)oc2cc(O)ccc12
REMARK SMILES IDX 5 1 3 2 2 3 1 4 21 5 15 6 14 7 16 8 17 9 19 10 20 11 6 12
REMARK SMILES IDX 7 13 8 14 9 15 13 16 11 17 10 18 12 20 4 22 18 24
REMARK H PARENT 10 19 12 21 4 23 18 25
REMARK Flexibility Score: inf
ROOT
ATOM      1  C   UNL     1     -11.427 -16.115  31.458  1.00  0.00     0.180 A 
ATOM      2  C   UNL     1     -10.761 -15.720  30.279  1.00  0.00     0.208 A 
ATOM      3  C   UNL     1     -10.981 -16.449  29.100  1.00  0.00     0.235 A 
ATOM      4  O   UNL     1     -10.405 -16.108  28.031  1.00  0.00    -0.285 OA
ATOM      5  C   UNL     1     -11.839 -17.560  29.126  1.00  0.00     0.069 A 
ATOM      6  C   UNL     1     -12.449 -17.906  30.351  1.00  0.00     0.142 A 
ATOM      7  O   UNL     1     -12.221 -17.184  31.442  1.00  0.00    -0.452 OA
ATOM      8  C   UNL     1     -13.303 -19.012  30.419  1.00  0.00     0.094 A 
ATOM      9  C   UNL     1     -13.557 -19.780  29.278  1.00  0.00     0.119 A 
ATOM     10  C   UNL     1     -12.954 -19.439  28.060  1.00  0.00     0.047 A 
ATOM     11  C   UNL     1     -12.099 -18.335  27.981  1.00  0.00     0.020 A 
ENDROOT
BRANCH   1  12
ATOM     12  C   UNL     1     -11.262 -15.387  32.736  1.00  0.00     0.025 A 
ATOM     13  C   UNL     1     -10.010 -15.286  33.365  1.00  0.00     0.016 A 
ATOM     14  C   UNL     1      -9.876 -14.574  34.557  1.00  0.00     0.051 A 
ATOM     15  C   UNL     1     -10.978 -13.939  35.140  1.00  0.00     0.157 A 
ATOM     16  C   UNL     1     -12.365 -14.734  33.307  1.00  0.00     0.062 A 
ATOM     17  C   UNL     1     -12.239 -14.017  34.504  1.00  0.00     0.158 A 
BRANCH  15  18
ATOM     18  O   UNL     1     -10.777 -13.247  36.336  1.00  0.00    -0.504 OA
ATOM     19  H   UNL     1      -9.874 -12.939  36.665  1.00  0.00     0.293 HD
ENDBRANCH  15  18
BRANCH  17  20
ATOM     20  O   UNL     1     -13.383 -13.403  35.019  1.00  0.00    -0.504 OA
ATOM     21  H   UNL     1     -13.492 -12.404  35.118  1.00  0.00     0.293 HD
ENDBRANCH  17  20
ENDBRANCH   1  12
BRANCH   2  22
ATOM     22  O   UNL     1      -9.875 -14.639  30.295  1.00  0.00    -0.502 OA
ATOM     23  H   UNL     1      -8.871 -14.763  30.338  1.00  0.00     0.293 HD
ENDBRANCH   2  22
BRANCH   9  24
ATOM     24  O   UNL     1     -14.409 -20.877  29.365  1.00  0.00    -0.508 OA
ATOM     25  H   UNL     1     -15.312 -20.813  29.820  1.00  0.00     0.293 HD
ENDBRANCH   9  24
TORSDOF 5
ENDMDL
MODEL 4
REMARK VINA RESULT:    -0.981      3.192      5.452
REMARK INTER + INTRA:          -1.150
REMARK INTER:                  -1.349
REMARK INTRA:                   0.199
REMARK UNBOUND:                 0.003
REMARK SMILES O=c1c(O)c(-c2ccc(O)c(O)c2)oc2cc(O)ccc12
REMARK SMILES IDX 5 1 3 2 2 3 1 4 21 5 15 6 14 7 16 8 17 9 19 10 20 11 6 12
REMARK SMILES IDX 7 13 8 14 9 15 13 16 11 17 10 18 12 20 4 22 18 24
REMARK H PARENT 10 19 12 21 4 23 18 25
REMARK Flexibility Score: inf
ROOT
ATOM      1  C   UNL     1     -13.033 -15.962  29.285  1.00  0.00     0.180 A 
ATOM      2  C   UNL     1     -12.597 -16.586  28.097  1.00  0.00     0.208 A 
ATOM      3  C   UNL     1     -11.692 -17.655  28.186  1.00  0.00     0.235 A 
ATOM      4  O   UNL     1     -11.296 -18.235  27.138  1.00  0.00    -0.285 OA
ATOM      5  C   UNL     1     -11.228 -18.063  29.447  1.00  0.00     0.069 A 
ATOM      6  C   UNL     1     -11.694 -17.373  30.587  1.00  0.00     0.142 A 
ATOM      7  O   UNL     1     -12.558 -16.372  30.460  1.00  0.00    -0.452 OA
ATOM      8  C   UNL     1     -11.248 -17.745  31.860  1.00  0.00     0.094 A 
ATOM      9  C   UNL     1     -10.343 -18.800  32.011  1.00  0.00     0.119 A 
ATOM     10  C   UNL     1      -9.880 -19.488  30.882  1.00  0.00     0.047 A 
ATOM     11  C   UNL     1     -10.318 -19.125  29.605  1.00  0.00     0.020 A 
ENDROOT
BRANCH   1  12
ATOM     12  C   UNL     1     -14.000 -14.841  29.276  1.00  0.00     0.025 A 
ATOM     13  C   UNL     1     -13.990 -13.874  28.258  1.00  0.00     0.016 A 
ATOM     14  C   UNL     1     -14.927 -12.841  28.258  1.00  0.00     0.051 A 
ATOM     15  C   UNL     1     -15.898 -12.756  29.262  1.00  0.00     0.157 A 
ATOM     16  C   UNL     1     -14.986 -14.772  30.272  1.00  0.00     0.062 A 
ATOM     17  C   UNL     1     -15.930 -13.737  30.280  1.00  0.00     0.158 A 
BRANCH  15  18
ATOM     18  O   UNL     1     -16.804 -11.694  29.207  1.00  0.00    -0.504 OA
ATOM     19  H   UNL     1     -17.731 -11.762  28.813  1.00  0.00     0.293 HD
ENDBRANCH  15  18
BRANCH  17  20
ATOM     20  O   UNL     1     -16.875 -13.726  31.310  1.00  0.00    -0.504 OA
ATOM     21  H   UNL     1     -16.688 -14.038  32.251  1.00  0.00     0.293 HD
ENDBRANCH  17  20
ENDBRANCH   1  12
BRANCH   2  22
ATOM     22  O   UNL     1     -13.037 -16.125  26.853  1.00  0.00    -0.502 OA
ATOM     23  H   UNL     1     -12.603 -15.340  26.383  1.00  0.00     0.293 HD
ENDBRANCH   2  22
BRANCH   9  24
ATOM     24  O   UNL     1      -9.910 -19.156  33.286  1.00  0.00    -0.508 OA
ATOM     25  H   UNL     1      -9.443 -20.038  33.459  1.00  0.00     0.293 HD
ENDBRANCH   9  24
TORSDOF 5
ENDMDL
