MODEL 1
REMARK VINA RESULT:    -4.030      0.000      0.000
REMARK INTER + INTRA:          -4.147
REMARK INTER:                  -4.147
REMARK INTRA:                   0.000
REMARK UNBOUND:                 0.000
REMARK SMILES Oc1ccc2[nH]ccc2c1
REMARK SMILES IDX 3 1 4 2 5 3 9 4 8 5 7 6 6 7 10 8 2 9 1 11
REMARK H PARENT 6 10 1 12
REMARK Flexibility Score: inf
ROOT
ATOM      1  C   UNL     1       0.320 -16.245   9.114  1.00  0.00     0.048 A 
ATOM      2  C   UNL     1      -0.156 -15.305   8.182  1.00  0.00     0.030 A 
ATOM      3  C   UNL     1       0.435 -14.044   8.170  1.00  0.00     0.046 A 
ATOM      4  C   UNL     1       1.447 -13.715   9.032  1.00  0.00     0.003 A 
ATOM      5  C   UNL     1       1.807 -12.411   8.767  1.00  0.00     0.028 A 
ATOM      6  C   UNL     1       0.971 -12.007   7.730  1.00  0.00     0.083 A 
ATOM      7  N   UNL     1       0.135 -13.008   7.370  1.00  0.00    -0.361 N 
ATOM      8  C   UNL     1       1.942 -14.621   9.967  1.00  0.00     0.056 A 
ATOM      9  C   UNL     1       1.365 -15.909  10.005  1.00  0.00     0.116 A 
ATOM     10  H   UNL     1      -0.593 -12.977   6.621  1.00  0.00     0.166 HD
ENDROOT
BRANCH   9  11
ATOM     11  O   UNL     1       1.819 -16.857  10.919  1.00  0.00    -0.508 OA
ATOM     12  H   UNL     1       1.311 -17.719  11.082  1.00  0.00     0.293 HD
ENDBRANCH   9  11
TORSDOF 1
ENDMDL
MODEL 2
REMARK VINA RESULT:    -4.000      3.174      4.285
REMARK INTER + INTRA:          -4.116
REMARK INTER:                  -4.116
REMARK INTRA:                   0.000
REMARK UNBOUND:                 0.000
REMARK SMILES Oc1ccc2[nH]ccc2c1
REMARK SMILES IDX 3 1 4 2 5 3 9 4 8 5 7 6 6 7 10 8 2 9 1 11
REMARK H PARENT 6 10 1 12
REMARK Flexibility Score: inf
ROOT
ATOM      1  C   UNL     1       2.853 -12.253   6.560  1.00  0.00     0.048 A 
ATOM      2  C   UNL     1       3.400 -12.624   7.801  1.00  0.00     0.030 A 
ATOM      3  C   UNL     1       2.520 -12.988   8.818  1.00  0.00     0.046 A 
ATOM      4  C   UNL     1       1.164 -12.987   8.630  1.00  0.00     0.003 A 
ATOM      5  C   UNL     1       0.583 -13.392   9.813  1.00  0.00     0.028 A 
ATOM      6  C   UNL     1       1.647 -13.621  10.680  1.00  0.00     0.083 A 
ATOM      7  N   UNL     1       2.827 -13.373  10.067  1.00  0.00    -0.361 N 
ATOM      8  C   UNL     1       0.588 -12.625   7.414  1.00  0.00     0.056 A 
ATOM      9  C   UNL     1       1.453 -12.251   6.362  1.00  0.00     0.116 A 
ATOM     10  H   UNL     1       3.781 -13.465  10.484  1.00  0.00     0.166 HD
ENDROOT
BRANCH   9  11
ATOM     11  O   UNL     1       0.936 -11.878   5.124  1.00  0.00    -0.508 OA
ATOM     12  H   UNL     1       1.420 -11.219   4.526  1.00  0.00     0.293 HD
ENDBRANCH   9  11
TORSDOF 1
ENDMDL
MODEL 3
REMARK VINA RESULT:    -3.943      2.579      3.585
REMARK INTER + INTRA:          -4.058
REMARK INTER:                  -4.058
REMARK INTRA:                   0.000
REMARK UNBOUND:                 0.000
REMARK SMILES Oc1ccc2[nH]ccc2c1
REMARK SMILES IDX 3 1 4 2 5 3 9 4 8 5 7 6 6 7 10 8 2 9 1 11
REMARK H PARENT 6 10 1 12
REMARK Flexibility Score: inf
ROOT
ATOM      1  C   UNL     1      -0.174 -15.178   8.144  1.00  0.00     0.048 A 
ATOM      2  C   UNL     1       0.218 -16.203   9.023  1.00  0.00     0.030 A 
ATOM      3  C   UNL     1       1.265 -15.939   9.905  1.00  0.00     0.046 A 
ATOM      4  C   UNL     1       1.900 -14.726   9.924  1.00  0.00     0.003 A 
ATOM      5  C   UNL     1       2.876 -14.787  10.897  1.00  0.00     0.028 A 
ATOM      6  C   UNL     1       2.778 -16.069  11.429  1.00  0.00     0.083 A 
ATOM      7  N   UNL     1       1.793 -16.768  10.819  1.00  0.00    -0.361 N 
ATOM      8  C   UNL     1       1.537 -13.690   9.067  1.00  0.00     0.056 A 
ATOM      9  C   UNL     1       0.480 -13.924   8.162  1.00  0.00     0.116 A 
ATOM     10  H   UNL     1       1.504 -17.751  11.022  1.00  0.00     0.166 HD
ENDROOT
BRANCH   9  11
ATOM     11  O   UNL     1       0.072 -12.927   7.280  1.00  0.00    -0.508 OA
ATOM     12  H   UNL     1      -0.869 -12.553   7.302  1.00  0.00     0.293 HD
ENDBRANCH   9  11
TORSDOF 1
ENDMDL
MODEL 4
REMARK VINA RESULT:    -3.940      3.355      4.237
REMARK INTER + INTRA:          -4.055
REMARK INTER:                  -4.055
REMARK INTRA:                   0.000
REMARK UNBOUND:                 0.000
REMARK SMILES Oc1ccc2[nH]ccc2c1
REMARK SMILES IDX 3 1 4 2 5 3 9 4 8 5 7 6 6 7 10 8 2 9 1 11
REMARK H PARENT 6 10 1 12
REMARK Flexibility Score: inf
ROOT
ATOM      1  C   UNL     1       0.446 -12.604   7.429  1.00  0.00     0.048 A 
ATOM      2  C   UNL     1       1.032 -12.974   8.653  1.00  0.00     0.030 A 
ATOM      3  C   UNL     1       2.422 -12.962   8.739  1.00  0.00     0.046 A 
ATOM      4  C   UNL     1       3.206 -12.606   7.673  1.00  0.00     0.003 A 
ATOM      5  C   UNL     1       4.520 -12.697   8.079  1.00  0.00     0.028 A 
ATOM      6  C   UNL     1       4.462 -13.117   9.405  1.00  0.00     0.083 A 
ATOM      7  N   UNL     1       3.179 -13.277   9.803  1.00  0.00    -0.361 N 
ATOM      8  C   UNL     1       2.658 -12.236   6.447  1.00  0.00     0.056 A 
ATOM      9  C   UNL     1       1.252 -12.236   6.327  1.00  0.00     0.116 A 
ATOM     10  H   UNL     1       2.848 -13.582  10.745  1.00  0.00     0.166 HD
ENDROOT
BRANCH   9  11
ATOM     11  O   UNL     1       0.647 -11.875   5.126  1.00  0.00    -0.508 OA
ATOM     12  H   UNL     1      -0.124 -11.218   5.099  1.00  0.00     0.293 HD
ENDBRANCH   9  11
TORSDOF 1
ENDMDL
MODEL 5
REMARK VINA RESULT:    -3.766      2.125      2.756
REMARK INTER + INTRA:          -3.876
REMARK INTER:                  -3.876
REMARK INTRA:                   0.000
REMARK UNBOUND:                 0.000
REMARK SMILES Oc1ccc2[nH]ccc2c1
REMARK SMILES IDX 3 1 4 2 5 3 9 4 8 5 7 6 6 7 10 8 2 9 1 11
REMARK H PARENT 6 10 1 12
REMARK Flexibility Score: inf
ROOT
ATOM      1  C   UNL     1       1.847 -16.165  11.228  1.00  0.00     0.048 A 
ATOM      2  C   UNL     1       1.752 -14.959  11.946  1.00  0.00     0.030 A 
ATOM      3  C   UNL     1       1.183 -13.862  11.304  1.00  0.00     0.046 A 
ATOM      4  C   UNL     1       0.727 -13.940  10.015  1.00  0.00     0.003 A 
ATOM      5  C   UNL     1       0.228 -12.699   9.678  1.00  0.00     0.028 A 
ATOM      6  C   UNL     1       0.414 -11.914  10.812  1.00  0.00     0.083 A 
ATOM      7  N   UNL     1       0.997 -12.629  11.801  1.00  0.00    -0.361 N 
ATOM      8  C   UNL     1       0.806 -15.117   9.275  1.00  0.00     0.056 A 
ATOM      9  C   UNL     1       1.377 -16.248   9.896  1.00  0.00     0.116 A 
ATOM     10  H   UNL     1       1.250 -12.287  12.756  1.00  0.00     0.166 HD
ENDROOT
BRANCH   9  11
ATOM     11  O   UNL     1       1.483 -17.454   9.207  1.00  0.00    -0.508 OA
ATOM     12  H   UNL     1       1.538 -18.339   9.696  1.00  0.00     0.293 HD
ENDBRANCH   9  11
TORSDOF 1
ENDMDL
MODEL 6
REMARK VINA RESULT:    -3.618      2.411      3.268
REMARK INTER + INTRA:          -3.723
REMARK INTER:                  -3.723
REMARK INTRA:                   0.000
REMARK UNBOUND:                 0.000
REMARK SMILES Oc1ccc2[nH]ccc2c1
REMARK SMILES IDX 3 1 4 2 5 3 9 4 8 5 7 6 6 7 10 8 2 9 1 11
REMARK H PARENT 6 10 1 12
REMARK Flexibility Score: inf
ROOT
ATOM      1  C   UNL     1       0.692 -15.205   9.187  1.00  0.00     0.048 A 
ATOM      2  C   UNL     1       0.494 -13.982   9.853  1.00  0.00     0.030 A 
ATOM      3  C   UNL     1       0.972 -13.865  11.156  1.00  0.00     0.046 A 
ATOM      4  C   UNL     1       1.615 -14.900  11.782  1.00  0.00     0.003 A 
ATOM      5  C   UNL     1       1.958 -14.468  13.046  1.00  0.00     0.028 A 
ATOM      6  C   UNL     1       1.491 -13.159  13.121  1.00  0.00     0.083 A 
ATOM      7  N   UNL     1       0.890 -12.796  11.965  1.00  0.00    -0.361 N 
ATOM      8  C   UNL     1       1.827 -16.124  11.153  1.00  0.00     0.056 A 
ATOM      9  C   UNL     1       1.356 -16.275   9.831  1.00  0.00     0.116 A 
ATOM     10  H   UNL     1       0.453 -11.872  11.749  1.00  0.00     0.166 HD
ENDROOT
BRANCH   9  11
ATOM     11  O   UNL     1       1.539 -17.476   9.150  1.00  0.00    -0.508 OA
ATOM     12  H   UNL     1       2.353 -17.636   8.570  1.00  0.00     0.293 HD
ENDBRANCH   9  11
TORSDOF 1
ENDMDL
MODEL 7
REMARK VINA RESULT:    -3.577      2.618      3.289
REMARK INTER + INTRA:          -3.681
REMARK INTER:                  -3.681
REMARK INTRA:                   0.000
REMARK UNBOUND:                 0.000
REMARK SMILES Oc1ccc2[nH]ccc2c1
REMARK SMILES IDX 3 1 4 2 5 3 9 4 8 5 7 6 6 7 10 8 2 9 1 11
REMARK H PARENT 6 10 1 12
REMARK Flexibility Score: inf
ROOT
ATOM      1  C   UNL     1       3.894 -12.817   8.339  1.00  0.00     0.048 A 
ATOM      2  C   UNL     1       3.512 -12.522   7.018  1.00  0.00     0.030 A 
ATOM      3  C   UNL     1       2.160 -12.297   6.766  1.00  0.00     0.046 A 
ATOM      4  C   UNL     1       1.223 -12.358   7.763  1.00  0.00     0.003 A 
ATOM      5  C   UNL     1      -0.003 -12.090   7.193  1.00  0.00     0.028 A 
ATOM      6  C   UNL     1       0.263 -11.875   5.843  1.00  0.00     0.083 A 
ATOM      7  N   UNL     1       1.585 -12.003   5.589  1.00  0.00    -0.361 N 
ATOM      8  C   UNL     1       1.567 -12.647   9.081  1.00  0.00     0.056 A 
ATOM      9  C   UNL     1       2.929 -12.881   9.370  1.00  0.00     0.116 A 
ATOM     10  H   UNL     1       2.059 -11.894   4.664  1.00  0.00     0.166 HD
ENDROOT
BRANCH   9  11
ATOM     11  O   UNL     1       3.334 -13.175  10.670  1.00  0.00    -0.508 OA
ATOM     12  H   UNL     1       4.153 -13.741  10.853  1.00  0.00     0.293 HD
ENDBRANCH   9  11
TORSDOF 1
ENDMDL
MODEL 8
REMARK VINA RESULT:    -3.404      1.061      1.245
REMARK INTER + INTRA:          -3.503
REMARK INTER:                  -3.503
REMARK INTRA:                   0.000
REMARK UNBOUND:                 0.000
REMARK SMILES Oc1ccc2[nH]ccc2c1
REMARK SMILES IDX 3 1 4 2 5 3 9 4 8 5 7 6 6 7 10 8 2 9 1 11
REMARK H PARENT 6 10 1 12
REMARK Flexibility Score: inf
ROOT
ATOM      1  C   UNL     1       1.553 -16.060  10.090  1.00  0.00     0.048 A 
ATOM      2  C   UNL     1       0.609 -15.351   9.326  1.00  0.00     0.030 A 
ATOM      3  C   UNL     1       1.011 -14.151   8.744  1.00  0.00     0.046 A 
ATOM      4  C   UNL     1       2.281 -13.664   8.904  1.00  0.00     0.003 A 
ATOM      5  C   UNL     1       2.357 -12.475   8.211  1.00  0.00     0.028 A 
ATOM      6  C   UNL     1       1.094 -12.298   7.654  1.00  0.00     0.083 A 
ATOM      7  N   UNL     1       0.276 -13.325   7.982  1.00  0.00    -0.361 N 
ATOM      8  C   UNL     1       3.240 -14.340   9.654  1.00  0.00     0.056 A 
ATOM      9  C   UNL     1       2.865 -15.560  10.257  1.00  0.00     0.116 A 
ATOM     10  H   UNL     1      -0.722 -13.446   7.699  1.00  0.00     0.166 HD
ENDROOT
BRANCH   9  11
ATOM     11  O   UNL     1       3.781 -16.281  11.020  1.00  0.00    -0.508 OA
ATOM     12  H   UNL     1       4.559 -16.768  10.591  1.00  0.00     0.293 HD
ENDBRANCH   9  11
TORSDOF 1
ENDMDL
MODEL 9
REMARK VINA RESULT:    -3.394      2.629      4.080
REMARK INTER + INTRA:          -3.493
REMARK INTER:                  -3.493
REMARK INTRA:                   0.000
REMARK UNBOUND:                 0.000
REMARK SMILES Oc1ccc2[nH]ccc2c1
REMARK SMILES IDX 3 1 4 2 5 3 9 4 8 5 7 6 6 7 10 8 2 9 1 11
REMARK H PARENT 6 10 1 12
REMARK Flexibility Score: inf
ROOT
ATOM      1  C   UNL     1       2.002 -12.279   8.457  1.00  0.00     0.048 A 
ATOM      2  C   UNL     1       2.862 -13.114   9.193  1.00  0.00     0.030 A 
ATOM      3  C   UNL     1       2.399 -14.380   9.545  1.00  0.00     0.046 A 
ATOM      4  C   UNL     1       1.147 -14.811   9.192  1.00  0.00     0.003 A 
ATOM      5  C   UNL     1       0.998 -16.090   9.684  1.00  0.00     0.028 A 
ATOM      6  C   UNL     1       2.199 -16.374  10.328  1.00  0.00     0.083 A 
ATOM      7  N   UNL     1       3.050 -15.326  10.239  1.00  0.00    -0.361 N 
ATOM      8  C   UNL     1       0.270 -14.010   8.464  1.00  0.00     0.056 A 
ATOM      9  C   UNL     1       0.709 -12.722   8.092  1.00  0.00     0.116 A 
ATOM     10  H   UNL     1       4.017 -15.269  10.632  1.00  0.00     0.166 HD
ENDROOT
BRANCH   9  11
ATOM     11  O   UNL     1      -0.123 -11.875   7.363  1.00  0.00    -0.508 OA
ATOM     12  H   UNL     1       0.180 -11.457   6.492  1.00  0.00     0.293 HD
ENDBRANCH   9  11
TORSDOF 1
ENDMDL
