MODEL 1
REMARK VINA RESULT:    -3.498      0.000      0.000
REMARK INTER + INTRA:          -5.444
REMARK INTER:                  -5.134
REMARK INTRA:                  -0.310
REMARK UNBOUND:                -0.310
REMARK SMILES O=C([O-])CCCCCCCC(=O)[O-]
REMARK SMILES IDX 7 1 6 2 5 3 4 4 2 5 1 6 3 7 8 8 9 9 10 10 11 11 12 12 13 13
REMARK H PARENT
REMARK Flexibility Score: inf
ROOT
ATOM      1  C   UNL     1      24.950  41.423   3.384  1.00  0.00     0.000 C 
ENDROOT
BRANCH   1   2
ATOM      2  C   UNL     1      24.122  40.811   2.243  1.00  0.00     0.000 C 
BRANCH   2   3
ATOM      3  C   UNL     1      24.742  39.517   1.688  1.00  0.00     0.006 C 
BRANCH   3   4
ATOM      4  C   UNL     1      24.574  39.402   0.166  1.00  0.00     0.053 C 
BRANCH   4   5
ATOM      5  C   UNL     1      25.821  39.800  -0.561  1.00  0.00     0.041 C 
ATOM      6  O   UNL     1      26.947  39.652  -0.018  1.00  0.00    -0.550 OA
ATOM      7  O   UNL     1      25.736  40.370  -1.825  1.00  0.00    -0.550 OA
ENDBRANCH   4   5
ENDBRANCH   3   4
ENDBRANCH   2   3
ENDBRANCH   1   2
BRANCH   1   8
ATOM      8  C   UNL     1      24.091  41.783   4.610  1.00  0.00     0.000 C 
BRANCH   8   9
ATOM      9  C   UNL     1      24.914  42.419   5.740  1.00  0.00     0.006 C 
BRANCH   9  10
ATOM     10  C   UNL     1      24.613  43.913   5.924  1.00  0.00     0.053 C 
BRANCH  10  11
ATOM     11  C   UNL     1      25.749  44.740   5.410  1.00  0.00     0.041 C 
ATOM     12  O   UNL     1      25.746  45.988   5.571  1.00  0.00    -0.550 OA
ATOM     13  O   UNL     1      26.787  44.138   4.711  1.00  0.00    -0.550 OA
ENDBRANCH  10  11
ENDBRANCH   9  10
ENDBRANCH   8   9
ENDBRANCH   1   8
TORSDOF 8
ENDMDL
MODEL 2
REMARK VINA RESULT:    -3.473     19.482     21.096
REMARK INTER + INTRA:          -5.407
REMARK INTER:                  -5.088
REMARK INTRA:                  -0.319
REMARK UNBOUND:                -0.310
REMARK SMILES O=C([O-])CCCCCCCC(=O)[O-]
REMARK SMILES IDX 7 1 6 2 5 3 4 4 2 5 1 6 3 7 8 8 9 9 10 10 11 11 12 12 13 13
REMARK H PARENT
REMARK Flexibility Score: inf
ROOT
ATOM      1  C   UNL     1      43.168  31.533   3.549  1.00  0.00     0.000 C 
ENDROOT
BRANCH   1   2
ATOM      2  C   UNL     1      43.889  31.812   2.220  1.00  0.00     0.000 C 
BRANCH   2   3
ATOM      3  C   UNL     1      43.468  33.149   1.585  1.00  0.00     0.006 C 
BRANCH   3   4
ATOM      4  C   UNL     1      43.447  33.080   0.052  1.00  0.00     0.053 C 
BRANCH   4   5
ATOM      5  C   UNL     1      42.111  32.643  -0.465  1.00  0.00     0.041 C 
ATOM      6  O   UNL     1      41.065  32.894   0.188  1.00  0.00    -0.550 OA
ATOM      7  O   UNL     1      42.027  31.927  -1.652  1.00  0.00    -0.550 OA
ENDBRANCH   4   5
ENDBRANCH   3   4
ENDBRANCH   2   3
ENDBRANCH   1   2
BRANCH   1   8
ATOM      8  C   UNL     1      44.123  31.021   4.642  1.00  0.00     0.000 C 
BRANCH   8   9
ATOM      9  C   UNL     1      43.385  30.625   5.930  1.00  0.00     0.006 C 
BRANCH   9  10
ATOM     10  C   UNL     1      43.599  29.153   6.308  1.00  0.00     0.053 C 
BRANCH  10  11
ATOM     11  C   UNL     1      42.397  28.341   5.944  1.00  0.00     0.041 C 
ATOM     12  O   UNL     1      42.420  27.088   6.060  1.00  0.00    -0.550 OA
ATOM     13  O   UNL     1      41.266  28.964   5.432  1.00  0.00    -0.550 OA
ENDBRANCH  10  11
ENDBRANCH   9  10
ENDBRANCH   8   9
ENDBRANCH   1   8
TORSDOF 8
ENDMDL
MODEL 3
REMARK VINA RESULT:    -3.472     17.582     19.841
REMARK INTER + INTRA:          -5.406
REMARK INTER:                  -5.035
REMARK INTRA:                  -0.371
REMARK UNBOUND:                -0.310
REMARK SMILES O=C([O-])CCCCCCCC(=O)[O-]
REMARK SMILES IDX 7 1 6 2 5 3 4 4 2 5 1 6 3 7 8 8 9 9 10 10 11 11 12 12 13 13
REMARK H PARENT
REMARK Flexibility Score: inf
ROOT
ATOM      1  C   UNL     1      42.596  32.588   1.188  1.00  0.00     0.000 C 
ENDROOT
BRANCH   1   2
ATOM      2  C   UNL     1      43.751  32.247   2.142  1.00  0.00     0.000 C 
BRANCH   2   3
ATOM      3  C   UNL     1      43.326  31.293   3.272  1.00  0.00     0.006 C 
BRANCH   3   4
ATOM      4  C   UNL     1      41.805  31.287   3.482  1.00  0.00     0.053 C 
BRANCH   4   5
ATOM      5  C   UNL     1      41.345  30.039   4.170  1.00  0.00     0.041 C 
ATOM      6  O   UNL     1      42.181  29.264   4.705  1.00  0.00    -0.550 OA
ATOM      7  O   UNL     1      39.995  29.713   4.188  1.00  0.00    -0.550 OA
ENDBRANCH   4   5
ENDBRANCH   3   4
ENDBRANCH   2   3
ENDBRANCH   1   2
BRANCH   1   8
ATOM      8  C   UNL     1      43.066  32.768  -0.267  1.00  0.00     0.000 C 
BRANCH   8   9
ATOM      9  C   UNL     1      41.982  32.390  -1.288  1.00  0.00     0.006 C 
BRANCH   9  10
ATOM     10  C   UNL     1      41.062  33.567  -1.639  1.00  0.00     0.053 C 
BRANCH  10  11
ATOM     11  C   UNL     1      39.658  33.276  -1.215  1.00  0.00     0.041 C 
ATOM     12  O   UNL     1      38.832  32.801  -2.038  1.00  0.00    -0.550 OA
ATOM     13  O   UNL     1      39.246  33.573   0.079  1.00  0.00    -0.550 OA
ENDBRANCH  10  11
ENDBRANCH   9  10
ENDBRANCH   8   9
ENDBRANCH   1   8
TORSDOF 8
ENDMDL
MODEL 4
REMARK VINA RESULT:    -3.460      1.085      6.859
REMARK INTER + INTRA:          -5.388
REMARK INTER:                  -5.133
REMARK INTRA:                  -0.255
REMARK UNBOUND:                -0.310
REMARK SMILES O=C([O-])CCCCCCCC(=O)[O-]
REMARK SMILES IDX 7 1 6 2 5 3 4 4 2 5 1 6 3 7 8 8 9 9 10 10 11 11 12 12 13 13
REMARK H PARENT
REMARK Flexibility Score: inf
ROOT
ATOM      1  C   UNL     1      25.333  40.816   2.285  1.00  0.00     0.000 C 
ENDROOT
BRANCH   1   2
ATOM      2  C   UNL     1      25.107  41.445   3.669  1.00  0.00     0.000 C 
BRANCH   2   3
ATOM      3  C   UNL     1      25.919  42.736   3.873  1.00  0.00     0.006 C 
BRANCH   3   4
ATOM      4  C   UNL     1      25.444  43.530   5.098  1.00  0.00     0.053 C 
BRANCH   4   5
ATOM      5  C   UNL     1      26.318  44.716   5.364  1.00  0.00     0.041 C 
ATOM      6  O   UNL     1      27.544  44.560   5.604  1.00  0.00    -0.550 OA
ATOM      7  O   UNL     1      25.770  45.992   5.383  1.00  0.00    -0.550 OA
ENDBRANCH   4   5
ENDBRANCH   3   4
ENDBRANCH   2   3
ENDBRANCH   1   2
BRANCH   1   8
ATOM      8  C   UNL     1      24.030  40.292   1.655  1.00  0.00     0.000 C 
BRANCH   8   9
ATOM      9  C   UNL     1      24.285  39.376   0.448  1.00  0.00     0.006 C 
BRANCH   9  10
ATOM     10  C   UNL     1      25.763  38.992   0.297  1.00  0.00     0.053 C 
BRANCH  10  11
ATOM     11  C   UNL     1      26.215  39.207  -1.113  1.00  0.00     0.041 C 
ATOM     12  O   UNL     1      26.962  38.364  -1.674  1.00  0.00    -0.550 OA
ATOM     13  O   UNL     1      25.851  40.363  -1.792  1.00  0.00    -0.550 OA
ENDBRANCH  10  11
ENDBRANCH   9  10
ENDBRANCH   8   9
ENDBRANCH   1   8
TORSDOF 8
ENDMDL
MODEL 5
REMARK VINA RESULT:    -3.427      1.517      6.951
REMARK INTER + INTRA:          -5.339
REMARK INTER:                  -5.041
REMARK INTRA:                  -0.298
REMARK UNBOUND:                -0.310
REMARK SMILES O=C([O-])CCCCCCCC(=O)[O-]
REMARK SMILES IDX 7 1 6 2 5 3 4 4 2 5 1 6 3 7 8 8 9 9 10 10 11 11 12 12 13 13
REMARK H PARENT
REMARK Flexibility Score: inf
ROOT
ATOM      1  C   UNL     1      24.215  41.079   2.935  1.00  0.00     0.000 C 
ENDROOT
BRANCH   1   2
ATOM      2  C   UNL     1      25.636  41.593   3.219  1.00  0.00     0.000 C 
BRANCH   2   3
ATOM      3  C   UNL     1      25.672  42.652   4.334  1.00  0.00     0.006 C 
BRANCH   3   4
ATOM      4  C   UNL     1      24.363  42.694   5.134  1.00  0.00     0.053 C 
BRANCH   4   5
ATOM      5  C   UNL     1      24.434  43.678   6.261  1.00  0.00     0.041 C 
ATOM      6  O   UNL     1      24.722  44.882   6.036  1.00  0.00    -0.550 OA
ATOM      7  O   UNL     1      24.217  43.255   7.567  1.00  0.00    -0.550 OA
ENDBRANCH   4   5
ENDBRANCH   3   4
ENDBRANCH   2   3
ENDBRANCH   1   2
BRANCH   1   8
ATOM      8  C   UNL     1      24.174  40.067   1.776  1.00  0.00     0.000 C 
BRANCH   8   9
ATOM      9  C   UNL     1      25.427  40.135   0.889  1.00  0.00     0.006 C 
BRANCH   9  10
ATOM     10  C   UNL     1      25.551  38.932  -0.055  1.00  0.00     0.053 C 
BRANCH  10  11
ATOM     11  C   UNL     1      26.245  39.331  -1.319  1.00  0.00     0.041 C 
ATOM     12  O   UNL     1      25.915  40.388  -1.917  1.00  0.00    -0.550 OA
ATOM     13  O   UNL     1      27.225  38.510  -1.864  1.00  0.00    -0.550 OA
ENDBRANCH  10  11
ENDBRANCH   9  10
ENDBRANCH   8   9
ENDBRANCH   1   8
TORSDOF 8
ENDMDL
MODEL 6
REMARK VINA RESULT:    -3.353     19.233     20.965
REMARK INTER + INTRA:          -5.231
REMARK INTER:                  -4.850
REMARK INTRA:                  -0.381
REMARK UNBOUND:                -0.310
REMARK SMILES O=C([O-])CCCCCCCC(=O)[O-]
REMARK SMILES IDX 7 1 6 2 5 3 4 4 2 5 1 6 3 7 8 8 9 9 10 10 11 11 12 12 13 13
REMARK H PARENT
REMARK Flexibility Score: inf
ROOT
ATOM      1  C   UNL     1      43.392  31.398   3.638  1.00  0.00     0.000 C 
ENDROOT
BRANCH   1   2
ATOM      2  C   UNL     1      41.889  31.087   3.703  1.00  0.00     0.000 C 
BRANCH   2   3
ATOM      3  C   UNL     1      41.600  29.649   4.170  1.00  0.00     0.006 C 
BRANCH   3   4
ATOM      4  C   UNL     1      42.435  29.262   5.399  1.00  0.00     0.053 C 
BRANCH   4   5
ATOM      5  C   UNL     1      41.879  28.055   6.089  1.00  0.00     0.041 C 
ATOM      6  O   UNL     1      42.520  26.972   6.088  1.00  0.00    -0.550 OA
ATOM      7  O   UNL     1      40.634  28.118   6.703  1.00  0.00    -0.550 OA
ENDBRANCH   4   5
ENDBRANCH   3   4
ENDBRANCH   2   3
ENDBRANCH   1   2
BRANCH   1   8
ATOM      8  C   UNL     1      43.841  31.852   2.237  1.00  0.00     0.000 C 
BRANCH   8   9
ATOM      9  C   UNL     1      43.531  33.333   1.970  1.00  0.00     0.006 C 
BRANCH   9  10
ATOM     10  C   UNL     1      43.229  33.618   0.493  1.00  0.00     0.053 C 
BRANCH  10  11
ATOM     11  C   UNL     1      42.042  32.829   0.041  1.00  0.00     0.041 C 
ATOM     12  O   UNL     1      42.092  32.162  -1.025  1.00  0.00    -0.550 OA
ATOM     13  O   UNL     1      40.862  32.866   0.774  1.00  0.00    -0.550 OA
ENDBRANCH  10  11
ENDBRANCH   9  10
ENDBRANCH   8   9
ENDBRANCH   1   8
TORSDOF 8
ENDMDL
MODEL 7
REMARK VINA RESULT:    -3.298     18.843     20.867
REMARK INTER + INTRA:          -5.151
REMARK INTER:                  -4.916
REMARK INTRA:                  -0.235
REMARK UNBOUND:                -0.310
REMARK SMILES O=C([O-])CCCCCCCC(=O)[O-]
REMARK SMILES IDX 7 1 6 2 5 3 4 4 2 5 1 6 3 7 8 8 9 9 10 10 11 11 12 12 13 13
REMARK H PARENT
REMARK Flexibility Score: inf
ROOT
ATOM      1  C   UNL     1      42.617  31.854   2.678  1.00  0.00     0.000 C 
ENDROOT
BRANCH   1   2
ATOM      2  C   UNL     1      43.210  30.989   3.801  1.00  0.00     0.000 C 
BRANCH   2   3
ATOM      3  C   UNL     1      42.185  30.010   4.401  1.00  0.00     0.006 C 
BRANCH   3   4
ATOM      4  C   UNL     1      42.662  29.419   5.735  1.00  0.00     0.053 C 
BRANCH   4   5
ATOM      5  C   UNL     1      41.908  28.176   6.092  1.00  0.00     0.041 C 
ATOM      6  O   UNL     1      40.718  28.249   6.496  1.00  0.00    -0.550 OA
ATOM      7  O   UNL     1      42.533  26.937   6.013  1.00  0.00    -0.550 OA
ENDBRANCH   4   5
ENDBRANCH   3   4
ENDBRANCH   2   3
ENDBRANCH   1   2
BRANCH   1   8
ATOM      8  C   UNL     1      43.660  32.231   1.611  1.00  0.00     0.000 C 
BRANCH   8   9
ATOM      9  C   UNL     1      43.140  33.291   0.627  1.00  0.00     0.006 C 
BRANCH   9  10
ATOM     10  C   UNL     1      42.617  32.681  -0.680  1.00  0.00     0.053 C 
BRANCH  10  11
ATOM     11  C   UNL     1      41.135  32.863  -0.783  1.00  0.00     0.041 C 
ATOM     12  O   UNL     1      40.466  33.196   0.229  1.00  0.00    -0.550 OA
ATOM     13  O   UNL     1      40.487  32.617  -1.987  1.00  0.00    -0.550 OA
ENDBRANCH  10  11
ENDBRANCH   9  10
ENDBRANCH   8   9
ENDBRANCH   1   8
TORSDOF 8
ENDMDL
MODEL 8
REMARK VINA RESULT:    -3.281      1.579      2.360
REMARK INTER + INTRA:          -5.126
REMARK INTER:                  -4.821
REMARK INTRA:                  -0.305
REMARK UNBOUND:                -0.310
REMARK SMILES O=C([O-])CCCCCCCC(=O)[O-]
REMARK SMILES IDX 7 1 6 2 5 3 4 4 2 5 1 6 3 7 8 8 9 9 10 10 11 11 12 12 13 13
REMARK H PARENT
REMARK Flexibility Score: inf
ROOT
ATOM      1  C   UNL     1      24.249  39.137   2.229  1.00  0.00     0.000 C 
ENDROOT
BRANCH   1   2
ATOM      2  C   UNL     1      24.468  38.951   0.719  1.00  0.00     0.000 C 
BRANCH   2   3
ATOM      3  C   UNL     1      25.453  39.976   0.131  1.00  0.00     0.006 C 
BRANCH   3   4
ATOM      4  C   UNL     1      25.914  39.591  -1.281  1.00  0.00     0.053 C 
BRANCH   4   5
ATOM      5  C   UNL     1      27.207  38.836  -1.256  1.00  0.00     0.041 C 
ATOM      6  O   UNL     1      27.344  37.788  -1.940  1.00  0.00    -0.550 OA
ATOM      7  O   UNL     1      28.250  39.270  -0.447  1.00  0.00    -0.550 OA
ENDBRANCH   4   5
ENDBRANCH   3   4
ENDBRANCH   2   3
ENDBRANCH   1   2
BRANCH   1   8
ATOM      8  C   UNL     1      24.241  40.618   2.645  1.00  0.00     0.000 C 
BRANCH   8   9
ATOM      9  C   UNL     1      24.440  40.807   4.157  1.00  0.00     0.006 C 
BRANCH   9  10
ATOM     10  C   UNL     1      24.160  42.243   4.618  1.00  0.00     0.053 C 
BRANCH  10  11
ATOM     11  C   UNL     1      25.443  42.979   4.841  1.00  0.00     0.041 C 
ATOM     12  O   UNL     1      26.116  43.391   3.860  1.00  0.00    -0.550 OA
ATOM     13  O   UNL     1      25.922  43.168   6.131  1.00  0.00    -0.550 OA
ENDBRANCH  10  11
ENDBRANCH   9  10
ENDBRANCH   8   9
ENDBRANCH   1   8
TORSDOF 8
ENDMDL
MODEL 9
REMARK VINA RESULT:    -3.259     18.143     19.777
REMARK INTER + INTRA:          -5.094
REMARK INTER:                  -4.678
REMARK INTRA:                  -0.416
REMARK UNBOUND:                -0.310
REMARK SMILES O=C([O-])CCCCCCCC(=O)[O-]
REMARK SMILES IDX 7 1 6 2 5 3 4 4 2 5 1 6 3 7 8 8 9 9 10 10 11 11 12 12 13 13
REMARK H PARENT
REMARK Flexibility Score: inf
ROOT
ATOM      1  C   UNL     1      43.671  33.284   2.067  1.00  0.00     0.000 C 
ENDROOT
BRANCH   1   2
ATOM      2  C   UNL     1      43.059  33.530   0.679  1.00  0.00     0.000 C 
BRANCH   2   3
ATOM      3  C   UNL     1      41.611  33.020   0.570  1.00  0.00     0.006 C 
BRANCH   3   4
ATOM      4  C   UNL     1      40.851  33.681  -0.588  1.00  0.00     0.053 C 
BRANCH   4   5
ATOM      5  C   UNL     1      40.506  32.694  -1.661  1.00  0.00     0.041 C 
ATOM      6  O   UNL     1      39.337  32.644  -2.125  1.00  0.00    -0.550 OA
ATOM      7  O   UNL     1      41.469  31.805  -2.122  1.00  0.00    -0.550 OA
ENDBRANCH   4   5
ENDBRANCH   3   4
ENDBRANCH   2   3
ENDBRANCH   1   2
BRANCH   1   8
ATOM      8  C   UNL     1      43.877  31.788   2.364  1.00  0.00     0.000 C 
BRANCH   8   9
ATOM      9  C   UNL     1      43.349  31.384   3.750  1.00  0.00     0.006 C 
BRANCH   9  10
ATOM     10  C   UNL     1      41.818  31.308   3.802  1.00  0.00     0.053 C 
BRANCH  10  11
ATOM     11  C   UNL     1      41.379  29.959   4.276  1.00  0.00     0.041 C 
ATOM     12  O   UNL     1      40.212  29.552   4.039  1.00  0.00    -0.550 OA
ATOM     13  O   UNL     1      42.244  29.169   5.023  1.00  0.00    -0.550 OA
ENDBRANCH  10  11
ENDBRANCH   9  10
ENDBRANCH   8   9
ENDBRANCH   1   8
TORSDOF 8
ENDMDL
