MODEL 1
REMARK VINA RESULT:    -5.181      0.000      0.000
REMARK INTER + INTRA:         -16.136
REMARK INTER:                 -13.055
REMARK INTRA:                  -3.081
REMARK UNBOUND:                -3.081
REMARK SMILES CCCCCCCCCCCCCCCCCCCCCCCCCCCC(=O)[O-]
REMARK SMILES IDX 15 1 16 2 17 3 18 4 19 5 20 6 21 7 22 8 23 9 24 10 25 11
REMARK SMILES IDX 26 12 27 13 28 14 29 15 30 16 14 17 13 18 12 19 11 20 10 21
REMARK SMILES IDX 9 22 8 23 7 24 6 25 5 26 4 27 3 28 2 29 1 30
REMARK H PARENT
REMARK Flexibility Score: inf
ROOT
ATOM      1  C   UNL     1      29.875   0.375  31.103  1.00  0.00     0.000 C 
ENDROOT
BRANCH   1   2
ATOM      2  C   UNL     1      30.125  -0.031  29.635  1.00  0.00     0.000 C 
BRANCH   2   3
ATOM      3  C   UNL     1      29.094   0.513  28.630  1.00  0.00     0.000 C 
BRANCH   3   4
ATOM      4  C   UNL     1      27.707   0.732  29.258  1.00  0.00     0.000 C 
BRANCH   4   5
ATOM      5  C   UNL     1      26.620  -0.121  28.585  1.00  0.00     0.000 C 
BRANCH   5   6
ATOM      6  C   UNL     1      25.733   0.703  27.637  1.00  0.00     0.000 C 
BRANCH   6   7
ATOM      7  C   UNL     1      24.988  -0.170  26.612  1.00  0.00     0.000 C 
BRANCH   7   8
ATOM      8  C   UNL     1      23.808   0.555  25.930  1.00  0.00     0.000 C 
BRANCH   8   9
ATOM      9  C   UNL     1      22.593  -0.370  25.732  1.00  0.00     0.000 C 
BRANCH   9  10
ATOM     10  C   UNL     1      21.711  -0.458  26.997  1.00  0.00     0.000 C 
BRANCH  10  11
ATOM     11  C   UNL     1      21.002  -1.816  27.168  1.00  0.00     0.000 C 
BRANCH  11  12
ATOM     12  C   UNL     1      21.128  -2.440  28.568  1.00  0.00     0.006 C 
BRANCH  12  13
ATOM     13  C   UNL     1      21.612  -1.437  29.624  1.00  0.00     0.053 C 
BRANCH  13  14
ATOM     14  C   UNL     1      22.735  -2.021  30.420  1.00  0.00     0.041 C 
ATOM     15  O   UNL     1      23.768  -1.339  30.653  1.00  0.00    -0.550 OA
ATOM     16  O   UNL     1      22.661  -3.333  30.868  1.00  0.00    -0.550 OA
ENDBRANCH  13  14
ENDBRANCH  12  13
ENDBRANCH  11  12
ENDBRANCH  10  11
ENDBRANCH   9  10
ENDBRANCH   8   9
ENDBRANCH   7   8
ENDBRANCH   6   7
ENDBRANCH   5   6
ENDBRANCH   4   5
ENDBRANCH   3   4
ENDBRANCH   2   3
ENDBRANCH   1   2
BRANCH   1  17
ATOM     17  C   UNL     1      29.240  -0.719  31.985  1.00  0.00     0.000 C 
BRANCH  17  18
ATOM     18  C   UNL     1      29.071  -2.093  31.303  1.00  0.00     0.000 C 
BRANCH  18  19
ATOM     19  C   UNL     1      27.660  -2.700  31.397  1.00  0.00     0.000 C 
BRANCH  19  20
ATOM     20  C   UNL     1      27.227  -3.406  30.101  1.00  0.00     0.000 C 
BRANCH  20  21
ATOM     21  C   UNL     1      26.328  -4.625  30.362  1.00  0.00     0.000 C 
BRANCH  21  22
ATOM     22  C   UNL     1      27.008  -5.955  29.999  1.00  0.00    -0.000 C 
BRANCH  22  23
ATOM     23  C   UNL     1      28.512  -5.752  29.760  1.00  0.00    -0.000 C 
BRANCH  23  24
ATOM     24  C   UNL     1      29.386  -6.369  30.867  1.00  0.00    -0.000 C 
BRANCH  24  25
ATOM     25  C   UNL     1      28.703  -7.473  31.699  1.00  0.00    -0.000 C 
BRANCH  25  26
ATOM     26  C   UNL     1      29.321  -8.877  31.558  1.00  0.00    -0.000 C 
BRANCH  26  27
ATOM     27  C   UNL     1      28.330  -9.945  31.047  1.00  0.00    -0.000 C 
BRANCH  27  28
ATOM     28  C   UNL     1      27.925  -9.721  29.582  1.00  0.00    -0.000 C 
BRANCH  28  29
ATOM     29  C   UNL     1      29.096 -10.017  28.637  1.00  0.00    -0.003 C 
ATOM     30  C   UNL     1      29.476  -8.781  27.826  1.00  0.00     0.004 C 
ENDBRANCH  28  29
ENDBRANCH  27  28
ENDBRANCH  26  27
ENDBRANCH  25  26
ENDBRANCH  24  25
ENDBRANCH  23  24
ENDBRANCH  22  23
ENDBRANCH  21  22
ENDBRANCH  20  21
ENDBRANCH  19  20
ENDBRANCH  18  19
ENDBRANCH  17  18
ENDBRANCH   1  17
TORSDOF 26
ENDMDL
MODEL 2
REMARK VINA RESULT:    -5.158      2.688      8.315
REMARK INTER + INTRA:         -16.080
REMARK INTER:                 -13.133
REMARK INTRA:                  -2.947
REMARK UNBOUND:                -3.081
REMARK SMILES CCCCCCCCCCCCCCCCCCCCCCCCCCCC(=O)[O-]
REMARK SMILES IDX 15 1 16 2 17 3 18 4 19 5 20 6 21 7 22 8 23 9 24 10 25 11
REMARK SMILES IDX 26 12 27 13 28 14 29 15 30 16 14 17 13 18 12 19 11 20 10 21
REMARK SMILES IDX 9 22 8 23 7 24 6 25 5 26 4 27 3 28 2 29 1 30
REMARK H PARENT
REMARK Flexibility Score: inf
ROOT
ATOM      1  C   UNL     1      27.622   1.775  29.671  1.00  0.00     0.000 C 
ENDROOT
BRANCH   1   2
ATOM      2  C   UNL     1      28.122   1.547  31.113  1.00  0.00     0.000 C 
BRANCH   2   3
ATOM      3  C   UNL     1      29.591   1.102  31.225  1.00  0.00     0.000 C 
BRANCH   3   4
ATOM      4  C   UNL     1      29.780  -0.102  32.163  1.00  0.00     0.000 C 
BRANCH   4   5
ATOM      5  C   UNL     1      29.044  -1.355  31.662  1.00  0.00     0.000 C 
BRANCH   5   6
ATOM      6  C   UNL     1      29.632  -1.890  30.346  1.00  0.00     0.000 C 
BRANCH   6   7
ATOM      7  C   UNL     1      29.084  -3.279  29.972  1.00  0.00     0.000 C 
BRANCH   7   8
ATOM      8  C   UNL     1      27.826  -3.679  30.772  1.00  0.00     0.000 C 
BRANCH   8   9
ATOM      9  C   UNL     1      27.290  -5.061  30.358  1.00  0.00     0.000 C 
BRANCH   9  10
ATOM     10  C   UNL     1      28.351  -6.173  30.515  1.00  0.00     0.000 C 
BRANCH  10  11
ATOM     11  C   UNL     1      28.581  -6.998  29.234  1.00  0.00     0.000 C 
BRANCH  11  12
ATOM     12  C   UNL     1      29.166  -8.402  29.464  1.00  0.00     0.006 C 
BRANCH  12  13
ATOM     13  C   UNL     1      28.210  -9.326  30.231  1.00  0.00     0.053 C 
BRANCH  13  14
ATOM     14  C   UNL     1      28.838  -9.776  31.511  1.00  0.00     0.041 C 
ATOM     15  O   UNL     1      30.089  -9.901  31.594  1.00  0.00    -0.550 OA
ATOM     16  O   UNL     1      28.041 -10.100  32.601  1.00  0.00    -0.550 OA
ENDBRANCH  13  14
ENDBRANCH  12  13
ENDBRANCH  11  12
ENDBRANCH  10  11
ENDBRANCH   9  10
ENDBRANCH   8   9
ENDBRANCH   7   8
ENDBRANCH   6   7
ENDBRANCH   5   6
ENDBRANCH   4   5
ENDBRANCH   3   4
ENDBRANCH   2   3
ENDBRANCH   1   2
BRANCH   1  17
ATOM     17  C   UNL     1      27.649   0.527  28.765  1.00  0.00     0.000 C 
BRANCH  17  18
ATOM     18  C   UNL     1      26.404  -0.379  28.861  1.00  0.00     0.000 C 
BRANCH  18  19
ATOM     19  C   UNL     1      25.806  -0.520  30.272  1.00  0.00     0.000 C 
BRANCH  19  20
ATOM     20  C   UNL     1      24.804  -1.682  30.382  1.00  0.00     0.000 C 
BRANCH  20  21
ATOM     21  C   UNL     1      23.343  -1.204  30.404  1.00  0.00     0.000 C 
BRANCH  21  22
ATOM     22  C   UNL     1      22.336  -2.365  30.398  1.00  0.00    -0.000 C 
BRANCH  22  23
ATOM     23  C   UNL     1      21.315  -2.197  29.264  1.00  0.00    -0.000 C 
BRANCH  23  24
ATOM     24  C   UNL     1      21.233  -0.752  28.737  1.00  0.00    -0.000 C 
BRANCH  24  25
ATOM     25  C   UNL     1      20.817  -0.618  27.259  1.00  0.00    -0.000 C 
BRANCH  25  26
ATOM     26  C   UNL     1      21.860  -1.109  26.237  1.00  0.00    -0.000 C 
BRANCH  26  27
ATOM     27  C   UNL     1      22.641   0.029  25.546  1.00  0.00    -0.000 C 
BRANCH  27  28
ATOM     28  C   UNL     1      24.132   0.029  25.913  1.00  0.00    -0.000 C 
BRANCH  28  29
ATOM     29  C   UNL     1      24.659   1.459  26.077  1.00  0.00    -0.003 C 
ATOM     30  C   UNL     1      23.539   2.482  25.906  1.00  0.00     0.004 C 
ENDBRANCH  28  29
ENDBRANCH  27  28
ENDBRANCH  26  27
ENDBRANCH  25  26
ENDBRANCH  24  25
ENDBRANCH  23  24
ENDBRANCH  22  23
ENDBRANCH  21  22
ENDBRANCH  20  21
ENDBRANCH  19  20
ENDBRANCH  18  19
ENDBRANCH  17  18
ENDBRANCH   1  17
TORSDOF 26
ENDMDL
MODEL 3
REMARK VINA RESULT:    -5.072      4.555      8.625
REMARK INTER + INTRA:         -15.861
REMARK INTER:                 -12.762
REMARK INTRA:                  -3.099
REMARK UNBOUND:                -3.081
REMARK SMILES CCCCCCCCCCCCCCCCCCCCCCCCCCCC(=O)[O-]
REMARK SMILES IDX 15 1 16 2 17 3 18 4 19 5 20 6 21 7 22 8 23 9 24 10 25 11
REMARK SMILES IDX 26 12 27 13 28 14 29 15 30 16 14 17 13 18 12 19 11 20 10 21
REMARK SMILES IDX 9 22 8 23 7 24 6 25 5 26 4 27 3 28 2 29 1 30
REMARK H PARENT
REMARK Flexibility Score: inf
ROOT
ATOM      1  C   UNL     1      29.348  -2.928  30.497  1.00  0.00     0.000 C 
ENDROOT
BRANCH   1   2
ATOM      2  C   UNL     1      29.497  -1.481  31.011  1.00  0.00     0.000 C 
BRANCH   2   3
ATOM      3  C   UNL     1      30.391  -0.577  30.145  1.00  0.00     0.000 C 
BRANCH   3   4
ATOM      4  C   UNL     1      29.872   0.869  30.058  1.00  0.00     0.000 C 
BRANCH   4   5
ATOM      5  C   UNL     1      29.218   1.334  31.369  1.00  0.00     0.000 C 
BRANCH   5   6
ATOM      6  C   UNL     1      28.220   2.483  31.148  1.00  0.00     0.000 C 
BRANCH   6   7
ATOM      7  C   UNL     1      27.814   2.643  29.673  1.00  0.00     0.000 C 
BRANCH   7   8
ATOM      8  C   UNL     1      27.334   4.067  29.318  1.00  0.00     0.000 C 
BRANCH   8   9
ATOM      9  C   UNL     1      28.496   5.075  29.265  1.00  0.00     0.000 C 
BRANCH   9  10
ATOM     10  C   UNL     1      28.442   6.094  30.425  1.00  0.00     0.000 C 
BRANCH  10  11
ATOM     11  C   UNL     1      27.011   6.483  30.845  1.00  0.00     0.000 C 
BRANCH  11  12
ATOM     12  C   UNL     1      26.724   7.994  30.843  1.00  0.00     0.006 C 
BRANCH  12  13
ATOM     13  C   UNL     1      27.945   8.829  30.437  1.00  0.00     0.053 C 
BRANCH  13  14
ATOM     14  C   UNL     1      27.635   9.647  29.223  1.00  0.00     0.041 C 
ATOM     15  O   UNL     1      26.480  10.122  29.058  1.00  0.00    -0.550 OA
ATOM     16  O   UNL     1      28.606   9.849  28.252  1.00  0.00    -0.550 OA
ENDBRANCH  13  14
ENDBRANCH  12  13
ENDBRANCH  11  12
ENDBRANCH  10  11
ENDBRANCH   9  10
ENDBRANCH   8   9
ENDBRANCH   7   8
ENDBRANCH   6   7
ENDBRANCH   5   6
ENDBRANCH   4   5
ENDBRANCH   3   4
ENDBRANCH   2   3
ENDBRANCH   1   2
BRANCH   1  17
ATOM     17  C   UNL     1      27.924  -3.512  30.588  1.00  0.00     0.000 C 
BRANCH  17  18
ATOM     18  C   UNL     1      26.836  -2.701  29.853  1.00  0.00     0.000 C 
BRANCH  18  19
ATOM     19  C   UNL     1      26.193  -1.573  30.678  1.00  0.00     0.000 C 
BRANCH  19  20
ATOM     20  C   UNL     1      25.773  -0.369  29.817  1.00  0.00     0.000 C 
BRANCH  20  21
ATOM     21  C   UNL     1      26.339  -0.437  28.389  1.00  0.00     0.000 C 
BRANCH  21  22
ATOM     22  C   UNL     1      25.745   0.635  27.461  1.00  0.00    -0.000 C 
BRANCH  22  23
ATOM     23  C   UNL     1      24.958  -0.013  26.312  1.00  0.00    -0.000 C 
BRANCH  23  24
ATOM     24  C   UNL     1      23.559   0.602  26.119  1.00  0.00    -0.000 C 
BRANCH  24  25
ATOM     25  C   UNL     1      22.420  -0.416  25.917  1.00  0.00    -0.000 C 
BRANCH  25  26
ATOM     26  C   UNL     1      21.357  -0.441  27.031  1.00  0.00    -0.000 C 
BRANCH  26  27
ATOM     27  C   UNL     1      21.272  -1.788  27.781  1.00  0.00    -0.000 C 
BRANCH  27  28
ATOM     28  C   UNL     1      20.940  -1.612  29.271  1.00  0.00    -0.000 C 
BRANCH  28  29
ATOM     29  C   UNL     1      22.218  -1.540  30.114  1.00  0.00    -0.003 C 
ATOM     30  C   UNL     1      22.633  -2.924  30.606  1.00  0.00     0.004 C 
ENDBRANCH  28  29
ENDBRANCH  27  28
ENDBRANCH  26  27
ENDBRANCH  25  26
ENDBRANCH  24  25
ENDBRANCH  23  24
ENDBRANCH  22  23
ENDBRANCH  21  22
ENDBRANCH  20  21
ENDBRANCH  19  20
ENDBRANCH  18  19
ENDBRANCH  17  18
ENDBRANCH   1  17
TORSDOF 26
ENDMDL
MODEL 4
REMARK VINA RESULT:    -5.053      1.091      2.130
REMARK INTER + INTRA:         -15.815
REMARK INTER:                 -12.999
REMARK INTRA:                  -2.816
REMARK UNBOUND:                -3.081
REMARK SMILES CCCCCCCCCCCCCCCCCCCCCCCCCCCC(=O)[O-]
REMARK SMILES IDX 15 1 16 2 17 3 18 4 19 5 20 6 21 7 22 8 23 9 24 10 25 11
REMARK SMILES IDX 26 12 27 13 28 14 29 15 30 16 14 17 13 18 12 19 11 20 10 21
REMARK SMILES IDX 9 22 8 23 7 24 6 25 5 26 4 27 3 28 2 29 1 30
REMARK H PARENT
REMARK Flexibility Score: inf
ROOT
ATOM      1  C   UNL     1      28.445   0.944  31.481  1.00  0.00     0.000 C 
ENDROOT
BRANCH   1   2
ATOM      2  C   UNL     1      27.244   0.056  31.864  1.00  0.00     0.000 C 
BRANCH   2   3
ATOM      3  C   UNL     1      26.406  -0.447  30.675  1.00  0.00     0.000 C 
BRANCH   3   4
ATOM      4  C   UNL     1      26.578   0.420  29.416  1.00  0.00     0.000 C 
BRANCH   4   5
ATOM      5  C   UNL     1      26.226  -0.343  28.129  1.00  0.00     0.000 C 
BRANCH   5   6
ATOM      6  C   UNL     1      25.628   0.575  27.050  1.00  0.00     0.000 C 
BRANCH   6   7
ATOM      7  C   UNL     1      24.586  -0.140  26.172  1.00  0.00     0.000 C 
BRANCH   7   8
ATOM      8  C   UNL     1      23.425   0.775  25.726  1.00  0.00     0.000 C 
BRANCH   8   9
ATOM      9  C   UNL     1      22.058   0.079  25.846  1.00  0.00     0.000 C 
BRANCH   9  10
ATOM     10  C   UNL     1      22.007  -0.915  27.028  1.00  0.00     0.000 C 
BRANCH  10  11
ATOM     11  C   UNL     1      20.912  -0.594  28.064  1.00  0.00     0.000 C 
BRANCH  11  12
ATOM     12  C   UNL     1      20.535  -1.762  28.991  1.00  0.00     0.006 C 
BRANCH  12  13
ATOM     13  C   UNL     1      21.642  -2.820  29.092  1.00  0.00     0.053 C 
BRANCH  13  14
ATOM     14  C   UNL     1      22.432  -2.627  30.347  1.00  0.00     0.041 C 
ATOM     15  O   UNL     1      22.792  -1.471  30.698  1.00  0.00    -0.550 OA
ATOM     16  O   UNL     1      22.811  -3.725  31.108  1.00  0.00    -0.550 OA
ENDBRANCH  13  14
ENDBRANCH  12  13
ENDBRANCH  11  12
ENDBRANCH  10  11
ENDBRANCH   9  10
ENDBRANCH   8   9
ENDBRANCH   7   8
ENDBRANCH   6   7
ENDBRANCH   5   6
ENDBRANCH   4   5
ENDBRANCH   3   4
ENDBRANCH   2   3
ENDBRANCH   1   2
BRANCH   1  17
ATOM     17  C   UNL     1      29.830   0.305  31.708  1.00  0.00     0.000 C 
BRANCH  17  18
ATOM     18  C   UNL     1      30.604  -0.053  30.422  1.00  0.00     0.000 C 
BRANCH  18  19
ATOM     19  C   UNL     1      29.926  -1.102  29.522  1.00  0.00     0.000 C 
BRANCH  19  20
ATOM     20  C   UNL     1      29.832  -2.486  30.186  1.00  0.00     0.000 C 
BRANCH  20  21
ATOM     21  C   UNL     1      28.654  -3.319  29.654  1.00  0.00     0.000 C 
BRANCH  21  22
ATOM     22  C   UNL     1      27.655  -3.710  30.756  1.00  0.00    -0.000 C 
BRANCH  22  23
ATOM     23  C   UNL     1      27.447  -5.231  30.788  1.00  0.00    -0.000 C 
BRANCH  23  24
ATOM     24  C   UNL     1      28.734  -6.022  30.489  1.00  0.00    -0.000 C 
BRANCH  24  25
ATOM     25  C   UNL     1      28.838  -6.582  29.057  1.00  0.00    -0.000 C 
BRANCH  25  26
ATOM     26  C   UNL     1      29.157  -8.085  28.962  1.00  0.00    -0.000 C 
BRANCH  26  27
ATOM     27  C   UNL     1      27.976  -9.000  29.352  1.00  0.00    -0.000 C 
BRANCH  27  28
ATOM     28  C   UNL     1      28.368 -10.056  30.396  1.00  0.00    -0.000 C 
BRANCH  28  29
ATOM     29  C   UNL     1      29.319  -9.467  31.445  1.00  0.00    -0.003 C 
ATOM     30  C   UNL     1      28.560  -9.036  32.697  1.00  0.00     0.004 C 
ENDBRANCH  28  29
ENDBRANCH  27  28
ENDBRANCH  26  27
ENDBRANCH  25  26
ENDBRANCH  24  25
ENDBRANCH  23  24
ENDBRANCH  22  23
ENDBRANCH  21  22
ENDBRANCH  20  21
ENDBRANCH  19  20
ENDBRANCH  18  19
ENDBRANCH  17  18
ENDBRANCH   1  17
TORSDOF 26
ENDMDL
MODEL 5
REMARK VINA RESULT:    -5.027      3.824      8.005
REMARK INTER + INTRA:         -15.750
REMARK INTER:                 -13.261
REMARK INTRA:                  -2.489
REMARK UNBOUND:                -3.081
REMARK SMILES CCCCCCCCCCCCCCCCCCCCCCCCCCCC(=O)[O-]
REMARK SMILES IDX 15 1 16 2 17 3 18 4 19 5 20 6 21 7 22 8 23 9 24 10 25 11
REMARK SMILES IDX 26 12 27 13 28 14 29 15 30 16 14 17 13 18 12 19 11 20 10 21
REMARK SMILES IDX 9 22 8 23 7 24 6 25 5 26 4 27 3 28 2 29 1 30
REMARK H PARENT
REMARK Flexibility Score: inf
ROOT
ATOM      1  C   UNL     1      29.579  -3.975  30.069  1.00  0.00     0.000 C 
ENDROOT
BRANCH   1   2
ATOM      2  C   UNL     1      29.049  -2.611  29.580  1.00  0.00     0.000 C 
BRANCH   2   3
ATOM      3  C   UNL     1      29.854  -1.393  30.066  1.00  0.00     0.000 C 
BRANCH   3   4
ATOM      4  C   UNL     1      29.471  -0.954  31.489  1.00  0.00     0.000 C 
BRANCH   4   5
ATOM      5  C   UNL     1      27.963  -1.092  31.758  1.00  0.00     0.000 C 
BRANCH   5   6
ATOM      6  C   UNL     1      27.192   0.199  31.438  1.00  0.00     0.000 C 
BRANCH   6   7
ATOM      7  C   UNL     1      26.387   0.102  30.130  1.00  0.00     0.000 C 
BRANCH   7   8
ATOM      8  C   UNL     1      26.909   1.034  29.016  1.00  0.00     0.000 C 
BRANCH   8   9
ATOM      9  C   UNL     1      27.862   2.114  29.561  1.00  0.00     0.000 C 
BRANCH   9  10
ATOM     10  C   UNL     1      27.641   3.486  28.886  1.00  0.00     0.000 C 
BRANCH  10  11
ATOM     11  C   UNL     1      27.049   4.554  29.826  1.00  0.00     0.000 C 
BRANCH  11  12
ATOM     12  C   UNL     1      27.972   5.751  30.108  1.00  0.00     0.006 C 
BRANCH  12  13
ATOM     13  C   UNL     1      27.218   6.960  30.677  1.00  0.00     0.053 C 
BRANCH  13  14
ATOM     14  C   UNL     1      27.851   8.233  30.212  1.00  0.00     0.041 C 
ATOM     15  O   UNL     1      28.924   8.636  30.736  1.00  0.00    -0.550 OA
ATOM     16  O   UNL     1      27.235   8.999  29.231  1.00  0.00    -0.550 OA
ENDBRANCH  13  14
ENDBRANCH  12  13
ENDBRANCH  11  12
ENDBRANCH  10  11
ENDBRANCH   9  10
ENDBRANCH   8   9
ENDBRANCH   7   8
ENDBRANCH   6   7
ENDBRANCH   5   6
ENDBRANCH   4   5
ENDBRANCH   3   4
ENDBRANCH   2   3
ENDBRANCH   1   2
BRANCH   1  17
ATOM     17  C   UNL     1      28.842  -5.205  29.501  1.00  0.00     0.000 C 
BRANCH  17  18
ATOM     18  C   UNL     1      27.390  -5.381  29.990  1.00  0.00     0.000 C 
BRANCH  18  19
ATOM     19  C   UNL     1      26.939  -4.385  31.073  1.00  0.00     0.000 C 
BRANCH  19  20
ATOM     20  C   UNL     1      25.646  -3.641  30.697  1.00  0.00     0.000 C 
BRANCH  20  21
ATOM     21  C   UNL     1      24.458  -4.592  30.480  1.00  0.00     0.000 C 
BRANCH  21  22
ATOM     22  C   UNL     1      23.099  -3.879  30.577  1.00  0.00    -0.000 C 
BRANCH  22  23
ATOM     23  C   UNL     1      23.280  -2.354  30.561  1.00  0.00    -0.000 C 
BRANCH  23  24
ATOM     24  C   UNL     1      21.976  -1.598  30.246  1.00  0.00    -0.000 C 
BRANCH  24  25
ATOM     25  C   UNL     1      21.284  -2.008  28.931  1.00  0.00    -0.000 C 
BRANCH  25  26
ATOM     26  C   UNL     1      21.044  -0.861  27.931  1.00  0.00    -0.000 C 
BRANCH  26  27
ATOM     27  C   UNL     1      21.565  -1.155  26.507  1.00  0.00    -0.000 C 
BRANCH  27  28
ATOM     28  C   UNL     1      22.263   0.058  25.873  1.00  0.00    -0.000 C 
BRANCH  28  29
ATOM     29  C   UNL     1      23.785  -0.128  25.862  1.00  0.00    -0.003 C 
ATOM     30  C   UNL     1      24.505   1.211  25.998  1.00  0.00     0.004 C 
ENDBRANCH  28  29
ENDBRANCH  27  28
ENDBRANCH  26  27
ENDBRANCH  25  26
ENDBRANCH  24  25
ENDBRANCH  23  24
ENDBRANCH  22  23
ENDBRANCH  21  22
ENDBRANCH  20  21
ENDBRANCH  19  20
ENDBRANCH  18  19
ENDBRANCH  17  18
ENDBRANCH   1  17
TORSDOF 26
ENDMDL
MODEL 6
REMARK VINA RESULT:    -4.987      1.998      3.632
REMARK INTER + INTRA:         -15.648
REMARK INTER:                 -12.955
REMARK INTRA:                  -2.693
REMARK UNBOUND:                -3.081
REMARK SMILES CCCCCCCCCCCCCCCCCCCCCCCCCCCC(=O)[O-]
REMARK SMILES IDX 15 1 16 2 17 3 18 4 19 5 20 6 21 7 22 8 23 9 24 10 25 11
REMARK SMILES IDX 26 12 27 13 28 14 29 15 30 16 14 17 13 18 12 19 11 20 10 21
REMARK SMILES IDX 9 22 8 23 7 24 6 25 5 26 4 27 3 28 2 29 1 30
REMARK H PARENT
REMARK Flexibility Score: inf
ROOT
ATOM      1  C   UNL     1      28.141   1.313  30.006  1.00  0.00     0.000 C 
ENDROOT
BRANCH   1   2
ATOM      2  C   UNL     1      26.993   1.041  29.012  1.00  0.00     0.000 C 
BRANCH   2   3
ATOM      3  C   UNL     1      26.361  -0.358  29.122  1.00  0.00     0.000 C 
BRANCH   3   4
ATOM      4  C   UNL     1      25.375  -0.477  30.296  1.00  0.00     0.000 C 
BRANCH   4   5
ATOM      5  C   UNL     1      24.630  -1.821  30.300  1.00  0.00     0.000 C 
BRANCH   5   6
ATOM      6  C   UNL     1      23.157  -1.672  30.716  1.00  0.00     0.000 C 
BRANCH   6   7
ATOM      7  C   UNL     1      22.307  -2.900  30.345  1.00  0.00     0.000 C 
BRANCH   7   8
ATOM      8  C   UNL     1      21.313  -2.634  29.194  1.00  0.00     0.000 C 
BRANCH   8   9
ATOM      9  C   UNL     1      21.202  -1.136  28.856  1.00  0.00     0.000 C 
BRANCH   9  10
ATOM     10  C   UNL     1      20.579  -0.894  27.463  1.00  0.00     0.000 C 
BRANCH  10  11
ATOM     11  C   UNL     1      21.529  -1.216  26.293  1.00  0.00     0.000 C 
BRANCH  11  12
ATOM     12  C   UNL     1      22.801  -0.354  26.236  1.00  0.00     0.006 C 
BRANCH  12  13
ATOM     13  C   UNL     1      22.510   1.114  25.897  1.00  0.00     0.053 C 
BRANCH  13  14
ATOM     14  C   UNL     1      23.785   1.890  25.808  1.00  0.00     0.041 C 
ATOM     15  O   UNL     1      24.893   1.304  25.933  1.00  0.00    -0.550 OA
ATOM     16  O   UNL     1      23.751   3.267  25.631  1.00  0.00    -0.550 OA
ENDBRANCH  13  14
ENDBRANCH  12  13
ENDBRANCH  11  12
ENDBRANCH  10  11
ENDBRANCH   9  10
ENDBRANCH   8   9
ENDBRANCH   7   8
ENDBRANCH   6   7
ENDBRANCH   5   6
ENDBRANCH   4   5
ENDBRANCH   3   4
ENDBRANCH   2   3
ENDBRANCH   1   2
BRANCH   1  17
ATOM     17  C   UNL     1      29.273   0.266  30.000  1.00  0.00     0.000 C 
BRANCH  17  18
ATOM     18  C   UNL     1      29.477  -0.484  31.332  1.00  0.00     0.000 C 
BRANCH  18  19
ATOM     19  C   UNL     1      28.742  -1.832  31.442  1.00  0.00     0.000 C 
BRANCH  19  20
ATOM     20  C   UNL     1      28.644  -2.570  30.096  1.00  0.00     0.000 C 
BRANCH  20  21
ATOM     21  C   UNL     1      28.851  -4.086  30.236  1.00  0.00     0.000 C 
BRANCH  21  22
ATOM     22  C   UNL     1      27.553  -4.837  30.571  1.00  0.00    -0.000 C 
BRANCH  22  23
ATOM     23  C   UNL     1      27.544  -6.230  29.923  1.00  0.00    -0.000 C 
BRANCH  23  24
ATOM     24  C   UNL     1      28.958  -6.761  29.622  1.00  0.00    -0.000 C 
BRANCH  24  25
ATOM     25  C   UNL     1      29.041  -7.782  28.470  1.00  0.00    -0.000 C 
BRANCH  25  26
ATOM     26  C   UNL     1      28.634  -9.221  28.838  1.00  0.00    -0.000 C 
BRANCH  26  27
ATOM     27  C   UNL     1      29.808 -10.096  29.328  1.00  0.00    -0.000 C 
BRANCH  27  28
ATOM     28  C   UNL     1      29.968 -10.067  30.855  1.00  0.00    -0.000 C 
BRANCH  28  29
ATOM     29  C   UNL     1      28.603 -10.011  31.550  1.00  0.00    -0.003 C 
ATOM     30  C   UNL     1      28.571  -8.918  32.616  1.00  0.00     0.004 C 
ENDBRANCH  28  29
ENDBRANCH  27  28
ENDBRANCH  26  27
ENDBRANCH  25  26
ENDBRANCH  24  25
ENDBRANCH  23  24
ENDBRANCH  22  23
ENDBRANCH  21  22
ENDBRANCH  20  21
ENDBRANCH  19  20
ENDBRANCH  18  19
ENDBRANCH  17  18
ENDBRANCH   1  17
TORSDOF 26
ENDMDL
MODEL 7
REMARK VINA RESULT:    -4.964      4.057      9.426
REMARK INTER + INTRA:         -15.590
REMARK INTER:                 -13.610
REMARK INTRA:                  -1.980
REMARK UNBOUND:                -3.081
REMARK SMILES CCCCCCCCCCCCCCCCCCCCCCCCCCCC(=O)[O-]
REMARK SMILES IDX 15 1 16 2 17 3 18 4 19 5 20 6 21 7 22 8 23 9 24 10 25 11
REMARK SMILES IDX 26 12 27 13 28 14 29 15 30 16 14 17 13 18 12 19 11 20 10 21
REMARK SMILES IDX 9 22 8 23 7 24 6 25 5 26 4 27 3 28 2 29 1 30
REMARK H PARENT
REMARK Flexibility Score: inf
ROOT
ATOM      1  C   UNL     1      27.797  -2.737  30.848  1.00  0.00     0.000 C 
ENDROOT
BRANCH   1   2
ATOM      2  C   UNL     1      27.805  -4.258  30.592  1.00  0.00     0.000 C 
BRANCH   2   3
ATOM      3  C   UNL     1      26.415  -4.889  30.399  1.00  0.00     0.000 C 
BRANCH   3   4
ATOM      4  C   UNL     1      25.270  -3.880  30.594  1.00  0.00     0.000 C 
BRANCH   4   5
ATOM      5  C   UNL     1      23.887  -4.520  30.394  1.00  0.00     0.000 C 
BRANCH   5   6
ATOM      6  C   UNL     1      22.748  -3.621  30.903  1.00  0.00     0.000 C 
BRANCH   6   7
ATOM      7  C   UNL     1      22.916  -2.151  30.479  1.00  0.00     0.000 C 
BRANCH   7   8
ATOM      8  C   UNL     1      21.633  -1.533  29.884  1.00  0.00     0.000 C 
BRANCH   8   9
ATOM      9  C   UNL     1      20.882  -2.518  28.970  1.00  0.00     0.000 C 
BRANCH   9  10
ATOM     10  C   UNL     1      21.190  -2.283  27.475  1.00  0.00     0.000 C 
BRANCH  10  11
ATOM     11  C   UNL     1      21.209  -0.796  27.071  1.00  0.00     0.000 C 
BRANCH  11  12
ATOM     12  C   UNL     1      22.202  -0.442  25.951  1.00  0.00     0.006 C 
BRANCH  12  13
ATOM     13  C   UNL     1      22.683   1.013  26.021  1.00  0.00     0.053 C 
BRANCH  13  14
ATOM     14  C   UNL     1      24.174   1.074  25.922  1.00  0.00     0.041 C 
ATOM     15  O   UNL     1      24.871   0.072  26.236  1.00  0.00    -0.550 OA
ATOM     16  O   UNL     1      24.799   2.248  25.525  1.00  0.00    -0.550 OA
ENDBRANCH  13  14
ENDBRANCH  12  13
ENDBRANCH  11  12
ENDBRANCH  10  11
ENDBRANCH   9  10
ENDBRANCH   8   9
ENDBRANCH   7   8
ENDBRANCH   6   7
ENDBRANCH   5   6
ENDBRANCH   4   5
ENDBRANCH   3   4
ENDBRANCH   2   3
ENDBRANCH   1   2
BRANCH   1  17
ATOM     17  C   UNL     1      28.306  -1.874  29.676  1.00  0.00     0.000 C 
BRANCH  17  18
ATOM     18  C   UNL     1      29.534  -0.996  29.995  1.00  0.00     0.000 C 
BRANCH  18  19
ATOM     19  C   UNL     1      29.491   0.426  29.408  1.00  0.00     0.000 C 
BRANCH  19  20
ATOM     20  C   UNL     1      28.060   0.906  29.112  1.00  0.00     0.000 C 
BRANCH  20  21
ATOM     21  C   UNL     1      27.709   2.209  29.848  1.00  0.00     0.000 C 
BRANCH  21  22
ATOM     22  C   UNL     1      28.319   2.280  31.257  1.00  0.00    -0.000 C 
BRANCH  22  23
ATOM     23  C   UNL     1      28.662   3.730  31.632  1.00  0.00    -0.000 C 
BRANCH  23  24
ATOM     24  C   UNL     1      27.808   4.764  30.875  1.00  0.00    -0.000 C 
BRANCH  24  25
ATOM     25  C   UNL     1      28.600   5.729  29.971  1.00  0.00    -0.000 C 
BRANCH  25  26
ATOM     26  C   UNL     1      28.293   7.224  30.179  1.00  0.00    -0.000 C 
BRANCH  26  27
ATOM     27  C   UNL     1      26.816   7.516  30.521  1.00  0.00    -0.000 C 
BRANCH  27  28
ATOM     28  C   UNL     1      26.359   8.898  30.029  1.00  0.00    -0.000 C 
BRANCH  28  29
ATOM     29  C   UNL     1      27.062  10.017  30.805  1.00  0.00    -0.003 C 
ATOM     30  C   UNL     1      26.865   9.854  32.310  1.00  0.00     0.004 C 
ENDBRANCH  28  29
ENDBRANCH  27  28
ENDBRANCH  26  27
ENDBRANCH  25  26
ENDBRANCH  24  25
ENDBRANCH  23  24
ENDBRANCH  22  23
ENDBRANCH  21  22
ENDBRANCH  20  21
ENDBRANCH  19  20
ENDBRANCH  18  19
ENDBRANCH  17  18
ENDBRANCH   1  17
TORSDOF 26
ENDMDL
MODEL 8
REMARK VINA RESULT:    -4.947      4.187      8.159
REMARK INTER + INTRA:         -15.547
REMARK INTER:                 -13.529
REMARK INTRA:                  -2.018
REMARK UNBOUND:                -3.081
REMARK SMILES CCCCCCCCCCCCCCCCCCCCCCCCCCCC(=O)[O-]
REMARK SMILES IDX 15 1 16 2 17 3 18 4 19 5 20 6 21 7 22 8 23 9 24 10 25 11
REMARK SMILES IDX 26 12 27 13 28 14 29 15 30 16 14 17 13 18 12 19 11 20 10 21
REMARK SMILES IDX 9 22 8 23 7 24 6 25 5 26 4 27 3 28 2 29 1 30
REMARK H PARENT
REMARK Flexibility Score: inf
ROOT
ATOM      1  C   UNL     1      29.969  -3.210  30.003  1.00  0.00     0.000 C 
ENDROOT
BRANCH   1   2
ATOM      2  C   UNL     1      28.877  -2.216  29.558  1.00  0.00     0.000 C 
BRANCH   2   3
ATOM      3  C   UNL     1      27.849  -1.856  30.646  1.00  0.00     0.000 C 
BRANCH   3   4
ATOM      4  C   UNL     1      26.577  -1.207  30.074  1.00  0.00     0.000 C 
BRANCH   4   5
ATOM      5  C   UNL     1      26.892  -0.137  29.016  1.00  0.00     0.000 C 
BRANCH   5   6
ATOM      6  C   UNL     1      27.320   1.199  29.646  1.00  0.00     0.000 C 
BRANCH   6   7
ATOM      7  C   UNL     1      28.791   1.200  30.095  1.00  0.00     0.000 C 
BRANCH   7   8
ATOM      8  C   UNL     1      29.026   1.938  31.431  1.00  0.00     0.000 C 
BRANCH   8   9
ATOM      9  C   UNL     1      28.069   3.129  31.613  1.00  0.00     0.000 C 
BRANCH   9  10
ATOM     10  C   UNL     1      28.729   4.475  31.240  1.00  0.00     0.000 C 
BRANCH  10  11
ATOM     11  C   UNL     1      27.960   5.269  30.167  1.00  0.00     0.000 C 
BRANCH  11  12
ATOM     12  C   UNL     1      28.361   6.749  30.045  1.00  0.00     0.006 C 
BRANCH  12  13
ATOM     13  C   UNL     1      27.239   7.706  30.468  1.00  0.00     0.053 C 
BRANCH  13  14
ATOM     14  C   UNL     1      27.780   9.085  30.671  1.00  0.00     0.041 C 
ATOM     15  O   UNL     1      27.033  10.002  31.104  1.00  0.00    -0.550 OA
ATOM     16  O   UNL     1      29.098   9.371  30.342  1.00  0.00    -0.550 OA
ENDBRANCH  13  14
ENDBRANCH  12  13
ENDBRANCH  11  12
ENDBRANCH  10  11
ENDBRANCH   9  10
ENDBRANCH   8   9
ENDBRANCH   7   8
ENDBRANCH   6   7
ENDBRANCH   5   6
ENDBRANCH   4   5
ENDBRANCH   3   4
ENDBRANCH   2   3
ENDBRANCH   1   2
BRANCH   1  17
ATOM     17  C   UNL     1      29.732  -4.674  29.582  1.00  0.00     0.000 C 
BRANCH  17  18
ATOM     18  C   UNL     1      29.460  -5.653  30.743  1.00  0.00     0.000 C 
BRANCH  18  19
ATOM     19  C   UNL     1      28.287  -6.624  30.519  1.00  0.00     0.000 C 
BRANCH  19  20
ATOM     20  C   UNL     1      27.159  -6.010  29.672  1.00  0.00     0.000 C 
BRANCH  20  21
ATOM     21  C   UNL     1      26.407  -4.891  30.410  1.00  0.00     0.000 C 
BRANCH  21  22
ATOM     22  C   UNL     1      24.916  -4.831  30.042  1.00  0.00    -0.000 C 
BRANCH  22  23
ATOM     23  C   UNL     1      24.141  -3.960  31.042  1.00  0.00    -0.000 C 
BRANCH  23  24
ATOM     24  C   UNL     1      22.759  -3.528  30.517  1.00  0.00    -0.000 C 
BRANCH  24  25
ATOM     25  C   UNL     1      22.482  -2.013  30.578  1.00  0.00    -0.000 C 
BRANCH  25  26
ATOM     26  C   UNL     1      21.536  -1.475  29.488  1.00  0.00    -0.000 C 
BRANCH  26  27
ATOM     27  C   UNL     1      21.145  -2.526  28.427  1.00  0.00    -0.000 C 
BRANCH  27  28
ATOM     28  C   UNL     1      21.142  -1.952  27.002  1.00  0.00    -0.000 C 
BRANCH  28  29
ATOM     29  C   UNL     1      21.404  -0.442  27.017  1.00  0.00    -0.003 C 
ATOM     30  C   UNL     1      22.273  -0.021  25.835  1.00  0.00     0.004 C 
ENDBRANCH  28  29
ENDBRANCH  27  28
ENDBRANCH  26  27
ENDBRANCH  25  26
ENDBRANCH  24  25
ENDBRANCH  23  24
ENDBRANCH  22  23
ENDBRANCH  21  22
ENDBRANCH  20  21
ENDBRANCH  19  20
ENDBRANCH  18  19
ENDBRANCH  17  18
ENDBRANCH   1  17
TORSDOF 26
ENDMDL
MODEL 9
REMARK VINA RESULT:    -4.872      3.214      6.921
REMARK INTER + INTRA:         -15.359
REMARK INTER:                 -12.147
REMARK INTRA:                  -3.212
REMARK UNBOUND:                -3.081
REMARK SMILES CCCCCCCCCCCCCCCCCCCCCCCCCCCC(=O)[O-]
REMARK SMILES IDX 15 1 16 2 17 3 18 4 19 5 20 6 21 7 22 8 23 9 24 10 25 11
REMARK SMILES IDX 26 12 27 13 28 14 29 15 30 16 14 17 13 18 12 19 11 20 10 21
REMARK SMILES IDX 9 22 8 23 7 24 6 25 5 26 4 27 3 28 2 29 1 30
REMARK H PARENT
REMARK Flexibility Score: inf
ROOT
ATOM      1  C   UNL     1      24.538  -0.014  26.051  1.00  0.00     0.000 C 
ENDROOT
BRANCH   1   2
ATOM      2  C   UNL     1      25.352   0.520  27.248  1.00  0.00     0.000 C 
BRANCH   2   3
ATOM      3  C   UNL     1      26.155  -0.548  28.012  1.00  0.00     0.000 C 
BRANCH   3   4
ATOM      4  C   UNL     1      25.988  -0.443  29.537  1.00  0.00     0.000 C 
BRANCH   4   5
ATOM      5  C   UNL     1      27.053  -1.248  30.299  1.00  0.00     0.000 C 
BRANCH   5   6
ATOM      6  C   UNL     1      28.277  -1.570  29.426  1.00  0.00     0.000 C 
BRANCH   6   7
ATOM      7  C   UNL     1      29.604  -1.169  30.093  1.00  0.00     0.000 C 
BRANCH   7   8
ATOM      8  C   UNL     1      29.881   0.349  30.047  1.00  0.00     0.000 C 
BRANCH   8   9
ATOM      9  C   UNL     1      29.489   1.052  31.359  1.00  0.00     0.000 C 
BRANCH   9  10
ATOM     10  C   UNL     1      28.267   1.980  31.185  1.00  0.00     0.000 C 
BRANCH  10  11
ATOM     11  C   UNL     1      27.995   2.383  29.723  1.00  0.00     0.000 C 
BRANCH  11  12
ATOM     12  C   UNL     1      27.673   3.872  29.511  1.00  0.00     0.006 C 
BRANCH  12  13
ATOM     13  C   UNL     1      28.300   4.773  30.583  1.00  0.00     0.053 C 
BRANCH  13  14
ATOM     14  C   UNL     1      27.943   6.204  30.333  1.00  0.00     0.041 C 
ATOM     15  O   UNL     1      28.793   6.992  29.840  1.00  0.00    -0.550 OA
ATOM     16  O   UNL     1      26.687   6.680  30.685  1.00  0.00    -0.550 OA
ENDBRANCH  13  14
ENDBRANCH  12  13
ENDBRANCH  11  12
ENDBRANCH  10  11
ENDBRANCH   9  10
ENDBRANCH   8   9
ENDBRANCH   7   8
ENDBRANCH   6   7
ENDBRANCH   5   6
ENDBRANCH   4   5
ENDBRANCH   3   4
ENDBRANCH   2   3
ENDBRANCH   1   2
BRANCH   1  17
ATOM     17  C   UNL     1      23.058   0.419  26.022  1.00  0.00     0.000 C 
BRANCH  17  18
ATOM     18  C   UNL     1      22.040  -0.717  26.248  1.00  0.00     0.000 C 
BRANCH  18  19
ATOM     19  C   UNL     1      21.192  -0.589  27.526  1.00  0.00     0.000 C 
BRANCH  19  20
ATOM     20  C   UNL     1      21.230  -1.856  28.397  1.00  0.00     0.000 C 
BRANCH  20  21
ATOM     21  C   UNL     1      21.532  -1.551  29.873  1.00  0.00     0.000 C 
BRANCH  21  22
ATOM     22  C   UNL     1      22.870  -2.144  30.342  1.00  0.00    -0.000 C 
BRANCH  22  23
ATOM     23  C   UNL     1      22.682  -3.581  30.852  1.00  0.00    -0.000 C 
BRANCH  23  24
ATOM     24  C   UNL     1      23.745  -4.556  30.310  1.00  0.00    -0.000 C 
BRANCH  24  25
ATOM     25  C   UNL     1      25.193  -4.244  30.735  1.00  0.00    -0.000 C 
BRANCH  25  26
ATOM     26  C   UNL     1      26.283  -5.011  29.962  1.00  0.00    -0.000 C 
BRANCH  26  27
ATOM     27  C   UNL     1      27.527  -5.351  30.811  1.00  0.00    -0.000 C 
BRANCH  27  28
ATOM     28  C   UNL     1      28.759  -5.669  29.950  1.00  0.00    -0.000 C 
BRANCH  28  29
ATOM     29  C   UNL     1      30.055  -5.386  30.719  1.00  0.00    -0.003 C 
ATOM     30  C   UNL     1      30.911  -4.350  29.996  1.00  0.00     0.004 C 
ENDBRANCH  28  29
ENDBRANCH  27  28
ENDBRANCH  26  27
ENDBRANCH  25  26
ENDBRANCH  24  25
ENDBRANCH  23  24
ENDBRANCH  22  23
ENDBRANCH  21  22
ENDBRANCH  20  21
ENDBRANCH  19  20
ENDBRANCH  18  19
ENDBRANCH  17  18
ENDBRANCH   1  17
TORSDOF 26
ENDMDL
