MODEL 1
REMARK VINA RESULT:    -3.458      0.000      0.000
REMARK INTER + INTRA:          -5.166
REMARK INTER:                  -4.772
REMARK INTRA:                  -0.394
REMARK UNBOUND:                -0.394
REMARK SMILES CCCCCCCCO
REMARK SMILES IDX 5 1 4 2 3 3 2 4 1 5 6 6 7 7 8 8 9 9
REMARK H PARENT 9 10
REMARK Flexibility Score: inf
ROOT
ATOM      1  C   UNL     1      29.299   1.677  22.706  1.00  0.00     0.000 C 
ENDROOT
BRANCH   1   2
ATOM      2  C   UNL     1      30.453   0.885  23.341  1.00  0.00    -0.000 C 
BRANCH   2   3
ATOM      3  C   UNL     1      30.245  -0.640  23.230  1.00  0.00    -0.000 C 
BRANCH   3   4
ATOM      4  C   UNL     1      30.552  -1.400  24.530  1.00  0.00    -0.003 C 
ATOM      5  C   UNL     1      31.285  -0.549  25.564  1.00  0.00     0.004 C 
ENDBRANCH   3   4
ENDBRANCH   2   3
ENDBRANCH   1   2
BRANCH   1   6
ATOM      6  C   UNL     1      28.668   2.639  23.723  1.00  0.00     0.002 C 
BRANCH   6   7
ATOM      7  C   UNL     1      29.474   2.736  25.030  1.00  0.00     0.028 C 
BRANCH   7   8
ATOM      8  C   UNL     1      29.630   4.170  25.549  1.00  0.00     0.156 C 
BRANCH   8   9
ATOM      9  O   UNL     1      29.024   5.075  24.668  1.00  0.00    -0.396 OA
ATOM     10  H   UNL     1      28.305   4.571  24.207  1.00  0.00     0.210 HD
ENDBRANCH   8   9
ENDBRANCH   7   8
ENDBRANCH   6   7
ENDBRANCH   1   6
TORSDOF 7
ENDMDL
MODEL 2
REMARK VINA RESULT:    -3.302      8.583      9.764
REMARK INTER + INTRA:          -4.951
REMARK INTER:                  -4.706
REMARK INTRA:                  -0.245
REMARK UNBOUND:                -0.394
REMARK SMILES CCCCCCCCO
REMARK SMILES IDX 5 1 4 2 3 3 2 4 1 5 6 6 7 7 8 8 9 9
REMARK H PARENT 9 10
REMARK Flexibility Score: inf
ROOT
ATOM      1  C   UNL     1      25.613  -2.467  15.966  1.00  0.00     0.000 C 
ENDROOT
BRANCH   1   2
ATOM      2  C   UNL     1      25.589  -3.994  15.798  1.00  0.00    -0.000 C 
BRANCH   2   3
ATOM      3  C   UNL     1      24.247  -4.610  16.248  1.00  0.00    -0.000 C 
BRANCH   3   4
ATOM      4  C   UNL     1      23.201  -3.564  16.671  1.00  0.00    -0.003 C 
ATOM      5  C   UNL     1      21.775  -3.953  16.290  1.00  0.00     0.004 C 
ENDBRANCH   3   4
ENDBRANCH   2   3
ENDBRANCH   1   2
BRANCH   1   6
ATOM      6  C   UNL     1      26.557  -2.053  17.105  1.00  0.00     0.002 C 
BRANCH   6   7
ATOM      7  C   UNL     1      26.202  -0.682  17.703  1.00  0.00     0.028 C 
BRANCH   7   8
ATOM      8  C   UNL     1      27.101  -0.271  18.874  1.00  0.00     0.156 C 
BRANCH   8   9
ATOM      9  O   UNL     1      27.138   1.124  18.995  1.00  0.00    -0.396 OA
ATOM     10  H   UNL     1      26.710   1.335  19.864  1.00  0.00     0.210 HD
ENDBRANCH   8   9
ENDBRANCH   7   8
ENDBRANCH   6   7
ENDBRANCH   1   6
TORSDOF 7
ENDMDL
MODEL 3
REMARK VINA RESULT:    -3.297      2.754      4.139
REMARK INTER + INTRA:          -4.944
REMARK INTER:                  -4.781
REMARK INTRA:                  -0.163
REMARK UNBOUND:                -0.394
REMARK SMILES CCCCCCCCO
REMARK SMILES IDX 5 1 4 2 3 3 2 4 1 5 6 6 7 7 8 8 9 9
REMARK H PARENT 9 10
REMARK Flexibility Score: inf
ROOT
ATOM      1  C   UNL     1      29.468  -0.300  22.452  1.00  0.00     0.000 C 
ENDROOT
BRANCH   1   2
ATOM      2  C   UNL     1      28.346   0.291  21.585  1.00  0.00    -0.000 C 
BRANCH   2   3
ATOM      3  C   UNL     1      28.219  -0.428  20.225  1.00  0.00    -0.000 C 
BRANCH   3   4
ATOM      4  C   UNL     1      26.916  -0.104  19.477  1.00  0.00    -0.003 C 
ATOM      5  C   UNL     1      27.102   0.004  17.965  1.00  0.00     0.004 C 
ENDBRANCH   3   4
ENDBRANCH   2   3
ENDBRANCH   1   2
BRANCH   1   6
ATOM      6  C   UNL     1      30.143   0.791  23.296  1.00  0.00     0.002 C 
BRANCH   6   7
ATOM      7  C   UNL     1      29.442   2.155  23.176  1.00  0.00     0.028 C 
BRANCH   7   8
ATOM      8  C   UNL     1      29.311   2.897  24.510  1.00  0.00     0.156 C 
BRANCH   8   9
ATOM      9  O   UNL     1      29.044   4.255  24.288  1.00  0.00    -0.396 OA
ATOM     10  H   UNL     1      29.406   4.462  23.389  1.00  0.00     0.210 HD
ENDBRANCH   8   9
ENDBRANCH   7   8
ENDBRANCH   6   7
ENDBRANCH   1   6
TORSDOF 7
ENDMDL
MODEL 4
REMARK VINA RESULT:    -3.297      1.878      2.535
REMARK INTER + INTRA:          -4.944
REMARK INTER:                  -4.534
REMARK INTRA:                  -0.410
REMARK UNBOUND:                -0.394
REMARK SMILES CCCCCCCCO
REMARK SMILES IDX 5 1 4 2 3 3 2 4 1 5 6 6 7 7 8 8 9 9
REMARK H PARENT 9 10
REMARK Flexibility Score: inf
ROOT
ATOM      1  C   UNL     1      27.193   1.028  24.220  1.00  0.00     0.000 C 
ENDROOT
BRANCH   1   2
ATOM      2  C   UNL     1      27.285  -0.390  23.635  1.00  0.00    -0.000 C 
BRANCH   2   3
ATOM      3  C   UNL     1      27.351  -0.381  22.093  1.00  0.00    -0.000 C 
BRANCH   3   4
ATOM      4  C   UNL     1      28.784  -0.322  21.539  1.00  0.00    -0.003 C 
ATOM      5  C   UNL     1      29.807  -1.004  22.444  1.00  0.00     0.004 C 
ENDBRANCH   3   4
ENDBRANCH   2   3
ENDBRANCH   1   2
BRANCH   1   6
ATOM      6  C   UNL     1      28.531   1.452  24.846  1.00  0.00     0.002 C 
BRANCH   6   7
ATOM      7  C   UNL     1      29.129   2.703  24.179  1.00  0.00     0.028 C 
BRANCH   7   8
ATOM      8  C   UNL     1      29.450   3.830  25.166  1.00  0.00     0.156 C 
BRANCH   8   9
ATOM      9  O   UNL     1      29.058   5.067  24.637  1.00  0.00    -0.396 OA
ATOM     10  H   UNL     1      29.594   5.751  25.114  1.00  0.00     0.210 HD
ENDBRANCH   8   9
ENDBRANCH   7   8
ENDBRANCH   6   7
ENDBRANCH   1   6
TORSDOF 7
ENDMDL
MODEL 5
REMARK VINA RESULT:    -3.285      8.295      9.518
REMARK INTER + INTRA:          -4.927
REMARK INTER:                  -4.436
REMARK INTRA:                  -0.491
REMARK UNBOUND:                -0.394
REMARK SMILES CCCCCCCCO
REMARK SMILES IDX 5 1 4 2 3 3 2 4 1 5 6 6 7 7 8 8 9 9
REMARK H PARENT 9 10
REMARK Flexibility Score: inf
ROOT
ATOM      1  C   UNL     1      26.991  -3.385  17.502  1.00  0.00     0.000 C 
ENDROOT
BRANCH   1   2
ATOM      2  C   UNL     1      26.322  -3.203  16.132  1.00  0.00    -0.000 C 
BRANCH   2   3
ATOM      3  C   UNL     1      25.665  -4.505  15.625  1.00  0.00    -0.000 C 
BRANCH   3   4
ATOM      4  C   UNL     1      24.325  -4.825  16.309  1.00  0.00    -0.003 C 
ATOM      5  C   UNL     1      23.384  -3.625  16.376  1.00  0.00     0.004 C 
ENDBRANCH   3   4
ENDBRANCH   2   3
ENDBRANCH   1   2
BRANCH   1   6
ATOM      6  C   UNL     1      26.519  -2.310  18.492  1.00  0.00     0.002 C 
BRANCH   6   7
ATOM      7  C   UNL     1      26.089  -1.008  17.795  1.00  0.00     0.028 C 
BRANCH   7   8
ATOM      8  C   UNL     1      27.125   0.116  17.904  1.00  0.00     0.156 C 
BRANCH   8   9
ATOM      9  O   UNL     1      27.954   0.125  16.774  1.00  0.00    -0.396 OA
ATOM     10  H   UNL     1      27.371   0.363  16.008  1.00  0.00     0.210 HD
ENDBRANCH   8   9
ENDBRANCH   7   8
ENDBRANCH   6   7
ENDBRANCH   1   6
TORSDOF 7
ENDMDL
MODEL 6
REMARK VINA RESULT:    -3.275      4.059      5.408
REMARK INTER + INTRA:          -4.913
REMARK INTER:                  -4.682
REMARK INTRA:                  -0.231
REMARK UNBOUND:                -0.394
REMARK SMILES CCCCCCCCO
REMARK SMILES IDX 5 1 4 2 3 3 2 4 1 5 6 6 7 7 8 8 9 9
REMARK H PARENT 9 10
REMARK Flexibility Score: inf
ROOT
ATOM      1  C   UNL     1      27.122  -0.732  21.415  1.00  0.00     0.000 C 
ENDROOT
BRANCH   1   2
ATOM      2  C   UNL     1      26.635  -0.904  19.968  1.00  0.00    -0.000 C 
BRANCH   2   3
ATOM      3  C   UNL     1      27.103   0.248  19.054  1.00  0.00    -0.000 C 
BRANCH   3   4
ATOM      4  C   UNL     1      27.147  -0.128  17.564  1.00  0.00    -0.003 C 
ATOM      5  C   UNL     1      26.504  -1.480  17.267  1.00  0.00     0.004 C 
ENDBRANCH   3   4
ENDBRANCH   2   3
ENDBRANCH   1   2
BRANCH   1   6
ATOM      6  C   UNL     1      28.400   0.119  21.468  1.00  0.00     0.002 C 
BRANCH   6   7
ATOM      7  C   UNL     1      28.643   0.743  22.852  1.00  0.00     0.028 C 
BRANCH   7   8
ATOM      8  C   UNL     1      29.293   2.130  22.795  1.00  0.00     0.156 C 
BRANCH   8   9
ATOM      9  O   UNL     1      28.360   3.119  23.132  1.00  0.00    -0.396 OA
ATOM     10  H   UNL     1      27.475   2.671  23.139  1.00  0.00     0.210 HD
ENDBRANCH   8   9
ENDBRANCH   7   8
ENDBRANCH   6   7
ENDBRANCH   1   6
TORSDOF 7
ENDMDL
MODEL 7
REMARK VINA RESULT:    -3.270      8.036      9.180
REMARK INTER + INTRA:          -4.906
REMARK INTER:                  -4.641
REMARK INTRA:                  -0.266
REMARK UNBOUND:                -0.394
REMARK SMILES CCCCCCCCO
REMARK SMILES IDX 5 1 4 2 3 3 2 4 1 5 6 6 7 7 8 8 9 9
REMARK H PARENT 9 10
REMARK Flexibility Score: inf
ROOT
ATOM      1  C   UNL     1      25.268  -2.368  16.983  1.00  0.00     0.000 C 
ENDROOT
BRANCH   1   2
ATOM      2  C   UNL     1      25.225  -3.011  15.588  1.00  0.00    -0.000 C 
BRANCH   2   3
ATOM      3  C   UNL     1      25.628  -4.501  15.621  1.00  0.00    -0.000 C 
BRANCH   3   4
ATOM      4  C   UNL     1      26.838  -4.831  14.732  1.00  0.00    -0.003 C 
ATOM      5  C   UNL     1      28.169  -4.749  15.475  1.00  0.00     0.004 C 
ENDBRANCH   3   4
ENDBRANCH   2   3
ENDBRANCH   1   2
BRANCH   1   6
ATOM      6  C   UNL     1      26.647  -1.752  17.262  1.00  0.00     0.002 C 
BRANCH   6   7
ATOM      7  C   UNL     1      26.557  -0.324  17.826  1.00  0.00     0.028 C 
BRANCH   7   8
ATOM      8  C   UNL     1      26.789  -0.246  19.339  1.00  0.00     0.156 C 
BRANCH   8   9
ATOM      9  O   UNL     1      27.509   0.911  19.663  1.00  0.00    -0.396 OA
ATOM     10  H   UNL     1      26.839   1.575  19.969  1.00  0.00     0.210 HD
ENDBRANCH   8   9
ENDBRANCH   7   8
ENDBRANCH   6   7
ENDBRANCH   1   6
TORSDOF 7
ENDMDL
MODEL 8
REMARK VINA RESULT:    -3.238      1.807      2.630
REMARK INTER + INTRA:          -4.863
REMARK INTER:                  -4.421
REMARK INTRA:                  -0.442
REMARK UNBOUND:                -0.394
REMARK SMILES CCCCCCCCO
REMARK SMILES IDX 5 1 4 2 3 3 2 4 1 5 6 6 7 7 8 8 9 9
REMARK H PARENT 9 10
REMARK Flexibility Score: inf
ROOT
ATOM      1  C   UNL     1      29.222  -0.011  24.990  1.00  0.00     0.000 C 
ENDROOT
BRANCH   1   2
ATOM      2  C   UNL     1      30.581  -0.578  24.549  1.00  0.00    -0.000 C 
BRANCH   2   3
ATOM      3  C   UNL     1      31.682  -0.343  25.604  1.00  0.00    -0.000 C 
BRANCH   3   4
ATOM      4  C   UNL     1      32.869   0.484  25.082  1.00  0.00    -0.003 C 
ATOM      5  C   UNL     1      32.961   0.505  23.558  1.00  0.00     0.004 C 
ENDBRANCH   3   4
ENDBRANCH   2   3
ENDBRANCH   1   2
BRANCH   1   6
ATOM      6  C   UNL     1      29.404   1.268  25.821  1.00  0.00     0.002 C 
BRANCH   6   7
ATOM      7  C   UNL     1      29.559   2.526  24.950  1.00  0.00     0.028 C 
BRANCH   7   8
ATOM      8  C   UNL     1      28.762   2.469  23.643  1.00  0.00     0.156 C 
BRANCH   8   9
ATOM      9  O   UNL     1      29.626   2.517  22.542  1.00  0.00    -0.396 OA
ATOM     10  H   UNL     1      30.173   1.691  22.585  1.00  0.00     0.210 HD
ENDBRANCH   8   9
ENDBRANCH   7   8
ENDBRANCH   6   7
ENDBRANCH   1   6
TORSDOF 7
ENDMDL
MODEL 9
REMARK VINA RESULT:    -3.228      8.307      9.726
REMARK INTER + INTRA:          -4.848
REMARK INTER:                  -4.646
REMARK INTRA:                  -0.202
REMARK UNBOUND:                -0.394
REMARK SMILES CCCCCCCCO
REMARK SMILES IDX 5 1 4 2 3 3 2 4 1 5 6 6 7 7 8 8 9 9
REMARK H PARENT 9 10
REMARK Flexibility Score: inf
ROOT
ATOM      1  C   UNL     1      26.592  -2.542  17.291  1.00  0.00     0.000 C 
ENDROOT
BRANCH   1   2
ATOM      2  C   UNL     1      25.915  -1.191  17.566  1.00  0.00    -0.000 C 
BRANCH   2   3
ATOM      3  C   UNL     1      26.934  -0.091  17.932  1.00  0.00    -0.000 C 
BRANCH   3   4
ATOM      4  C   UNL     1      27.358  -0.112  19.410  1.00  0.00    -0.003 C 
ATOM      5  C   UNL     1      26.247  -0.579  20.347  1.00  0.00     0.004 C 
ENDBRANCH   3   4
ENDBRANCH   2   3
ENDBRANCH   1   2
BRANCH   1   6
ATOM      6  C   UNL     1      25.953  -3.240  16.081  1.00  0.00     0.002 C 
BRANCH   6   7
ATOM      7  C   UNL     1      24.529  -2.736  15.787  1.00  0.00     0.028 C 
BRANCH   7   8
ATOM      8  C   UNL     1      23.429  -3.641  16.352  1.00  0.00     0.156 C 
BRANCH   8   9
ATOM      9  O   UNL     1      22.175  -3.035  16.203  1.00  0.00    -0.396 OA
ATOM     10  H   UNL     1      22.317  -2.067  16.367  1.00  0.00     0.210 HD
ENDBRANCH   8   9
ENDBRANCH   7   8
ENDBRANCH   6   7
ENDBRANCH   1   6
TORSDOF 7
ENDMDL
