MODEL 1
REMARK VINA RESULT:    -6.171      0.000      0.000
REMARK INTER + INTRA:          -6.817
REMARK INTER:                  -6.532
REMARK INTRA:                  -0.285
REMARK UNBOUND:                -0.285
REMARK SMILES CC1=CC[C@@H]2[C@H]3[C@@H](C(C)C)CC[C@]2(C)[C@@H]13
REMARK SMILES IDX 1 1 2 2 3 3 4 4 5 5 6 6 15 7 13 8 12 9 11 10 7 11 14 12 8 13
REMARK SMILES IDX 9 14 10 15
REMARK H PARENT
REMARK Flexibility Score: inf
ROOT
ATOM      1  C   UNL     1     100.375 104.873 129.209  1.00  0.00     0.039 C 
ATOM      2  C   UNL     1     101.541 104.916 128.267  1.00  0.00    -0.073 C 
ATOM      3  C   UNL     1     101.384 104.867 126.919  1.00  0.00    -0.027 C 
ATOM      4  C   UNL     1     102.629 104.919 126.029  1.00  0.00     0.031 C 
ATOM      5  C   UNL     1     103.925 104.982 126.903  1.00  0.00     0.003 C 
ATOM      6  C   UNL     1     103.789 103.915 128.011  1.00  0.00     0.004 C 
ATOM      7  C   UNL     1     102.974 104.970 128.799  1.00  0.00     0.024 C 
ATOM      8  C   UNL     1     103.801 106.033 128.032  1.00  0.00    -0.022 C 
ATOM      9  C   UNL     1     105.200 106.233 128.693  1.00  0.00     0.008 C 
ATOM     10  C   UNL     1     105.741 104.935 129.351  1.00  0.00     0.005 C 
ATOM     11  C   UNL     1     105.150 103.630 128.719  1.00  0.00    -0.005 C 
ATOM     12  C   UNL     1     103.143 107.395 127.705  1.00  0.00     0.012 C 
ENDROOT
BRANCH  11  13
ATOM     13  C   UNL     1     106.131 102.804 127.808  1.00  0.00    -0.014 C 
ATOM     14  C   UNL     1     107.514 102.497 128.418  1.00  0.00     0.007 C 
ATOM     15  C   UNL     1     105.479 101.488 127.357  1.00  0.00     0.007 C 
ENDBRANCH  11  13
TORSDOF 1
ENDMDL
MODEL 2
REMARK VINA RESULT:    -6.131      2.812      5.258
REMARK INTER + INTRA:          -6.775
REMARK INTER:                  -6.489
REMARK INTRA:                  -0.287
REMARK UNBOUND:                -0.285
REMARK SMILES CC1=CC[C@@H]2[C@H]3[C@@H](C(C)C)CC[C@]2(C)[C@@H]13
REMARK SMILES IDX 1 1 2 2 3 3 4 4 5 5 6 6 15 7 13 8 12 9 11 10 7 11 14 12 8 13
REMARK SMILES IDX 9 14 10 15
REMARK H PARENT
REMARK Flexibility Score: inf
ROOT
ATOM      1  C   UNL     1     104.865 112.026 129.241  1.00  0.00     0.039 C 
ATOM      2  C   UNL     1     104.902 110.888 128.265  1.00  0.00    -0.073 C 
ATOM      3  C   UNL     1     104.847 111.085 126.922  1.00  0.00    -0.027 C 
ATOM      4  C   UNL     1     104.894 109.867 125.996  1.00  0.00     0.031 C 
ATOM      5  C   UNL     1     104.960 108.546 126.831  1.00  0.00     0.003 C 
ATOM      6  C   UNL     1     103.897 108.650 127.947  1.00  0.00     0.004 C 
ATOM      7  C   UNL     1     104.956 109.440 128.754  1.00  0.00     0.024 C 
ATOM      8  C   UNL     1     106.015 108.636 127.958  1.00  0.00    -0.022 C 
ATOM      9  C   UNL     1     106.217 107.218 128.577  1.00  0.00     0.008 C 
ATOM     10  C   UNL     1     104.921 106.659 129.224  1.00  0.00     0.005 C 
ATOM     11  C   UNL     1     103.614 107.269 128.615  1.00  0.00    -0.005 C 
ATOM     12  C   UNL     1     107.377 109.301 127.645  1.00  0.00     0.012 C 
ENDROOT
BRANCH  11  13
ATOM     13  C   UNL     1     102.782 106.316 127.680  1.00  0.00    -0.014 C 
ATOM     14  C   UNL     1     102.445 104.929 128.265  1.00  0.00     0.007 C 
ATOM     15  C   UNL     1     101.483 106.997 127.223  1.00  0.00     0.007 C 
ENDBRANCH  11  13
TORSDOF 1
ENDMDL
MODEL 3
REMARK VINA RESULT:    -6.102      4.512      7.510
REMARK INTER + INTRA:          -6.744
REMARK INTER:                  -6.466
REMARK INTRA:                  -0.278
REMARK UNBOUND:                -0.285
REMARK SMILES CC1=CC[C@@H]2[C@H]3[C@@H](C(C)C)CC[C@]2(C)[C@@H]13
REMARK SMILES IDX 1 1 2 2 3 3 4 4 5 5 6 6 15 7 13 8 12 9 11 10 7 11 14 12 8 13
REMARK SMILES IDX 9 14 10 15
REMARK H PARENT
REMARK Flexibility Score: inf
ROOT
ATOM      1  C   UNL     1     112.167 107.504 129.250  1.00  0.00     0.039 C 
ATOM      2  C   UNL     1     110.988 107.495 128.323  1.00  0.00    -0.073 C 
ATOM      3  C   UNL     1     111.130 107.531 126.973  1.00  0.00    -0.027 C 
ATOM      4  C   UNL     1     109.872 107.515 126.100  1.00  0.00     0.031 C 
ATOM      5  C   UNL     1     108.586 107.502 126.990  1.00  0.00     0.003 C 
ATOM      6  C   UNL     1     108.772 108.571 128.089  1.00  0.00     0.004 C 
ATOM      7  C   UNL     1     109.562 107.494 128.874  1.00  0.00     0.024 C 
ATOM      8  C   UNL     1     108.689 106.454 128.124  1.00  0.00    -0.022 C 
ATOM      9  C   UNL     1     107.293 106.306 128.805  1.00  0.00     0.008 C 
ATOM     10  C   UNL     1     106.805 107.626 129.461  1.00  0.00     0.005 C 
ATOM     11  C   UNL     1     107.431 108.906 128.813  1.00  0.00    -0.005 C 
ATOM     12  C   UNL     1     109.296 105.069 127.799  1.00  0.00     0.012 C 
ENDROOT
BRANCH  11  13
ATOM     13  C   UNL     1     106.467 109.760 127.909  1.00  0.00    -0.014 C 
ATOM     14  C   UNL     1     105.001 109.838 128.381  1.00  0.00     0.007 C 
ATOM     15  C   UNL     1     107.011 111.185 127.724  1.00  0.00     0.007 C 
ENDBRANCH  11  13
TORSDOF 1
ENDMDL
MODEL 4
REMARK VINA RESULT:    -6.077      2.818      5.268
REMARK INTER + INTRA:          -6.717
REMARK INTER:                  -6.439
REMARK INTRA:                  -0.278
REMARK UNBOUND:                -0.285
REMARK SMILES CC1=CC[C@@H]2[C@H]3[C@@H](C(C)C)CC[C@]2(C)[C@@H]13
REMARK SMILES IDX 1 1 2 2 3 3 4 4 5 5 6 6 15 7 13 8 12 9 11 10 7 11 14 12 8 13
REMARK SMILES IDX 9 14 10 15
REMARK H PARENT
REMARK Flexibility Score: inf
ROOT
ATOM      1  C   UNL     1     107.501 100.377 129.248  1.00  0.00     0.039 C 
ATOM      2  C   UNL     1     107.488 101.559 128.325  1.00  0.00    -0.073 C 
ATOM      3  C   UNL     1     107.498 101.421 126.973  1.00  0.00    -0.027 C 
ATOM      4  C   UNL     1     107.480 102.682 126.104  1.00  0.00     0.031 C 
ATOM      5  C   UNL     1     107.495 103.965 126.999  1.00  0.00     0.003 C 
ATOM      6  C   UNL     1     108.582 103.765 128.078  1.00  0.00     0.004 C 
ATOM      7  C   UNL     1     107.510 102.984 128.879  1.00  0.00     0.024 C 
ATOM      8  C   UNL     1     106.467 103.869 128.150  1.00  0.00    -0.022 C 
ATOM      9  C   UNL     1     106.345 105.265 128.838  1.00  0.00     0.008 C 
ATOM     10  C   UNL     1     107.681 105.737 129.472  1.00  0.00     0.005 C 
ATOM     11  C   UNL     1     108.943 105.100 128.799  1.00  0.00    -0.005 C 
ATOM     12  C   UNL     1     105.070 103.278 127.848  1.00  0.00     0.012 C 
ENDROOT
BRANCH  11  13
ATOM     13  C   UNL     1     109.791 106.058 127.884  1.00  0.00    -0.014 C 
ATOM     14  C   UNL     1     109.904 107.519 128.365  1.00  0.00     0.007 C 
ATOM     15  C   UNL     1     111.202 105.493 127.661  1.00  0.00     0.007 C 
ENDBRANCH  11  13
TORSDOF 1
ENDMDL
MODEL 5
REMARK VINA RESULT:    -6.024      1.129      4.636
REMARK INTER + INTRA:          -6.662
REMARK INTER:                  -6.386
REMARK INTRA:                  -0.275
REMARK UNBOUND:                -0.285
REMARK SMILES CC1=CC[C@@H]2[C@H]3[C@@H](C(C)C)CC[C@]2(C)[C@@H]13
REMARK SMILES IDX 1 1 2 2 3 3 4 4 5 5 6 6 15 7 13 8 12 9 11 10 7 11 14 12 8 13
REMARK SMILES IDX 9 14 10 15
REMARK H PARENT
REMARK Flexibility Score: inf
ROOT
ATOM      1  C   UNL     1     105.873 101.129 125.515  1.00  0.00     0.039 C 
ATOM      2  C   UNL     1     105.606 101.796 126.831  1.00  0.00    -0.073 C 
ATOM      3  C   UNL     1     105.475 101.091 127.985  1.00  0.00    -0.027 C 
ATOM      4  C   UNL     1     105.207 101.852 129.287  1.00  0.00     0.031 C 
ATOM      5  C   UNL     1     105.088 103.387 129.010  1.00  0.00     0.003 C 
ATOM      6  C   UNL     1     104.165 103.567 127.785  1.00  0.00     0.004 C 
ATOM      7  C   UNL     1     105.423 103.311 126.917  1.00  0.00     0.024 C 
ATOM      8  C   UNL     1     106.234 103.893 128.102  1.00  0.00    -0.022 C 
ATOM      9  C   UNL     1     106.211 105.453 128.080  1.00  0.00     0.008 C 
ATOM     10  C   UNL     1     104.892 106.022 127.491  1.00  0.00     0.005 C 
ATOM     11  C   UNL     1     103.680 105.041 127.629  1.00  0.00    -0.005 C 
ATOM     12  C   UNL     1     107.666 103.365 128.355  1.00  0.00     0.012 C 
ENDROOT
BRANCH  11  13
ATOM     13  C   UNL     1     102.603 105.428 128.709  1.00  0.00    -0.014 C 
ATOM     14  C   UNL     1     102.477 106.933 129.021  1.00  0.00     0.007 C 
ATOM     15  C   UNL     1     101.221 104.878 128.323  1.00  0.00     0.007 C 
ENDBRANCH  11  13
TORSDOF 1
ENDMDL
MODEL 6
REMARK VINA RESULT:    -5.992      2.481      4.976
REMARK INTER + INTRA:          -6.627
REMARK INTER:                  -6.352
REMARK INTRA:                  -0.275
REMARK UNBOUND:                -0.285
REMARK SMILES CC1=CC[C@@H]2[C@H]3[C@@H](C(C)C)CC[C@]2(C)[C@@H]13
REMARK SMILES IDX 1 1 2 2 3 3 4 4 5 5 6 6 15 7 13 8 12 9 11 10 7 11 14 12 8 13
REMARK SMILES IDX 9 14 10 15
REMARK H PARENT
REMARK Flexibility Score: inf
ROOT
ATOM      1  C   UNL     1     101.386 106.750 125.691  1.00  0.00     0.039 C 
ATOM      2  C   UNL     1     102.039 107.059 127.005  1.00  0.00    -0.073 C 
ATOM      3  C   UNL     1     101.332 107.147 128.162  1.00  0.00    -0.027 C 
ATOM      4  C   UNL     1     102.078 107.464 129.460  1.00  0.00     0.031 C 
ATOM      5  C   UNL     1     103.602 107.678 129.179  1.00  0.00     0.003 C 
ATOM      6  C   UNL     1     103.720 108.609 127.952  1.00  0.00     0.004 C 
ATOM      7  C   UNL     1     103.541 107.338 127.086  1.00  0.00     0.024 C 
ATOM      8  C   UNL     1     104.176 106.565 128.270  1.00  0.00    -0.022 C 
ATOM      9  C   UNL     1     105.731 106.686 128.242  1.00  0.00     0.008 C 
ATOM     10  C   UNL     1     106.215 108.037 127.651  1.00  0.00     0.005 C 
ATOM     11  C   UNL     1     105.160 109.186 127.792  1.00  0.00    -0.005 C 
ATOM     12  C   UNL     1     103.739 105.103 128.526  1.00  0.00     0.012 C 
ENDROOT
BRANCH  11  13
ATOM     13  C   UNL     1     105.482 110.286 128.869  1.00  0.00    -0.014 C 
ATOM     14  C   UNL     1     106.979 110.533 129.148  1.00  0.00     0.007 C 
ATOM     15  C   UNL     1     104.813 111.620 128.504  1.00  0.00     0.007 C 
ENDBRANCH  11  13
TORSDOF 1
ENDMDL
MODEL 7
REMARK VINA RESULT:    -5.978      4.268      6.278
REMARK INTER + INTRA:          -6.613
REMARK INTER:                  -6.337
REMARK INTRA:                  -0.276
REMARK UNBOUND:                -0.285
REMARK SMILES CC1=CC[C@@H]2[C@H]3[C@@H](C(C)C)CC[C@]2(C)[C@@H]13
REMARK SMILES IDX 1 1 2 2 3 3 4 4 5 5 6 6 15 7 13 8 12 9 11 10 7 11 14 12 8 13
REMARK SMILES IDX 9 14 10 15
REMARK H PARENT
REMARK Flexibility Score: inf
ROOT
ATOM      1  C   UNL     1     106.480 111.279 125.558  1.00  0.00     0.039 C 
ATOM      2  C   UNL     1     106.824 110.619 126.860  1.00  0.00    -0.073 C 
ATOM      3  C   UNL     1     106.990 111.327 128.008  1.00  0.00    -0.027 C 
ATOM      4  C   UNL     1     107.338 110.574 129.295  1.00  0.00     0.031 C 
ATOM      5  C   UNL     1     107.482 109.042 129.012  1.00  0.00     0.003 C 
ATOM      6  C   UNL     1     108.351 108.885 127.745  1.00  0.00     0.004 C 
ATOM      7  C   UNL     1     107.049 109.109 126.936  1.00  0.00     0.024 C 
ATOM      8  C   UNL     1     106.308 108.507 128.158  1.00  0.00    -0.022 C 
ATOM      9  C   UNL     1     106.369 106.949 128.133  1.00  0.00     0.008 C 
ATOM     10  C   UNL     1     107.672 106.412 127.483  1.00  0.00     0.005 C 
ATOM     11  C   UNL     1     108.865 107.423 127.566  1.00  0.00    -0.005 C 
ATOM     12  C   UNL     1     104.876 109.000 128.477  1.00  0.00     0.012 C 
ENDROOT
BRANCH  11  13
ATOM     13  C   UNL     1     110.000 107.063 128.594  1.00  0.00    -0.014 C 
ATOM     14  C   UNL     1     110.087 105.579 129.004  1.00  0.00     0.007 C 
ATOM     15  C   UNL     1     111.372 107.522 128.076  1.00  0.00     0.007 C 
ENDBRANCH  11  13
TORSDOF 1
ENDMDL
MODEL 8
REMARK VINA RESULT:    -5.964      3.286      6.167
REMARK INTER + INTRA:          -6.597
REMARK INTER:                  -6.321
REMARK INTRA:                  -0.277
REMARK UNBOUND:                -0.285
REMARK SMILES CC1=CC[C@@H]2[C@H]3[C@@H](C(C)C)CC[C@]2(C)[C@@H]13
REMARK SMILES IDX 1 1 2 2 3 3 4 4 5 5 6 6 15 7 13 8 12 9 11 10 7 11 14 12 8 13
REMARK SMILES IDX 9 14 10 15
REMARK H PARENT
REMARK Flexibility Score: inf
ROOT
ATOM      1  C   UNL     1     111.250 105.727 125.547  1.00  0.00     0.039 C 
ATOM      2  C   UNL     1     110.597 105.468 126.872  1.00  0.00    -0.073 C 
ATOM      3  C   UNL     1     111.314 105.329 128.017  1.00  0.00    -0.027 C 
ATOM      4  C   UNL     1     110.566 105.069 129.328  1.00  0.00     0.031 C 
ATOM      5  C   UNL     1     109.027 104.968 129.070  1.00  0.00     0.003 C 
ATOM      6  C   UNL     1     108.821 104.047 127.846  1.00  0.00     0.004 C 
ATOM      7  C   UNL     1     109.080 105.302 126.975  1.00  0.00     0.024 C 
ATOM      8  C   UNL     1     108.523 106.120 128.168  1.00  0.00    -0.022 C 
ATOM      9  C   UNL     1     106.962 106.115 128.165  1.00  0.00     0.008 C 
ATOM     10  C   UNL     1     106.371 104.804 127.583  1.00  0.00     0.005 C 
ATOM     11  C   UNL     1     107.339 103.580 127.709  1.00  0.00    -0.005 C 
ATOM     12  C   UNL     1     109.071 107.546 128.415  1.00  0.00     0.012 C 
ENDROOT
BRANCH  11  13
ATOM     13  C   UNL     1     106.953 102.507 128.793  1.00  0.00    -0.014 C 
ATOM     14  C   UNL     1     105.441 102.283 129.006  1.00  0.00     0.007 C 
ATOM     15  C   UNL     1     107.622 101.158 128.490  1.00  0.00     0.007 C 
ENDBRANCH  11  13
TORSDOF 1
ENDMDL
MODEL 9
REMARK VINA RESULT:    -5.799      4.987      7.339
REMARK INTER + INTRA:          -6.423
REMARK INTER:                  -6.145
REMARK INTRA:                  -0.278
REMARK UNBOUND:                -0.285
REMARK SMILES CC1=CC[C@@H]2[C@H]3[C@@H](C(C)C)CC[C@]2(C)[C@@H]13
REMARK SMILES IDX 1 1 2 2 3 3 4 4 5 5 6 6 15 7 13 8 12 9 11 10 7 11 14 12 8 13
REMARK SMILES IDX 9 14 10 15
REMARK H PARENT
REMARK Flexibility Score: inf
ROOT
ATOM      1  C   UNL     1     108.898 107.258 124.974  1.00  0.00     0.039 C 
ATOM      2  C   UNL     1     107.974 108.435 125.072  1.00  0.00    -0.073 C 
ATOM      3  C   UNL     1     108.021 109.466 124.188  1.00  0.00    -0.027 C 
ATOM      4  C   UNL     1     107.038 110.628 124.360  1.00  0.00     0.031 C 
ATOM      5  C   UNL     1     106.142 110.406 125.623  1.00  0.00     0.003 C 
ATOM      6  C   UNL     1     107.070 109.979 126.781  1.00  0.00     0.004 C 
ATOM      7  C   UNL     1     106.963 108.541 126.213  1.00  0.00     0.024 C 
ATOM      8  C   UNL     1     105.574 108.968 125.673  1.00  0.00    -0.022 C 
ATOM      9  C   UNL     1     104.493 108.890 126.796  1.00  0.00     0.008 C 
ATOM     10  C   UNL     1     105.072 109.189 128.205  1.00  0.00     0.005 C 
ATOM     11  C   UNL     1     106.360 110.078 128.166  1.00  0.00    -0.005 C 
ATOM     12  C   UNL     1     105.056 108.330 124.362  1.00  0.00     0.012 C 
ENDROOT
BRANCH  11  13
ATOM     13  C   UNL     1     106.182 111.568 128.636  1.00  0.00    -0.014 C 
ATOM     14  C   UNL     1     104.852 111.891 129.350  1.00  0.00     0.007 C 
ATOM     15  C   UNL     1     107.351 112.003 129.533  1.00  0.00     0.007 C 
ENDBRANCH  11  13
TORSDOF 1
ENDMDL
