MODEL 1
REMARK VINA RESULT:    -3.183      0.000      0.000
REMARK INTER + INTRA:          -3.763
REMARK INTER:                  -3.742
REMARK INTRA:                  -0.022
REMARK UNBOUND:                -0.022
REMARK SMILES O=C([O-])CCC(=O)[O-]
REMARK SMILES IDX 4 1 2 2 1 3 3 4 5 5 6 6 7 7 8 8
REMARK H PARENT
REMARK Flexibility Score: inf
ROOT
ATOM      1  C   UNL     1       1.963   2.496 -39.374  1.00  0.00     0.059 C 
ENDROOT
BRANCH   1   2
ATOM      2  C   UNL     1       2.991   3.362 -38.719  1.00  0.00     0.042 C 
ATOM      3  O   UNL     1       2.698   4.534 -38.362  1.00  0.00    -0.550 OA
ATOM      4  O   UNL     1       4.287   2.895 -38.546  1.00  0.00    -0.550 OA
ENDBRANCH   1   2
BRANCH   1   5
ATOM      5  C   UNL     1       1.239   1.642 -38.333  1.00  0.00     0.059 C 
BRANCH   5   6
ATOM      6  C   UNL     1       2.014   0.394 -38.048  1.00  0.00     0.042 C 
ATOM      7  O   UNL     1       1.756  -0.668 -38.673  1.00  0.00    -0.550 OA
ATOM      8  O   UNL     1       2.988   0.391 -37.059  1.00  0.00    -0.550 OA
ENDBRANCH   5   6
ENDBRANCH   1   5
TORSDOF 3
ENDMDL
MODEL 2
REMARK VINA RESULT:    -3.177      0.049      3.570
REMARK INTER + INTRA:          -3.756
REMARK INTER:                  -3.724
REMARK INTRA:                  -0.032
REMARK UNBOUND:                -0.022
REMARK SMILES O=C([O-])CCC(=O)[O-]
REMARK SMILES IDX 4 1 2 2 1 3 3 4 5 5 6 6 7 7 8 8
REMARK H PARENT
REMARK Flexibility Score: inf
ROOT
ATOM      1  C   UNL     1       1.265   1.638 -38.290  1.00  0.00     0.059 C 
ENDROOT
BRANCH   1   2
ATOM      2  C   UNL     1       2.029   0.377 -38.042  1.00  0.00     0.042 C 
ATOM      3  O   UNL     1       1.710  -0.686 -38.637  1.00  0.00    -0.550 OA
ATOM      4  O   UNL     1       3.064   0.361 -37.115  1.00  0.00    -0.550 OA
ENDBRANCH   1   2
BRANCH   1   5
ATOM      5  C   UNL     1       1.966   2.490 -39.348  1.00  0.00     0.059 C 
BRANCH   5   6
ATOM      6  C   UNL     1       3.000   3.367 -38.714  1.00  0.00     0.042 C 
ATOM      7  O   UNL     1       2.702   4.534 -38.348  1.00  0.00    -0.550 OA
ATOM      8  O   UNL     1       4.305   2.913 -38.572  1.00  0.00    -0.550 OA
ENDBRANCH   5   6
ENDBRANCH   1   5
TORSDOF 3
ENDMDL
MODEL 3
REMARK VINA RESULT:    -2.795      1.471      2.052
REMARK INTER + INTRA:          -3.307
REMARK INTER:                  -3.289
REMARK INTRA:                  -0.018
REMARK UNBOUND:                -0.022
REMARK SMILES O=C([O-])CCC(=O)[O-]
REMARK SMILES IDX 4 1 2 2 1 3 3 4 5 5 6 6 7 7 8 8
REMARK H PARENT
REMARK Flexibility Score: inf
ROOT
ATOM      1  C   UNL     1       2.761   2.310 -39.763  1.00  0.00     0.059 C 
ENDROOT
BRANCH   1   2
ATOM      2  C   UNL     1       3.297   3.178 -38.669  1.00  0.00     0.042 C 
ATOM      3  O   UNL     1       4.216   2.757 -37.919  1.00  0.00    -0.550 OA
ATOM      4  O   UNL     1       2.747   4.433 -38.444  1.00  0.00    -0.550 OA
ENDBRANCH   1   2
BRANCH   1   5
ATOM      5  C   UNL     1       1.243   2.175 -39.644  1.00  0.00     0.059 C 
BRANCH   5   6
ATOM      6  C   UNL     1       0.858   1.779 -38.254  1.00  0.00     0.042 C 
ATOM      7  O   UNL     1       1.310   0.717 -37.750  1.00  0.00    -0.550 OA
ATOM      8  O   UNL     1      -0.038   2.557 -37.532  1.00  0.00    -0.550 OA
ENDBRANCH   5   6
ENDBRANCH   1   5
TORSDOF 3
ENDMDL
MODEL 4
REMARK VINA RESULT:    -2.788      1.439      2.022
REMARK INTER + INTRA:          -3.299
REMARK INTER:                  -3.273
REMARK INTRA:                  -0.027
REMARK UNBOUND:                -0.022
REMARK SMILES O=C([O-])CCC(=O)[O-]
REMARK SMILES IDX 4 1 2 2 1 3 3 4 5 5 6 6 7 7 8 8
REMARK H PARENT
REMARK Flexibility Score: inf
ROOT
ATOM      1  C   UNL     1       0.855   2.239 -38.632  1.00  0.00     0.059 C 
ENDROOT
BRANCH   1   2
ATOM      2  C   UNL     1       1.863   2.484 -39.710  1.00  0.00     0.042 C 
ATOM      3  O   UNL     1       1.712   1.968 -40.848  1.00  0.00    -0.550 OA
ATOM      4  O   UNL     1       2.996   3.242 -39.444  1.00  0.00    -0.550 OA
ENDBRANCH   1   2
BRANCH   1   5
ATOM      5  C   UNL     1       1.523   1.618 -37.406  1.00  0.00     0.059 C 
BRANCH   5   6
ATOM      6  C   UNL     1       2.329   0.419 -37.797  1.00  0.00     0.042 C 
ATOM      7  O   UNL     1       3.537   0.329 -37.455  1.00  0.00    -0.550 OA
ATOM      8  O   UNL     1       1.760  -0.575 -38.582  1.00  0.00    -0.550 OA
ENDBRANCH   5   6
ENDBRANCH   1   5
TORSDOF 3
ENDMDL
MODEL 5
REMARK VINA RESULT:    -2.787      1.465      3.449
REMARK INTER + INTRA:          -3.297
REMARK INTER:                  -3.288
REMARK INTRA:                  -0.009
REMARK UNBOUND:                -0.022
REMARK SMILES O=C([O-])CCC(=O)[O-]
REMARK SMILES IDX 4 1 2 2 1 3 3 4 5 5 6 6 7 7 8 8
REMARK H PARENT
REMARK Flexibility Score: inf
ROOT
ATOM      1  C   UNL     1       1.244   2.213 -39.641  1.00  0.00     0.059 C 
ENDROOT
BRANCH   1   2
ATOM      2  C   UNL     1       0.861   1.813 -38.251  1.00  0.00     0.042 C 
ATOM      3  O   UNL     1       1.300   0.741 -37.757  1.00  0.00    -0.550 OA
ATOM      4  O   UNL     1      -0.020   2.597 -37.519  1.00  0.00    -0.550 OA
ENDBRANCH   1   2
BRANCH   1   5
ATOM      5  C   UNL     1       2.763   2.329 -39.766  1.00  0.00     0.059 C 
BRANCH   5   6
ATOM      6  C   UNL     1       3.318   3.168 -38.658  1.00  0.00     0.042 C 
ATOM      7  O   UNL     1       4.221   2.712 -37.909  1.00  0.00    -0.550 OA
ATOM      8  O   UNL     1       2.803   4.436 -38.421  1.00  0.00    -0.550 OA
ENDBRANCH   5   6
ENDBRANCH   1   5
TORSDOF 3
ENDMDL
MODEL 6
REMARK VINA RESULT:    -2.768      1.451      3.673
REMARK INTER + INTRA:          -3.276
REMARK INTER:                  -3.214
REMARK INTRA:                  -0.062
REMARK UNBOUND:                -0.022
REMARK SMILES O=C([O-])CCC(=O)[O-]
REMARK SMILES IDX 4 1 2 2 1 3 3 4 5 5 6 6 7 7 8 8
REMARK H PARENT
REMARK Flexibility Score: inf
ROOT
ATOM      1  C   UNL     1       2.347   1.134 -37.273  1.00  0.00     0.059 C 
ENDROOT
BRANCH   1   2
ATOM      2  C   UNL     1       2.468  -0.209 -37.919  1.00  0.00     0.042 C 
ATOM      3  O   UNL     1       1.588  -0.606 -38.727  1.00  0.00    -0.550 OA
ATOM      4  O   UNL     1       3.528  -1.046 -37.592  1.00  0.00    -0.550 OA
ENDBRANCH   1   2
BRANCH   1   5
ATOM      5  C   UNL     1       1.355   2.009 -38.038  1.00  0.00     0.059 C 
BRANCH   5   6
ATOM      6  C   UNL     1       2.021   2.653 -39.213  1.00  0.00     0.042 C 
ATOM      7  O   UNL     1       2.795   3.632 -39.045  1.00  0.00    -0.550 OA
ATOM      8  O   UNL     1       1.749   2.203 -40.499  1.00  0.00    -0.550 OA
ENDBRANCH   5   6
ENDBRANCH   1   5
TORSDOF 3
ENDMDL
MODEL 7
REMARK VINA RESULT:    -2.555      1.947      2.582
REMARK INTER + INTRA:          -3.025
REMARK INTER:                  -2.982
REMARK INTRA:                  -0.043
REMARK UNBOUND:                -0.022
REMARK SMILES O=C([O-])CCC(=O)[O-]
REMARK SMILES IDX 4 1 2 2 1 3 3 4 5 5 6 6 7 7 8 8
REMARK H PARENT
REMARK Flexibility Score: inf
ROOT
ATOM      1  C   UNL     1       2.558   2.977 -39.006  1.00  0.00     0.059 C 
ENDROOT
BRANCH   1   2
ATOM      2  C   UNL     1       1.424   2.358 -39.758  1.00  0.00     0.042 C 
ATOM      3  O   UNL     1       1.607   1.899 -40.916  1.00  0.00    -0.550 OA
ATOM      4  O   UNL     1       0.151   2.331 -39.202  1.00  0.00    -0.550 OA
ENDBRANCH   1   2
BRANCH   1   5
ATOM      5  C   UNL     1       3.467   1.897 -38.421  1.00  0.00     0.059 C 
BRANCH   5   6
ATOM      6  C   UNL     1       2.657   0.855 -37.716  1.00  0.00     0.042 C 
ATOM      7  O   UNL     1       2.091   1.125 -36.624  1.00  0.00    -0.550 OA
ATOM      8  O   UNL     1       2.569  -0.429 -38.238  1.00  0.00    -0.550 OA
ENDBRANCH   5   6
ENDBRANCH   1   5
TORSDOF 3
ENDMDL
MODEL 8
REMARK VINA RESULT:    -2.443      1.986      3.260
REMARK INTER + INTRA:          -2.893
REMARK INTER:                  -2.734
REMARK INTRA:                  -0.159
REMARK UNBOUND:                -0.022
REMARK SMILES O=C([O-])CCC(=O)[O-]
REMARK SMILES IDX 4 1 2 2 1 3 3 4 5 5 6 6 7 7 8 8
REMARK H PARENT
REMARK Flexibility Score: inf
ROOT
ATOM      1  C   UNL     1       1.913   1.067 -39.040  1.00  0.00     0.059 C 
ENDROOT
BRANCH   1   2
ATOM      2  C   UNL     1       1.103   1.897 -39.984  1.00  0.00     0.042 C 
ATOM      3  O   UNL     1       0.069   2.491 -39.579  1.00  0.00    -0.550 OA
ATOM      4  O   UNL     1       1.460   1.977 -41.324  1.00  0.00    -0.550 OA
ENDBRANCH   1   2
BRANCH   1   5
ATOM      5  C   UNL     1       2.396   1.913 -37.862  1.00  0.00     0.059 C 
BRANCH   5   6
ATOM      6  C   UNL     1       3.261   3.036 -38.342  1.00  0.00     0.042 C 
ATOM      7  O   UNL     1       4.409   2.799 -38.801  1.00  0.00    -0.550 OA
ATOM      8  O   UNL     1       2.818   4.348 -38.238  1.00  0.00    -0.550 OA
ENDBRANCH   5   6
ENDBRANCH   1   5
TORSDOF 3
ENDMDL
MODEL 9
REMARK VINA RESULT:    -2.332      2.635      3.182
REMARK INTER + INTRA:          -2.763
REMARK INTER:                  -2.773
REMARK INTRA:                   0.010
REMARK UNBOUND:                -0.022
REMARK SMILES O=C([O-])CCC(=O)[O-]
REMARK SMILES IDX 4 1 2 2 1 3 3 4 5 5 6 6 7 7 8 8
REMARK H PARENT
REMARK Flexibility Score: inf
ROOT
ATOM      1  C   UNL     1       1.680   1.260 -38.346  1.00  0.00     0.059 C 
ENDROOT
BRANCH   1   2
ATOM      2  C   UNL     1       2.443   1.850 -39.488  1.00  0.00     0.042 C 
ATOM      3  O   UNL     1       3.475   2.539 -39.273  1.00  0.00    -0.550 OA
ATOM      4  O   UNL     1       1.989   1.683 -40.790  1.00  0.00    -0.550 OA
ENDBRANCH   1   2
BRANCH   1   5
ATOM      5  C   UNL     1       0.986   2.358 -37.540  1.00  0.00     0.059 C 
BRANCH   5   6
ATOM      6  C   UNL     1      -0.430   2.526 -37.994  1.00  0.00     0.042 C 
ATOM      7  O   UNL     1      -1.370   2.506 -37.156  1.00  0.00    -0.550 OA
ATOM      8  O   UNL     1      -0.716   2.655 -39.347  1.00  0.00    -0.550 OA
ENDBRANCH   5   6
ENDBRANCH   1   5
TORSDOF 3
ENDMDL
