MODEL 1
REMARK VINA RESULT:    -3.488      0.000      0.000
REMARK INTER + INTRA:          -4.972
REMARK INTER:                  -4.711
REMARK INTRA:                  -0.261
REMARK UNBOUND:                -0.261
REMARK SMILES CCCCCCCC(=O)[O-]
REMARK SMILES IDX 5 1 6 2 7 3 8 4 9 5 10 6 4 7 3 8 2 9 1 10
REMARK H PARENT
REMARK Flexibility Score: inf
ROOT
ATOM      1  C   UNL     1      56.841  28.376  50.497  1.00  0.00     0.000 C 
ENDROOT
BRANCH   1   2
ATOM      2  C   UNL     1      57.938  29.429  50.289  1.00  0.00     0.006 C 
BRANCH   2   3
ATOM      3  C   UNL     1      58.828  29.109  49.081  1.00  0.00     0.053 C 
BRANCH   3   4
ATOM      4  C   UNL     1      59.952  28.188  49.449  1.00  0.00     0.041 C 
ATOM      5  O   UNL     1      61.063  28.656  49.813  1.00  0.00    -0.550 OA
ATOM      6  O   UNL     1      59.781  26.813  49.359  1.00  0.00    -0.550 OA
ENDBRANCH   3   4
ENDBRANCH   2   3
ENDBRANCH   1   2
BRANCH   1   7
ATOM      7  C   UNL     1      55.453  29.027  50.531  1.00  0.00     0.000 C 
BRANCH   7   8
ATOM      8  C   UNL     1      54.365  28.029  50.116  1.00  0.00    -0.000 C 
BRANCH   8   9
ATOM      9  C   UNL     1      54.968  26.651  49.817  1.00  0.00    -0.003 C 
ATOM     10  C   UNL     1      53.947  25.738  49.143  1.00  0.00     0.004 C 
ENDBRANCH   8   9
ENDBRANCH   7   8
ENDBRANCH   1   7
TORSDOF 6
ENDMDL
MODEL 2
REMARK VINA RESULT:    -3.443     12.438     13.996
REMARK INTER + INTRA:          -4.911
REMARK INTER:                  -4.677
REMARK INTRA:                  -0.235
REMARK UNBOUND:                -0.261
REMARK SMILES CCCCCCCC(=O)[O-]
REMARK SMILES IDX 5 1 6 2 7 3 8 4 9 5 10 6 4 7 3 8 2 9 1 10
REMARK H PARENT
REMARK Flexibility Score: inf
ROOT
ATOM      1  C   UNL     1      61.962  33.124  60.503  1.00  0.00     0.000 C 
ENDROOT
BRANCH   1   2
ATOM      2  C   UNL     1      60.798  32.135  60.659  1.00  0.00     0.006 C 
BRANCH   2   3
ATOM      3  C   UNL     1      60.969  31.226  61.883  1.00  0.00     0.053 C 
BRANCH   3   4
ATOM      4  C   UNL     1      61.891  30.079  61.598  1.00  0.00     0.041 C 
ATOM      5  O   UNL     1      63.126  30.188  61.817  1.00  0.00    -0.550 OA
ATOM      6  O   UNL     1      61.389  28.901  61.061  1.00  0.00    -0.550 OA
ENDBRANCH   3   4
ENDBRANCH   2   3
ENDBRANCH   1   2
BRANCH   1   7
ATOM      7  C   UNL     1      61.449  34.565  60.401  1.00  0.00     0.000 C 
BRANCH   7   8
ATOM      8  C   UNL     1      62.436  35.548  61.043  1.00  0.00    -0.000 C 
BRANCH   8   9
ATOM      9  C   UNL     1      63.786  34.873  61.315  1.00  0.00    -0.003 C 
ATOM     10  C   UNL     1      64.813  35.882  61.824  1.00  0.00     0.004 C 
ENDBRANCH   8   9
ENDBRANCH   7   8
ENDBRANCH   1   7
TORSDOF 6
ENDMDL
MODEL 3
REMARK VINA RESULT:    -3.337     13.105     14.303
REMARK INTER + INTRA:          -4.768
REMARK INTER:                  -4.573
REMARK INTRA:                  -0.195
REMARK UNBOUND:                -0.261
REMARK SMILES CCCCCCCC(=O)[O-]
REMARK SMILES IDX 5 1 6 2 7 3 8 4 9 5 10 6 4 7 3 8 2 9 1 10
REMARK H PARENT
REMARK Flexibility Score: inf
ROOT
ATOM      1  C   UNL     1      61.704  34.386  60.276  1.00  0.00     0.000 C 
ENDROOT
BRANCH   1   2
ATOM      2  C   UNL     1      62.544  35.441  61.010  1.00  0.00     0.006 C 
BRANCH   2   3
ATOM      3  C   UNL     1      63.949  34.929  61.352  1.00  0.00     0.053 C 
BRANCH   3   4
ATOM      4  C   UNL     1      64.924  36.054  61.519  1.00  0.00     0.041 C 
ATOM      5  O   UNL     1      64.916  36.749  62.569  1.00  0.00    -0.550 OA
ATOM      6  O   UNL     1      65.819  36.355  60.502  1.00  0.00    -0.550 OA
ENDBRANCH   3   4
ENDBRANCH   2   3
ENDBRANCH   1   2
BRANCH   1   7
ATOM      7  C   UNL     1      62.111  32.969  60.696  1.00  0.00     0.000 C 
BRANCH   7   8
ATOM      8  C   UNL     1      60.904  32.023  60.689  1.00  0.00    -0.000 C 
BRANCH   8   9
ATOM      9  C   UNL     1      60.885  31.146  61.946  1.00  0.00    -0.003 C 
ATOM     10  C   UNL     1      61.942  30.047  61.866  1.00  0.00     0.004 C 
ENDBRANCH   8   9
ENDBRANCH   7   8
ENDBRANCH   1   7
TORSDOF 6
ENDMDL
MODEL 4
REMARK VINA RESULT:    -3.273     12.581     14.250
REMARK INTER + INTRA:          -4.682
REMARK INTER:                  -4.400
REMARK INTRA:                  -0.282
REMARK UNBOUND:                -0.261
REMARK SMILES CCCCCCCC(=O)[O-]
REMARK SMILES IDX 5 1 6 2 7 3 8 4 9 5 10 6 4 7 3 8 2 9 1 10
REMARK H PARENT
REMARK Flexibility Score: inf
ROOT
ATOM      1  C   UNL     1      61.704  33.472  60.655  1.00  0.00     0.000 C 
ENDROOT
BRANCH   1   2
ATOM      2  C   UNL     1      61.107  32.088  60.367  1.00  0.00     0.006 C 
BRANCH   2   3
ATOM      3  C   UNL     1      60.982  31.234  61.636  1.00  0.00     0.053 C 
BRANCH   3   4
ATOM      4  C   UNL     1      62.048  30.184  61.705  1.00  0.00     0.041 C 
ATOM      5  O   UNL     1      61.736  28.968  61.803  1.00  0.00    -0.550 OA
ATOM      6  O   UNL     1      63.387  30.552  61.694  1.00  0.00    -0.550 OA
ENDBRANCH   3   4
ENDBRANCH   2   3
ENDBRANCH   1   2
BRANCH   1   7
ATOM      7  C   UNL     1      63.076  33.628  59.990  1.00  0.00     0.000 C 
BRANCH   7   8
ATOM      8  C   UNL     1      64.104  34.202  60.974  1.00  0.00    -0.000 C 
BRANCH   8   9
ATOM      9  C   UNL     1      63.794  35.668  61.299  1.00  0.00    -0.003 C 
ATOM     10  C   UNL     1      64.950  36.320  62.054  1.00  0.00     0.004 C 
ENDBRANCH   8   9
ENDBRANCH   7   8
ENDBRANCH   1   7
TORSDOF 6
ENDMDL
MODEL 5
REMARK VINA RESULT:    -3.252      3.290      5.194
REMARK INTER + INTRA:          -4.654
REMARK INTER:                  -4.347
REMARK INTRA:                  -0.308
REMARK UNBOUND:                -0.261
REMARK SMILES CCCCCCCC(=O)[O-]
REMARK SMILES IDX 5 1 6 2 7 3 8 4 9 5 10 6 4 7 3 8 2 9 1 10
REMARK H PARENT
REMARK Flexibility Score: inf
ROOT
ATOM      1  C   UNL     1      57.252  28.206  50.802  1.00  0.00     0.000 C 
ENDROOT
BRANCH   1   2
ATOM      2  C   UNL     1      55.784  27.999  50.404  1.00  0.00     0.006 C 
BRANCH   2   3
ATOM      3  C   UNL     1      55.509  26.571  49.917  1.00  0.00     0.053 C 
BRANCH   3   4
ATOM      4  C   UNL     1      54.076  26.384  49.524  1.00  0.00     0.041 C 
ATOM      5  O   UNL     1      53.298  27.372  49.472  1.00  0.00    -0.550 OA
ATOM      6  O   UNL     1      53.592  25.112  49.245  1.00  0.00    -0.550 OA
ENDBRANCH   3   4
ENDBRANCH   2   3
ENDBRANCH   1   2
BRANCH   1   7
ATOM      7  C   UNL     1      57.784  29.539  50.265  1.00  0.00     0.000 C 
BRANCH   7   8
ATOM      8  C   UNL     1      58.903  29.314  49.240  1.00  0.00    -0.000 C 
BRANCH   8   9
ATOM      9  C   UNL     1      59.418  27.872  49.296  1.00  0.00    -0.003 C 
ATOM     10  C   UNL     1      60.921  27.835  49.564  1.00  0.00     0.004 C 
ENDBRANCH   8   9
ENDBRANCH   7   8
ENDBRANCH   1   7
TORSDOF 6
ENDMDL
MODEL 6
REMARK VINA RESULT:    -3.189      0.897      1.555
REMARK INTER + INTRA:          -4.568
REMARK INTER:                  -4.241
REMARK INTRA:                  -0.327
REMARK UNBOUND:                -0.261
REMARK SMILES CCCCCCCC(=O)[O-]
REMARK SMILES IDX 5 1 6 2 7 3 8 4 9 5 10 6 4 7 3 8 2 9 1 10
REMARK H PARENT
REMARK Flexibility Score: inf
ROOT
ATOM      1  C   UNL     1      57.410  29.526  50.976  1.00  0.00     0.000 C 
ENDROOT
BRANCH   1   2
ATOM      2  C   UNL     1      58.175  29.451  49.648  1.00  0.00     0.006 C 
BRANCH   2   3
ATOM      3  C   UNL     1      59.694  29.379  49.855  1.00  0.00     0.053 C 
BRANCH   3   4
ATOM      4  C   UNL     1      60.244  28.041  49.464  1.00  0.00     0.041 C 
ATOM      5  O   UNL     1      59.469  27.069  49.269  1.00  0.00    -0.550 OA
ATOM      6  O   UNL     1      61.616  27.863  49.347  1.00  0.00    -0.550 OA
ENDBRANCH   3   4
ENDBRANCH   2   3
ENDBRANCH   1   2
BRANCH   1   7
ATOM      7  C   UNL     1      55.990  28.968  50.825  1.00  0.00     0.000 C 
BRANCH   7   8
ATOM      8  C   UNL     1      56.017  27.530  50.291  1.00  0.00    -0.000 C 
BRANCH   8   9
ATOM      9  C   UNL     1      54.609  27.059  49.912  1.00  0.00    -0.003 C 
ATOM     10  C   UNL     1      53.636  28.233  49.835  1.00  0.00     0.004 C 
ENDBRANCH   8   9
ENDBRANCH   7   8
ENDBRANCH   1   7
TORSDOF 6
ENDMDL
MODEL 7
REMARK VINA RESULT:    -3.103      1.573      2.155
REMARK INTER + INTRA:          -4.452
REMARK INTER:                  -4.168
REMARK INTRA:                  -0.284
REMARK UNBOUND:                -0.261
REMARK SMILES CCCCCCCC(=O)[O-]
REMARK SMILES IDX 5 1 6 2 7 3 8 4 9 5 10 6 4 7 3 8 2 9 1 10
REMARK H PARENT
REMARK Flexibility Score: inf
ROOT
ATOM      1  C   UNL     1      56.975  26.140  51.025  1.00  0.00     0.000 C 
ENDROOT
BRANCH   1   2
ATOM      2  C   UNL     1      58.455  26.542  50.948  1.00  0.00     0.006 C 
BRANCH   2   3
ATOM      3  C   UNL     1      58.945  26.682  49.501  1.00  0.00     0.053 C 
BRANCH   3   4
ATOM      4  C   UNL     1      59.657  27.981  49.279  1.00  0.00     0.041 C 
ATOM      5  O   UNL     1      60.901  28.061  49.452  1.00  0.00    -0.550 OA
ATOM      6  O   UNL     1      58.939  29.112  48.912  1.00  0.00    -0.550 OA
ENDBRANCH   3   4
ENDBRANCH   2   3
ENDBRANCH   1   2
BRANCH   1   7
ATOM      7  C   UNL     1      56.121  27.006  50.092  1.00  0.00     0.000 C 
BRANCH   7   8
ATOM      8  C   UNL     1      54.899  26.230  49.585  1.00  0.00    -0.000 C 
BRANCH   8   9
ATOM      9  C   UNL     1      53.630  27.085  49.673  1.00  0.00    -0.003 C 
ATOM     10  C   UNL     1      53.955  28.509  50.117  1.00  0.00     0.004 C 
ENDBRANCH   8   9
ENDBRANCH   7   8
ENDBRANCH   1   7
TORSDOF 6
ENDMDL
MODEL 8
REMARK VINA RESULT:    -3.092     12.071     13.313
REMARK INTER + INTRA:          -4.437
REMARK INTER:                  -3.982
REMARK INTRA:                  -0.455
REMARK UNBOUND:                -0.261
REMARK SMILES CCCCCCCC(=O)[O-]
REMARK SMILES IDX 5 1 6 2 7 3 8 4 9 5 10 6 4 7 3 8 2 9 1 10
REMARK H PARENT
REMARK Flexibility Score: inf
ROOT
ATOM      1  C   UNL     1      61.047  32.659  59.638  1.00  0.00     0.000 C 
ENDROOT
BRANCH   1   2
ATOM      2  C   UNL     1      61.463  33.629  60.753  1.00  0.00     0.006 C 
BRANCH   2   3
ATOM      3  C   UNL     1      62.514  34.641  60.280  1.00  0.00     0.053 C 
BRANCH   3   4
ATOM      4  C   UNL     1      63.889  34.274  60.750  1.00  0.00     0.041 C 
ATOM      5  O   UNL     1      64.526  33.346  60.186  1.00  0.00    -0.550 OA
ATOM      6  O   UNL     1      64.453  34.937  61.832  1.00  0.00    -0.550 OA
ENDBRANCH   3   4
ENDBRANCH   2   3
ENDBRANCH   1   2
BRANCH   1   7
ATOM      7  C   UNL     1      60.504  31.350  60.223  1.00  0.00     0.000 C 
BRANCH   7   8
ATOM      8  C   UNL     1      60.940  31.176  61.683  1.00  0.00    -0.000 C 
BRANCH   8   9
ATOM      9  C   UNL     1      61.879  29.974  61.836  1.00  0.00    -0.003 C 
ATOM     10  C   UNL     1      63.327  30.367  61.554  1.00  0.00     0.004 C 
ENDBRANCH   8   9
ENDBRANCH   7   8
ENDBRANCH   1   7
TORSDOF 6
ENDMDL
MODEL 9
REMARK VINA RESULT:    -3.081     13.297     13.941
REMARK INTER + INTRA:          -4.423
REMARK INTER:                  -4.046
REMARK INTRA:                  -0.377
REMARK UNBOUND:                -0.261
REMARK SMILES CCCCCCCC(=O)[O-]
REMARK SMILES IDX 5 1 6 2 7 3 8 4 9 5 10 6 4 7 3 8 2 9 1 10
REMARK H PARENT
REMARK Flexibility Score: inf
ROOT
ATOM      1  C   UNL     1      64.036  32.878  60.573  1.00  0.00     0.000 C 
ENDROOT
BRANCH   1   2
ATOM      2  C   UNL     1      63.359  34.104  59.944  1.00  0.00     0.006 C 
BRANCH   2   3
ATOM      3  C   UNL     1      62.070  34.497  60.679  1.00  0.00     0.053 C 
BRANCH   3   4
ATOM      4  C   UNL     1      62.062  35.950  61.046  1.00  0.00     0.041 C 
ATOM      5  O   UNL     1      63.100  36.495  61.504  1.00  0.00    -0.550 OA
ATOM      6  O   UNL     1      60.897  36.693  60.910  1.00  0.00    -0.550 OA
ENDBRANCH   3   4
ENDBRANCH   2   3
ENDBRANCH   1   2
BRANCH   1   7
ATOM      7  C   UNL     1      63.202  31.612  60.346  1.00  0.00     0.000 C 
BRANCH   7   8
ATOM      8  C   UNL     1      63.256  30.689  61.570  1.00  0.00    -0.000 C 
BRANCH   8   9
ATOM      9  C   UNL     1      61.894  30.033  61.824  1.00  0.00    -0.003 C 
ATOM     10  C   UNL     1      60.766  31.059  61.752  1.00  0.00     0.004 C 
ENDBRANCH   8   9
ENDBRANCH   7   8
ENDBRANCH   1   7
TORSDOF 6
ENDMDL
