MODEL 1
REMARK VINA RESULT:    -3.504      0.000      0.000
REMARK INTER + INTRA:          -4.145
REMARK INTER:                  -4.119
REMARK INTRA:                  -0.026
REMARK UNBOUND:                -0.026
REMARK SMILES CCCCC(=O)[O-]
REMARK SMILES IDX 4 1 5 2 6 3 7 4 3 5 2 6 1 7
REMARK H PARENT
REMARK Flexibility Score: inf
ROOT
ATOM      1  C   UNL     1      44.758  12.370 -31.459  1.00  0.00     0.053 C 
ENDROOT
BRANCH   1   2
ATOM      2  C   UNL     1      45.183  12.521 -32.885  1.00  0.00     0.041 C 
ATOM      3  O   UNL     1      46.390  12.750 -33.166  1.00  0.00    -0.550 OA
ATOM      4  O   UNL     1      44.256  12.363 -33.908  1.00  0.00    -0.550 OA
ENDBRANCH   1   2
BRANCH   1   5
ATOM      5  C   UNL     1      45.970  12.456 -30.526  1.00  0.00     0.006 C 
BRANCH   5   6
ATOM      6  C   UNL     1      46.484  11.059 -30.163  1.00  0.00    -0.003 C 
ATOM      7  C   UNL     1      46.558  10.875 -28.650  1.00  0.00     0.004 C 
ENDBRANCH   5   6
ENDBRANCH   1   5
TORSDOF 3
ENDMDL
MODEL 2
REMARK VINA RESULT:    -3.141      2.324      3.735
REMARK INTER + INTRA:          -3.718
REMARK INTER:                  -3.744
REMARK INTRA:                   0.026
REMARK UNBOUND:                -0.026
REMARK SMILES CCCCC(=O)[O-]
REMARK SMILES IDX 4 1 5 2 6 3 7 4 3 5 2 6 1 7
REMARK H PARENT
REMARK Flexibility Score: inf
ROOT
ATOM      1  C   UNL     1      45.296  12.292 -30.566  1.00  0.00     0.053 C 
ENDROOT
BRANCH   1   2
ATOM      2  C   UNL     1      46.268  11.320 -29.977  1.00  0.00     0.041 C 
ATOM      3  O   UNL     1      47.221  10.877 -30.671  1.00  0.00    -0.550 OA
ATOM      4  O   UNL     1      46.151  10.940 -28.645  1.00  0.00    -0.550 OA
ENDBRANCH   1   2
BRANCH   1   5
ATOM      5  C   UNL     1      45.998  13.212 -31.570  1.00  0.00     0.006 C 
BRANCH   5   6
ATOM      6  C   UNL     1      45.833  12.692 -33.001  1.00  0.00    -0.003 C 
ATOM      7  C   UNL     1      44.367  12.407 -33.319  1.00  0.00     0.004 C 
ENDBRANCH   5   6
ENDBRANCH   1   5
TORSDOF 3
ENDMDL
MODEL 3
REMARK VINA RESULT:    -2.933     19.265     20.212
REMARK INTER + INTRA:          -3.474
REMARK INTER:                  -3.371
REMARK INTRA:                  -0.103
REMARK UNBOUND:                -0.026
REMARK SMILES CCCCC(=O)[O-]
REMARK SMILES IDX 4 1 5 2 6 3 7 4 3 5 2 6 1 7
REMARK H PARENT
REMARK Flexibility Score: inf
ROOT
ATOM      1  C   UNL     1      56.465  29.092 -36.446  1.00  0.00     0.053 C 
ENDROOT
BRANCH   1   2
ATOM      2  C   UNL     1      56.107  28.264 -35.254  1.00  0.00     0.041 C 
ATOM      3  O   UNL     1      55.577  27.131 -35.404  1.00  0.00    -0.550 OA
ATOM      4  O   UNL     1      56.402  28.722 -33.975  1.00  0.00    -0.550 OA
ENDBRANCH   1   2
BRANCH   1   5
ATOM      5  C   UNL     1      55.205  29.489 -37.223  1.00  0.00     0.006 C 
BRANCH   5   6
ATOM      6  C   UNL     1      55.222  28.897 -38.636  1.00  0.00    -0.003 C 
ATOM      7  C   UNL     1      54.164  27.808 -38.789  1.00  0.00     0.004 C 
ENDBRANCH   5   6
ENDBRANCH   1   5
TORSDOF 3
ENDMDL
MODEL 4
REMARK VINA RESULT:    -2.815     18.189     18.802
REMARK INTER + INTRA:          -3.335
REMARK INTER:                  -3.317
REMARK INTRA:                  -0.018
REMARK UNBOUND:                -0.026
REMARK SMILES CCCCC(=O)[O-]
REMARK SMILES IDX 4 1 5 2 6 3 7 4 3 5 2 6 1 7
REMARK H PARENT
REMARK Flexibility Score: inf
ROOT
ATOM      1  C   UNL     1      56.722  26.886 -33.811  1.00  0.00     0.053 C 
ENDROOT
BRANCH   1   2
ATOM      2  C   UNL     1      55.847  26.910 -35.024  1.00  0.00     0.041 C 
ATOM      3  O   UNL     1      55.208  25.879 -35.366  1.00  0.00    -0.550 OA
ATOM      4  O   UNL     1      55.697  28.085 -35.751  1.00  0.00    -0.550 OA
ENDBRANCH   1   2
BRANCH   1   5
ATOM      5  C   UNL     1      56.406  28.076 -32.899  1.00  0.00     0.006 C 
BRANCH   5   6
ATOM      6  C   UNL     1      56.361  27.645 -31.430  1.00  0.00    -0.003 C 
ATOM      7  C   UNL     1      56.251  28.853 -30.504  1.00  0.00     0.004 C 
ENDBRANCH   5   6
ENDBRANCH   1   5
TORSDOF 3
ENDMDL
MODEL 5
REMARK VINA RESULT:    -2.813      5.393      6.313
REMARK INTER + INTRA:          -3.332
REMARK INTER:                  -3.279
REMARK INTRA:                  -0.053
REMARK UNBOUND:                -0.026
REMARK SMILES CCCCC(=O)[O-]
REMARK SMILES IDX 4 1 5 2 6 3 7 4 3 5 2 6 1 7
REMARK H PARENT
REMARK Flexibility Score: inf
ROOT
ATOM      1  C   UNL     1      41.634  13.307 -36.561  1.00  0.00     0.053 C 
ENDROOT
BRANCH   1   2
ATOM      2  C   UNL     1      40.847  14.310 -35.780  1.00  0.00     0.041 C 
ATOM      3  O   UNL     1      41.402  15.354 -35.346  1.00  0.00    -0.550 OA
ATOM      4  O   UNL     1      39.487  14.115 -35.570  1.00  0.00    -0.550 OA
ENDBRANCH   1   2
BRANCH   1   5
ATOM      5  C   UNL     1      41.786  12.006 -35.767  1.00  0.00     0.006 C 
BRANCH   5   6
ATOM      6  C   UNL     1      43.203  11.873 -35.197  1.00  0.00    -0.003 C 
ATOM      7  C   UNL     1      44.245  11.851 -36.312  1.00  0.00     0.004 C 
ENDBRANCH   5   6
ENDBRANCH   1   5
TORSDOF 3
ENDMDL
MODEL 6
REMARK VINA RESULT:    -2.774     19.283     19.913
REMARK INTER + INTRA:          -3.287
REMARK INTER:                  -3.179
REMARK INTRA:                  -0.108
REMARK UNBOUND:                -0.026
REMARK SMILES CCCCC(=O)[O-]
REMARK SMILES IDX 4 1 5 2 6 3 7 4 3 5 2 6 1 7
REMARK H PARENT
REMARK Flexibility Score: inf
ROOT
ATOM      1  C   UNL     1      57.066  28.820 -35.471  1.00  0.00     0.053 C 
ENDROOT
BRANCH   1   2
ATOM      2  C   UNL     1      56.054  29.575 -36.272  1.00  0.00     0.041 C 
ATOM      3  O   UNL     1      55.321  28.970 -37.100  1.00  0.00    -0.550 OA
ATOM      4  O   UNL     1      55.886  30.940 -36.073  1.00  0.00    -0.550 OA
ENDBRANCH   1   2
BRANCH   1   5
ATOM      5  C   UNL     1      56.384  28.042 -34.341  1.00  0.00     0.006 C 
BRANCH   5   6
ATOM      6  C   UNL     1      56.554  26.532 -34.533  1.00  0.00    -0.003 C 
ATOM      7  C   UNL     1      55.356  25.931 -35.264  1.00  0.00     0.004 C 
ENDBRANCH   5   6
ENDBRANCH   1   5
TORSDOF 3
ENDMDL
MODEL 7
REMARK VINA RESULT:    -2.754      2.272      4.205
REMARK INTER + INTRA:          -3.263
REMARK INTER:                  -3.246
REMARK INTRA:                  -0.017
REMARK UNBOUND:                -0.026
REMARK SMILES CCCCC(=O)[O-]
REMARK SMILES IDX 4 1 5 2 6 3 7 4 3 5 2 6 1 7
REMARK H PARENT
REMARK Flexibility Score: inf
ROOT
ATOM      1  C   UNL     1      45.703  12.772 -32.780  1.00  0.00     0.053 C 
ENDROOT
BRANCH   1   2
ATOM      2  C   UNL     1      45.977  12.308 -31.385  1.00  0.00     0.041 C 
ATOM      3  O   UNL     1      45.412  12.868 -30.408  1.00  0.00    -0.550 OA
ATOM      4  O   UNL     1      46.820  11.225 -31.165  1.00  0.00    -0.550 OA
ENDBRANCH   1   2
BRANCH   1   5
ATOM      5  C   UNL     1      44.277  12.401 -33.199  1.00  0.00     0.006 C 
BRANCH   5   6
ATOM      6  C   UNL     1      44.226  11.995 -34.676  1.00  0.00    -0.003 C 
ATOM      7  C   UNL     1      42.786  11.883 -35.167  1.00  0.00     0.004 C 
ENDBRANCH   5   6
ENDBRANCH   1   5
TORSDOF 3
ENDMDL
MODEL 8
REMARK VINA RESULT:    -2.613     19.543     20.157
REMARK INTER + INTRA:          -3.098
REMARK INTER:                  -2.992
REMARK INTRA:                  -0.105
REMARK UNBOUND:                -0.026
REMARK SMILES CCCCC(=O)[O-]
REMARK SMILES IDX 4 1 5 2 6 3 7 4 3 5 2 6 1 7
REMARK H PARENT
REMARK Flexibility Score: inf
ROOT
ATOM      1  C   UNL     1      55.890  29.848 -36.124  1.00  0.00     0.053 C 
ENDROOT
BRANCH   1   2
ATOM      2  C   UNL     1      55.187  29.548 -37.410  1.00  0.00     0.041 C 
ATOM      3  O   UNL     1      54.827  28.370 -37.676  1.00  0.00    -0.550 OA
ATOM      4  O   UNL     1      54.885  30.576 -38.294  1.00  0.00    -0.550 OA
ENDBRANCH   1   2
BRANCH   1   5
ATOM      5  C   UNL     1      56.824  28.696 -35.742  1.00  0.00     0.006 C 
BRANCH   5   6
ATOM      6  C   UNL     1      56.369  28.028 -34.440  1.00  0.00    -0.003 C 
ATOM      7  C   UNL     1      55.724  26.672 -34.713  1.00  0.00     0.004 C 
ENDBRANCH   5   6
ENDBRANCH   1   5
TORSDOF 3
ENDMDL
MODEL 9
REMARK VINA RESULT:    -2.538     19.458     20.020
REMARK INTER + INTRA:          -3.009
REMARK INTER:                  -2.988
REMARK INTRA:                  -0.021
REMARK UNBOUND:                -0.026
REMARK SMILES CCCCC(=O)[O-]
REMARK SMILES IDX 4 1 5 2 6 3 7 4 3 5 2 6 1 7
REMARK H PARENT
REMARK Flexibility Score: inf
ROOT
ATOM      1  C   UNL     1      56.912  28.391 -35.256  1.00  0.00     0.053 C 
ENDROOT
BRANCH   1   2
ATOM      2  C   UNL     1      56.125  29.341 -36.101  1.00  0.00     0.041 C 
ATOM      3  O   UNL     1      56.153  30.578 -35.860  1.00  0.00    -0.550 OA
ATOM      4  O   UNL     1      55.398  28.868 -37.186  1.00  0.00    -0.550 OA
ENDBRANCH   1   2
BRANCH   1   5
ATOM      5  C   UNL     1      56.698  28.692 -33.769  1.00  0.00     0.006 C 
BRANCH   5   6
ATOM      6  C   UNL     1      56.304  27.425 -33.003  1.00  0.00    -0.003 C 
ATOM      7  C   UNL     1      56.246  27.685 -31.500  1.00  0.00     0.004 C 
ENDBRANCH   5   6
ENDBRANCH   1   5
TORSDOF 3
ENDMDL
