MODEL 1
REMARK VINA RESULT:    13.899      0.000      0.000
REMARK INTER + INTRA:          24.621
REMARK INTER:                  25.274
REMARK INTRA:                  -0.653
REMARK UNBOUND:                -0.653
REMARK SMILES CCCCCC=CCC=CCCCCCCCC(=O)[O-]
REMARK SMILES IDX 11 1 12 2 13 3 14 4 15 5 16 6 17 7 18 8 19 9 20 10 10 11
REMARK SMILES IDX 9 12 8 13 7 14 6 15 5 16 4 17 3 18 2 19 1 20
REMARK H PARENT
REMARK Flexibility Score: inf
ROOT
ATOM      1  C   UNL     1       8.903  75.973   5.233  1.00  0.00     0.027 C 
ENDROOT
BRANCH   1   2
ATOM      2  C   UNL     1       9.557  74.816   6.000  1.00  0.00     0.004 C 
BRANCH   2   3
ATOM      3  C   UNL     1       9.538  73.492   5.215  1.00  0.00     0.000 C 
BRANCH   3   4
ATOM      4  C   UNL     1       9.239  72.238   6.060  1.00  0.00     0.000 C 
BRANCH   4   5
ATOM      5  C   UNL     1       9.978  70.959   5.616  1.00  0.00     0.000 C 
BRANCH   5   6
ATOM      6  C   UNL     1       9.372  70.249   4.388  1.00  0.00     0.006 C 
BRANCH   6   7
ATOM      7  C   UNL     1      10.328  69.272   3.685  1.00  0.00     0.053 C 
BRANCH   7   8
ATOM      8  C   UNL     1       9.908  68.992   2.274  1.00  0.00     0.041 C 
ATOM      9  O   UNL     1       9.508  69.931   1.535  1.00  0.00    -0.550 OA
ATOM     10  O   UNL     1       9.943  67.693   1.780  1.00  0.00    -0.550 OA
ENDBRANCH   7   8
ENDBRANCH   6   7
ENDBRANCH   5   6
ENDBRANCH   4   5
ENDBRANCH   3   4
ENDBRANCH   2   3
ENDBRANCH   1   2
BRANCH   1  11
ATOM     11  C   UNL     1       9.931  76.772   4.479  1.00  0.00    -0.031 C 
ATOM     12  C   UNL     1      11.233  76.455   4.556  1.00  0.00    -0.027 C 
BRANCH  12  13
ATOM     13  C   UNL     1      12.281  77.251   3.832  1.00  0.00     0.054 C 
BRANCH  13  14
ATOM     14  C   UNL     1      11.827  77.661   2.453  1.00  0.00    -0.027 C 
ATOM     15  C   UNL     1      11.794  76.848   1.379  1.00  0.00    -0.031 C 
BRANCH  15  16
ATOM     16  C   UNL     1      12.273  75.416   1.362  1.00  0.00     0.027 C 
BRANCH  16  17
ATOM     17  C   UNL     1      12.286  74.829  -0.059  1.00  0.00     0.004 C 
BRANCH  17  18
ATOM     18  C   UNL     1      10.914  74.339  -0.567  1.00  0.00     0.000 C 
BRANCH  18  19
ATOM     19  C   UNL     1       9.709  74.814   0.264  1.00  0.00    -0.003 C 
ATOM     20  C   UNL     1       8.415  74.883  -0.547  1.00  0.00     0.004 C 
ENDBRANCH  18  19
ENDBRANCH  17  18
ENDBRANCH  16  17
ENDBRANCH  15  16
ENDBRANCH  13  14
ENDBRANCH  12  13
ENDBRANCH   1  11
TORSDOF 14
ENDMDL
MODEL 2
REMARK VINA RESULT:    14.049      4.119      8.782
REMARK INTER + INTRA:          24.894
REMARK INTER:                  24.659
REMARK INTRA:                   0.235
REMARK UNBOUND:                -0.653
REMARK SMILES CCCCCC=CCC=CCCCCCCCC(=O)[O-]
REMARK SMILES IDX 11 1 12 2 13 3 14 4 15 5 16 6 17 7 18 8 19 9 20 10 10 11
REMARK SMILES IDX 9 12 8 13 7 14 6 15 5 16 4 17 3 18 2 19 1 20
REMARK H PARENT
REMARK Flexibility Score: inf
ROOT
ATOM      1  C   UNL     1       9.273  72.701   6.178  1.00  0.00     0.027 C 
ENDROOT
BRANCH   1   2
ATOM      2  C   UNL     1       9.472  73.686   5.020  1.00  0.00     0.004 C 
BRANCH   2   3
ATOM      3  C   UNL     1       9.680  75.136   5.497  1.00  0.00     0.000 C 
BRANCH   3   4
ATOM      4  C   UNL     1       8.742  76.175   4.853  1.00  0.00     0.000 C 
BRANCH   4   5
ATOM      5  C   UNL     1       9.448  77.269   4.026  1.00  0.00     0.000 C 
BRANCH   5   6
ATOM      6  C   UNL     1      10.487  76.751   3.011  1.00  0.00     0.006 C 
BRANCH   6   7
ATOM      7  C   UNL     1      11.895  77.341   3.188  1.00  0.00     0.053 C 
BRANCH   7   8
ATOM      8  C   UNL     1      12.356  77.277   4.612  1.00  0.00     0.041 C 
ATOM      9  O   UNL     1      12.043  76.294   5.335  1.00  0.00    -0.550 OA
ATOM     10  O   UNL     1      13.117  78.311   5.147  1.00  0.00    -0.550 OA
ENDBRANCH   7   8
ENDBRANCH   6   7
ENDBRANCH   5   6
ENDBRANCH   4   5
ENDBRANCH   3   4
ENDBRANCH   2   3
ENDBRANCH   1   2
BRANCH   1  11
ATOM     11  C   UNL     1       9.337  71.278   5.695  1.00  0.00    -0.031 C 
ATOM     12  C   UNL     1      10.188  70.927   4.718  1.00  0.00    -0.027 C 
BRANCH  12  13
ATOM     13  C   UNL     1      10.254  69.518   4.200  1.00  0.00     0.054 C 
BRANCH  13  14
ATOM     14  C   UNL     1       8.938  68.797   4.357  1.00  0.00    -0.027 C 
ATOM     15  C   UNL     1       8.613  68.002   5.395  1.00  0.00    -0.031 C 
BRANCH  15  16
ATOM     16  C   UNL     1       9.536  67.647   6.536  1.00  0.00     0.027 C 
BRANCH  16  17
ATOM     17  C   UNL     1       8.951  66.538   7.427  1.00  0.00     0.004 C 
BRANCH  17  18
ATOM     18  C   UNL     1       9.984  65.813   8.315  1.00  0.00     0.000 C 
BRANCH  18  19
ATOM     19  C   UNL     1       9.997  64.281   8.176  1.00  0.00    -0.003 C 
ATOM     20  C   UNL     1       8.604  63.689   7.962  1.00  0.00     0.004 C 
ENDBRANCH  18  19
ENDBRANCH  17  18
ENDBRANCH  16  17
ENDBRANCH  15  16
ENDBRANCH  13  14
ENDBRANCH  12  13
ENDBRANCH   1  11
TORSDOF 14
ENDMDL
MODEL 3
REMARK VINA RESULT:    14.352      3.221      4.131
REMARK INTER + INTRA:          25.446
REMARK INTER:                  26.361
REMARK INTRA:                  -0.915
REMARK UNBOUND:                -0.653
REMARK SMILES CCCCCC=CCC=CCCCCCCCC(=O)[O-]
REMARK SMILES IDX 11 1 12 2 13 3 14 4 15 5 16 6 17 7 18 8 19 9 20 10 10 11
REMARK SMILES IDX 9 12 8 13 7 14 6 15 5 16 4 17 3 18 2 19 1 20
REMARK H PARENT
REMARK Flexibility Score: inf
ROOT
ATOM      1  C   UNL     1       9.329  72.355   5.742  1.00  0.00     0.027 C 
ENDROOT
BRANCH   1   2
ATOM      2  C   UNL     1      10.207  71.247   5.147  1.00  0.00     0.004 C 
BRANCH   2   3
ATOM      3  C   UNL     1       9.392  70.169   4.409  1.00  0.00     0.000 C 
BRANCH   3   4
ATOM      4  C   UNL     1       9.779  68.715   4.743  1.00  0.00     0.000 C 
BRANCH   4   5
ATOM      5  C   UNL     1       8.865  68.014   5.768  1.00  0.00     0.000 C 
BRANCH   5   6
ATOM      6  C   UNL     1       9.603  67.300   6.919  1.00  0.00     0.006 C 
BRANCH   6   7
ATOM      7  C   UNL     1       8.784  66.199   7.611  1.00  0.00     0.053 C 
BRANCH   7   8
ATOM      8  C   UNL     1       9.659  65.193   8.294  1.00  0.00     0.041 C 
ATOM      9  O   UNL     1       9.382  63.966   8.230  1.00  0.00    -0.550 OA
ATOM     10  O   UNL     1      10.771  65.612   9.017  1.00  0.00    -0.550 OA
ENDBRANCH   7   8
ENDBRANCH   6   7
ENDBRANCH   5   6
ENDBRANCH   4   5
ENDBRANCH   3   4
ENDBRANCH   2   3
ENDBRANCH   1   2
BRANCH   1  11
ATOM     11  C   UNL     1       9.513  73.649   4.998  1.00  0.00    -0.031 C 
ATOM     12  C   UNL     1       9.614  74.810   5.663  1.00  0.00    -0.027 C 
BRANCH  12  13
ATOM     13  C   UNL     1       9.775  76.119   4.943  1.00  0.00     0.054 C 
BRANCH  13  14
ATOM     14  C   UNL     1      11.222  76.530   4.836  1.00  0.00    -0.027 C 
ATOM     15  C   UNL     1      11.854  76.837   3.686  1.00  0.00    -0.031 C 
BRANCH  15  16
ATOM     16  C   UNL     1      11.238  76.751   2.310  1.00  0.00     0.027 C 
BRANCH  16  17
ATOM     17  C   UNL     1      12.046  75.841   1.371  1.00  0.00     0.004 C 
BRANCH  17  18
ATOM     18  C   UNL     1      11.194  75.009   0.389  1.00  0.00     0.000 C 
BRANCH  18  19
ATOM     19  C   UNL     1       9.693  74.956   0.719  1.00  0.00    -0.003 C 
ATOM     20  C   UNL     1       8.814  74.795  -0.522  1.00  0.00     0.004 C 
ENDBRANCH  18  19
ENDBRANCH  17  18
ENDBRANCH  16  17
ENDBRANCH  15  16
ENDBRANCH  13  14
ENDBRANCH  12  13
ENDBRANCH   1  11
TORSDOF 14
ENDMDL
MODEL 4
REMARK VINA RESULT:    14.836      1.000      2.300
REMARK INTER + INTRA:          26.326
REMARK INTER:                  27.177
REMARK INTRA:                  -0.851
REMARK UNBOUND:                -0.653
REMARK SMILES CCCCCC=CCC=CCCCCCCCC(=O)[O-]
REMARK SMILES IDX 11 1 12 2 13 3 14 4 15 5 16 6 17 7 18 8 19 9 20 10 10 11
REMARK SMILES IDX 9 12 8 13 7 14 6 15 5 16 4 17 3 18 2 19 1 20
REMARK H PARENT
REMARK Flexibility Score: inf
ROOT
ATOM      1  C   UNL     1       9.243  72.725   5.265  1.00  0.00     0.027 C 
ENDROOT
BRANCH   1   2
ATOM      2  C   UNL     1       9.939  71.709   6.179  1.00  0.00     0.004 C 
BRANCH   2   3
ATOM      3  C   UNL     1      11.288  71.224   5.617  1.00  0.00     0.000 C 
BRANCH   3   4
ATOM      4  C   UNL     1      11.244  69.859   4.903  1.00  0.00     0.000 C 
BRANCH   4   5
ATOM      5  C   UNL     1       9.956  69.042   5.131  1.00  0.00     0.000 C 
BRANCH   5   6
ATOM      6  C   UNL     1       8.810  69.345   4.145  1.00  0.00     0.006 C 
BRANCH   6   7
ATOM      7  C   UNL     1       9.177  70.337   3.030  1.00  0.00     0.053 C 
BRANCH   7   8
ATOM      8  C   UNL     1       9.625  69.639   1.783  1.00  0.00     0.041 C 
ATOM      9  O   UNL     1       9.358  70.128   0.653  1.00  0.00    -0.550 OA
ATOM     10  O   UNL     1      10.324  68.439   1.867  1.00  0.00    -0.550 OA
ENDBRANCH   7   8
ENDBRANCH   6   7
ENDBRANCH   5   6
ENDBRANCH   4   5
ENDBRANCH   3   4
ENDBRANCH   2   3
ENDBRANCH   1   2
BRANCH   1  11
ATOM     11  C   UNL     1       9.804  74.106   5.465  1.00  0.00    -0.031 C 
ATOM     12  C   UNL     1       9.222  75.169   4.887  1.00  0.00    -0.027 C 
BRANCH  12  13
ATOM     13  C   UNL     1       9.777  76.556   5.051  1.00  0.00     0.054 C 
BRANCH  13  14
ATOM     14  C   UNL     1      11.286  76.560   5.080  1.00  0.00    -0.027 C 
ATOM     15  C   UNL     1      12.076  76.929   4.053  1.00  0.00    -0.031 C 
BRANCH  15  16
ATOM     16  C   UNL     1      11.583  77.332   2.683  1.00  0.00     0.027 C 
BRANCH  16  17
ATOM     17  C   UNL     1      11.514  76.135   1.720  1.00  0.00     0.004 C 
BRANCH  17  18
ATOM     18  C   UNL     1      10.095  75.575   1.490  1.00  0.00     0.000 C 
BRANCH  18  19
ATOM     19  C   UNL     1       9.946  74.680   0.247  1.00  0.00    -0.003 C 
ATOM     20  C   UNL     1       8.613  74.878  -0.475  1.00  0.00     0.004 C 
ENDBRANCH  18  19
ENDBRANCH  17  18
ENDBRANCH  16  17
ENDBRANCH  15  16
ENDBRANCH  13  14
ENDBRANCH  12  13
ENDBRANCH   1  11
TORSDOF 14
ENDMDL
MODEL 5
REMARK VINA RESULT:    14.953      3.483      8.291
REMARK INTER + INTRA:          26.539
REMARK INTER:                  27.448
REMARK INTRA:                  -0.909
REMARK UNBOUND:                -0.653
REMARK SMILES CCCCCC=CCC=CCCCCCCCC(=O)[O-]
REMARK SMILES IDX 11 1 12 2 13 3 14 4 15 5 16 6 17 7 18 8 19 9 20 10 10 11
REMARK SMILES IDX 9 12 8 13 7 14 6 15 5 16 4 17 3 18 2 19 1 20
REMARK H PARENT
REMARK Flexibility Score: inf
ROOT
ATOM      1  C   UNL     1       9.257  73.048   6.102  1.00  0.00     0.027 C 
ENDROOT
BRANCH   1   2
ATOM      2  C   UNL     1       9.736  74.097   5.091  1.00  0.00     0.004 C 
BRANCH   2   3
ATOM      3  C   UNL     1       9.243  75.518   5.424  1.00  0.00     0.000 C 
BRANCH   3   4
ATOM      4  C   UNL     1       9.911  76.646   4.615  1.00  0.00     0.000 C 
BRANCH   4   5
ATOM      5  C   UNL     1      11.453  76.661   4.661  1.00  0.00     0.000 C 
BRANCH   5   6
ATOM      6  C   UNL     1      12.145  76.773   3.288  1.00  0.00     0.006 C 
BRANCH   6   7
ATOM      7  C   UNL     1      11.183  76.971   2.107  1.00  0.00     0.053 C 
BRANCH   7   8
ATOM      8  C   UNL     1      11.169  75.788   1.188  1.00  0.00     0.041 C 
ATOM      9  O   UNL     1      10.086  75.198   0.932  1.00  0.00    -0.550 OA
ATOM     10  O   UNL     1      12.355  75.325   0.628  1.00  0.00    -0.550 OA
ENDBRANCH   7   8
ENDBRANCH   6   7
ENDBRANCH   5   6
ENDBRANCH   4   5
ENDBRANCH   3   4
ENDBRANCH   2   3
ENDBRANCH   1   2
BRANCH   1  11
ATOM     11  C   UNL     1       9.285  71.668   5.503  1.00  0.00    -0.031 C 
ATOM     12  C   UNL     1      10.429  71.155   5.025  1.00  0.00    -0.027 C 
BRANCH  12  13
ATOM     13  C   UNL     1      10.478  69.789   4.400  1.00  0.00     0.054 C 
BRANCH  13  14
ATOM     14  C   UNL     1       9.145  69.086   4.474  1.00  0.00    -0.027 C 
ATOM     15  C   UNL     1       8.782  68.221   5.440  1.00  0.00    -0.031 C 
BRANCH  15  16
ATOM     16  C   UNL     1       9.673  67.758   6.568  1.00  0.00     0.027 C 
BRANCH  16  17
ATOM     17  C   UNL     1       9.103  66.522   7.284  1.00  0.00     0.004 C 
BRANCH  17  18
ATOM     18  C   UNL     1      10.098  65.805   8.221  1.00  0.00     0.000 C 
BRANCH  18  19
ATOM     19  C   UNL     1       9.825  64.305   8.428  1.00  0.00    -0.003 C 
ATOM     20  C   UNL     1       8.513  63.843   7.795  1.00  0.00     0.004 C 
ENDBRANCH  18  19
ENDBRANCH  17  18
ENDBRANCH  16  17
ENDBRANCH  15  16
ENDBRANCH  13  14
ENDBRANCH  12  13
ENDBRANCH   1  11
TORSDOF 14
ENDMDL
MODEL 6
REMARK VINA RESULT:    15.057      2.127      5.692
REMARK INTER + INTRA:          26.728
REMARK INTER:                  28.350
REMARK INTRA:                  -1.622
REMARK UNBOUND:                -0.653
REMARK SMILES CCCCCC=CCC=CCCCCCCCC(=O)[O-]
REMARK SMILES IDX 11 1 12 2 13 3 14 4 15 5 16 6 17 7 18 8 19 9 20 10 10 11
REMARK SMILES IDX 9 12 8 13 7 14 6 15 5 16 4 17 3 18 2 19 1 20
REMARK H PARENT
REMARK Flexibility Score: inf
ROOT
ATOM      1  C   UNL     1       8.938  75.810   4.806  1.00  0.00     0.027 C 
ENDROOT
BRANCH   1   2
ATOM      2  C   UNL     1       9.845  77.043   4.706  1.00  0.00     0.004 C 
BRANCH   2   3
ATOM      3  C   UNL     1      11.325  76.720   4.985  1.00  0.00     0.000 C 
BRANCH   3   4
ATOM      4  C   UNL     1      12.289  77.023   3.821  1.00  0.00     0.000 C 
BRANCH   4   5
ATOM      5  C   UNL     1      11.617  77.194   2.443  1.00  0.00     0.000 C 
BRANCH   5   6
ATOM      6  C   UNL     1      11.401  75.885   1.656  1.00  0.00     0.006 C 
BRANCH   6   7
ATOM      7  C   UNL     1       9.943  75.625   1.247  1.00  0.00     0.053 C 
BRANCH   7   8
ATOM      8  C   UNL     1       9.847  74.757   0.029  1.00  0.00     0.041 C 
ATOM      9  O   UNL     1       8.720  74.425  -0.424  1.00  0.00    -0.550 OA
ATOM     10  O   UNL     1      11.003  74.300  -0.595  1.00  0.00    -0.550 OA
ENDBRANCH   7   8
ENDBRANCH   6   7
ENDBRANCH   5   6
ENDBRANCH   4   5
ENDBRANCH   3   4
ENDBRANCH   2   3
ENDBRANCH   1   2
BRANCH   1  11
ATOM     11  C   UNL     1       9.681  74.637   5.384  1.00  0.00    -0.031 C 
ATOM     12  C   UNL     1       9.349  73.383   5.041  1.00  0.00    -0.027 C 
BRANCH  12  13
ATOM     13  C   UNL     1      10.060  72.193   5.622  1.00  0.00     0.054 C 
BRANCH  13  14
ATOM     14  C   UNL     1       9.166  70.979   5.688  1.00  0.00    -0.027 C 
ATOM     15  C   UNL     1       9.402  69.812   5.057  1.00  0.00    -0.031 C 
BRANCH  15  16
ATOM     16  C   UNL     1      10.562  69.551   4.126  1.00  0.00     0.027 C 
BRANCH  16  17
ATOM     17  C   UNL     1      10.093  69.185   2.708  1.00  0.00     0.004 C 
BRANCH  17  18
ATOM     18  C   UNL     1       9.366  70.319   1.957  1.00  0.00     0.000 C 
BRANCH  18  19
ATOM     19  C   UNL     1       9.349  70.175   0.425  1.00  0.00    -0.003 C 
ATOM     20  C   UNL     1       8.168  70.891  -0.230  1.00  0.00     0.004 C 
ENDBRANCH  18  19
ENDBRANCH  17  18
ENDBRANCH  16  17
ENDBRANCH  15  16
ENDBRANCH  13  14
ENDBRANCH  12  13
ENDBRANCH   1  11
TORSDOF 14
ENDMDL
MODEL 7
REMARK VINA RESULT:    15.172      2.656      7.236
REMARK INTER + INTRA:          26.936
REMARK INTER:                  28.227
REMARK INTRA:                  -1.291
REMARK UNBOUND:                -0.653
REMARK SMILES CCCCCC=CCC=CCCCCCCCC(=O)[O-]
REMARK SMILES IDX 11 1 12 2 13 3 14 4 15 5 16 6 17 7 18 8 19 9 20 10 10 11
REMARK SMILES IDX 9 12 8 13 7 14 6 15 5 16 4 17 3 18 2 19 1 20
REMARK H PARENT
REMARK Flexibility Score: inf
ROOT
ATOM      1  C   UNL     1       9.068  75.283   4.866  1.00  0.00     0.027 C 
ENDROOT
BRANCH   1   2
ATOM      2  C   UNL     1       9.894  76.544   5.149  1.00  0.00     0.004 C 
BRANCH   2   3
ATOM      3  C   UNL     1      11.411  76.281   5.133  1.00  0.00     0.000 C 
BRANCH   3   4
ATOM      4  C   UNL     1      12.192  77.031   4.035  1.00  0.00     0.000 C 
BRANCH   4   5
ATOM      5  C   UNL     1      11.400  77.304   2.740  1.00  0.00     0.000 C 
BRANCH   5   6
ATOM      6  C   UNL     1      11.448  76.171   1.695  1.00  0.00     0.006 C 
BRANCH   6   7
ATOM      7  C   UNL     1      10.088  75.515   1.407  1.00  0.00     0.053 C 
BRANCH   7   8
ATOM      8  C   UNL     1      10.081  74.789   0.097  1.00  0.00     0.041 C 
ATOM      9  O   UNL     1       8.994  74.578  -0.504  1.00  0.00    -0.550 OA
ATOM     10  O   UNL     1      11.273  74.331  -0.454  1.00  0.00    -0.550 OA
ENDBRANCH   7   8
ENDBRANCH   6   7
ENDBRANCH   5   6
ENDBRANCH   4   5
ENDBRANCH   3   4
ENDBRANCH   2   3
ENDBRANCH   1   2
BRANCH   1  11
ATOM     11  C   UNL     1       9.673  74.079   5.535  1.00  0.00    -0.031 C 
ATOM     12  C   UNL     1       9.252  72.843   5.225  1.00  0.00    -0.027 C 
BRANCH  12  13
ATOM     13  C   UNL     1       9.823  71.625   5.896  1.00  0.00     0.054 C 
BRANCH  13  14
ATOM     14  C   UNL     1      10.484  70.695   4.909  1.00  0.00    -0.027 C 
ATOM     15  C   UNL     1       9.912  69.593   4.385  1.00  0.00    -0.031 C 
BRANCH  15  16
ATOM     16  C   UNL     1       8.544  69.071   4.751  1.00  0.00     0.027 C 
BRANCH  16  17
ATOM     17  C   UNL     1       8.615  67.695   5.436  1.00  0.00     0.004 C 
BRANCH  17  18
ATOM     18  C   UNL     1       9.290  67.701   6.823  1.00  0.00     0.000 C 
BRANCH  18  19
ATOM     19  C   UNL     1       8.958  66.488   7.710  1.00  0.00    -0.003 C 
ATOM     20  C   UNL     1      10.197  65.698   8.131  1.00  0.00     0.004 C 
ENDBRANCH  18  19
ENDBRANCH  17  18
ENDBRANCH  16  17
ENDBRANCH  15  16
ENDBRANCH  13  14
ENDBRANCH  12  13
ENDBRANCH   1  11
TORSDOF 14
ENDMDL
MODEL 8
REMARK VINA RESULT:    15.395      2.027      2.957
REMARK INTER + INTRA:          27.342
REMARK INTER:                  28.068
REMARK INTRA:                  -0.727
REMARK UNBOUND:                -0.653
REMARK SMILES CCCCCC=CCC=CCCCCCCCC(=O)[O-]
REMARK SMILES IDX 11 1 12 2 13 3 14 4 15 5 16 6 17 7 18 8 19 9 20 10 10 11
REMARK SMILES IDX 9 12 8 13 7 14 6 15 5 16 4 17 3 18 2 19 1 20
REMARK H PARENT
REMARK Flexibility Score: inf
ROOT
ATOM      1  C   UNL     1       8.933  75.838   5.222  1.00  0.00     0.027 C 
ENDROOT
BRANCH   1   2
ATOM      2  C   UNL     1       9.605  74.634   5.893  1.00  0.00     0.004 C 
BRANCH   2   3
ATOM      3  C   UNL     1       9.282  73.301   5.193  1.00  0.00     0.000 C 
BRANCH   3   4
ATOM      4  C   UNL     1      10.108  72.093   5.678  1.00  0.00     0.000 C 
BRANCH   4   5
ATOM      5  C   UNL     1       9.309  70.786   5.862  1.00  0.00     0.000 C 
BRANCH   5   6
ATOM      6  C   UNL     1       9.008  70.018   4.560  1.00  0.00     0.006 C 
BRANCH   6   7
ATOM      7  C   UNL     1      10.257  69.559   3.791  1.00  0.00     0.053 C 
BRANCH   7   8
ATOM      8  C   UNL     1       9.943  69.203   2.370  1.00  0.00     0.041 C 
ATOM      9  O   UNL     1       9.454  70.068   1.594  1.00  0.00    -0.550 OA
ATOM     10  O   UNL     1      10.173  67.913   1.906  1.00  0.00    -0.550 OA
ENDBRANCH   7   8
ENDBRANCH   6   7
ENDBRANCH   5   6
ENDBRANCH   4   5
ENDBRANCH   3   4
ENDBRANCH   2   3
ENDBRANCH   1   2
BRANCH   1  11
ATOM     11  C   UNL     1       9.905  76.581   4.347  1.00  0.00    -0.031 C 
ATOM     12  C   UNL     1      11.204  76.650   4.675  1.00  0.00    -0.027 C 
BRANCH  12  13
ATOM     13  C   UNL     1      12.191  77.406   3.831  1.00  0.00     0.054 C 
BRANCH  13  14
ATOM     14  C   UNL     1      11.950  77.197   2.357  1.00  0.00    -0.027 C 
ATOM     15  C   UNL     1      12.148  78.127   1.402  1.00  0.00    -0.031 C 
BRANCH  15  16
ATOM     16  C   UNL     1      12.577  79.552   1.659  1.00  0.00     0.027 C 
BRANCH  16  17
ATOM     17  C   UNL     1      12.401  80.440   0.416  1.00  0.00     0.004 C 
BRANCH  17  18
ATOM     18  C   UNL     1      13.513  80.293  -0.643  1.00  0.00     0.000 C 
BRANCH  18  19
ATOM     19  C   UNL     1      13.334  79.111  -1.612  1.00  0.00    -0.003 C 
ATOM     20  C   UNL     1      12.590  79.495  -2.891  1.00  0.00     0.004 C 
ENDBRANCH  18  19
ENDBRANCH  17  18
ENDBRANCH  16  17
ENDBRANCH  15  16
ENDBRANCH  13  14
ENDBRANCH  12  13
ENDBRANCH   1  11
TORSDOF 14
ENDMDL
MODEL 9
REMARK VINA RESULT:    15.676      2.821      7.247
REMARK INTER + INTRA:          27.854
REMARK INTER:                  28.701
REMARK INTRA:                  -0.848
REMARK UNBOUND:                -0.653
REMARK SMILES CCCCCC=CCC=CCCCCCCCC(=O)[O-]
REMARK SMILES IDX 11 1 12 2 13 3 14 4 15 5 16 6 17 7 18 8 19 9 20 10 10 11
REMARK SMILES IDX 9 12 8 13 7 14 6 15 5 16 4 17 3 18 2 19 1 20
REMARK H PARENT
REMARK Flexibility Score: inf
ROOT
ATOM      1  C   UNL     1       9.825  74.755  -0.331  1.00  0.00     0.027 C 
ENDROOT
BRANCH   1   2
ATOM      2  C   UNL     1      11.303  74.367  -0.467  1.00  0.00     0.004 C 
BRANCH   2   3
ATOM      3  C   UNL     1      12.255  75.425   0.121  1.00  0.00     0.000 C 
BRANCH   3   4
ATOM      4  C   UNL     1      12.195  75.575   1.654  1.00  0.00     0.000 C 
BRANCH   4   5
ATOM      5  C   UNL     1      11.735  76.958   2.158  1.00  0.00     0.000 C 
BRANCH   5   6
ATOM      6  C   UNL     1      11.982  77.221   3.657  1.00  0.00     0.006 C 
BRANCH   6   7
ATOM      7  C   UNL     1      11.077  76.412   4.600  1.00  0.00     0.053 C 
BRANCH   7   8
ATOM      8  C   UNL     1       9.641  76.822   4.489  1.00  0.00     0.041 C 
ATOM      9  O   UNL     1       9.315  77.794   3.757  1.00  0.00    -0.550 OA
ATOM     10  O   UNL     1       8.663  76.142   5.207  1.00  0.00    -0.550 OA
ENDBRANCH   7   8
ENDBRANCH   6   7
ENDBRANCH   5   6
ENDBRANCH   4   5
ENDBRANCH   3   4
ENDBRANCH   2   3
ENDBRANCH   1   2
BRANCH   1  11
ATOM     11  C   UNL     1       9.002  73.590   0.148  1.00  0.00    -0.031 C 
ATOM     12  C   UNL     1       9.441  72.332  -0.014  1.00  0.00    -0.027 C 
BRANCH  12  13
ATOM     13  C   UNL     1       8.628  71.151   0.433  1.00  0.00     0.054 C 
BRANCH  13  14
ATOM     14  C   UNL     1       9.465  69.902   0.553  1.00  0.00    -0.027 C 
ATOM     15  C   UNL     1       9.815  69.316   1.714  1.00  0.00    -0.031 C 
BRANCH  15  16
ATOM     16  C   UNL     1       9.486  69.851   3.088  1.00  0.00     0.027 C 
BRANCH  16  17
ATOM     17  C   UNL     1      10.560  69.482   4.124  1.00  0.00     0.004 C 
BRANCH  17  18
ATOM     18  C   UNL     1      10.866  70.587   5.156  1.00  0.00     0.000 C 
BRANCH  18  19
ATOM     19  C   UNL     1       9.629  71.313   5.713  1.00  0.00    -0.003 C 
ATOM     20  C   UNL     1       9.270  70.877   7.134  1.00  0.00     0.004 C 
ENDBRANCH  18  19
ENDBRANCH  17  18
ENDBRANCH  16  17
ENDBRANCH  15  16
ENDBRANCH  13  14
ENDBRANCH  12  13
ENDBRANCH   1  11
TORSDOF 14
ENDMDL
