MODEL 1
REMARK VINA RESULT:    -4.188      0.000      0.000
REMARK INTER + INTRA:          -5.277
REMARK INTER:                  -5.167
REMARK INTRA:                  -0.110
REMARK UNBOUND:                -0.110
REMARK SMILES CCCCCC(=O)[O-]
REMARK SMILES IDX 4 1 5 2 6 3 7 4 8 5 3 6 2 7 1 8
REMARK H PARENT
REMARK Flexibility Score: inf
ROOT
ATOM      1  C   UNL     1      -4.421  -1.099   3.017  1.00  0.00     0.006 C 
ENDROOT
BRANCH   1   2
ATOM      2  C   UNL     1      -3.519  -0.186   2.174  1.00  0.00     0.053 C 
BRANCH   2   3
ATOM      3  C   UNL     1      -2.309   0.257   2.936  1.00  0.00     0.041 C 
ATOM      4  O   UNL     1      -2.348   0.346   4.192  1.00  0.00    -0.550 OA
ATOM      5  O   UNL     1      -1.127   0.541   2.263  1.00  0.00    -0.550 OA
ENDBRANCH   2   3
ENDBRANCH   1   2
BRANCH   1   6
ATOM      6  C   UNL     1      -5.035  -2.236   2.188  1.00  0.00     0.000 C 
BRANCH   6   7
ATOM      7  C   UNL     1      -4.952  -1.929   0.689  1.00  0.00    -0.003 C 
ATOM      8  C   UNL     1      -5.405  -3.123  -0.145  1.00  0.00     0.004 C 
ENDBRANCH   6   7
ENDBRANCH   1   6
TORSDOF 4
ENDMDL
MODEL 2
REMARK VINA RESULT:    -3.776      1.129      1.628
REMARK INTER + INTRA:          -4.769
REMARK INTER:                  -4.688
REMARK INTRA:                  -0.081
REMARK UNBOUND:                -0.110
REMARK SMILES CCCCCC(=O)[O-]
REMARK SMILES IDX 4 1 5 2 6 3 7 4 8 5 3 6 2 7 1 8
REMARK H PARENT
REMARK Flexibility Score: inf
ROOT
ATOM      1  C   UNL     1      -3.649  -0.325   2.556  1.00  0.00     0.006 C 
ENDROOT
BRANCH   1   2
ATOM      2  C   UNL     1      -2.556  -0.074   3.604  1.00  0.00     0.053 C 
BRANCH   2   3
ATOM      3  C   UNL     1      -1.266   0.349   2.971  1.00  0.00     0.041 C 
ATOM      4  O   UNL     1      -1.273   1.056   1.929  1.00  0.00    -0.550 OA
ATOM      5  O   UNL     1      -0.055  -0.011   3.550  1.00  0.00    -0.550 OA
ENDBRANCH   2   3
ENDBRANCH   1   2
BRANCH   1   6
ATOM      6  C   UNL     1      -4.637  -1.414   2.996  1.00  0.00     0.000 C 
BRANCH   6   7
ATOM      7  C   UNL     1      -4.940  -2.379   1.844  1.00  0.00    -0.003 C 
ATOM      8  C   UNL     1      -4.960  -1.650   0.504  1.00  0.00     0.004 C 
ENDBRANCH   6   7
ENDBRANCH   1   6
TORSDOF 4
ENDMDL
MODEL 3
REMARK VINA RESULT:    -2.995      2.722      4.439
REMARK INTER + INTRA:          -3.806
REMARK INTER:                  -3.688
REMARK INTRA:                  -0.118
REMARK UNBOUND:                -0.110
REMARK SMILES CCCCCC(=O)[O-]
REMARK SMILES IDX 4 1 5 2 6 3 7 4 8 5 3 6 2 7 1 8
REMARK H PARENT
REMARK Flexibility Score: inf
ROOT
ATOM      1  C   UNL     1      -3.974  -0.151   2.850  1.00  0.00     0.006 C 
ENDROOT
BRANCH   1   2
ATOM      2  C   UNL     1      -3.857  -0.889   1.509  1.00  0.00     0.053 C 
BRANCH   2   3
ATOM      3  C   UNL     1      -4.850  -2.004   1.399  1.00  0.00     0.041 C 
ATOM      4  O   UNL     1      -5.503  -2.168   0.334  1.00  0.00    -0.550 OA
ATOM      5  O   UNL     1      -5.033  -2.882   2.460  1.00  0.00    -0.550 OA
ENDBRANCH   2   3
ENDBRANCH   1   2
BRANCH   1   6
ATOM      6  C   UNL     1      -2.661  -0.179   3.645  1.00  0.00     0.000 C 
BRANCH   6   7
ATOM      7  C   UNL     1      -1.554   0.577   2.903  1.00  0.00    -0.003 C 
ATOM      8  C   UNL     1      -0.177   0.014   3.242  1.00  0.00     0.004 C 
ENDBRANCH   6   7
ENDBRANCH   1   6
TORSDOF 4
ENDMDL
