MODEL 1
REMARK VINA RESULT:    -3.093      0.000      0.000
REMARK INTER + INTRA:         -10.218
REMARK INTER:                  -7.793
REMARK INTRA:                  -2.425
REMARK UNBOUND:                -2.425
REMARK SMILES CCCCCCCCCCCCCCCCCCCCCCCCCCCC(=O)[O-]
REMARK SMILES IDX 15 1 16 2 17 3 18 4 19 5 20 6 21 7 22 8 23 9 24 10 25 11
REMARK SMILES IDX 26 12 27 13 28 14 29 15 30 16 14 17 13 18 12 19 11 20 10 21
REMARK SMILES IDX 9 22 8 23 7 24 6 25 5 26 4 27 3 28 2 29 1 30
REMARK H PARENT
REMARK Flexibility Score: inf
ROOT
ATOM      1  C   UNL     1      -2.806  14.486  -5.040  1.00  0.00     0.000 C 
ENDROOT
BRANCH   1   2
ATOM      2  C   UNL     1      -3.479  13.161  -5.434  1.00  0.00     0.000 C 
BRANCH   2   3
ATOM      3  C   UNL     1      -2.813  11.946  -4.762  1.00  0.00     0.000 C 
BRANCH   3   4
ATOM      4  C   UNL     1      -1.282  12.047  -4.779  1.00  0.00     0.000 C 
BRANCH   4   5
ATOM      5  C   UNL     1      -0.644  11.491  -3.495  1.00  0.00     0.000 C 
BRANCH   5   6
ATOM      6  C   UNL     1       0.856  11.796  -3.468  1.00  0.00     0.000 C 
BRANCH   6   7
ATOM      7  C   UNL     1       1.681  10.600  -2.945  1.00  0.00     0.000 C 
BRANCH   7   8
ATOM      8  C   UNL     1       2.857  10.228  -3.883  1.00  0.00     0.000 C 
BRANCH   8   9
ATOM      9  C   UNL     1       4.083   9.475  -3.287  1.00  0.00     0.000 C 
BRANCH   9  10
ATOM     10  C   UNL     1       3.949   7.967  -2.976  1.00  0.00     0.000 C 
BRANCH  10  11
ATOM     11  C   UNL     1       4.123   7.635  -1.480  1.00  0.00     0.000 C 
BRANCH  11  12
ATOM     12  C   UNL     1       3.766   8.809  -0.545  1.00  0.00     0.006 C 
BRANCH  12  13
ATOM     13  C   UNL     1       3.448   8.379   0.899  1.00  0.00     0.053 C 
BRANCH  13  14
ATOM     14  C   UNL     1       2.065   7.795   1.031  1.00  0.00     0.041 C 
ATOM     15  O   UNL     1       1.882   6.753   1.725  1.00  0.00    -0.550 OA
ATOM     16  O   UNL     1       0.978   8.404   0.403  1.00  0.00    -0.550 OA
ENDBRANCH  13  14
ENDBRANCH  12  13
ENDBRANCH  11  12
ENDBRANCH  10  11
ENDBRANCH   9  10
ENDBRANCH   8   9
ENDBRANCH   7   8
ENDBRANCH   6   7
ENDBRANCH   5   6
ENDBRANCH   4   5
ENDBRANCH   3   4
ENDBRANCH   2   3
ENDBRANCH   1   2
BRANCH   1  17
ATOM     17  C   UNL     1      -3.287  15.714  -5.839  1.00  0.00     0.000 C 
BRANCH  17  18
ATOM     18  C   UNL     1      -2.197  16.774  -6.114  1.00  0.00     0.000 C 
BRANCH  18  19
ATOM     19  C   UNL     1      -2.557  18.206  -5.675  1.00  0.00     0.000 C 
BRANCH  19  20
ATOM     20  C   UNL     1      -1.541  19.288  -6.089  1.00  0.00     0.000 C 
BRANCH  20  21
ATOM     21  C   UNL     1      -0.062  18.844  -6.018  1.00  0.00     0.000 C 
BRANCH  21  22
ATOM     22  C   UNL     1       0.402  18.479  -4.590  1.00  0.00    -0.000 C 
BRANCH  22  23
ATOM     23  C   UNL     1       1.314  17.237  -4.573  1.00  0.00    -0.000 C 
BRANCH  23  24
ATOM     24  C   UNL     1       0.573  15.963  -4.144  1.00  0.00    -0.000 C 
BRANCH  24  25
ATOM     25  C   UNL     1      -0.478  16.231  -3.049  1.00  0.00    -0.000 C 
BRANCH  25  26
ATOM     26  C   UNL     1      -0.264  15.316  -1.820  1.00  0.00    -0.000 C 
BRANCH  26  27
ATOM     27  C   UNL     1      -0.366  16.063  -0.471  1.00  0.00    -0.000 C 
BRANCH  27  28
ATOM     28  C   UNL     1       0.983  16.299   0.242  1.00  0.00    -0.000 C 
BRANCH  28  29
ATOM     29  C   UNL     1       0.838  17.096   1.551  1.00  0.00    -0.003 C 
ATOM     30  C   UNL     1       2.173  17.141   2.305  1.00  0.00     0.004 C 
ENDBRANCH  28  29
ENDBRANCH  27  28
ENDBRANCH  26  27
ENDBRANCH  25  26
ENDBRANCH  24  25
ENDBRANCH  23  24
ENDBRANCH  22  23
ENDBRANCH  21  22
ENDBRANCH  20  21
ENDBRANCH  19  20
ENDBRANCH  18  19
ENDBRANCH  17  18
ENDBRANCH   1  17
TORSDOF 26
ENDMDL
MODEL 2
REMARK VINA RESULT:    -2.220      3.847      6.446
REMARK INTER + INTRA:          -8.019
REMARK INTER:                  -6.555
REMARK INTRA:                  -1.464
REMARK UNBOUND:                -2.425
REMARK SMILES CCCCCCCCCCCCCCCCCCCCCCCCCCCC(=O)[O-]
REMARK SMILES IDX 15 1 16 2 17 3 18 4 19 5 20 6 21 7 22 8 23 9 24 10 25 11
REMARK SMILES IDX 26 12 27 13 28 14 29 15 30 16 14 17 13 18 12 19 11 20 10 21
REMARK SMILES IDX 9 22 8 23 7 24 6 25 5 26 4 27 3 28 2 29 1 30
REMARK H PARENT
REMARK Flexibility Score: inf
ROOT
ATOM      1  C   UNL     1      -0.510  16.188  -3.008  1.00  0.00     0.000 C 
ENDROOT
BRANCH   1   2
ATOM      2  C   UNL     1      -1.960  15.854  -3.394  1.00  0.00     0.000 C 
BRANCH   2   3
ATOM      3  C   UNL     1      -2.253  16.148  -4.877  1.00  0.00     0.000 C 
BRANCH   3   4
ATOM      4  C   UNL     1      -2.802  14.917  -5.609  1.00  0.00     0.000 C 
BRANCH   4   5
ATOM      5  C   UNL     1      -1.858  13.707  -5.509  1.00  0.00     0.000 C 
BRANCH   5   6
ATOM      6  C   UNL     1      -2.603  12.494  -4.945  1.00  0.00     0.000 C 
BRANCH   6   7
ATOM      7  C   UNL     1      -1.645  11.492  -4.265  1.00  0.00     0.000 C 
BRANCH   7   8
ATOM      8  C   UNL     1      -0.274  12.120  -3.910  1.00  0.00     0.000 C 
BRANCH   8   9
ATOM      9  C   UNL     1       0.673  11.356  -2.937  1.00  0.00     0.000 C 
BRANCH   9  10
ATOM     10  C   UNL     1       1.967  10.728  -3.499  1.00  0.00     0.000 C 
BRANCH  10  11
ATOM     11  C   UNL     1       2.685   9.806  -2.492  1.00  0.00     0.000 C 
BRANCH  11  12
ATOM     12  C   UNL     1       1.817   9.433  -1.274  1.00  0.00     0.006 C 
BRANCH  12  13
ATOM     13  C   UNL     1       2.628   9.133  -0.000  1.00  0.00     0.053 C 
BRANCH  13  14
ATOM     14  C   UNL     1       2.266   7.804   0.610  1.00  0.00     0.041 C 
ATOM     15  O   UNL     1       1.070   7.569   0.949  1.00  0.00    -0.550 OA
ATOM     16  O   UNL     1       3.240   6.821   0.794  1.00  0.00    -0.550 OA
ENDBRANCH  13  14
ENDBRANCH  12  13
ENDBRANCH  11  12
ENDBRANCH  10  11
ENDBRANCH   9  10
ENDBRANCH   8   9
ENDBRANCH   7   8
ENDBRANCH   6   7
ENDBRANCH   5   6
ENDBRANCH   4   5
ENDBRANCH   3   4
ENDBRANCH   2   3
ENDBRANCH   1   2
BRANCH   1  17
ATOM     17  C   UNL     1      -0.002  15.479  -1.737  1.00  0.00     0.000 C 
BRANCH  17  18
ATOM     18  C   UNL     1      -0.088  16.325  -0.447  1.00  0.00     0.000 C 
BRANCH  18  19
ATOM     19  C   UNL     1       1.054  16.094   0.561  1.00  0.00     0.000 C 
BRANCH  19  20
ATOM     20  C   UNL     1       1.118  17.111   1.716  1.00  0.00     0.000 C 
BRANCH  20  21
ATOM     21  C   UNL     1       1.971  16.661   2.924  1.00  0.00     0.000 C 
BRANCH  21  22
ATOM     22  C   UNL     1       1.724  17.499   4.199  1.00  0.00    -0.000 C 
BRANCH  22  23
ATOM     23  C   UNL     1       1.120  16.659   5.340  1.00  0.00    -0.000 C 
BRANCH  23  24
ATOM     24  C   UNL     1      -0.341  17.025   5.637  1.00  0.00    -0.000 C 
BRANCH  24  25
ATOM     25  C   UNL     1      -1.009  16.038   6.615  1.00  0.00    -0.000 C 
BRANCH  25  26
ATOM     26  C   UNL     1      -2.501  15.815   6.266  1.00  0.00    -0.000 C 
BRANCH  26  27
ATOM     27  C   UNL     1      -3.437  15.878   7.494  1.00  0.00    -0.000 C 
BRANCH  27  28
ATOM     28  C   UNL     1      -4.654  14.931   7.429  1.00  0.00    -0.000 C 
BRANCH  28  29
ATOM     29  C   UNL     1      -5.220  14.587   8.819  1.00  0.00    -0.003 C 
ATOM     30  C   UNL     1      -5.144  15.804   9.748  1.00  0.00     0.004 C 
ENDBRANCH  28  29
ENDBRANCH  27  28
ENDBRANCH  26  27
ENDBRANCH  25  26
ENDBRANCH  24  25
ENDBRANCH  23  24
ENDBRANCH  22  23
ENDBRANCH  21  22
ENDBRANCH  20  21
ENDBRANCH  19  20
ENDBRANCH  18  19
ENDBRANCH  17  18
ENDBRANCH   1  17
TORSDOF 26
ENDMDL
MODEL 3
REMARK VINA RESULT:    -2.102      6.482     11.432
REMARK INTER + INTRA:          -7.722
REMARK INTER:                  -6.519
REMARK INTRA:                  -1.202
REMARK UNBOUND:                -2.425
REMARK SMILES CCCCCCCCCCCCCCCCCCCCCCCCCCCC(=O)[O-]
REMARK SMILES IDX 15 1 16 2 17 3 18 4 19 5 20 6 21 7 22 8 23 9 24 10 25 11
REMARK SMILES IDX 26 12 27 13 28 14 29 15 30 16 14 17 13 18 12 19 11 20 10 21
REMARK SMILES IDX 9 22 8 23 7 24 6 25 5 26 4 27 3 28 2 29 1 30
REMARK H PARENT
REMARK Flexibility Score: inf
ROOT
ATOM      1  C   UNL     1      -1.582  15.252  -3.575  1.00  0.00     0.000 C 
ENDROOT
BRANCH   1   2
ATOM      2  C   UNL     1      -2.525  14.169  -4.123  1.00  0.00     0.000 C 
BRANCH   2   3
ATOM      3  C   UNL     1      -2.838  14.369  -5.618  1.00  0.00     0.000 C 
BRANCH   3   4
ATOM      4  C   UNL     1      -3.700  15.614  -5.863  1.00  0.00     0.000 C 
BRANCH   4   5
ATOM      5  C   UNL     1      -2.853  16.877  -6.088  1.00  0.00     0.000 C 
BRANCH   5   6
ATOM      6  C   UNL     1      -3.374  18.030  -5.225  1.00  0.00     0.000 C 
BRANCH   6   7
ATOM      7  C   UNL     1      -4.103  19.100  -6.067  1.00  0.00     0.000 C 
BRANCH   7   8
ATOM      8  C   UNL     1      -5.636  18.879  -6.119  1.00  0.00     0.000 C 
BRANCH   8   9
ATOM      9  C   UNL     1      -6.574  20.123  -6.125  1.00  0.00     0.000 C 
BRANCH   9  10
ATOM     10  C   UNL     1      -7.995  19.985  -5.534  1.00  0.00     0.000 C 
BRANCH  10  11
ATOM     11  C   UNL     1      -8.605  21.331  -5.093  1.00  0.00     0.000 C 
BRANCH  11  12
ATOM     12  C   UNL     1     -10.135  21.402  -5.277  1.00  0.00     0.006 C 
BRANCH  12  13
ATOM     13  C   UNL     1     -10.919  21.466  -3.954  1.00  0.00     0.053 C 
BRANCH  13  14
ATOM     14  C   UNL     1     -12.317  21.995  -4.141  1.00  0.00     0.041 C 
ATOM     15  O   UNL     1     -12.982  21.674  -5.168  1.00  0.00    -0.550 OA
ATOM     16  O   UNL     1     -12.891  22.830  -3.182  1.00  0.00    -0.550 OA
ENDBRANCH  13  14
ENDBRANCH  12  13
ENDBRANCH  11  12
ENDBRANCH  10  11
ENDBRANCH   9  10
ENDBRANCH   8   9
ENDBRANCH   7   8
ENDBRANCH   6   7
ENDBRANCH   5   6
ENDBRANCH   4   5
ENDBRANCH   3   4
ENDBRANCH   2   3
ENDBRANCH   1   2
BRANCH   1  17
ATOM     17  C   UNL     1      -0.301  15.470  -4.405  1.00  0.00     0.000 C 
BRANCH  17  18
ATOM     18  C   UNL     1       0.473  16.765  -4.073  1.00  0.00     0.000 C 
BRANCH  18  19
ATOM     19  C   UNL     1       1.996  16.688  -4.290  1.00  0.00     0.000 C 
BRANCH  19  20
ATOM     20  C   UNL     1       2.463  16.956  -5.734  1.00  0.00     0.000 C 
BRANCH  20  21
ATOM     21  C   UNL     1       3.797  16.275  -6.116  1.00  0.00     0.000 C 
BRANCH  21  22
ATOM     22  C   UNL     1       4.119  15.029  -5.260  1.00  0.00    -0.000 C 
BRANCH  22  23
ATOM     23  C   UNL     1       3.302  13.797  -5.694  1.00  0.00    -0.000 C 
BRANCH  23  24
ATOM     24  C   UNL     1       4.124  12.501  -5.665  1.00  0.00    -0.000 C 
BRANCH  24  25
ATOM     25  C   UNL     1       4.029  11.771  -4.311  1.00  0.00    -0.000 C 
BRANCH  25  26
ATOM     26  C   UNL     1       3.394  10.368  -4.465  1.00  0.00    -0.000 C 
BRANCH  26  27
ATOM     27  C   UNL     1       3.873   9.356  -3.400  1.00  0.00    -0.000 C 
BRANCH  27  28
ATOM     28  C   UNL     1       3.812   9.870  -1.945  1.00  0.00    -0.000 C 
BRANCH  28  29
ATOM     29  C   UNL     1       2.635   9.277  -1.150  1.00  0.00    -0.003 C 
ATOM     30  C   UNL     1       1.313   9.924  -1.580  1.00  0.00     0.004 C 
ENDBRANCH  28  29
ENDBRANCH  27  28
ENDBRANCH  26  27
ENDBRANCH  25  26
ENDBRANCH  24  25
ENDBRANCH  23  24
ENDBRANCH  22  23
ENDBRANCH  21  22
ENDBRANCH  20  21
ENDBRANCH  19  20
ENDBRANCH  18  19
ENDBRANCH  17  18
ENDBRANCH   1  17
TORSDOF 26
ENDMDL
MODEL 4
REMARK VINA RESULT:    -2.059      4.434      8.691
REMARK INTER + INTRA:          -7.613
REMARK INTER:                  -6.300
REMARK INTRA:                  -1.313
REMARK UNBOUND:                -2.425
REMARK SMILES CCCCCCCCCCCCCCCCCCCCCCCCCCCC(=O)[O-]
REMARK SMILES IDX 15 1 16 2 17 3 18 4 19 5 20 6 21 7 22 8 23 9 24 10 25 11
REMARK SMILES IDX 26 12 27 13 28 14 29 15 30 16 14 17 13 18 12 19 11 20 10 21
REMARK SMILES IDX 9 22 8 23 7 24 6 25 5 26 4 27 3 28 2 29 1 30
REMARK H PARENT
REMARK Flexibility Score: inf
ROOT
ATOM      1  C   UNL     1      -1.511  15.945  -3.437  1.00  0.00     0.000 C 
ENDROOT
BRANCH   1   2
ATOM      2  C   UNL     1      -0.219  16.120  -2.624  1.00  0.00     0.000 C 
BRANCH   2   3
ATOM      3  C   UNL     1      -0.355  15.580  -1.187  1.00  0.00     0.000 C 
BRANCH   3   4
ATOM      4  C   UNL     1       0.002  16.642  -0.138  1.00  0.00     0.000 C 
BRANCH   4   5
ATOM      5  C   UNL     1       1.175  16.209   0.756  1.00  0.00     0.000 C 
BRANCH   5   6
ATOM      6  C   UNL     1       1.437  17.260   1.839  1.00  0.00     0.000 C 
BRANCH   6   7
ATOM      7  C   UNL     1       1.923  16.622   3.159  1.00  0.00     0.000 C 
BRANCH   7   8
ATOM      8  C   UNL     1       1.458  17.408   4.410  1.00  0.00     0.000 C 
BRANCH   8   9
ATOM      9  C   UNL     1       0.736  16.637   5.556  1.00  0.00     0.000 C 
BRANCH   9  10
ATOM     10  C   UNL     1      -0.804  16.722   5.653  1.00  0.00     0.000 C 
BRANCH  10  11
ATOM     11  C   UNL     1      -1.384  15.931   6.843  1.00  0.00     0.000 C 
BRANCH  11  12
ATOM     12  C   UNL     1      -2.925  15.848   6.833  1.00  0.00     0.006 C 
BRANCH  12  13
ATOM     13  C   UNL     1      -3.582  16.321   8.142  1.00  0.00     0.053 C 
BRANCH  13  14
ATOM     14  C   UNL     1      -4.734  15.443   8.555  1.00  0.00     0.041 C 
ATOM     15  O   UNL     1      -5.333  15.658   9.648  1.00  0.00    -0.550 OA
ATOM     16  O   UNL     1      -5.156  14.398   7.731  1.00  0.00    -0.550 OA
ENDBRANCH  13  14
ENDBRANCH  12  13
ENDBRANCH  11  12
ENDBRANCH  10  11
ENDBRANCH   9  10
ENDBRANCH   8   9
ENDBRANCH   7   8
ENDBRANCH   6   7
ENDBRANCH   5   6
ENDBRANCH   4   5
ENDBRANCH   3   4
ENDBRANCH   2   3
ENDBRANCH   1   2
BRANCH   1  17
ATOM     17  C   UNL     1      -1.330  16.053  -4.965  1.00  0.00     0.000 C 
BRANCH  17  18
ATOM     18  C   UNL     1      -2.628  15.882  -5.784  1.00  0.00     0.000 C 
BRANCH  18  19
ATOM     19  C   UNL     1      -3.007  14.424  -6.107  1.00  0.00     0.000 C 
BRANCH  19  20
ATOM     20  C   UNL     1      -3.256  13.528  -4.879  1.00  0.00     0.000 C 
BRANCH  20  21
ATOM     21  C   UNL     1      -2.856  12.047  -5.070  1.00  0.00     0.000 C 
BRANCH  21  22
ATOM     22  C   UNL     1      -1.716  11.591  -4.133  1.00  0.00    -0.000 C 
BRANCH  22  23
ATOM     23  C   UNL     1      -0.501  12.538  -4.190  1.00  0.00    -0.000 C 
BRANCH  23  24
ATOM     24  C   UNL     1       0.810  11.845  -3.794  1.00  0.00    -0.000 C 
BRANCH  24  25
ATOM     25  C   UNL     1       0.743  11.212  -2.390  1.00  0.00    -0.000 C 
BRANCH  25  26
ATOM     26  C   UNL     1       1.751  10.047  -2.243  1.00  0.00    -0.000 C 
BRANCH  26  27
ATOM     27  C   UNL     1       1.897   9.539  -0.791  1.00  0.00    -0.000 C 
BRANCH  27  28
ATOM     28  C   UNL     1       1.273   8.152  -0.525  1.00  0.00    -0.000 C 
BRANCH  28  29
ATOM     29  C   UNL     1       1.484   7.667   0.921  1.00  0.00    -0.003 C 
ATOM     30  C   UNL     1       2.781   6.856   1.033  1.00  0.00     0.004 C 
ENDBRANCH  28  29
ENDBRANCH  27  28
ENDBRANCH  26  27
ENDBRANCH  25  26
ENDBRANCH  24  25
ENDBRANCH  23  24
ENDBRANCH  22  23
ENDBRANCH  21  22
ENDBRANCH  20  21
ENDBRANCH  19  20
ENDBRANCH  18  19
ENDBRANCH  17  18
ENDBRANCH   1  17
TORSDOF 26
ENDMDL
MODEL 5
REMARK VINA RESULT:    -1.602      4.109      8.700
REMARK INTER + INTRA:          -6.462
REMARK INTER:                  -4.813
REMARK INTRA:                  -1.649
REMARK UNBOUND:                -2.425
REMARK SMILES CCCCCCCCCCCCCCCCCCCCCCCCCCCC(=O)[O-]
REMARK SMILES IDX 15 1 16 2 17 3 18 4 19 5 20 6 21 7 22 8 23 9 24 10 25 11
REMARK SMILES IDX 26 12 27 13 28 14 29 15 30 16 14 17 13 18 12 19 11 20 10 21
REMARK SMILES IDX 9 22 8 23 7 24 6 25 5 26 4 27 3 28 2 29 1 30
REMARK H PARENT
REMARK Flexibility Score: inf
ROOT
ATOM      1  C   UNL     1      -0.743  15.907  -4.629  1.00  0.00     0.000 C 
ENDROOT
BRANCH   1   2
ATOM      2  C   UNL     1      -1.208  15.845  -3.166  1.00  0.00     0.000 C 
BRANCH   2   3
ATOM      3  C   UNL     1      -0.026  15.815  -2.178  1.00  0.00     0.000 C 
BRANCH   3   4
ATOM      4  C   UNL     1      -0.450  16.223  -0.761  1.00  0.00     0.000 C 
BRANCH   4   5
ATOM      5  C   UNL     1       0.711  16.145   0.243  1.00  0.00     0.000 C 
BRANCH   5   6
ATOM      6  C   UNL     1       0.597  17.267   1.279  1.00  0.00     0.000 C 
BRANCH   6   7
ATOM      7  C   UNL     1       1.866  17.379   2.153  1.00  0.00     0.000 C 
BRANCH   7   8
ATOM      8  C   UNL     1       1.758  16.569   3.469  1.00  0.00     0.000 C 
BRANCH   8   9
ATOM      9  C   UNL     1       1.442  17.327   4.793  1.00  0.00     0.000 C 
BRANCH   9  10
ATOM     10  C   UNL     1       0.622  16.603   5.885  1.00  0.00     0.000 C 
BRANCH  10  11
ATOM     11  C   UNL     1      -0.897  16.622   5.621  1.00  0.00     0.000 C 
BRANCH  11  12
ATOM     12  C   UNL     1      -1.743  16.313   6.873  1.00  0.00     0.006 C 
BRANCH  12  13
ATOM     13  C   UNL     1      -3.019  15.503   6.577  1.00  0.00     0.053 C 
BRANCH  13  14
ATOM     14  C   UNL     1      -4.045  15.632   7.673  1.00  0.00     0.041 C 
ATOM     15  O   UNL     1      -4.995  14.800   7.749  1.00  0.00    -0.550 OA
ATOM     16  O   UNL     1      -3.948  16.656   8.616  1.00  0.00    -0.550 OA
ENDBRANCH  13  14
ENDBRANCH  12  13
ENDBRANCH  11  12
ENDBRANCH  10  11
ENDBRANCH   9  10
ENDBRANCH   8   9
ENDBRANCH   7   8
ENDBRANCH   6   7
ENDBRANCH   5   6
ENDBRANCH   4   5
ENDBRANCH   3   4
ENDBRANCH   2   3
ENDBRANCH   1   2
BRANCH   1  17
ATOM     17  C   UNL     1      -1.549  15.020  -5.599  1.00  0.00     0.000 C 
BRANCH  17  18
ATOM     18  C   UNL     1      -2.939  14.592  -5.079  1.00  0.00     0.000 C 
BRANCH  18  19
ATOM     19  C   UNL     1      -3.043  13.120  -4.634  1.00  0.00     0.000 C 
BRANCH  19  20
ATOM     20  C   UNL     1      -1.841  12.237  -5.019  1.00  0.00     0.000 C 
BRANCH  20  21
ATOM     21  C   UNL     1      -1.124  11.569  -3.824  1.00  0.00     0.000 C 
BRANCH  21  22
ATOM     22  C   UNL     1       0.360  11.979  -3.689  1.00  0.00    -0.000 C 
BRANCH  22  23
ATOM     23  C   UNL     1       1.167  10.977  -2.841  1.00  0.00    -0.000 C 
BRANCH  23  24
ATOM     24  C   UNL     1       0.333  10.344  -1.718  1.00  0.00    -0.000 C 
BRANCH  24  25
ATOM     25  C   UNL     1       1.200   9.871  -0.535  1.00  0.00    -0.000 C 
BRANCH  25  26
ATOM     26  C   UNL     1       2.003   8.597  -0.893  1.00  0.00    -0.000 C 
BRANCH  26  27
ATOM     27  C   UNL     1       3.465   8.631  -0.393  1.00  0.00    -0.000 C 
BRANCH  27  28
ATOM     28  C   UNL     1       3.653   8.225   1.085  1.00  0.00    -0.000 C 
BRANCH  28  29
ATOM     29  C   UNL     1       2.848   6.970   1.468  1.00  0.00    -0.003 C 
ATOM     30  C   UNL     1       3.750   5.730   1.462  1.00  0.00     0.004 C 
ENDBRANCH  28  29
ENDBRANCH  27  28
ENDBRANCH  26  27
ENDBRANCH  25  26
ENDBRANCH  24  25
ENDBRANCH  23  24
ENDBRANCH  22  23
ENDBRANCH  21  22
ENDBRANCH  20  21
ENDBRANCH  19  20
ENDBRANCH  18  19
ENDBRANCH  17  18
ENDBRANCH   1  17
TORSDOF 26
ENDMDL
MODEL 6
REMARK VINA RESULT:    -1.600      4.803      8.793
REMARK INTER + INTRA:          -6.457
REMARK INTER:                  -4.732
REMARK INTRA:                  -1.726
REMARK UNBOUND:                -2.425
REMARK SMILES CCCCCCCCCCCCCCCCCCCCCCCCCCCC(=O)[O-]
REMARK SMILES IDX 15 1 16 2 17 3 18 4 19 5 20 6 21 7 22 8 23 9 24 10 25 11
REMARK SMILES IDX 26 12 27 13 28 14 29 15 30 16 14 17 13 18 12 19 11 20 10 21
REMARK SMILES IDX 9 22 8 23 7 24 6 25 5 26 4 27 3 28 2 29 1 30
REMARK H PARENT
REMARK Flexibility Score: inf
ROOT
ATOM      1  C   UNL     1      -0.704  16.212  -2.735  1.00  0.00     0.000 C 
ENDROOT
BRANCH   1   2
ATOM      2  C   UNL     1       0.077  15.593  -1.564  1.00  0.00     0.000 C 
BRANCH   2   3
ATOM      3  C   UNL     1      -0.085  16.400  -0.262  1.00  0.00     0.000 C 
BRANCH   3   4
ATOM      4  C   UNL     1       1.141  16.270   0.651  1.00  0.00     0.000 C 
BRANCH   4   5
ATOM      5  C   UNL     1       1.062  17.200   1.873  1.00  0.00     0.000 C 
BRANCH   5   6
ATOM      6  C   UNL     1       1.964  16.682   2.997  1.00  0.00     0.000 C 
BRANCH   6   7
ATOM      7  C   UNL     1       1.908  17.586   4.248  1.00  0.00     0.000 C 
BRANCH   7   8
ATOM      8  C   UNL     1       1.216  16.901   5.452  1.00  0.00     0.000 C 
BRANCH   8   9
ATOM      9  C   UNL     1      -0.341  16.858   5.499  1.00  0.00     0.000 C 
BRANCH   9  10
ATOM     10  C   UNL     1      -1.029  15.969   6.559  1.00  0.00     0.000 C 
BRANCH  10  11
ATOM     11  C   UNL     1      -2.556  15.867   6.371  1.00  0.00     0.000 C 
BRANCH  11  12
ATOM     12  C   UNL     1      -3.346  15.980   7.691  1.00  0.00     0.006 C 
BRANCH  12  13
ATOM     13  C   UNL     1      -4.657  15.173   7.702  1.00  0.00     0.053 C 
BRANCH  13  14
ATOM     14  C   UNL     1      -5.184  14.957   9.097  1.00  0.00     0.041 C 
ATOM     15  O   UNL     1      -5.258  13.786   9.570  1.00  0.00    -0.550 OA
ATOM     16  O   UNL     1      -5.581  16.042   9.879  1.00  0.00    -0.550 OA
ENDBRANCH  13  14
ENDBRANCH  12  13
ENDBRANCH  11  12
ENDBRANCH  10  11
ENDBRANCH   9  10
ENDBRANCH   8   9
ENDBRANCH   7   8
ENDBRANCH   6   7
ENDBRANCH   5   6
ENDBRANCH   4   5
ENDBRANCH   3   4
ENDBRANCH   2   3
ENDBRANCH   1   2
BRANCH   1  17
ATOM     17  C   UNL     1       0.175  16.749  -3.883  1.00  0.00     0.000 C 
BRANCH  17  18
ATOM     18  C   UNL     1      -0.533  16.833  -5.253  1.00  0.00     0.000 C 
BRANCH  18  19
ATOM     19  C   UNL     1      -2.072  16.872  -5.190  1.00  0.00     0.000 C 
BRANCH  19  20
ATOM     20  C   UNL     1      -2.774  15.570  -5.621  1.00  0.00     0.000 C 
BRANCH  20  21
ATOM     21  C   UNL     1      -1.860  14.323  -5.645  1.00  0.00     0.000 C 
BRANCH  21  22
ATOM     22  C   UNL     1      -2.506  13.076  -5.001  1.00  0.00    -0.000 C 
BRANCH  22  23
ATOM     23  C   UNL     1      -1.475  12.200  -4.263  1.00  0.00    -0.000 C 
BRANCH  23  24
ATOM     24  C   UNL     1      -0.090  12.858  -4.180  1.00  0.00    -0.000 C 
BRANCH  24  25
ATOM     25  C   UNL     1       0.974  11.918  -3.581  1.00  0.00    -0.000 C 
BRANCH  25  26
ATOM     26  C   UNL     1       0.334  10.843  -2.670  1.00  0.00    -0.000 C 
BRANCH  26  27
ATOM     27  C   UNL     1       1.264  10.368  -1.530  1.00  0.00    -0.000 C 
BRANCH  27  28
ATOM     28  C   UNL     1       0.762   9.128  -0.760  1.00  0.00    -0.000 C 
BRANCH  28  29
ATOM     29  C   UNL     1       1.861   8.071  -0.544  1.00  0.00    -0.003 C 
ATOM     30  C   UNL     1       1.988   7.723   0.944  1.00  0.00     0.004 C 
ENDBRANCH  28  29
ENDBRANCH  27  28
ENDBRANCH  26  27
ENDBRANCH  25  26
ENDBRANCH  24  25
ENDBRANCH  23  24
ENDBRANCH  22  23
ENDBRANCH  21  22
ENDBRANCH  20  21
ENDBRANCH  19  20
ENDBRANCH  18  19
ENDBRANCH  17  18
ENDBRANCH   1  17
TORSDOF 26
ENDMDL
MODEL 7
REMARK VINA RESULT:    -1.494      3.733      6.554
REMARK INTER + INTRA:          -6.190
REMARK INTER:                  -4.996
REMARK INTRA:                  -1.195
REMARK UNBOUND:                -2.425
REMARK SMILES CCCCCCCCCCCCCCCCCCCCCCCCCCCC(=O)[O-]
REMARK SMILES IDX 15 1 16 2 17 3 18 4 19 5 20 6 21 7 22 8 23 9 24 10 25 11
REMARK SMILES IDX 26 12 27 13 28 14 29 15 30 16 14 17 13 18 12 19 11 20 10 21
REMARK SMILES IDX 9 22 8 23 7 24 6 25 5 26 4 27 3 28 2 29 1 30
REMARK H PARENT
REMARK Flexibility Score: inf
ROOT
ATOM      1  C   UNL     1      -1.092  16.624  -2.877  1.00  0.00     0.000 C 
ENDROOT
BRANCH   1   2
ATOM      2  C   UNL     1      -0.890  15.967  -4.252  1.00  0.00     0.000 C 
BRANCH   2   3
ATOM      3  C   UNL     1      -1.732  16.643  -5.351  1.00  0.00     0.000 C 
BRANCH   3   4
ATOM      4  C   UNL     1      -2.670  15.649  -6.049  1.00  0.00     0.000 C 
BRANCH   4   5
ATOM      5  C   UNL     1      -2.147  14.205  -5.982  1.00  0.00     0.000 C 
BRANCH   5   6
ATOM      6  C   UNL     1      -3.288  13.238  -5.650  1.00  0.00     0.000 C 
BRANCH   6   7
ATOM      7  C   UNL     1      -2.942  12.325  -4.453  1.00  0.00     0.000 C 
BRANCH   7   8
ATOM      8  C   UNL     1      -1.537  11.686  -4.574  1.00  0.00     0.000 C 
BRANCH   8   9
ATOM      9  C   UNL     1      -0.295  12.514  -4.128  1.00  0.00     0.000 C 
BRANCH   9  10
ATOM     10  C   UNL     1       0.875  11.783  -3.432  1.00  0.00     0.000 C 
BRANCH  10  11
ATOM     11  C   UNL     1       0.417  10.841  -2.300  1.00  0.00     0.000 C 
BRANCH  11  12
ATOM     12  C   UNL     1       1.540   9.927  -1.769  1.00  0.00     0.006 C 
BRANCH  12  13
ATOM     13  C   UNL     1       1.474   9.676  -0.251  1.00  0.00     0.053 C 
BRANCH  13  14
ATOM     14  C   UNL     1       1.985   8.310   0.126  1.00  0.00     0.041 C 
ATOM     15  O   UNL     1       3.152   7.956  -0.212  1.00  0.00    -0.550 OA
ATOM     16  O   UNL     1       1.184   7.434   0.860  1.00  0.00    -0.550 OA
ENDBRANCH  13  14
ENDBRANCH  12  13
ENDBRANCH  11  12
ENDBRANCH  10  11
ENDBRANCH   9  10
ENDBRANCH   8   9
ENDBRANCH   7   8
ENDBRANCH   6   7
ENDBRANCH   5   6
ENDBRANCH   4   5
ENDBRANCH   3   4
ENDBRANCH   2   3
ENDBRANCH   1   2
BRANCH   1  17
ATOM     17  C   UNL     1      -0.972  15.661  -1.680  1.00  0.00     0.000 C 
BRANCH  17  18
ATOM     18  C   UNL     1       0.367  15.742  -0.915  1.00  0.00     0.000 C 
BRANCH  18  19
ATOM     19  C   UNL     1       0.343  16.625   0.349  1.00  0.00     0.000 C 
BRANCH  19  20
ATOM     20  C   UNL     1       1.524  16.411   1.314  1.00  0.00     0.000 C 
BRANCH  20  21
ATOM     21  C   UNL     1       1.589  17.420   2.484  1.00  0.00     0.000 C 
BRANCH  21  22
ATOM     22  C   UNL     1       1.912  16.763   3.845  1.00  0.00    -0.000 C 
BRANCH  22  23
ATOM     23  C   UNL     1       1.119  17.400   5.002  1.00  0.00    -0.000 C 
BRANCH  23  24
ATOM     24  C   UNL     1       0.387  16.361   5.863  1.00  0.00    -0.000 C 
BRANCH  24  25
ATOM     25  C   UNL     1      -1.090  16.729   6.102  1.00  0.00    -0.000 C 
BRANCH  25  26
ATOM     26  C   UNL     1      -1.811  15.659   6.958  1.00  0.00    -0.000 C 
BRANCH  26  27
ATOM     27  C   UNL     1      -3.336  15.883   7.067  1.00  0.00    -0.000 C 
BRANCH  27  28
ATOM     28  C   UNL     1      -3.758  16.997   8.049  1.00  0.00    -0.000 C 
BRANCH  28  29
ATOM     29  C   UNL     1      -4.143  16.456   9.438  1.00  0.00    -0.003 C 
ATOM     30  C   UNL     1      -5.224  15.376   9.315  1.00  0.00     0.004 C 
ENDBRANCH  28  29
ENDBRANCH  27  28
ENDBRANCH  26  27
ENDBRANCH  25  26
ENDBRANCH  24  25
ENDBRANCH  23  24
ENDBRANCH  22  23
ENDBRANCH  21  22
ENDBRANCH  20  21
ENDBRANCH  19  20
ENDBRANCH  18  19
ENDBRANCH  17  18
ENDBRANCH   1  17
TORSDOF 26
ENDMDL
MODEL 8
REMARK VINA RESULT:    -1.155      4.665      7.735
REMARK INTER + INTRA:          -5.336
REMARK INTER:                  -3.878
REMARK INTRA:                  -1.458
REMARK UNBOUND:                -2.425
REMARK SMILES CCCCCCCCCCCCCCCCCCCCCCCCCCCC(=O)[O-]
REMARK SMILES IDX 15 1 16 2 17 3 18 4 19 5 20 6 21 7 22 8 23 9 24 10 25 11
REMARK SMILES IDX 26 12 27 13 28 14 29 15 30 16 14 17 13 18 12 19 11 20 10 21
REMARK SMILES IDX 9 22 8 23 7 24 6 25 5 26 4 27 3 28 2 29 1 30
REMARK H PARENT
REMARK Flexibility Score: inf
ROOT
ATOM      1  C   UNL     1       0.586  16.238  -0.257  1.00  0.00     0.000 C 
ENDROOT
BRANCH   1   2
ATOM      2  C   UNL     1      -0.753  15.871  -0.917  1.00  0.00     0.000 C 
BRANCH   2   3
ATOM      3  C   UNL     1      -0.793  16.252  -2.409  1.00  0.00     0.000 C 
BRANCH   3   4
ATOM      4  C   UNL     1      -2.094  15.797  -3.084  1.00  0.00     0.000 C 
BRANCH   4   5
ATOM      5  C   UNL     1      -2.001  15.832  -4.618  1.00  0.00     0.000 C 
BRANCH   5   6
ATOM      6  C   UNL     1      -1.394  14.530  -5.146  1.00  0.00     0.000 C 
BRANCH   6   7
ATOM      7  C   UNL     1       0.120  14.666  -5.419  1.00  0.00     0.000 C 
BRANCH   7   8
ATOM      8  C   UNL     1       0.964  13.620  -4.648  1.00  0.00     0.000 C 
BRANCH   8   9
ATOM      9  C   UNL     1       0.235  12.609  -3.713  1.00  0.00     0.000 C 
BRANCH   9  10
ATOM     10  C   UNL     1       0.935  11.275  -3.371  1.00  0.00     0.000 C 
BRANCH  10  11
ATOM     11  C   UNL     1       0.539  10.715  -1.989  1.00  0.00     0.000 C 
BRANCH  11  12
ATOM     12  C   UNL     1       1.681   9.955  -1.284  1.00  0.00     0.006 C 
BRANCH  12  13
ATOM     13  C   UNL     1       1.234   9.189  -0.026  1.00  0.00     0.053 C 
BRANCH  13  14
ATOM     14  C   UNL     1       1.972   7.887   0.144  1.00  0.00     0.041 C 
ATOM     15  O   UNL     1       2.999   7.646  -0.554  1.00  0.00    -0.550 OA
ATOM     16  O   UNL     1       1.539   6.945   1.080  1.00  0.00    -0.550 OA
ENDBRANCH  13  14
ENDBRANCH  12  13
ENDBRANCH  11  12
ENDBRANCH  10  11
ENDBRANCH   9  10
ENDBRANCH   8   9
ENDBRANCH   7   8
ENDBRANCH   6   7
ENDBRANCH   5   6
ENDBRANCH   4   5
ENDBRANCH   3   4
ENDBRANCH   2   3
ENDBRANCH   1   2
BRANCH   1  17
ATOM     17  C   UNL     1       0.465  17.144   0.984  1.00  0.00     0.000 C 
BRANCH  17  18
ATOM     18  C   UNL     1       1.781  17.347   1.767  1.00  0.00     0.000 C 
BRANCH  18  19
ATOM     19  C   UNL     1       1.876  16.573   3.096  1.00  0.00     0.000 C 
BRANCH  19  20
ATOM     20  C   UNL     1       1.549  17.398   4.355  1.00  0.00     0.000 C 
BRANCH  20  21
ATOM     21  C   UNL     1       0.963  16.578   5.527  1.00  0.00     0.000 C 
BRANCH  21  22
ATOM     22  C   UNL     1      -0.496  16.954   5.872  1.00  0.00    -0.000 C 
BRANCH  22  23
ATOM     23  C   UNL     1      -1.225  15.828   6.629  1.00  0.00    -0.000 C 
BRANCH  23  24
ATOM     24  C   UNL     1      -2.720  16.115   6.824  1.00  0.00    -0.000 C 
BRANCH  24  25
ATOM     25  C   UNL     1      -3.612  14.952   6.350  1.00  0.00    -0.000 C 
BRANCH  25  26
ATOM     26  C   UNL     1      -5.008  14.997   7.017  1.00  0.00    -0.000 C 
BRANCH  26  27
ATOM     27  C   UNL     1      -5.135  14.065   8.244  1.00  0.00    -0.000 C 
BRANCH  27  28
ATOM     28  C   UNL     1      -5.302  14.793   9.595  1.00  0.00    -0.000 C 
BRANCH  28  29
ATOM     29  C   UNL     1      -5.236  16.325   9.461  1.00  0.00    -0.003 C 
ATOM     30  C   UNL     1      -3.886  16.852   9.963  1.00  0.00     0.004 C 
ENDBRANCH  28  29
ENDBRANCH  27  28
ENDBRANCH  26  27
ENDBRANCH  25  26
ENDBRANCH  24  25
ENDBRANCH  23  24
ENDBRANCH  22  23
ENDBRANCH  21  22
ENDBRANCH  20  21
ENDBRANCH  19  20
ENDBRANCH  18  19
ENDBRANCH  17  18
ENDBRANCH   1  17
TORSDOF 26
ENDMDL
MODEL 9
REMARK VINA RESULT:    -0.996      5.614     11.107
REMARK INTER + INTRA:          -4.934
REMARK INTER:                  -3.251
REMARK INTRA:                  -1.683
REMARK UNBOUND:                -2.425
REMARK SMILES CCCCCCCCCCCCCCCCCCCCCCCCCCCC(=O)[O-]
REMARK SMILES IDX 15 1 16 2 17 3 18 4 19 5 20 6 21 7 22 8 23 9 24 10 25 11
REMARK SMILES IDX 26 12 27 13 28 14 29 15 30 16 14 17 13 18 12 19 11 20 10 21
REMARK SMILES IDX 9 22 8 23 7 24 6 25 5 26 4 27 3 28 2 29 1 30
REMARK H PARENT
REMARK Flexibility Score: inf
ROOT
ATOM      1  C   UNL     1      -1.720  13.659  -3.855  1.00  0.00     0.000 C 
ENDROOT
BRANCH   1   2
ATOM      2  C   UNL     1      -2.906  12.941  -4.518  1.00  0.00     0.000 C 
BRANCH   2   3
ATOM      3  C   UNL     1      -3.543  13.779  -5.642  1.00  0.00     0.000 C 
BRANCH   3   4
ATOM      4  C   UNL     1      -4.101  15.110  -5.121  1.00  0.00     0.000 C 
BRANCH   4   5
ATOM      5  C   UNL     1      -3.669  16.305  -5.987  1.00  0.00     0.000 C 
BRANCH   5   6
ATOM      6  C   UNL     1      -2.370  16.912  -5.450  1.00  0.00     0.000 C 
BRANCH   6   7
ATOM      7  C   UNL     1      -2.444  18.452  -5.362  1.00  0.00     0.000 C 
BRANCH   7   8
ATOM      8  C   UNL     1      -3.668  19.037  -6.110  1.00  0.00     0.000 C 
BRANCH   8   9
ATOM      9  C   UNL     1      -5.002  19.230  -5.330  1.00  0.00     0.000 C 
BRANCH   9  10
ATOM     10  C   UNL     1      -6.329  19.252  -6.121  1.00  0.00     0.000 C 
BRANCH  10  11
ATOM     11  C   UNL     1      -7.533  19.724  -5.280  1.00  0.00     0.000 C 
BRANCH  11  12
ATOM     12  C   UNL     1      -8.456  20.709  -6.027  1.00  0.00     0.006 C 
BRANCH  12  13
ATOM     13  C   UNL     1      -8.070  22.187  -5.838  1.00  0.00     0.053 C 
BRANCH  13  14
ATOM     14  C   UNL     1      -8.884  22.857  -4.762  1.00  0.00     0.041 C 
ATOM     15  O   UNL     1      -9.201  24.077  -4.875  1.00  0.00    -0.550 OA
ATOM     16  O   UNL     1      -9.304  22.138  -3.642  1.00  0.00    -0.550 OA
ENDBRANCH  13  14
ENDBRANCH  12  13
ENDBRANCH  11  12
ENDBRANCH  10  11
ENDBRANCH   9  10
ENDBRANCH   8   9
ENDBRANCH   7   8
ENDBRANCH   6   7
ENDBRANCH   5   6
ENDBRANCH   4   5
ENDBRANCH   3   4
ENDBRANCH   2   3
ENDBRANCH   1   2
BRANCH   1  17
ATOM     17  C   UNL     1      -0.349  13.359  -4.493  1.00  0.00     0.000 C 
BRANCH  17  18
ATOM     18  C   UNL     1       0.696  14.487  -4.339  1.00  0.00     0.000 C 
BRANCH  18  19
ATOM     19  C   UNL     1       2.154  14.064  -4.601  1.00  0.00     0.000 C 
BRANCH  19  20
ATOM     20  C   UNL     1       2.422  13.484  -6.003  1.00  0.00     0.000 C 
BRANCH  20  21
ATOM     21  C   UNL     1       3.315  12.222  -6.018  1.00  0.00     0.000 C 
BRANCH  21  22
ATOM     22  C   UNL     1       3.901  11.866  -4.633  1.00  0.00    -0.000 C 
BRANCH  22  23
ATOM     23  C   UNL     1       3.885  10.350  -4.365  1.00  0.00    -0.000 C 
BRANCH  23  24
ATOM     24  C   UNL     1       2.705   9.914  -3.485  1.00  0.00    -0.000 C 
BRANCH  24  25
ATOM     25  C   UNL     1       3.046   9.944  -1.983  1.00  0.00    -0.000 C 
BRANCH  25  26
ATOM     26  C   UNL     1       3.932   8.741  -1.577  1.00  0.00    -0.000 C 
BRANCH  26  27
ATOM     27  C   UNL     1       3.135   7.574  -0.951  1.00  0.00    -0.000 C 
BRANCH  27  28
ATOM     28  C   UNL     1       2.009   8.004   0.014  1.00  0.00    -0.000 C 
BRANCH  28  29
ATOM     29  C   UNL     1       1.862   7.060   1.221  1.00  0.00    -0.003 C 
ATOM     30  C   UNL     1       3.205   6.399   1.555  1.00  0.00     0.004 C 
ENDBRANCH  28  29
ENDBRANCH  27  28
ENDBRANCH  26  27
ENDBRANCH  25  26
ENDBRANCH  24  25
ENDBRANCH  23  24
ENDBRANCH  22  23
ENDBRANCH  21  22
ENDBRANCH  20  21
ENDBRANCH  19  20
ENDBRANCH  18  19
ENDBRANCH  17  18
ENDBRANCH   1  17
TORSDOF 26
ENDMDL
