MODEL 1
REMARK VINA RESULT:    -5.025      0.000      0.000
REMARK INTER + INTRA:          -6.895
REMARK INTER:                  -6.347
REMARK INTRA:                  -0.548
REMARK UNBOUND:                -0.548
REMARK SMILES Oc1ccc(CCc2cc(O)cc(O)c2)cc1
REMARK SMILES IDX 6 1 5 2 4 3 3 4 2 5 16 6 17 7 1 8 7 10 8 11 15 12 9 13 13 14
REMARK SMILES IDX 10 15 12 16 14 17 11 19
REMARK H PARENT 1 9 14 18 11 20
REMARK Flexibility Score: inf
ROOT
ATOM      1  C   UNL     1     131.961 146.770 119.750  1.00  0.00     0.040 C 
ENDROOT
BRANCH   1   2
ATOM      2  C   UNL     1     133.144 145.855 119.581  1.00  0.00    -0.047 A 
ATOM      3  C   UNL     1     132.997 144.468 119.752  1.00  0.00     0.007 A 
ATOM      4  C   UNL     1     134.089 143.615 119.562  1.00  0.00     0.046 A 
ATOM      5  C   UNL     1     135.335 144.139 119.190  1.00  0.00     0.115 A 
ATOM      6  C   UNL     1     134.390 146.372 119.194  1.00  0.00     0.007 A 
ATOM      7  C   UNL     1     135.481 145.518 119.005  1.00  0.00     0.046 A 
BRANCH   5   8
ATOM      8  O   UNL     1     136.430 143.299 118.998  1.00  0.00    -0.508 OA
ATOM      9  H   UNL     1     136.320 142.295 118.925  1.00  0.00     0.293 HD
ENDBRANCH   5   8
ENDBRANCH   1   2
BRANCH   1  10
ATOM     10  C   UNL     1     131.310 146.563 121.120  1.00  0.00     0.040 C 
BRANCH  10  11
ATOM     11  C   UNL     1     129.887 146.099 120.965  1.00  0.00    -0.040 A 
ATOM     12  C   UNL     1     129.048 146.004 122.087  1.00  0.00     0.050 A 
ATOM     13  C   UNL     1     129.370 145.811 119.691  1.00  0.00     0.050 A 
ATOM     14  C   UNL     1     127.712 145.604 121.939  1.00  0.00     0.119 A 
ATOM     15  C   UNL     1     128.038 145.412 119.541  1.00  0.00     0.119 A 
ATOM     16  C   UNL     1     127.211 145.307 120.667  1.00  0.00     0.092 A 
BRANCH  14  17
ATOM     17  O   UNL     1     126.875 145.502 123.048  1.00  0.00    -0.508 OA
ATOM     18  H   UNL     1     126.613 144.602 123.433  1.00  0.00     0.293 HD
ENDBRANCH  14  17
BRANCH  15  19
ATOM     19  O   UNL     1     127.547 145.124 118.270  1.00  0.00    -0.508 OA
ATOM     20  H   UNL     1     127.278 145.862 117.627  1.00  0.00     0.293 HD
ENDBRANCH  15  19
ENDBRANCH  10  11
ENDBRANCH   1  10
TORSDOF 6
ENDMDL
MODEL 2
REMARK VINA RESULT:    -5.001      0.102      2.350
REMARK INTER + INTRA:          -6.865
REMARK INTER:                  -6.315
REMARK INTRA:                  -0.549
REMARK UNBOUND:                -0.548
REMARK SMILES Oc1ccc(CCc2cc(O)cc(O)c2)cc1
REMARK SMILES IDX 6 1 5 2 4 3 3 4 2 5 16 6 17 7 1 8 7 10 8 11 15 12 9 13 13 14
REMARK SMILES IDX 10 15 12 16 14 17 11 19
REMARK H PARENT 1 9 14 18 11 20
REMARK Flexibility Score: inf
ROOT
ATOM      1  C   UNL     1     131.985 146.765 119.751  1.00  0.00     0.040 C 
ENDROOT
BRANCH   1   2
ATOM      2  C   UNL     1     133.162 145.854 119.523  1.00  0.00    -0.047 A 
ATOM      3  C   UNL     1     134.407 146.387 119.147  1.00  0.00     0.007 A 
ATOM      4  C   UNL     1     135.508 145.544 118.968  1.00  0.00     0.046 A 
ATOM      5  C   UNL     1     135.378 144.163 119.173  1.00  0.00     0.115 A 
ATOM      6  C   UNL     1     133.042 144.473 119.741  1.00  0.00     0.007 A 
ATOM      7  C   UNL     1     134.144 143.632 119.562  1.00  0.00     0.046 A 
BRANCH   5   8
ATOM      8  O   UNL     1     136.469 143.314 118.998  1.00  0.00    -0.508 OA
ATOM      9  H   UNL     1     136.796 143.056 118.075  1.00  0.00     0.293 HD
ENDBRANCH   5   8
ENDBRANCH   1   2
BRANCH   1  10
ATOM     10  C   UNL     1     131.340 146.481 121.110  1.00  0.00     0.040 C 
BRANCH  10  11
ATOM     11  C   UNL     1     129.904 146.066 120.938  1.00  0.00    -0.040 A 
ATOM     12  C   UNL     1     129.428 145.670 119.676  1.00  0.00     0.050 A 
ATOM     13  C   UNL     1     129.042 146.017 122.045  1.00  0.00     0.050 A 
ATOM     14  C   UNL     1     128.100 145.251 119.521  1.00  0.00     0.119 A 
ATOM     15  C   UNL     1     127.716 145.599 121.893  1.00  0.00     0.119 A 
ATOM     16  C   UNL     1     127.246 145.219 120.629  1.00  0.00     0.092 A 
BRANCH  14  17
ATOM     17  O   UNL     1     127.619 144.862 118.272  1.00  0.00    -0.508 OA
ATOM     18  H   UNL     1     127.652 145.487 117.475  1.00  0.00     0.293 HD
ENDBRANCH  14  17
BRANCH  15  19
ATOM     19  O   UNL     1     126.875 145.565 123.003  1.00  0.00    -0.508 OA
ATOM     20  H   UNL     1     126.939 144.823 123.692  1.00  0.00     0.293 HD
ENDBRANCH  15  19
ENDBRANCH  10  11
ENDBRANCH   1  10
TORSDOF 6
ENDMDL
MODEL 3
REMARK VINA RESULT:    -4.943      1.475      1.834
REMARK INTER + INTRA:          -6.791
REMARK INTER:                  -6.379
REMARK INTRA:                  -0.412
REMARK UNBOUND:                -0.548
REMARK SMILES Oc1ccc(CCc2cc(O)cc(O)c2)cc1
REMARK SMILES IDX 6 1 5 2 4 3 3 4 2 5 16 6 17 7 1 8 7 10 8 11 15 12 9 13 13 14
REMARK SMILES IDX 10 15 12 16 14 17 11 19
REMARK H PARENT 1 9 14 18 11 20
REMARK Flexibility Score: inf
ROOT
ATOM      1  C   UNL     1     132.061 146.220 119.668  1.00  0.00     0.040 C 
ENDROOT
BRANCH   1   2
ATOM      2  C   UNL     1     133.534 146.326 119.956  1.00  0.00    -0.047 A 
ATOM      3  C   UNL     1     134.452 146.480 118.903  1.00  0.00     0.007 A 
ATOM      4  C   UNL     1     135.818 146.612 119.174  1.00  0.00     0.046 A 
ATOM      5  C   UNL     1     136.277 146.602 120.498  1.00  0.00     0.115 A 
ATOM      6  C   UNL     1     133.999 146.331 121.281  1.00  0.00     0.007 A 
ATOM      7  C   UNL     1     135.364 146.464 121.549  1.00  0.00     0.046 A 
BRANCH   5   8
ATOM      8  O   UNL     1     137.636 146.733 120.779  1.00  0.00    -0.508 OA
ATOM      9  H   UNL     1     138.207 147.429 120.316  1.00  0.00     0.293 HD
ENDBRANCH   5   8
ENDBRANCH   1   2
BRANCH   1  10
ATOM     10  C   UNL     1     131.242 146.585 120.909  1.00  0.00     0.040 C 
BRANCH  10  11
ATOM     11  C   UNL     1     129.836 146.061 120.788  1.00  0.00    -0.040 A 
ATOM     12  C   UNL     1     129.015 145.969 121.924  1.00  0.00     0.050 A 
ATOM     13  C   UNL     1     129.315 145.713 119.531  1.00  0.00     0.050 A 
ATOM     14  C   UNL     1     127.695 145.513 121.807  1.00  0.00     0.119 A 
ATOM     15  C   UNL     1     127.998 145.257 119.411  1.00  0.00     0.119 A 
ATOM     16  C   UNL     1     127.190 145.155 120.552  1.00  0.00     0.092 A 
BRANCH  14  17
ATOM     17  O   UNL     1     126.877 145.412 122.930  1.00  0.00    -0.508 OA
ATOM     18  H   UNL     1     127.197 145.703 123.847  1.00  0.00     0.293 HD
ENDBRANCH  14  17
BRANCH  15  19
ATOM     19  O   UNL     1     127.502 144.910 118.157  1.00  0.00    -0.508 OA
ATOM     20  H   UNL     1     126.769 144.218 118.051  1.00  0.00     0.293 HD
ENDBRANCH  15  19
ENDBRANCH  10  11
ENDBRANCH   1  10
TORSDOF 6
ENDMDL
MODEL 4
REMARK VINA RESULT:    -4.892      2.298      6.266
REMARK INTER + INTRA:          -6.726
REMARK INTER:                  -6.195
REMARK INTRA:                  -0.531
REMARK UNBOUND:                -0.548
REMARK SMILES Oc1ccc(CCc2cc(O)cc(O)c2)cc1
REMARK SMILES IDX 6 1 5 2 4 3 3 4 2 5 16 6 17 7 1 8 7 10 8 11 15 12 9 13 13 14
REMARK SMILES IDX 10 15 12 16 14 17 11 19
REMARK H PARENT 1 9 14 18 11 20
REMARK Flexibility Score: inf
ROOT
ATOM      1  C   UNL     1     130.560 146.419 119.766  1.00  0.00     0.040 C 
ENDROOT
BRANCH   1   2
ATOM      2  C   UNL     1     129.638 145.239 119.915  1.00  0.00    -0.047 A 
ATOM      3  C   UNL     1     130.154 143.932 119.917  1.00  0.00     0.007 A 
ATOM      4  C   UNL     1     129.301 142.838 120.088  1.00  0.00     0.046 A 
ATOM      5  C   UNL     1     127.926 143.040 120.271  1.00  0.00     0.115 A 
ATOM      6  C   UNL     1     128.262 145.436 120.113  1.00  0.00     0.007 A 
ATOM      7  C   UNL     1     127.410 144.340 120.285  1.00  0.00     0.046 A 
BRANCH   5   8
ATOM      8  O   UNL     1     127.066 141.957 120.444  1.00  0.00    -0.508 OA
ATOM      9  H   UNL     1     127.357 141.011 120.229  1.00  0.00     0.293 HD
ENDBRANCH   5   8
ENDBRANCH   1   2
BRANCH   1  10
ATOM     10  C   UNL     1     131.355 146.649 121.054  1.00  0.00     0.040 C 
BRANCH  10  11
ATOM     11  C   UNL     1     132.833 146.584 120.783  1.00  0.00    -0.040 A 
ATOM     12  C   UNL     1     133.746 146.513 121.848  1.00  0.00     0.050 A 
ATOM     13  C   UNL     1     133.310 146.539 119.463  1.00  0.00     0.050 A 
ATOM     14  C   UNL     1     135.122 146.419 121.596  1.00  0.00     0.119 A 
ATOM     15  C   UNL     1     134.682 146.445 119.208  1.00  0.00     0.119 A 
ATOM     16  C   UNL     1     135.587 146.388 120.277  1.00  0.00     0.092 A 
BRANCH  14  17
ATOM     17  O   UNL     1     136.033 146.354 122.648  1.00  0.00    -0.508 OA
ATOM     18  H   UNL     1     136.725 145.616 122.704  1.00  0.00     0.293 HD
ENDBRANCH  14  17
BRANCH  15  19
ATOM     19  O   UNL     1     135.136 146.408 117.891  1.00  0.00    -0.508 OA
ATOM     20  H   UNL     1     136.125 146.359 117.674  1.00  0.00     0.293 HD
ENDBRANCH  15  19
ENDBRANCH  10  11
ENDBRANCH   1  10
TORSDOF 6
ENDMDL
MODEL 5
REMARK VINA RESULT:    -4.858      1.698      2.378
REMARK INTER + INTRA:          -6.683
REMARK INTER:                  -6.046
REMARK INTRA:                  -0.638
REMARK UNBOUND:                -0.548
REMARK SMILES Oc1ccc(CCc2cc(O)cc(O)c2)cc1
REMARK SMILES IDX 6 1 5 2 4 3 3 4 2 5 16 6 17 7 1 8 7 10 8 11 15 12 9 13 13 14
REMARK SMILES IDX 10 15 12 16 14 17 11 19
REMARK H PARENT 1 9 14 18 11 20
REMARK Flexibility Score: inf
ROOT
ATOM      1  C   UNL     1     131.732 143.044 120.642  1.00  0.00     0.040 C 
ENDROOT
BRANCH   1   2
ATOM      2  C   UNL     1     132.614 144.113 120.054  1.00  0.00    -0.047 A 
ATOM      3  C   UNL     1     132.360 145.468 120.323  1.00  0.00     0.007 A 
ATOM      4  C   UNL     1     133.200 146.459 119.804  1.00  0.00     0.046 A 
ATOM      5  C   UNL     1     134.306 146.104 119.019  1.00  0.00     0.115 A 
ATOM      6  C   UNL     1     133.731 143.762 119.280  1.00  0.00     0.007 A 
ATOM      7  C   UNL     1     134.569 144.754 118.761  1.00  0.00     0.046 A 
BRANCH   5   8
ATOM      8  O   UNL     1     135.149 147.082 118.497  1.00  0.00    -0.508 OA
ATOM      9  H   UNL     1     135.620 147.749 119.095  1.00  0.00     0.293 HD
ENDBRANCH   5   8
ENDBRANCH   1   2
BRANCH   1  10
ATOM     10  C   UNL     1     130.574 142.719 119.695  1.00  0.00     0.040 C 
BRANCH  10  11
ATOM     11  C   UNL     1     129.373 143.566 120.019  1.00  0.00    -0.040 A 
ATOM     12  C   UNL     1     128.984 143.760 121.355  1.00  0.00     0.050 A 
ATOM     13  C   UNL     1     128.665 144.214 118.994  1.00  0.00     0.050 A 
ATOM     14  C   UNL     1     127.885 144.576 121.660  1.00  0.00     0.119 A 
ATOM     15  C   UNL     1     127.568 145.029 119.295  1.00  0.00     0.119 A 
ATOM     16  C   UNL     1     127.178 145.206 120.630  1.00  0.00     0.092 A 
BRANCH  14  17
ATOM     17  O   UNL     1     127.490 144.768 122.982  1.00  0.00    -0.508 OA
ATOM     18  H   UNL     1     128.076 144.483 123.757  1.00  0.00     0.293 HD
ENDBRANCH  14  17
BRANCH  15  19
ATOM     19  O   UNL     1     126.875 145.657 118.264  1.00  0.00    -0.508 OA
ATOM     20  H   UNL     1     127.275 145.747 117.336  1.00  0.00     0.293 HD
ENDBRANCH  15  19
ENDBRANCH  10  11
ENDBRANCH   1  10
TORSDOF 6
ENDMDL
MODEL 6
REMARK VINA RESULT:    -4.798      4.836      6.231
REMARK INTER + INTRA:          -6.608
REMARK INTER:                  -6.065
REMARK INTRA:                  -0.543
REMARK UNBOUND:                -0.548
REMARK SMILES Oc1ccc(CCc2cc(O)cc(O)c2)cc1
REMARK SMILES IDX 6 1 5 2 4 3 3 4 2 5 16 6 17 7 1 8 7 10 8 11 15 12 9 13 13 14
REMARK SMILES IDX 10 15 12 16 14 17 11 19
REMARK H PARENT 1 9 14 18 11 20
REMARK Flexibility Score: inf
ROOT
ATOM      1  C   UNL     1     126.875 140.882 120.595  1.00  0.00     0.040 C 
ENDROOT
BRANCH   1   2
ATOM      2  C   UNL     1     127.775 139.772 120.122  1.00  0.00    -0.047 A 
ATOM      3  C   UNL     1     129.140 139.777 120.453  1.00  0.00     0.007 A 
ATOM      4  C   UNL     1     129.969 138.728 120.041  1.00  0.00     0.046 A 
ATOM      5  C   UNL     1     129.439 137.660 119.305  1.00  0.00     0.115 A 
ATOM      6  C   UNL     1     127.247 138.692 119.396  1.00  0.00     0.007 A 
ATOM      7  C   UNL     1     128.077 137.645 118.985  1.00  0.00     0.046 A 
BRANCH   5   8
ATOM      8  O   UNL     1     130.255 136.610 118.889  1.00  0.00    -0.508 OA
ATOM      9  H   UNL     1     129.977 135.644 119.010  1.00  0.00     0.293 HD
ENDBRANCH   5   8
ENDBRANCH   1   2
BRANCH   1  10
ATOM     10  C   UNL     1     127.615 141.795 121.576  1.00  0.00     0.040 C 
BRANCH  10  11
ATOM     11  C   UNL     1     127.607 143.217 121.083  1.00  0.00    -0.040 A 
ATOM     12  C   UNL     1     127.664 144.282 121.997  1.00  0.00     0.050 A 
ATOM     13  C   UNL     1     127.600 143.490 119.706  1.00  0.00     0.050 A 
ATOM     14  C   UNL     1     127.691 145.607 121.538  1.00  0.00     0.119 A 
ATOM     15  C   UNL     1     127.627 144.811 119.245  1.00  0.00     0.119 A 
ATOM     16  C   UNL     1     127.669 145.868 120.164  1.00  0.00     0.092 A 
BRANCH  14  17
ATOM     17  O   UNL     1     127.740 146.669 122.439  1.00  0.00    -0.508 OA
ATOM     18  H   UNL     1     127.501 146.546 123.416  1.00  0.00     0.293 HD
ENDBRANCH  14  17
BRANCH  15  19
ATOM     19  O   UNL     1     127.613 145.060 117.875  1.00  0.00    -0.508 OA
ATOM     20  H   UNL     1     128.467 145.059 117.328  1.00  0.00     0.293 HD
ENDBRANCH  15  19
ENDBRANCH  10  11
ENDBRANCH   1  10
TORSDOF 6
ENDMDL
MODEL 7
REMARK VINA RESULT:    -4.740      5.310      7.335
REMARK INTER + INTRA:          -6.534
REMARK INTER:                  -6.171
REMARK INTRA:                  -0.363
REMARK UNBOUND:                -0.548
REMARK SMILES Oc1ccc(CCc2cc(O)cc(O)c2)cc1
REMARK SMILES IDX 6 1 5 2 4 3 3 4 2 5 16 6 17 7 1 8 7 10 8 11 15 12 9 13 13 14
REMARK SMILES IDX 10 15 12 16 14 17 11 19
REMARK H PARENT 1 9 14 18 11 20
REMARK Flexibility Score: inf
ROOT
ATOM      1  C   UNL     1     126.986 140.820 120.855  1.00  0.00     0.040 C 
ENDROOT
BRANCH   1   2
ATOM      2  C   UNL     1     127.248 139.363 120.582  1.00  0.00    -0.047 A 
ATOM      3  C   UNL     1     127.249 138.879 119.263  1.00  0.00     0.007 A 
ATOM      4  C   UNL     1     127.526 137.532 119.008  1.00  0.00     0.046 A 
ATOM      5  C   UNL     1     127.814 136.660 120.066  1.00  0.00     0.115 A 
ATOM      6  C   UNL     1     127.552 138.488 121.637  1.00  0.00     0.007 A 
ATOM      7  C   UNL     1     127.828 137.143 121.380  1.00  0.00     0.046 A 
BRANCH   5   8
ATOM      8  O   UNL     1     128.092 135.316 119.823  1.00  0.00    -0.508 OA
ATOM      9  H   UNL     1     127.591 134.578 120.302  1.00  0.00     0.293 HD
ENDBRANCH   5   8
ENDBRANCH   1   2
BRANCH   1  10
ATOM     10  C   UNL     1     128.223 141.661 120.531  1.00  0.00     0.040 C 
BRANCH  10  11
ATOM     11  C   UNL     1     127.864 143.120 120.447  1.00  0.00    -0.040 A 
ATOM     12  C   UNL     1     127.714 143.740 119.195  1.00  0.00     0.050 A 
ATOM     13  C   UNL     1     127.622 143.859 121.616  1.00  0.00     0.050 A 
ATOM     14  C   UNL     1     127.346 145.091 119.115  1.00  0.00     0.119 A 
ATOM     15  C   UNL     1     127.256 145.207 121.539  1.00  0.00     0.119 A 
ATOM     16  C   UNL     1     127.121 145.822 120.286  1.00  0.00     0.092 A 
BRANCH  14  17
ATOM     17  O   UNL     1     127.201 145.714 117.877  1.00  0.00    -0.508 OA
ATOM     18  H   UNL     1     127.963 145.751 117.211  1.00  0.00     0.293 HD
ENDBRANCH  14  17
BRANCH  15  19
ATOM     19  O   UNL     1     127.027 145.925 122.710  1.00  0.00    -0.508 OA
ATOM     20  H   UNL     1     127.288 145.554 123.617  1.00  0.00     0.293 HD
ENDBRANCH  15  19
ENDBRANCH  10  11
ENDBRANCH   1  10
TORSDOF 6
ENDMDL
MODEL 8
REMARK VINA RESULT:    -4.733      2.589      4.104
REMARK INTER + INTRA:          -6.526
REMARK INTER:                  -5.728
REMARK INTRA:                  -0.798
REMARK UNBOUND:                -0.548
REMARK SMILES Oc1ccc(CCc2cc(O)cc(O)c2)cc1
REMARK SMILES IDX 6 1 5 2 4 3 3 4 2 5 16 6 17 7 1 8 7 10 8 11 15 12 9 13 13 14
REMARK SMILES IDX 10 15 12 16 14 17 11 19
REMARK H PARENT 1 9 14 18 11 20
REMARK Flexibility Score: inf
ROOT
ATOM      1  C   UNL     1     128.669 143.836 119.565  1.00  0.00     0.040 C 
ENDROOT
BRANCH   1   2
ATOM      2  C   UNL     1     129.975 144.572 119.699  1.00  0.00    -0.047 A 
ATOM      3  C   UNL     1     130.002 145.976 119.678  1.00  0.00     0.007 A 
ATOM      4  C   UNL     1     131.212 146.660 119.836  1.00  0.00     0.046 A 
ATOM      5  C   UNL     1     132.403 145.947 120.028  1.00  0.00     0.115 A 
ATOM      6  C   UNL     1     131.170 143.864 119.905  1.00  0.00     0.007 A 
ATOM      7  C   UNL     1     132.378 144.549 120.063  1.00  0.00     0.046 A 
BRANCH   5   8
ATOM      8  O   UNL     1     133.614 146.618 120.187  1.00  0.00    -0.508 OA
ATOM      9  H   UNL     1     133.775 147.526 119.767  1.00  0.00     0.293 HD
ENDBRANCH   5   8
ENDBRANCH   1   2
BRANCH   1  10
ATOM     10  C   UNL     1     127.630 144.399 120.537  1.00  0.00     0.040 C 
BRANCH  10  11
ATOM     11  C   UNL     1     127.936 143.970 121.946  1.00  0.00    -0.040 A 
ATOM     12  C   UNL     1     128.259 144.926 122.923  1.00  0.00     0.050 A 
ATOM     13  C   UNL     1     127.848 142.616 122.310  1.00  0.00     0.050 A 
ATOM     14  C   UNL     1     128.512 144.531 124.244  1.00  0.00     0.119 A 
ATOM     15  C   UNL     1     128.100 142.218 123.627  1.00  0.00     0.119 A 
ATOM     16  C   UNL     1     128.435 143.178 124.592  1.00  0.00     0.092 A 
BRANCH  14  17
ATOM     17  O   UNL     1     128.839 145.473 125.217  1.00  0.00    -0.508 OA
ATOM     18  H   UNL     1     128.247 145.627 126.024  1.00  0.00     0.293 HD
ENDBRANCH  14  17
BRANCH  15  19
ATOM     19  O   UNL     1     128.014 140.870 123.966  1.00  0.00    -0.508 OA
ATOM     20  H   UNL     1     127.772 140.166 123.277  1.00  0.00     0.293 HD
ENDBRANCH  15  19
ENDBRANCH  10  11
ENDBRANCH   1  10
TORSDOF 6
ENDMDL
