MODEL 1
REMARK VINA RESULT:    -3.407      0.000      0.000
REMARK INTER + INTRA:          -4.262
REMARK INTER:                  -3.905
REMARK INTRA:                  -0.357
REMARK UNBOUND:                -0.357
REMARK SMILES COC(=O)c1ccccc1O
REMARK SMILES IDX 5 1 6 2 7 3 8 4 9 5 10 6 3 7 4 8 2 9 1 10 11 11
REMARK H PARENT 11 12
REMARK Flexibility Score: inf
ROOT
ATOM      1  C   UNL     1     138.044 148.507 138.775  1.00  0.00     0.101 A 
ATOM      2  C   UNL     1     138.399 147.344 139.486  1.00  0.00     0.019 A 
ATOM      3  C   UNL     1     139.455 146.537 139.055  1.00  0.00     0.001 A 
ATOM      4  C   UNL     1     140.173 146.878 137.909  1.00  0.00     0.004 A 
ATOM      5  C   UNL     1     139.837 148.025 137.190  1.00  0.00     0.047 A 
ATOM      6  C   UNL     1     138.778 148.844 137.612  1.00  0.00     0.130 A 
ENDROOT
BRANCH   1   7
ATOM      7  C   UNL     1     136.916 149.340 139.264  1.00  0.00     0.341 C 
ATOM      8  O   UNL     1     136.824 149.643 140.484  1.00  0.00    -0.246 OA
BRANCH   7   9
ATOM      9  O   UNL     1     135.946 149.792 138.361  1.00  0.00    -0.465 OA
ATOM     10  C   UNL     1     135.000 148.922 137.749  1.00  0.00     0.282 C 
ENDBRANCH   7   9
ENDBRANCH   1   7
BRANCH   6  11
ATOM     11  O   UNL     1     138.463 149.986 136.875  1.00  0.00    -0.507 OA
ATOM     12  H   UNL     1     138.697 150.068 135.892  1.00  0.00     0.293 HD
ENDBRANCH   6  11
TORSDOF 3
ENDMDL
MODEL 2
REMARK VINA RESULT:    -3.402     15.705     17.122
REMARK INTER + INTRA:          -4.257
REMARK INTER:                  -3.899
REMARK INTRA:                  -0.358
REMARK UNBOUND:                -0.357
REMARK SMILES COC(=O)c1ccccc1O
REMARK SMILES IDX 5 1 6 2 7 3 8 4 9 5 10 6 3 7 4 8 2 9 1 10 11 11
REMARK H PARENT 11 12
REMARK Flexibility Score: inf
ROOT
ATOM      1  C   UNL     1     143.561 132.853 138.694  1.00  0.00     0.101 A 
ATOM      2  C   UNL     1     143.143 134.034 139.340  1.00  0.00     0.019 A 
ATOM      3  C   UNL     1     142.049 134.760 138.862  1.00  0.00     0.001 A 
ATOM      4  C   UNL     1     141.356 134.320 137.735  1.00  0.00     0.004 A 
ATOM      5  C   UNL     1     141.754 133.153 137.082  1.00  0.00     0.047 A 
ATOM      6  C   UNL     1     142.850 132.414 137.551  1.00  0.00     0.130 A 
ENDROOT
BRANCH   1   7
ATOM      7  C   UNL     1     144.728 132.108 139.231  1.00  0.00     0.341 C 
ATOM      8  O   UNL     1     144.791 131.809 140.454  1.00  0.00    -0.246 OA
BRANCH   7   9
ATOM      9  O   UNL     1     145.767 131.734 138.370  1.00  0.00    -0.465 OA
ATOM     10  C   UNL     1     146.587 132.683 137.697  1.00  0.00     0.282 C 
ENDBRANCH   7   9
ENDBRANCH   1   7
BRANCH   6  11
ATOM     11  O   UNL     1     143.227 131.251 136.879  1.00  0.00    -0.507 OA
ATOM     12  H   UNL     1     143.511 131.265 135.906  1.00  0.00     0.293 HD
ENDBRANCH   6  11
TORSDOF 3
ENDMDL
MODEL 3
REMARK VINA RESULT:    -3.364     11.331     12.007
REMARK INTER + INTRA:          -4.213
REMARK INTER:                  -3.857
REMARK INTRA:                  -0.356
REMARK UNBOUND:                -0.357
REMARK SMILES COC(=O)c1ccccc1O
REMARK SMILES IDX 5 1 6 2 7 3 8 4 9 5 10 6 3 7 4 8 2 9 1 10 11 11
REMARK H PARENT 11 12
REMARK Flexibility Score: inf
ROOT
ATOM      1  C   UNL     1     148.552 143.463 138.793  1.00  0.00     0.101 A 
ATOM      2  C   UNL     1     147.408 143.100 139.530  1.00  0.00     0.019 A 
ATOM      3  C   UNL     1     146.611 142.025 139.126  1.00  0.00     0.001 A 
ATOM      4  C   UNL     1     146.944 141.297 137.985  1.00  0.00     0.004 A 
ATOM      5  C   UNL     1     148.074 141.641 137.243  1.00  0.00     0.047 A 
ATOM      6  C   UNL     1     148.883 142.718 137.636  1.00  0.00     0.130 A 
ENDROOT
BRANCH   1   7
ATOM      7  C   UNL     1     149.375 144.611 139.253  1.00  0.00     0.341 C 
ATOM      8  O   UNL     1     149.757 144.689 140.452  1.00  0.00    -0.246 OA
BRANCH   7   9
ATOM      9  O   UNL     1     149.729 145.617 138.345  1.00  0.00    -0.465 OA
ATOM     10  C   UNL     1     148.767 146.445 137.700  1.00  0.00     0.282 C 
ENDBRANCH   7   9
ENDBRANCH   1   7
BRANCH   6  11
ATOM     11  O   UNL     1     150.007 143.041 136.876  1.00  0.00    -0.507 OA
ATOM     12  H   UNL     1     150.857 142.491 136.921  1.00  0.00     0.293 HD
ENDBRANCH   6  11
TORSDOF 3
ENDMDL
MODEL 4
REMARK VINA RESULT:    -3.350     11.291     11.951
REMARK INTER + INTRA:          -4.197
REMARK INTER:                  -3.840
REMARK INTRA:                  -0.358
REMARK UNBOUND:                -0.357
REMARK SMILES COC(=O)c1ccccc1O
REMARK SMILES IDX 5 1 6 2 7 3 8 4 9 5 10 6 3 7 4 8 2 9 1 10 11 11
REMARK H PARENT 11 12
REMARK Flexibility Score: inf
ROOT
ATOM      1  C   UNL     1     133.029 138.076 138.782  1.00  0.00     0.101 A 
ATOM      2  C   UNL     1     134.181 138.448 139.502  1.00  0.00     0.019 A 
ATOM      3  C   UNL     1     134.972 139.519 139.079  1.00  0.00     0.001 A 
ATOM      4  C   UNL     1     134.626 140.236 137.934  1.00  0.00     0.004 A 
ATOM      5  C   UNL     1     133.489 139.883 137.207  1.00  0.00     0.047 A 
ATOM      6  C   UNL     1     132.686 138.809 137.620  1.00  0.00     0.130 A 
ENDROOT
BRANCH   1   7
ATOM      7  C   UNL     1     132.213 136.932 139.261  1.00  0.00     0.341 C 
ATOM      8  O   UNL     1     131.899 136.832 140.479  1.00  0.00    -0.246 OA
BRANCH   7   9
ATOM      9  O   UNL     1     131.786 135.956 138.353  1.00  0.00    -0.465 OA
ATOM     10  C   UNL     1     132.681 135.035 137.737  1.00  0.00     0.282 C 
ENDBRANCH   7   9
ENDBRANCH   1   7
BRANCH   6  11
ATOM     11  O   UNL     1     131.553 138.477 136.875  1.00  0.00    -0.507 OA
ATOM     12  H   UNL     1     131.255 137.516 136.758  1.00  0.00     0.293 HD
ENDBRANCH   6  11
TORSDOF 3
ENDMDL
MODEL 5
REMARK VINA RESULT:    -3.264      2.068      3.182
REMARK INTER + INTRA:          -4.099
REMARK INTER:                  -3.797
REMARK INTRA:                  -0.301
REMARK UNBOUND:                -0.357
REMARK SMILES COC(=O)c1ccccc1O
REMARK SMILES IDX 5 1 6 2 7 3 8 4 9 5 10 6 3 7 4 8 2 9 1 10 11 11
REMARK H PARENT 11 12
REMARK Flexibility Score: inf
ROOT
ATOM      1  C   UNL     1     136.611 147.641 138.515  1.00  0.00     0.101 A 
ATOM      2  C   UNL     1     137.966 147.423 138.200  1.00  0.00     0.019 A 
ATOM      3  C   UNL     1     138.568 146.187 138.451  1.00  0.00     0.001 A 
ATOM      4  C   UNL     1     137.826 145.151 139.017  1.00  0.00     0.004 A 
ATOM      5  C   UNL     1     136.483 145.347 139.335  1.00  0.00     0.047 A 
ATOM      6  C   UNL     1     135.866 146.583 139.090  1.00  0.00     0.130 A 
ENDROOT
BRANCH   1   7
ATOM      7  C   UNL     1     136.006 148.968 138.235  1.00  0.00     0.341 C 
ATOM      8  O   UNL     1     134.899 149.057 137.638  1.00  0.00    -0.246 OA
BRANCH   7   9
ATOM      9  O   UNL     1     136.672 150.132 138.638  1.00  0.00    -0.465 OA
ATOM     10  C   UNL     1     137.221 151.064 137.712  1.00  0.00     0.282 C 
ENDBRANCH   7   9
ENDBRANCH   1   7
BRANCH   6  11
ATOM     11  O   UNL     1     134.521 146.753 139.418  1.00  0.00    -0.507 OA
ATOM     12  H   UNL     1     133.866 145.980 139.398  1.00  0.00     0.293 HD
ENDBRANCH   6  11
TORSDOF 3
ENDMDL
MODEL 6
REMARK VINA RESULT:    -3.235      8.748     10.879
REMARK INTER + INTRA:          -4.065
REMARK INTER:                  -3.760
REMARK INTRA:                  -0.304
REMARK UNBOUND:                -0.357
REMARK SMILES COC(=O)c1ccccc1O
REMARK SMILES IDX 5 1 6 2 7 3 8 4 9 5 10 6 3 7 4 8 2 9 1 10 11 11
REMARK H PARENT 11 12
REMARK Flexibility Score: inf
ROOT
ATOM      1  C   UNL     1     147.486 144.899 138.513  1.00  0.00     0.101 A 
ATOM      2  C   UNL     1     147.221 143.547 138.219  1.00  0.00     0.019 A 
ATOM      3  C   UNL     1     145.967 142.991 138.485  1.00  0.00     0.001 A 
ATOM      4  C   UNL     1     144.959 143.774 139.047  1.00  0.00     0.004 A 
ATOM      5  C   UNL     1     145.202 145.115 139.345  1.00  0.00     0.047 A 
ATOM      6  C   UNL     1     146.457 145.686 139.084  1.00  0.00     0.130 A 
ENDROOT
BRANCH   1   7
ATOM      7  C   UNL     1     148.830 145.454 138.216  1.00  0.00     0.341 C 
ATOM      8  O   UNL     1     148.952 146.543 137.591  1.00  0.00    -0.246 OA
BRANCH   7   9
ATOM      9  O   UNL     1     149.974 144.763 138.634  1.00  0.00    -0.465 OA
ATOM     10  C   UNL     1     150.935 144.242 137.722  1.00  0.00     0.282 C 
ENDBRANCH   7   9
ENDBRANCH   1   7
BRANCH   6  11
ATOM     11  O   UNL     1     146.673 147.029 139.391  1.00  0.00    -0.507 OA
ATOM     12  H   UNL     1     146.624 147.753 138.684  1.00  0.00     0.293 HD
ENDBRANCH   6  11
TORSDOF 3
ENDMDL
MODEL 7
REMARK VINA RESULT:    -3.158     14.998     16.530
REMARK INTER + INTRA:          -3.976
REMARK INTER:                  -3.698
REMARK INTRA:                  -0.278
REMARK UNBOUND:                -0.357
REMARK SMILES COC(=O)c1ccccc1O
REMARK SMILES IDX 5 1 6 2 7 3 8 4 9 5 10 6 3 7 4 8 2 9 1 10 11 11
REMARK H PARENT 11 12
REMARK Flexibility Score: inf
ROOT
ATOM      1  C   UNL     1     144.779 134.071 138.786  1.00  0.00     0.101 A 
ATOM      2  C   UNL     1     143.439 134.422 138.530  1.00  0.00     0.019 A 
ATOM      3  C   UNL     1     143.009 135.745 138.663  1.00  0.00     0.001 A 
ATOM      4  C   UNL     1     143.909 136.737 139.052  1.00  0.00     0.004 A 
ATOM      5  C   UNL     1     145.240 136.409 139.310  1.00  0.00     0.047 A 
ATOM      6  C   UNL     1     145.685 135.085 139.181  1.00  0.00     0.130 A 
ENDROOT
BRANCH   1   7
ATOM      7  C   UNL     1     145.198 132.655 138.634  1.00  0.00     0.341 C 
ATOM      8  O   UNL     1     144.572 131.733 139.223  1.00  0.00    -0.246 OA
BRANCH   7   9
ATOM      9  O   UNL     1     146.299 132.340 137.828  1.00  0.00    -0.465 OA
ATOM     10  C   UNL     1     146.459 131.071 137.204  1.00  0.00     0.282 C 
ENDBRANCH   7   9
ENDBRANCH   1   7
BRANCH   6  11
ATOM     11  O   UNL     1     147.021 134.784 139.445  1.00  0.00    -0.507 OA
ATOM     12  H   UNL     1     147.462 133.947 139.080  1.00  0.00     0.293 HD
ENDBRANCH   6  11
TORSDOF 3
ENDMDL
MODEL 8
REMARK VINA RESULT:    -3.137     11.877     12.661
REMARK INTER + INTRA:          -3.952
REMARK INTER:                  -3.650
REMARK INTRA:                  -0.303
REMARK UNBOUND:                -0.357
REMARK SMILES COC(=O)c1ccccc1O
REMARK SMILES IDX 5 1 6 2 7 3 8 4 9 5 10 6 3 7 4 8 2 9 1 10 11 11
REMARK H PARENT 11 12
REMARK Flexibility Score: inf
ROOT
ATOM      1  C   UNL     1     134.245 136.763 138.613  1.00  0.00     0.101 A 
ATOM      2  C   UNL     1     134.538 138.114 138.341  1.00  0.00     0.019 A 
ATOM      3  C   UNL     1     135.795 138.646 138.640  1.00  0.00     0.001 A 
ATOM      4  C   UNL     1     136.778 137.839 139.212  1.00  0.00     0.004 A 
ATOM      5  C   UNL     1     136.507 136.499 139.488  1.00  0.00     0.047 A 
ATOM      6  C   UNL     1     135.248 135.952 139.194  1.00  0.00     0.130 A 
ENDROOT
BRANCH   1   7
ATOM      7  C   UNL     1     132.897 136.234 138.282  1.00  0.00     0.341 C 
ATOM      8  O   UNL     1     132.768 135.117 137.711  1.00  0.00    -0.246 OA
BRANCH   7   9
ATOM      9  O   UNL     1     131.759 136.983 138.607  1.00  0.00    -0.465 OA
ATOM     10  C   UNL     1     130.875 137.505 137.621  1.00  0.00     0.282 C 
ENDBRANCH   7   9
ENDBRANCH   1   7
BRANCH   6  11
ATOM     11  O   UNL     1     135.003 134.609 139.480  1.00  0.00    -0.507 OA
ATOM     12  H   UNL     1     134.761 134.298 140.414  1.00  0.00     0.293 HD
ENDBRANCH   6  11
TORSDOF 3
ENDMDL
MODEL 9
REMARK VINA RESULT:    -3.036      1.408      2.316
REMARK INTER + INTRA:          -3.836
REMARK INTER:                  -3.523
REMARK INTRA:                  -0.313
REMARK UNBOUND:                -0.357
REMARK SMILES COC(=O)c1ccccc1O
REMARK SMILES IDX 5 1 6 2 7 3 8 4 9 5 10 6 3 7 4 8 2 9 1 10 11 11
REMARK H PARENT 11 12
REMARK Flexibility Score: inf
ROOT
ATOM      1  C   UNL     1     138.104 148.742 138.010  1.00  0.00     0.101 A 
ATOM      2  C   UNL     1     139.348 148.923 137.374  1.00  0.00     0.019 A 
ATOM      3  C   UNL     1     140.208 147.841 137.168  1.00  0.00     0.001 A 
ATOM      4  C   UNL     1     139.840 146.564 137.591  1.00  0.00     0.004 A 
ATOM      5  C   UNL     1     138.613 146.365 138.223  1.00  0.00     0.047 A 
ATOM      6  C   UNL     1     137.740 147.443 138.437  1.00  0.00     0.130 A 
ENDROOT
BRANCH   1   7
ATOM      7  C   UNL     1     137.217 149.916 138.212  1.00  0.00     0.341 C 
ATOM      8  O   UNL     1     137.164 150.837 137.352  1.00  0.00    -0.246 OA
BRANCH   7   9
ATOM      9  O   UNL     1     136.432 150.001 139.368  1.00  0.00    -0.465 OA
ATOM     10  C   UNL     1     135.081 150.449 139.350  1.00  0.00     0.282 C 
ENDBRANCH   7   9
ENDBRANCH   1   7
BRANCH   6  11
ATOM     11  O   UNL     1     136.518 147.216 139.071  1.00  0.00    -0.507 OA
ATOM     12  H   UNL     1     136.423 147.266 140.078  1.00  0.00     0.293 HD
ENDBRANCH   6  11
TORSDOF 3
ENDMDL
