MODEL 1
REMARK VINA RESULT:    16.590      0.000      0.000
REMARK INTER + INTRA:          31.446
REMARK INTER:                  25.319
REMARK INTRA:                   6.127
REMARK UNBOUND:                 6.127
REMARK SMILES CC1=CCC[C@@H](C)C(=O)C[C@H](C(C)C)C(=O)C1
REMARK SMILES IDX 8 1 9 2 6 3 7 4 5 5 4 6 3 7 2 8 1 9 10 11 11 12 15 13 16 14
REMARK SMILES IDX 17 15 12 17 13 18 14 19
REMARK H PARENT
REMARK Flexibility Score: 70.00
ROOT
ATOM      1  C   UNL     1      34.607  12.377  39.744  1.00  0.00     0.136 C 
ATOM      2  O   UNL     1      33.629  12.657  39.066  1.00  0.00    -0.299 OA
ENDROOT
BRANCH   1   3
ATOM      3  C   UNL     1      35.002  10.911  39.873  1.00  0.00     0.053 C 
ATOM      4  C   UNL     1      36.431  10.631  39.383  1.00  0.00     0.016 C 
BRANCH   3   5
ATOM      5  C   UNL     1      33.941   9.948  39.284  1.00  0.00     0.015 C 
BRANCH   5   6
ATOM      6  C   UNL     1      33.007   9.274  40.312  1.00  0.00     0.028 C 
BRANCH   6   7
ATOM      7  C   UNL     1      32.323  10.302  41.176  1.00  0.00    -0.028 C 
ATOM      8  C   UNL     1      32.966  11.136  42.030  1.00  0.00    -0.070 CG0
ATOM      9  C   UNL     1      32.161  12.097  42.868  1.00  0.00     0.039 C 
ATOM     10  G   UNL     1      34.480  11.207  42.136  1.00  0.00     0.000 G0
ENDBRANCH   6   7
ENDBRANCH   5   6
ENDBRANCH   3   5
ENDBRANCH   1   3
BRANCH   1  11
ATOM     11  C   UNL     1      35.353  13.498  40.435  1.00  0.00     0.087 C 
BRANCH  11  12
ATOM     12  C   UNL     1      34.914  13.749  41.905  1.00  0.00     0.066 C 
BRANCH  12  13
ATOM     13  C   UNL     1      34.987  12.458  42.708  1.00  0.00     0.140 C 
ATOM     14  O   UNL     1      35.418  12.477  43.854  1.00  0.00    -0.299 OA
BRANCH  13  15
ATOM     15  C   UNL     1      34.466  11.165  42.132  1.00  0.00     0.106 CG0
ATOM     16  G   UNL     1      32.949  11.129  42.055  1.00  0.00     0.000 G0
ENDBRANCH  13  15
ENDBRANCH  12  13
BRANCH  12  17
ATOM     17  C   UNL     1      35.668  14.918  42.625  1.00  0.00    -0.006 C 
ATOM     18  C   UNL     1      34.815  15.594  43.713  1.00  0.00     0.008 C 
ATOM     19  C   UNL     1      36.976  14.413  43.263  1.00  0.00     0.008 C 
ENDBRANCH  12  17
ENDBRANCH  11  12
ENDBRANCH   1  11
TORSDOF 1
ENDMDL
MODEL 2
REMARK VINA RESULT:    17.583      1.765      2.635
REMARK INTER + INTRA:          32.961
REMARK INTER:                  29.392
REMARK INTRA:                   3.569
REMARK UNBOUND:                 6.127
REMARK SMILES CC1=CCC[C@@H](C)C(=O)C[C@H](C(C)C)C(=O)C1
REMARK SMILES IDX 8 1 9 2 6 3 7 4 5 5 4 6 3 7 2 8 1 9 10 11 11 12 15 13 16 14
REMARK SMILES IDX 17 15 12 17 13 18 14 19
REMARK H PARENT
REMARK Flexibility Score: 70.00
ROOT
ATOM      1  C   UNL     1      33.663  11.431  42.100  1.00  0.00     0.136 C 
ATOM      2  O   UNL     1      32.551  11.935  42.030  1.00  0.00    -0.299 OA
ENDROOT
BRANCH   1   3
ATOM      3  C   UNL     1      33.857  10.027  41.543  1.00  0.00     0.053 C 
ATOM      4  C   UNL     1      35.243   9.821  40.912  1.00  0.00     0.016 C 
BRANCH   3   5
ATOM      5  C   UNL     1      32.686   9.571  40.638  1.00  0.00     0.015 C 
BRANCH   5   6
ATOM      6  C   UNL     1      32.878   9.812  39.126  1.00  0.00     0.028 C 
BRANCH   6   7
ATOM      7  C   UNL     1      32.399  11.186  38.732  1.00  0.00    -0.028 C 
ATOM      8  C   UNL     1      33.097  12.329  38.940  1.00  0.00    -0.070 CG0
ATOM      9  C   UNL     1      32.490  13.647  38.531  1.00  0.00     0.039 C 
ATOM     10  G   UNL     1      34.509  12.347  39.502  1.00  0.00     0.000 G0
ENDBRANCH   6   7
ENDBRANCH   5   6
ENDBRANCH   3   5
ENDBRANCH   1   3
BRANCH   1  11
ATOM     11  C   UNL     1      34.773  12.222  42.759  1.00  0.00     0.087 C 
BRANCH  11  12
ATOM     12  C   UNL     1      35.555  13.155  41.792  1.00  0.00     0.066 C 
BRANCH  12  13
ATOM     13  C   UNL     1      34.724  13.451  40.553  1.00  0.00     0.140 C 
ATOM     14  O   UNL     1      34.273  14.575  40.375  1.00  0.00    -0.299 OA
BRANCH  13  15
ATOM     15  C   UNL     1      34.508  12.390  39.502  1.00  0.00     0.106 CG0
ATOM     16  G   UNL     1      33.083  12.373  38.974  1.00  0.00     0.000 G0
ENDBRANCH  13  15
ENDBRANCH  12  13
BRANCH  12  17
ATOM     17  C   UNL     1      36.100  14.470  42.447  1.00  0.00    -0.006 C 
ATOM     18  C   UNL     1      34.983  15.342  43.047  1.00  0.00     0.008 C 
ATOM     19  C   UNL     1      37.122  14.144  43.553  1.00  0.00     0.008 C 
ENDBRANCH  12  17
ENDBRANCH  11  12
ENDBRANCH   1  11
TORSDOF 1
ENDMDL
MODEL 3
REMARK VINA RESULT:    18.139      3.441      5.654
REMARK INTER + INTRA:          33.810
REMARK INTER:                  32.265
REMARK INTRA:                   1.545
REMARK UNBOUND:                 6.127
REMARK SMILES CC1=CCC[C@@H](C)C(=O)C[C@H](C(C)C)C(=O)C1
REMARK SMILES IDX 8 1 9 2 6 3 7 4 5 5 4 6 3 7 2 8 1 9 10 11 11 12 15 13 16 14
REMARK SMILES IDX 17 15 12 17 13 18 14 19
REMARK H PARENT
REMARK Flexibility Score: 70.00
ROOT
ATOM      1  C   UNL     1      30.453   7.962  40.746  1.00  0.00     0.136 C 
ATOM      2  O   UNL     1      29.777   8.717  41.431  1.00  0.00    -0.299 OA
ENDROOT
BRANCH   1   3
ATOM      3  C   UNL     1      30.250   6.461  40.909  1.00  0.00     0.053 C 
ATOM      4  C   UNL     1      28.876   6.103  41.497  1.00  0.00     0.016 C 
BRANCH   3   5
ATOM      5  C   UNL     1      31.435   5.768  41.625  1.00  0.00     0.015 C 
BRANCH   5   6
ATOM      6  C   UNL     1      32.621   5.370  40.721  1.00  0.00     0.028 C 
BRANCH   6   7
ATOM      7  C   UNL     1      33.931   5.804  41.326  1.00  0.00    -0.028 C 
ATOM      8  C   UNL     1      34.774   6.704  40.763  1.00  0.00    -0.070 CG0
ATOM      9  C   UNL     1      36.076   7.027  41.453  1.00  0.00     0.039 C 
ATOM     10  G   UNL     1      34.440   7.471  39.495  1.00  0.00     0.000 G0
ENDBRANCH   6   7
ENDBRANCH   5   6
ENDBRANCH   3   5
ENDBRANCH   1   3
BRANCH   1  11
ATOM     11  C   UNL     1      31.466   8.562  39.795  1.00  0.00     0.087 C 
BRANCH  11  12
ATOM     12  C   UNL     1      32.700   9.200  40.493  1.00  0.00     0.066 C 
BRANCH  12  13
ATOM     13  C   UNL     1      33.965   8.918  39.696  1.00  0.00     0.140 C 
ATOM     14  O   UNL     1      34.644   9.849  39.282  1.00  0.00    -0.299 OA
BRANCH  13  15
ATOM     15  C   UNL     1      34.430   7.501  39.471  1.00  0.00     0.106 CG0
ATOM     16  G   UNL     1      34.721   6.769  40.770  1.00  0.00     0.000 G0
ENDBRANCH  13  15
ENDBRANCH  12  13
BRANCH  12  17
ATOM     17  C   UNL     1      32.553  10.725  40.821  1.00  0.00    -0.006 C 
ATOM     18  C   UNL     1      33.002  11.071  42.252  1.00  0.00     0.008 C 
ATOM     19  C   UNL     1      33.365  11.577  39.826  1.00  0.00     0.008 C 
ENDBRANCH  12  17
ENDBRANCH  11  12
ENDBRANCH   1  11
TORSDOF 1
ENDMDL
MODEL 4
REMARK VINA RESULT:    18.252      3.238      4.739
REMARK INTER + INTRA:          33.982
REMARK INTER:                  33.239
REMARK INTRA:                   0.743
REMARK UNBOUND:                 6.127
REMARK SMILES CC1=CCC[C@@H](C)C(=O)C[C@H](C(C)C)C(=O)C1
REMARK SMILES IDX 8 1 9 2 6 3 7 4 5 5 4 6 3 7 2 8 1 9 10 11 11 12 15 13 16 14
REMARK SMILES IDX 17 15 12 17 13 18 14 19
REMARK H PARENT
REMARK Flexibility Score: 70.00
ROOT
ATOM      1  C   UNL     1      34.137  13.654  39.820  1.00  0.00     0.136 C 
ATOM      2  O   UNL     1      33.176  13.511  39.078  1.00  0.00    -0.299 OA
ENDROOT
BRANCH   1   3
ATOM      3  C   UNL     1      34.592  12.463  40.653  1.00  0.00     0.053 C 
ATOM      4  C   UNL     1      33.738  11.207  40.418  1.00  0.00     0.016 C 
BRANCH   3   5
ATOM      5  C   UNL     1      34.786  12.813  42.148  1.00  0.00     0.015 C 
BRANCH   5   6
ATOM      6  C   UNL     1      35.933  13.798  42.460  1.00  0.00     0.028 C 
BRANCH   6   7
ATOM      7  C   UNL     1      35.554  14.732  43.580  1.00  0.00    -0.028 C 
ATOM      8  C   UNL     1      35.361  16.066  43.433  1.00  0.00    -0.070 CG0
ATOM      9  C   UNL     1      35.020  16.899  44.643  1.00  0.00     0.039 C 
ATOM     10  G   UNL     1      35.397  16.765  42.084  1.00  0.00     0.000 G0
ENDBRANCH   6   7
ENDBRANCH   5   6
ENDBRANCH   3   5
ENDBRANCH   1   3
BRANCH   1  11
ATOM     11  C   UNL     1      34.802  15.012  39.885  1.00  0.00     0.087 C 
BRANCH  11  12
ATOM     12  C   UNL     1      33.818  16.200  40.075  1.00  0.00     0.066 C 
BRANCH  12  13
ATOM     13  C   UNL     1      34.075  16.896  41.403  1.00  0.00     0.140 C 
ATOM     14  O   UNL     1      33.172  17.512  41.952  1.00  0.00    -0.299 OA
BRANCH  13  15
ATOM     15  C   UNL     1      35.415  16.776  42.085  1.00  0.00     0.106 CG0
ATOM     16  G   UNL     1      35.327  16.053  43.420  1.00  0.00     0.000 G0
ENDBRANCH  13  15
ENDBRANCH  12  13
BRANCH  12  17
ATOM     17  C   UNL     1      33.784  17.220  38.886  1.00  0.00    -0.006 C 
ATOM     18  C   UNL     1      32.572  18.167  38.951  1.00  0.00     0.008 C 
ATOM     19  C   UNL     1      35.072  18.065  38.856  1.00  0.00     0.008 C 
ENDBRANCH  12  17
ENDBRANCH  11  12
ENDBRANCH   1  11
TORSDOF 1
ENDMDL
MODEL 5
REMARK VINA RESULT:    18.412      2.257      5.195
REMARK INTER + INTRA:          34.226
REMARK INTER:                  30.144
REMARK INTRA:                   4.082
REMARK UNBOUND:                 6.127
REMARK SMILES CC1=CCC[C@@H](C)C(=O)C[C@H](C(C)C)C(=O)C1
REMARK SMILES IDX 8 1 9 2 6 3 7 4 5 5 4 6 3 7 2 8 1 9 10 11 11 12 15 13 16 14
REMARK SMILES IDX 17 15 12 17 13 18 14 19
REMARK H PARENT
REMARK Flexibility Score: 70.00
ROOT
ATOM      1  C   UNL     1      36.215  13.506  42.277  1.00  0.00     0.136 C 
ATOM      2  O   UNL     1      36.877  13.457  41.251  1.00  0.00    -0.299 OA
ENDROOT
BRANCH   1   3
ATOM      3  C   UNL     1      36.697  14.408  43.406  1.00  0.00     0.053 C 
ATOM      4  C   UNL     1      36.583  13.748  44.789  1.00  0.00     0.016 C 
BRANCH   3   5
ATOM      5  C   UNL     1      36.087  15.830  43.343  1.00  0.00     0.015 C 
BRANCH   5   6
ATOM      6  C   UNL     1      34.547  15.900  43.406  1.00  0.00     0.028 C 
BRANCH   6   7
ATOM      7  C   UNL     1      33.983  16.540  42.163  1.00  0.00    -0.028 C 
ATOM      8  C   UNL     1      34.333  16.199  40.899  1.00  0.00    -0.070 CG0
ATOM      9  C   UNL     1      33.721  16.943  39.739  1.00  0.00     0.039 C 
ATOM     10  G   UNL     1      35.264  15.041  40.581  1.00  0.00     0.000 G0
ENDBRANCH   6   7
ENDBRANCH   5   6
ENDBRANCH   3   5
ENDBRANCH   1   3
BRANCH   1  11
ATOM     11  C   UNL     1      34.969  12.652  42.375  1.00  0.00     0.087 C 
BRANCH  11  12
ATOM     12  C   UNL     1      33.944  12.880  41.229  1.00  0.00     0.066 C 
BRANCH  12  13
ATOM     13  C   UNL     1      34.534  13.790  40.162  1.00  0.00     0.140 C 
ATOM     14  O   UNL     1      34.379  13.522  38.978  1.00  0.00    -0.299 OA
BRANCH  13  15
ATOM     15  C   UNL     1      35.251  15.061  40.548  1.00  0.00     0.106 CG0
ATOM     16  G   UNL     1      34.294  16.181  40.919  1.00  0.00     0.000 G0
ENDBRANCH  13  15
ENDBRANCH  12  13
BRANCH  12  17
ATOM     17  C   UNL     1      33.353  11.570  40.606  1.00  0.00    -0.006 C 
ATOM     18  C   UNL     1      34.405  10.457  40.457  1.00  0.00     0.008 C 
ATOM     19  C   UNL     1      32.187  11.038  41.461  1.00  0.00     0.008 C 
ENDBRANCH  12  17
ENDBRANCH  11  12
ENDBRANCH   1  11
TORSDOF 1
ENDMDL
MODEL 6
REMARK VINA RESULT:    18.413      1.746      4.119
REMARK INTER + INTRA:          34.228
REMARK INTER:                  33.138
REMARK INTRA:                   1.090
REMARK UNBOUND:                 6.127
REMARK SMILES CC1=CCC[C@@H](C)C(=O)C[C@H](C(C)C)C(=O)C1
REMARK SMILES IDX 8 1 9 2 6 3 7 4 5 5 4 6 3 7 2 8 1 9 10 11 11 12 15 13 16 14
REMARK SMILES IDX 17 15 12 17 13 18 14 19
REMARK H PARENT
REMARK Flexibility Score: 70.00
ROOT
ATOM      1  C   UNL     1      34.826  13.439  39.974  1.00  0.00     0.136 C 
ATOM      2  O   UNL     1      34.462  14.552  39.623  1.00  0.00    -0.299 OA
ENDROOT
BRANCH   1   3
ATOM      3  C   UNL     1      36.175  13.304  40.669  1.00  0.00     0.053 C 
ATOM      4  C   UNL     1      37.105  12.294  39.979  1.00  0.00     0.016 C 
BRANCH   3   5
ATOM      5  C   UNL     1      36.046  13.091  42.197  1.00  0.00     0.015 C 
BRANCH   5   6
ATOM      6  C   UNL     1      35.966  14.377  43.046  1.00  0.00     0.028 C 
BRANCH   6   7
ATOM      7  C   UNL     1      34.535  14.811  43.235  1.00  0.00    -0.028 C 
ATOM      8  C   UNL     1      33.471  13.971  43.229  1.00  0.00    -0.070 CG0
ATOM      9  C   UNL     1      32.083  14.537  43.393  1.00  0.00     0.039 C 
ATOM     10  G   UNL     1      33.610  12.460  43.140  1.00  0.00     0.000 G0
ENDBRANCH   6   7
ENDBRANCH   5   6
ENDBRANCH   3   5
ENDBRANCH   1   3
BRANCH   1  11
ATOM     11  C   UNL     1      33.928  12.257  39.675  1.00  0.00     0.087 C 
BRANCH  11  12
ATOM     12  C   UNL     1      33.808  11.233  40.838  1.00  0.00     0.066 C 
BRANCH  12  13
ATOM     13  C   UNL     1      32.931  11.792  41.949  1.00  0.00     0.140 C 
ATOM     14  O   UNL     1      31.714  11.682  41.877  1.00  0.00    -0.299 OA
BRANCH  13  15
ATOM     15  C   UNL     1      33.549  12.419  43.174  1.00  0.00     0.106 CG0
ATOM     16  G   UNL     1      33.479  13.937  43.151  1.00  0.00     0.000 G0
ENDBRANCH  13  15
ENDBRANCH  12  13
BRANCH  12  17
ATOM     17  C   UNL     1      33.348   9.800  40.406  1.00  0.00    -0.006 C 
ATOM     18  C   UNL     1      32.646   9.789  39.037  1.00  0.00     0.008 C 
ATOM     19  C   UNL     1      34.547   8.834  40.356  1.00  0.00     0.008 C 
ENDBRANCH  12  17
ENDBRANCH  11  12
ENDBRANCH   1  11
TORSDOF 1
ENDMDL
MODEL 7
REMARK VINA RESULT:    19.369      2.824      5.175
REMARK INTER + INTRA:          35.687
REMARK INTER:                  35.205
REMARK INTRA:                   0.482
REMARK UNBOUND:                 6.127
REMARK SMILES CC1=CCC[C@@H](C)C(=O)C[C@H](C(C)C)C(=O)C1
REMARK SMILES IDX 8 1 9 2 6 3 7 4 5 5 4 6 3 7 2 8 1 9 10 11 11 12 15 13 16 14
REMARK SMILES IDX 17 15 12 17 13 18 14 19
REMARK H PARENT
REMARK Flexibility Score: 70.00
ROOT
ATOM      1  C   UNL     1      34.643  16.988  42.799  1.00  0.00     0.136 C 
ATOM      2  O   UNL     1      34.924  18.146  43.068  1.00  0.00    -0.299 OA
ENDROOT
BRANCH   1   3
ATOM      3  C   UNL     1      35.227  15.880  43.666  1.00  0.00     0.053 C 
ATOM      4  C   UNL     1      35.039  16.136  45.170  1.00  0.00     0.016 C 
BRANCH   3   5
ATOM      5  C   UNL     1      36.679  15.512  43.274  1.00  0.00     0.015 C 
BRANCH   5   6
ATOM      6  C   UNL     1      37.030  14.010  43.345  1.00  0.00     0.028 C 
BRANCH   6   7
ATOM      7  C   UNL     1      35.829  13.159  43.020  1.00  0.00    -0.028 C 
ATOM      8  C   UNL     1      35.167  13.186  41.838  1.00  0.00    -0.070 CG0
ATOM      9  C   UNL     1      33.956  12.309  41.650  1.00  0.00     0.039 C 
ATOM     10  G   UNL     1      35.631  14.011  40.648  1.00  0.00     0.000 G0
ENDBRANCH   6   7
ENDBRANCH   5   6
ENDBRANCH   3   5
ENDBRANCH   1   3
BRANCH   1  11
ATOM     11  C   UNL     1      33.751  16.720  41.606  1.00  0.00     0.087 C 
BRANCH  11  12
ATOM     12  C   UNL     1      34.517  16.378  40.297  1.00  0.00     0.066 C 
BRANCH  12  13
ATOM     13  C   UNL     1      34.501  14.876  40.050  1.00  0.00     0.140 C 
ATOM     14  O   UNL     1      33.632  14.385  39.341  1.00  0.00    -0.299 OA
BRANCH  13  15
ATOM     15  C   UNL     1      35.587  13.994  40.613  1.00  0.00     0.106 CG0
ATOM     16  G   UNL     1      35.133  13.220  41.839  1.00  0.00     0.000 G0
ENDBRANCH  13  15
ENDBRANCH  12  13
BRANCH  12  17
ATOM     17  C   UNL     1      34.046  17.175  39.033  1.00  0.00    -0.006 C 
ATOM     18  C   UNL     1      32.872  18.124  39.333  1.00  0.00     0.008 C 
ATOM     19  C   UNL     1      35.208  17.994  38.441  1.00  0.00     0.008 C 
ENDBRANCH  12  17
ENDBRANCH  11  12
ENDBRANCH   1  11
TORSDOF 1
ENDMDL
