MODEL 1
REMARK VINA RESULT:    -3.471      0.000      0.000
REMARK INTER + INTRA:          -7.841
REMARK INTER:                  -6.109
REMARK INTRA:                  -1.731
REMARK UNBOUND:                -1.731
REMARK SMILES CCCCCCCCCCCCCCC(=O)[O-]
REMARK SMILES IDX 9 1 10 2 11 3 12 4 13 5 14 6 15 7 16 8 17 9 8 10 7 11 6 12
REMARK SMILES IDX 5 13 4 14 3 15 2 16 1 17
REMARK H PARENT
REMARK Flexibility Score: inf
ROOT
ATOM      1  C   UNL     1     -19.582  44.495  -8.654  1.00  0.00     0.000 C 
ENDROOT
BRANCH   1   2
ATOM      2  C   UNL     1     -18.730  44.700  -7.394  1.00  0.00     0.000 C 
BRANCH   2   3
ATOM      3  C   UNL     1     -17.951  43.437  -6.990  1.00  0.00     0.000 C 
BRANCH   3   4
ATOM      4  C   UNL     1     -16.710  43.757  -6.137  1.00  0.00     0.000 C 
BRANCH   4   5
ATOM      5  C   UNL     1     -16.690  42.978  -4.811  1.00  0.00     0.006 C 
BRANCH   5   6
ATOM      6  C   UNL     1     -17.993  42.209  -4.557  1.00  0.00     0.053 C 
BRANCH   6   7
ATOM      7  C   UNL     1     -18.835  42.929  -3.550  1.00  0.00     0.041 C 
ATOM      8  O   UNL     1     -18.946  44.183  -3.597  1.00  0.00    -0.550 OA
ATOM      9  O   UNL     1     -19.456  42.220  -2.530  1.00  0.00    -0.550 OA
ENDBRANCH   6   7
ENDBRANCH   5   6
ENDBRANCH   4   5
ENDBRANCH   3   4
ENDBRANCH   2   3
ENDBRANCH   1   2
BRANCH   1  10
ATOM     10  C   UNL     1     -19.272  43.142  -9.312  1.00  0.00     0.000 C 
BRANCH  10  11
ATOM     11  C   UNL     1     -18.663  43.290 -10.715  1.00  0.00    -0.000 C 
BRANCH  11  12
ATOM     12  C   UNL     1     -17.279  42.634 -10.833  1.00  0.00    -0.000 C 
BRANCH  12  13
ATOM     13  C   UNL     1     -16.190  43.686 -11.076  1.00  0.00    -0.000 C 
BRANCH  13  14
ATOM     14  C   UNL     1     -15.778  44.367  -9.763  1.00  0.00    -0.000 C 
BRANCH  14  15
ATOM     15  C   UNL     1     -16.137  45.868  -9.745  1.00  0.00    -0.000 C 
BRANCH  15  16
ATOM     16  C   UNL     1     -14.992  46.769  -9.250  1.00  0.00    -0.003 C 
ATOM     17  C   UNL     1     -14.520  46.416  -7.840  1.00  0.00     0.004 C 
ENDBRANCH  15  16
ENDBRANCH  14  15
ENDBRANCH  13  14
ENDBRANCH  12  13
ENDBRANCH  11  12
ENDBRANCH  10  11
ENDBRANCH   1  10
TORSDOF 13
ENDMDL
MODEL 2
REMARK VINA RESULT:    -3.412      2.700      6.013
REMARK INTER + INTRA:          -7.736
REMARK INTER:                  -6.252
REMARK INTRA:                  -1.485
REMARK UNBOUND:                -1.731
REMARK SMILES CCCCCCCCCCCCCCC(=O)[O-]
REMARK SMILES IDX 9 1 10 2 11 3 12 4 13 5 14 6 15 7 16 8 17 9 8 10 7 11 6 12
REMARK SMILES IDX 5 13 4 14 3 15 2 16 1 17
REMARK H PARENT
REMARK Flexibility Score: inf
ROOT
ATOM      1  C   UNL     1     -15.679  46.359  -8.641  1.00  0.00     0.000 C 
ENDROOT
BRANCH   1   2
ATOM      2  C   UNL     1     -15.121  46.326 -10.071  1.00  0.00     0.000 C 
BRANCH   2   3
ATOM      3  C   UNL     1     -16.199  46.025 -11.125  1.00  0.00     0.000 C 
BRANCH   3   4
ATOM      4  C   UNL     1     -17.627  46.195 -10.574  1.00  0.00     0.000 C 
BRANCH   4   5
ATOM      5  C   UNL     1     -18.562  45.051 -10.999  1.00  0.00     0.006 C 
BRANCH   5   6
ATOM      6  C   UNL     1     -17.843  43.698 -11.078  1.00  0.00     0.053 C 
BRANCH   6   7
ATOM      7  C   UNL     1     -18.676  42.628 -10.444  1.00  0.00     0.041 C 
ATOM      8  O   UNL     1     -19.749  42.924  -9.856  1.00  0.00    -0.550 OA
ATOM      9  O   UNL     1     -18.241  41.308 -10.460  1.00  0.00    -0.550 OA
ENDBRANCH   6   7
ENDBRANCH   5   6
ENDBRANCH   4   5
ENDBRANCH   3   4
ENDBRANCH   2   3
ENDBRANCH   1   2
BRANCH   1  10
ATOM     10  C   UNL     1     -14.853  45.461  -7.708  1.00  0.00     0.000 C 
BRANCH  10  11
ATOM     11  C   UNL     1     -15.553  44.130  -7.393  1.00  0.00    -0.000 C 
BRANCH  11  12
ATOM     12  C   UNL     1     -17.078  44.209  -7.557  1.00  0.00    -0.000 C 
BRANCH  12  13
ATOM     13  C   UNL     1     -17.793  43.623  -6.333  1.00  0.00    -0.000 C 
BRANCH  13  14
ATOM     14  C   UNL     1     -16.785  43.056  -5.323  1.00  0.00    -0.000 C 
BRANCH  14  15
ATOM     15  C   UNL     1     -17.279  43.187  -3.867  1.00  0.00    -0.000 C 
BRANCH  15  16
ATOM     16  C   UNL     1     -18.797  43.409  -3.750  1.00  0.00    -0.003 C 
ATOM     17  C   UNL     1     -19.476  42.411  -2.813  1.00  0.00     0.004 C 
ENDBRANCH  15  16
ENDBRANCH  14  15
ENDBRANCH  13  14
ENDBRANCH  12  13
ENDBRANCH  11  12
ENDBRANCH  10  11
ENDBRANCH   1  10
TORSDOF 13
ENDMDL
MODEL 3
REMARK VINA RESULT:    -3.380      2.692      5.661
REMARK INTER + INTRA:          -7.680
REMARK INTER:                  -5.920
REMARK INTRA:                  -1.760
REMARK UNBOUND:                -1.731
REMARK SMILES CCCCCCCCCCCCCCC(=O)[O-]
REMARK SMILES IDX 9 1 10 2 11 3 12 4 13 5 14 6 15 7 16 8 17 9 8 10 7 11 6 12
REMARK SMILES IDX 5 13 4 14 3 15 2 16 1 17
REMARK H PARENT
REMARK Flexibility Score: inf
ROOT
ATOM      1  C   UNL     1     -19.559  43.490  -9.286  1.00  0.00     0.000 C 
ENDROOT
BRANCH   1   2
ATOM      2  C   UNL     1     -19.241  43.828 -10.750  1.00  0.00     0.000 C 
BRANCH   2   3
ATOM      3  C   UNL     1     -18.033  44.768 -10.895  1.00  0.00     0.000 C 
BRANCH   3   4
ATOM      4  C   UNL     1     -16.691  44.012 -10.874  1.00  0.00     0.000 C 
BRANCH   4   5
ATOM      5  C   UNL     1     -15.625  44.728 -10.029  1.00  0.00     0.006 C 
BRANCH   5   6
ATOM      6  C   UNL     1     -16.159  45.999  -9.355  1.00  0.00     0.053 C 
BRANCH   6   7
ATOM      7  C   UNL     1     -15.119  46.588  -8.455  1.00  0.00     0.041 C 
ATOM      8  O   UNL     1     -15.124  47.821  -8.201  1.00  0.00    -0.550 OA
ATOM      9  O   UNL     1     -14.113  45.782  -7.935  1.00  0.00    -0.550 OA
ENDBRANCH   6   7
ENDBRANCH   5   6
ENDBRANCH   4   5
ENDBRANCH   3   4
ENDBRANCH   2   3
ENDBRANCH   1   2
BRANCH   1  10
ATOM     10  C   UNL     1     -19.589  44.761  -8.423  1.00  0.00     0.000 C 
BRANCH  10  11
ATOM     11  C   UNL     1     -18.738  44.634  -7.150  1.00  0.00    -0.000 C 
BRANCH  11  12
ATOM     12  C   UNL     1     -17.770  43.442  -7.201  1.00  0.00    -0.000 C 
BRANCH  12  13
ATOM     13  C   UNL     1     -16.649  43.600  -6.167  1.00  0.00    -0.000 C 
BRANCH  13  14
ATOM     14  C   UNL     1     -16.791  42.571  -5.035  1.00  0.00    -0.000 C 
BRANCH  14  15
ATOM     15  C   UNL     1     -17.200  43.225  -3.699  1.00  0.00    -0.000 C 
BRANCH  15  16
ATOM     16  C   UNL     1     -18.703  43.539  -3.602  1.00  0.00    -0.003 C 
ATOM     17  C   UNL     1     -19.506  42.422  -2.938  1.00  0.00     0.004 C 
ENDBRANCH  15  16
ENDBRANCH  14  15
ENDBRANCH  13  14
ENDBRANCH  12  13
ENDBRANCH  11  12
ENDBRANCH  10  11
ENDBRANCH   1  10
TORSDOF 13
ENDMDL
MODEL 4
REMARK VINA RESULT:    -3.376      2.830      5.733
REMARK INTER + INTRA:          -7.673
REMARK INTER:                  -5.970
REMARK INTRA:                  -1.703
REMARK UNBOUND:                -1.731
REMARK SMILES CCCCCCCCCCCCCCC(=O)[O-]
REMARK SMILES IDX 9 1 10 2 11 3 12 4 13 5 14 6 15 7 16 8 17 9 8 10 7 11 6 12
REMARK SMILES IDX 5 13 4 14 3 15 2 16 1 17
REMARK H PARENT
REMARK Flexibility Score: inf
ROOT
ATOM      1  C   UNL     1     -18.754  43.706 -10.658  1.00  0.00     0.000 C 
ENDROOT
BRANCH   1   2
ATOM      2  C   UNL     1     -18.875  45.229 -10.813  1.00  0.00     0.000 C 
BRANCH   2   3
ATOM      3  C   UNL     1     -17.517  45.945 -10.733  1.00  0.00     0.000 C 
BRANCH   3   4
ATOM      4  C   UNL     1     -16.329  44.965 -10.763  1.00  0.00     0.000 C 
BRANCH   4   5
ATOM      5  C   UNL     1     -15.332  45.214  -9.620  1.00  0.00     0.006 C 
BRANCH   5   6
ATOM      6  C   UNL     1     -15.874  46.183  -8.561  1.00  0.00     0.053 C 
BRANCH   6   7
ATOM      7  C   UNL     1     -14.998  47.391  -8.463  1.00  0.00     0.041 C 
ATOM      8  O   UNL     1     -15.010  48.101  -7.422  1.00  0.00    -0.550 OA
ATOM      9  O   UNL     1     -14.203  47.762  -9.540  1.00  0.00    -0.550 OA
ENDBRANCH   6   7
ENDBRANCH   5   6
ENDBRANCH   4   5
ENDBRANCH   3   4
ENDBRANCH   2   3
ENDBRANCH   1   2
BRANCH   1  10
ATOM     10  C   UNL     1     -19.098  43.272  -9.225  1.00  0.00     0.000 C 
BRANCH  10  11
ATOM     11  C   UNL     1     -19.572  44.442  -8.348  1.00  0.00    -0.000 C 
BRANCH  11  12
ATOM     12  C   UNL     1     -18.826  44.520  -7.008  1.00  0.00    -0.000 C 
BRANCH  12  13
ATOM     13  C   UNL     1     -17.711  43.470  -6.939  1.00  0.00    -0.000 C 
BRANCH  13  14
ATOM     14  C   UNL     1     -17.188  43.313  -5.503  1.00  0.00    -0.000 C 
BRANCH  14  15
ATOM     15  C   UNL     1     -17.771  42.069  -4.801  1.00  0.00    -0.000 C 
BRANCH  15  16
ATOM     16  C   UNL     1     -18.786  42.405  -3.695  1.00  0.00    -0.003 C 
ATOM     17  C   UNL     1     -18.820  43.892  -3.346  1.00  0.00     0.004 C 
ENDBRANCH  15  16
ENDBRANCH  14  15
ENDBRANCH  13  14
ENDBRANCH  12  13
ENDBRANCH  11  12
ENDBRANCH  10  11
ENDBRANCH   1  10
TORSDOF 13
ENDMDL
MODEL 5
REMARK VINA RESULT:    -3.268      0.726      1.370
REMARK INTER + INTRA:          -7.483
REMARK INTER:                  -5.785
REMARK INTRA:                  -1.698
REMARK UNBOUND:                -1.731
REMARK SMILES CCCCCCCCCCCCCCC(=O)[O-]
REMARK SMILES IDX 9 1 10 2 11 3 12 4 13 5 14 6 15 7 16 8 17 9 8 10 7 11 6 12
REMARK SMILES IDX 5 13 4 14 3 15 2 16 1 17
REMARK H PARENT
REMARK Flexibility Score: inf
ROOT
ATOM      1  C   UNL     1     -19.829  43.692  -9.292  1.00  0.00     0.000 C 
ENDROOT
BRANCH   1   2
ATOM      2  C   UNL     1     -18.989  44.837  -8.708  1.00  0.00     0.000 C 
BRANCH   2   3
ATOM      3  C   UNL     1     -18.667  44.640  -7.218  1.00  0.00     0.000 C 
BRANCH   3   4
ATOM      4  C   UNL     1     -17.955  43.304  -6.938  1.00  0.00     0.000 C 
BRANCH   4   5
ATOM      5  C   UNL     1     -17.242  43.290  -5.576  1.00  0.00     0.006 C 
BRANCH   5   6
ATOM      6  C   UNL     1     -17.828  42.251  -4.611  1.00  0.00     0.053 C 
BRANCH   6   7
ATOM      7  C   UNL     1     -18.745  42.911  -3.630  1.00  0.00     0.041 C 
ATOM      8  O   UNL     1     -19.363  42.221  -2.776  1.00  0.00    -0.550 OA
ATOM      9  O   UNL     1     -18.955  44.283  -3.689  1.00  0.00    -0.550 OA
ENDBRANCH   6   7
ENDBRANCH   5   6
ENDBRANCH   4   5
ENDBRANCH   3   4
ENDBRANCH   2   3
ENDBRANCH   1   2
BRANCH   1  10
ATOM     10  C   UNL     1     -19.128  43.061 -10.505  1.00  0.00     0.000 C 
BRANCH  10  11
ATOM     11  C   UNL     1     -17.940  43.897 -11.005  1.00  0.00    -0.000 C 
BRANCH  11  12
ATOM     12  C   UNL     1     -16.624  43.105 -11.023  1.00  0.00    -0.000 C 
BRANCH  12  13
ATOM     13  C   UNL     1     -15.415  44.046 -10.950  1.00  0.00    -0.000 C 
BRANCH  13  14
ATOM     14  C   UNL     1     -15.630  45.141  -9.893  1.00  0.00    -0.000 C 
BRANCH  14  15
ATOM     15  C   UNL     1     -15.061  44.742  -8.515  1.00  0.00    -0.000 C 
BRANCH  15  16
ATOM     16  C   UNL     1     -14.605  45.942  -7.667  1.00  0.00    -0.003 C 
ATOM     17  C   UNL     1     -15.058  47.285  -8.238  1.00  0.00     0.004 C 
ENDBRANCH  15  16
ENDBRANCH  14  15
ENDBRANCH  13  14
ENDBRANCH  12  13
ENDBRANCH  11  12
ENDBRANCH  10  11
ENDBRANCH   1  10
TORSDOF 13
ENDMDL
MODEL 6
REMARK VINA RESULT:    -3.106      1.288      3.415
REMARK INTER + INTRA:          -7.197
REMARK INTER:                  -6.041
REMARK INTRA:                  -1.155
REMARK UNBOUND:                -1.731
REMARK SMILES CCCCCCCCCCCCCCC(=O)[O-]
REMARK SMILES IDX 9 1 10 2 11 3 12 4 13 5 14 6 15 7 16 8 17 9 8 10 7 11 6 12
REMARK SMILES IDX 5 13 4 14 3 15 2 16 1 17
REMARK H PARENT
REMARK Flexibility Score: inf
ROOT
ATOM      1  C   UNL     1     -16.515  46.032  -8.496  1.00  0.00     0.000 C 
ENDROOT
BRANCH   1   2
ATOM      2  C   UNL     1     -16.771  44.530  -8.307  1.00  0.00     0.000 C 
BRANCH   2   3
ATOM      3  C   UNL     1     -16.172  43.984  -7.000  1.00  0.00     0.000 C 
BRANCH   3   4
ATOM      4  C   UNL     1     -17.216  43.263  -6.128  1.00  0.00     0.000 C 
BRANCH   4   5
ATOM      5  C   UNL     1     -16.588  42.576  -4.904  1.00  0.00     0.006 C 
BRANCH   5   6
ATOM      6  C   UNL     1     -17.112  43.135  -3.576  1.00  0.00     0.053 C 
BRANCH   6   7
ATOM      7  C   UNL     1     -18.602  43.274  -3.621  1.00  0.00     0.041 C 
ATOM      8  O   UNL     1     -19.127  44.380  -3.916  1.00  0.00    -0.550 OA
ATOM      9  O   UNL     1     -19.410  42.195  -3.288  1.00  0.00    -0.550 OA
ENDBRANCH   6   7
ENDBRANCH   5   6
ENDBRANCH   4   5
ENDBRANCH   3   4
ENDBRANCH   2   3
ENDBRANCH   1   2
BRANCH   1  10
ATOM     10  C   UNL     1     -16.101  46.339  -9.943  1.00  0.00     0.000 C 
BRANCH  10  11
ATOM     11  C   UNL     1     -17.032  45.688 -10.978  1.00  0.00    -0.000 C 
BRANCH  11  12
ATOM     12  C   UNL     1     -18.437  46.307 -10.984  1.00  0.00    -0.000 C 
BRANCH  12  13
ATOM     13  C   UNL     1     -19.515  45.224 -11.116  1.00  0.00    -0.000 C 
BRANCH  13  14
ATOM     14  C   UNL     1     -19.796  44.557  -9.761  1.00  0.00    -0.000 C 
BRANCH  14  15
ATOM     15  C   UNL     1     -19.691  43.019  -9.834  1.00  0.00    -0.000 C 
BRANCH  15  16
ATOM     16  C   UNL     1     -19.015  42.508 -11.118  1.00  0.00    -0.003 C 
ATOM     17  C   UNL     1     -17.757  41.686 -10.845  1.00  0.00     0.004 C 
ENDBRANCH  15  16
ENDBRANCH  14  15
ENDBRANCH  13  14
ENDBRANCH  12  13
ENDBRANCH  11  12
ENDBRANCH  10  11
ENDBRANCH   1  10
TORSDOF 13
ENDMDL
MODEL 7
REMARK VINA RESULT:    -2.944      1.834      3.338
REMARK INTER + INTRA:          -6.913
REMARK INTER:                  -5.497
REMARK INTRA:                  -1.417
REMARK UNBOUND:                -1.731
REMARK SMILES CCCCCCCCCCCCCCC(=O)[O-]
REMARK SMILES IDX 9 1 10 2 11 3 12 4 13 5 14 6 15 7 16 8 17 9 8 10 7 11 6 12
REMARK SMILES IDX 5 13 4 14 3 15 2 16 1 17
REMARK H PARENT
REMARK Flexibility Score: inf
ROOT
ATOM      1  C   UNL     1     -17.525  44.654 -11.039  1.00  0.00     0.000 C 
ENDROOT
BRANCH   1   2
ATOM      2  C   UNL     1     -18.641  45.281 -10.192  1.00  0.00     0.000 C 
BRANCH   2   3
ATOM      3  C   UNL     1     -19.496  44.231  -9.463  1.00  0.00     0.000 C 
BRANCH   3   4
ATOM      4  C   UNL     1     -18.678  43.393  -8.464  1.00  0.00     0.000 C 
BRANCH   4   5
ATOM      5  C   UNL     1     -18.389  44.151  -7.158  1.00  0.00     0.006 C 
BRANCH   5   6
ATOM      6  C   UNL     1     -17.428  43.393  -6.233  1.00  0.00     0.053 C 
BRANCH   6   7
ATOM      7  C   UNL     1     -17.956  43.376  -4.833  1.00  0.00     0.041 C 
ATOM      8  O   UNL     1     -17.376  42.698  -3.945  1.00  0.00    -0.550 OA
ATOM      9  O   UNL     1     -19.117  44.071  -4.521  1.00  0.00    -0.550 OA
ENDBRANCH   6   7
ENDBRANCH   5   6
ENDBRANCH   4   5
ENDBRANCH   3   4
ENDBRANCH   2   3
ENDBRANCH   1   2
BRANCH   1  10
ATOM     10  C   UNL     1     -16.171  45.317 -10.739  1.00  0.00     0.000 C 
BRANCH  10  11
ATOM     11  C   UNL     1     -15.245  44.421  -9.902  1.00  0.00    -0.000 C 
BRANCH  11  12
ATOM     12  C   UNL     1     -15.043  44.947  -8.474  1.00  0.00    -0.000 C 
BRANCH  12  13
ATOM     13  C   UNL     1     -15.313  46.455  -8.400  1.00  0.00    -0.000 C 
BRANCH  13  14
ATOM     14  C   UNL     1     -14.227  47.173  -7.586  1.00  0.00    -0.000 C 
BRANCH  14  15
ATOM     15  C   UNL     1     -14.671  48.577  -7.128  1.00  0.00    -0.000 C 
BRANCH  15  16
ATOM     16  C   UNL     1     -14.689  49.617  -8.262  1.00  0.00    -0.003 C 
ATOM     17  C   UNL     1     -15.009  51.029  -7.773  1.00  0.00     0.004 C 
ENDBRANCH  15  16
ENDBRANCH  14  15
ENDBRANCH  13  14
ENDBRANCH  12  13
ENDBRANCH  11  12
ENDBRANCH  10  11
ENDBRANCH   1  10
TORSDOF 13
ENDMDL
MODEL 8
REMARK VINA RESULT:    -2.933      0.914      3.071
REMARK INTER + INTRA:          -6.894
REMARK INTER:                  -5.318
REMARK INTRA:                  -1.576
REMARK UNBOUND:                -1.731
REMARK SMILES CCCCCCCCCCCCCCC(=O)[O-]
REMARK SMILES IDX 9 1 10 2 11 3 12 4 13 5 14 6 15 7 16 8 17 9 8 10 7 11 6 12
REMARK SMILES IDX 5 13 4 14 3 15 2 16 1 17
REMARK H PARENT
REMARK Flexibility Score: inf
ROOT
ATOM      1  C   UNL     1     -16.597  45.226  -8.700  1.00  0.00     0.000 C 
ENDROOT
BRANCH   1   2
ATOM      2  C   UNL     1     -15.253  45.167  -7.961  1.00  0.00     0.000 C 
BRANCH   2   3
ATOM      3  C   UNL     1     -15.229  44.099  -6.855  1.00  0.00     0.000 C 
BRANCH   3   4
ATOM      4  C   UNL     1     -16.641  43.665  -6.421  1.00  0.00     0.000 C 
BRANCH   4   5
ATOM      5  C   UNL     1     -16.660  43.043  -5.015  1.00  0.00     0.006 C 
BRANCH   5   6
ATOM      6  C   UNL     1     -17.943  42.249  -4.736  1.00  0.00     0.053 C 
BRANCH   6   7
ATOM      7  C   UNL     1     -18.720  42.888  -3.628  1.00  0.00     0.041 C 
ATOM      8  O   UNL     1     -19.268  42.176  -2.746  1.00  0.00    -0.550 OA
ATOM      9  O   UNL     1     -18.881  44.267  -3.598  1.00  0.00    -0.550 OA
ENDBRANCH   6   7
ENDBRANCH   5   6
ENDBRANCH   4   5
ENDBRANCH   3   4
ENDBRANCH   2   3
ENDBRANCH   1   2
BRANCH   1  10
ATOM     10  C   UNL     1     -16.392  45.565 -10.185  1.00  0.00     0.000 C 
BRANCH  10  11
ATOM     11  C   UNL     1     -17.058  44.545 -11.123  1.00  0.00    -0.000 C 
BRANCH  11  12
ATOM     12  C   UNL     1     -16.608  43.103 -10.847  1.00  0.00    -0.000 C 
BRANCH  12  13
ATOM     13  C   UNL     1     -17.812  42.158 -10.763  1.00  0.00    -0.000 C 
BRANCH  13  14
ATOM     14  C   UNL     1     -19.104  42.933 -10.464  1.00  0.00    -0.000 C 
BRANCH  14  15
ATOM     15  C   UNL     1     -19.356  43.087  -8.950  1.00  0.00    -0.000 C 
BRANCH  15  16
ATOM     16  C   UNL     1     -20.007  44.427  -8.568  1.00  0.00    -0.003 C 
ATOM     17  C   UNL     1     -19.819  44.785  -7.094  1.00  0.00     0.004 C 
ENDBRANCH  15  16
ENDBRANCH  14  15
ENDBRANCH  13  14
ENDBRANCH  12  13
ENDBRANCH  11  12
ENDBRANCH  10  11
ENDBRANCH   1  10
TORSDOF 13
ENDMDL
MODEL 9
REMARK VINA RESULT:    -2.728      1.748      3.296
REMARK INTER + INTRA:          -6.532
REMARK INTER:                  -5.294
REMARK INTRA:                  -1.238
REMARK UNBOUND:                -1.731
REMARK SMILES CCCCCCCCCCCCCCC(=O)[O-]
REMARK SMILES IDX 9 1 10 2 11 3 12 4 13 5 14 6 15 7 16 8 17 9 8 10 7 11 6 12
REMARK SMILES IDX 5 13 4 14 3 15 2 16 1 17
REMARK H PARENT
REMARK Flexibility Score: inf
ROOT
ATOM      1  C   UNL     1     -15.557  45.089  -9.224  1.00  0.00     0.000 C 
ENDROOT
BRANCH   1   2
ATOM      2  C   UNL     1     -16.005  44.263  -8.009  1.00  0.00     0.000 C 
BRANCH   2   3
ATOM      3  C   UNL     1     -17.515  44.369  -7.741  1.00  0.00     0.000 C 
BRANCH   3   4
ATOM      4  C   UNL     1     -17.992  43.386  -6.656  1.00  0.00     0.000 C 
BRANCH   4   5
ATOM      5  C   UNL     1     -17.078  43.384  -5.420  1.00  0.00     0.006 C 
BRANCH   5   6
ATOM      6  C   UNL     1     -17.513  42.360  -4.363  1.00  0.00     0.053 C 
BRANCH   6   7
ATOM      7  C   UNL     1     -18.726  42.845  -3.634  1.00  0.00     0.041 C 
ATOM      8  O   UNL     1     -19.686  42.062  -3.407  1.00  0.00    -0.550 OA
ATOM      9  O   UNL     1     -18.818  44.177  -3.249  1.00  0.00    -0.550 OA
ENDBRANCH   6   7
ENDBRANCH   5   6
ENDBRANCH   4   5
ENDBRANCH   3   4
ENDBRANCH   2   3
ENDBRANCH   1   2
BRANCH   1  10
ATOM     10  C   UNL     1     -16.705  45.969  -9.741  1.00  0.00     0.000 C 
BRANCH  10  11
ATOM     11  C   UNL     1     -16.303  46.812 -10.962  1.00  0.00    -0.000 C 
BRANCH  11  12
ATOM     12  C   UNL     1     -14.908  47.438 -10.816  1.00  0.00    -0.000 C 
BRANCH  12  13
ATOM     13  C   UNL     1     -15.003  48.878 -10.299  1.00  0.00    -0.000 C 
BRANCH  13  14
ATOM     14  C   UNL     1     -14.032  49.111  -9.132  1.00  0.00    -0.000 C 
BRANCH  14  15
ATOM     15  C   UNL     1     -14.665  48.772  -7.767  1.00  0.00    -0.000 C 
BRANCH  15  16
ATOM     16  C   UNL     1     -13.972  47.608  -7.038  1.00  0.00    -0.003 C 
ATOM     17  C   UNL     1     -13.875  47.820  -5.529  1.00  0.00     0.004 C 
ENDBRANCH  15  16
ENDBRANCH  14  15
ENDBRANCH  13  14
ENDBRANCH  12  13
ENDBRANCH  11  12
ENDBRANCH  10  11
ENDBRANCH   1  10
TORSDOF 13
ENDMDL
