MODEL 1
REMARK VINA RESULT:    -2.910      0.000      0.000
REMARK INTER + INTRA:          -6.030
REMARK INTER:                  -4.611
REMARK INTRA:                  -1.420
REMARK UNBOUND:                -1.420
REMARK SMILES CCCCCCCCCCCC(=O)[O-]
REMARK SMILES IDX 7 1 8 2 9 3 10 4 11 5 12 6 13 7 14 8 6 9 5 10 4 11 3 12 2 13
REMARK SMILES IDX 1 14
REMARK H PARENT
REMARK Flexibility Score: inf
ROOT
ATOM      1  C   UNL     1      22.736  65.916  18.356  1.00  0.00     0.000 C 
ENDROOT
BRANCH   1   2
ATOM      2  C   UNL     1      22.798  67.285  17.669  1.00  0.00     0.000 C 
BRANCH   2   3
ATOM      3  C   UNL     1      22.355  68.401  18.623  1.00  0.00     0.000 C 
BRANCH   3   4
ATOM      4  C   UNL     1      22.684  69.783  18.045  1.00  0.00     0.006 C 
BRANCH   4   5
ATOM      5  C   UNL     1      21.410  70.519  17.625  1.00  0.00     0.053 C 
BRANCH   5   6
ATOM      6  C   UNL     1      21.420  70.786  16.152  1.00  0.00     0.041 C 
ATOM      7  O   UNL     1      21.847  69.913  15.353  1.00  0.00    -0.550 OA
ATOM      8  O   UNL     1      20.911  71.981  15.659  1.00  0.00    -0.550 OA
ENDBRANCH   5   6
ENDBRANCH   4   5
ENDBRANCH   3   4
ENDBRANCH   2   3
ENDBRANCH   1   2
BRANCH   1   9
ATOM      9  C   UNL     1      21.433  65.758  19.154  1.00  0.00     0.000 C 
BRANCH   9  10
ATOM     10  C   UNL     1      20.347  64.985  18.385  1.00  0.00    -0.000 C 
BRANCH  10  11
ATOM     11  C   UNL     1      18.948  65.626  18.408  1.00  0.00    -0.000 C 
BRANCH  11  12
ATOM     12  C   UNL     1      18.958  67.068  18.945  1.00  0.00    -0.000 C 
BRANCH  12  13
ATOM     13  C   UNL     1      18.711  68.109  17.841  1.00  0.00    -0.003 C 
ATOM     14  C   UNL     1      19.236  67.661  16.477  1.00  0.00     0.004 C 
ENDBRANCH  12  13
ENDBRANCH  11  12
ENDBRANCH  10  11
ENDBRANCH   9  10
ENDBRANCH   1   9
TORSDOF 10
ENDMDL
MODEL 2
REMARK VINA RESULT:    -2.875      2.405      4.439
REMARK INTER + INTRA:          -5.975
REMARK INTER:                  -4.467
REMARK INTRA:                  -1.508
REMARK UNBOUND:                -1.420
REMARK SMILES CCCCCCCCCCCC(=O)[O-]
REMARK SMILES IDX 7 1 8 2 9 3 10 4 11 5 12 6 13 7 14 8 6 9 5 10 4 11 3 12 2 13
REMARK SMILES IDX 1 14
REMARK H PARENT
REMARK Flexibility Score: inf
ROOT
ATOM      1  C   UNL     1      23.099  67.145  16.870  1.00  0.00     0.000 C 
ENDROOT
BRANCH   1   2
ATOM      2  C   UNL     1      22.014  66.349  16.138  1.00  0.00     0.000 C 
BRANCH   2   3
ATOM      3  C   UNL     1      21.111  67.276  15.314  1.00  0.00     0.000 C 
BRANCH   3   4
ATOM      4  C   UNL     1      19.733  67.428  15.969  1.00  0.00     0.006 C 
BRANCH   4   5
ATOM      5  C   UNL     1      19.373  66.185  16.786  1.00  0.00     0.053 C 
BRANCH   5   6
ATOM      6  C   UNL     1      18.971  66.568  18.175  1.00  0.00     0.041 C 
ATOM      7  O   UNL     1      19.255  65.821  19.146  1.00  0.00    -0.550 OA
ATOM      8  O   UNL     1      18.325  67.778  18.402  1.00  0.00    -0.550 OA
ENDBRANCH   5   6
ENDBRANCH   4   5
ENDBRANCH   3   4
ENDBRANCH   2   3
ENDBRANCH   1   2
BRANCH   1   9
ATOM      9  C   UNL     1      22.811  67.211  18.378  1.00  0.00     0.000 C 
BRANCH   9  10
ATOM     10  C   UNL     1      22.017  68.467  18.784  1.00  0.00    -0.000 C 
BRANCH  10  11
ATOM     11  C   UNL     1      22.543  69.790  18.199  1.00  0.00    -0.000 C 
BRANCH  11  12
ATOM     12  C   UNL     1      21.520  70.491  17.288  1.00  0.00    -0.000 C 
BRANCH  12  13
ATOM     13  C   UNL     1      22.187  71.244  16.126  1.00  0.00    -0.003 C 
ATOM     14  C   UNL     1      21.633  70.837  14.760  1.00  0.00     0.004 C 
ENDBRANCH  12  13
ENDBRANCH  11  12
ENDBRANCH  10  11
ENDBRANCH   9  10
ENDBRANCH   1   9
TORSDOF 10
ENDMDL
MODEL 3
REMARK VINA RESULT:    -2.780      1.551      3.261
REMARK INTER + INTRA:          -5.825
REMARK INTER:                  -4.170
REMARK INTRA:                  -1.655
REMARK UNBOUND:                -1.420
REMARK SMILES CCCCCCCCCCCC(=O)[O-]
REMARK SMILES IDX 7 1 8 2 9 3 10 4 11 5 12 6 13 7 14 8 6 9 5 10 4 11 3 12 2 13
REMARK SMILES IDX 1 14
REMARK H PARENT
REMARK Flexibility Score: inf
ROOT
ATOM      1  C   UNL     1      19.702  65.459  16.435  1.00  0.00     0.000 C 
ENDROOT
BRANCH   1   2
ATOM      2  C   UNL     1      19.568  66.648  15.475  1.00  0.00     0.000 C 
BRANCH   2   3
ATOM      3  C   UNL     1      19.270  67.943  16.241  1.00  0.00     0.000 C 
BRANCH   3   4
ATOM      4  C   UNL     1      20.302  69.028  15.911  1.00  0.00     0.006 C 
BRANCH   4   5
ATOM      5  C   UNL     1      20.427  70.034  17.058  1.00  0.00     0.053 C 
BRANCH   5   6
ATOM      6  C   UNL     1      21.825  70.559  17.144  1.00  0.00     0.041 C 
ATOM      7  O   UNL     1      22.294  71.268  16.216  1.00  0.00    -0.550 OA
ATOM      8  O   UNL     1      22.595  70.306  18.273  1.00  0.00    -0.550 OA
ENDBRANCH   5   6
ENDBRANCH   4   5
ENDBRANCH   3   4
ENDBRANCH   2   3
ENDBRANCH   1   2
BRANCH   1   9
ATOM      9  C   UNL     1      19.456  65.894  17.887  1.00  0.00     0.000 C 
BRANCH   9  10
ATOM     10  C   UNL     1      20.694  65.718  18.786  1.00  0.00    -0.000 C 
BRANCH  10  11
ATOM     11  C   UNL     1      21.590  66.964  18.915  1.00  0.00    -0.000 C 
BRANCH  11  12
ATOM     12  C   UNL     1      23.006  66.745  18.355  1.00  0.00    -0.000 C 
BRANCH  12  13
ATOM     13  C   UNL     1      23.096  67.044  16.850  1.00  0.00    -0.003 C 
ATOM     14  C   UNL     1      23.578  65.843  16.035  1.00  0.00     0.004 C 
ENDBRANCH  12  13
ENDBRANCH  11  12
ENDBRANCH  10  11
ENDBRANCH   9  10
ENDBRANCH   1   9
TORSDOF 10
ENDMDL
MODEL 4
REMARK VINA RESULT:    -2.752      1.562      2.684
REMARK INTER + INTRA:          -5.781
REMARK INTER:                  -4.237
REMARK INTRA:                  -1.544
REMARK UNBOUND:                -1.420
REMARK SMILES CCCCCCCCCCCC(=O)[O-]
REMARK SMILES IDX 7 1 8 2 9 3 10 4 11 5 12 6 13 7 14 8 6 9 5 10 4 11 3 12 2 13
REMARK SMILES IDX 1 14
REMARK H PARENT
REMARK Flexibility Score: inf
ROOT
ATOM      1  C   UNL     1      20.044  66.363  18.881  1.00  0.00     0.000 C 
ENDROOT
BRANCH   1   2
ATOM      2  C   UNL     1      20.381  67.823  18.561  1.00  0.00     0.000 C 
BRANCH   2   3
ATOM      3  C   UNL     1      21.746  68.214  19.142  1.00  0.00     0.000 C 
BRANCH   3   4
ATOM      4  C   UNL     1      22.580  68.990  18.115  1.00  0.00     0.006 C 
BRANCH   4   5
ATOM      5  C   UNL     1      22.153  70.459  18.059  1.00  0.00     0.053 C 
BRANCH   5   6
ATOM      6  C   UNL     1      21.571  70.785  16.720  1.00  0.00     0.041 C 
ATOM      7  O   UNL     1      20.328  70.723  16.537  1.00  0.00    -0.550 OA
ATOM      8  O   UNL     1      22.400  71.207  15.687  1.00  0.00    -0.550 OA
ENDBRANCH   5   6
ENDBRANCH   4   5
ENDBRANCH   3   4
ENDBRANCH   2   3
ENDBRANCH   1   2
BRANCH   1   9
ATOM      9  C   UNL     1      21.320  65.544  19.126  1.00  0.00     0.000 C 
BRANCH   9  10
ATOM     10  C   UNL     1      21.860  64.875  17.848  1.00  0.00    -0.000 C 
BRANCH  10  11
ATOM     11  C   UNL     1      23.240  65.373  17.383  1.00  0.00    -0.000 C 
BRANCH  11  12
ATOM     12  C   UNL     1      23.208  66.006  15.980  1.00  0.00    -0.000 C 
BRANCH  12  13
ATOM     13  C   UNL     1      21.803  65.985  15.358  1.00  0.00    -0.003 C 
ATOM     14  C   UNL     1      21.265  67.385  15.062  1.00  0.00     0.004 C 
ENDBRANCH  12  13
ENDBRANCH  11  12
ENDBRANCH  10  11
ENDBRANCH   9  10
ENDBRANCH   1   9
TORSDOF 10
ENDMDL
MODEL 5
REMARK VINA RESULT:    -2.746      1.279      2.125
REMARK INTER + INTRA:          -5.771
REMARK INTER:                  -4.201
REMARK INTRA:                  -1.570
REMARK UNBOUND:                -1.420
REMARK SMILES CCCCCCCCCCCC(=O)[O-]
REMARK SMILES IDX 7 1 8 2 9 3 10 4 11 5 12 6 13 7 14 8 6 9 5 10 4 11 3 12 2 13
REMARK SMILES IDX 1 14
REMARK H PARENT
REMARK Flexibility Score: inf
ROOT
ATOM      1  C   UNL     1      23.099  67.143  17.105  1.00  0.00     0.000 C 
ENDROOT
BRANCH   1   2
ATOM      2  C   UNL     1      22.690  67.276  18.577  1.00  0.00     0.000 C 
BRANCH   2   3
ATOM      3  C   UNL     1      22.143  68.678  18.872  1.00  0.00     0.000 C 
BRANCH   3   4
ATOM      4  C   UNL     1      22.681  69.702  17.865  1.00  0.00     0.006 C 
BRANCH   4   5
ATOM      5  C   UNL     1      21.536  70.479  17.208  1.00  0.00     0.053 C 
BRANCH   5   6
ATOM      6  C   UNL     1      21.985  71.076  15.912  1.00  0.00     0.041 C 
ATOM      7  O   UNL     1      22.808  72.028  15.903  1.00  0.00    -0.550 OA
ATOM      8  O   UNL     1      21.530  70.547  14.710  1.00  0.00    -0.550 OA
ENDBRANCH   5   6
ENDBRANCH   4   5
ENDBRANCH   3   4
ENDBRANCH   2   3
ENDBRANCH   1   2
BRANCH   1   9
ATOM      9  C   UNL     1      22.103  66.262  16.335  1.00  0.00     0.000 C 
BRANCH   9  10
ATOM     10  C   UNL     1      21.353  67.028  15.229  1.00  0.00    -0.000 C 
BRANCH  10  11
ATOM     11  C   UNL     1      19.945  67.517  15.613  1.00  0.00    -0.000 C 
BRANCH  11  12
ATOM     12  C   UNL     1      19.378  66.801  16.851  1.00  0.00    -0.000 C 
BRANCH  12  13
ATOM     13  C   UNL     1      18.843  67.783  17.905  1.00  0.00    -0.003 C 
ATOM     14  C   UNL     1      18.274  67.078  19.137  1.00  0.00     0.004 C 
ENDBRANCH  12  13
ENDBRANCH  11  12
ENDBRANCH  10  11
ENDBRANCH   9  10
ENDBRANCH   1   9
TORSDOF 10
ENDMDL
MODEL 6
REMARK VINA RESULT:    -2.720      1.231      1.996
REMARK INTER + INTRA:          -5.730
REMARK INTER:                  -4.523
REMARK INTRA:                  -1.206
REMARK UNBOUND:                -1.420
REMARK SMILES CCCCCCCCCCCC(=O)[O-]
REMARK SMILES IDX 7 1 8 2 9 3 10 4 11 5 12 6 13 7 14 8 6 9 5 10 4 11 3 12 2 13
REMARK SMILES IDX 1 14
REMARK H PARENT
REMARK Flexibility Score: inf
ROOT
ATOM      1  C   UNL     1      22.786  67.816  17.525  1.00  0.00     0.000 C 
ENDROOT
BRANCH   1   2
ATOM      2  C   UNL     1      22.362  68.897  18.525  1.00  0.00     0.000 C 
BRANCH   2   3
ATOM      3  C   UNL     1      22.697  70.298  17.998  1.00  0.00     0.000 C 
BRANCH   3   4
ATOM      4  C   UNL     1      21.573  70.833  17.103  1.00  0.00     0.006 C 
BRANCH   4   5
ATOM      5  C   UNL     1      22.029  70.926  15.645  1.00  0.00     0.053 C 
BRANCH   5   6
ATOM      6  C   UNL     1      22.477  72.317  15.324  1.00  0.00     0.041 C 
ATOM      7  O   UNL     1      21.651  73.168  14.904  1.00  0.00    -0.550 OA
ATOM      8  O   UNL     1      23.800  72.687  15.536  1.00  0.00    -0.550 OA
ENDBRANCH   5   6
ENDBRANCH   4   5
ENDBRANCH   3   4
ENDBRANCH   2   3
ENDBRANCH   1   2
BRANCH   1   9
ATOM      9  C   UNL     1      22.492  66.411  18.074  1.00  0.00     0.000 C 
BRANCH   9  10
ATOM     10  C   UNL     1      21.351  66.397  19.108  1.00  0.00    -0.000 C 
BRANCH  10  11
ATOM     11  C   UNL     1      20.123  65.557  18.715  1.00  0.00    -0.000 C 
BRANCH  11  12
ATOM     12  C   UNL     1      19.447  66.050  17.423  1.00  0.00    -0.000 C 
BRANCH  12  13
ATOM     13  C   UNL     1      19.018  67.523  17.509  1.00  0.00    -0.003 C 
ATOM     14  C   UNL     1      19.095  68.243  16.162  1.00  0.00     0.004 C 
ENDBRANCH  12  13
ENDBRANCH  11  12
ENDBRANCH  10  11
ENDBRANCH   9  10
ENDBRANCH   1   9
TORSDOF 10
ENDMDL
MODEL 7
REMARK VINA RESULT:    -2.710      1.677      3.629
REMARK INTER + INTRA:          -5.714
REMARK INTER:                  -4.064
REMARK INTRA:                  -1.649
REMARK UNBOUND:                -1.420
REMARK SMILES CCCCCCCCCCCC(=O)[O-]
REMARK SMILES IDX 7 1 8 2 9 3 10 4 11 5 12 6 13 7 14 8 6 9 5 10 4 11 3 12 2 13
REMARK SMILES IDX 1 14
REMARK H PARENT
REMARK Flexibility Score: inf
ROOT
ATOM      1  C   UNL     1      19.856  66.375  15.383  1.00  0.00     0.000 C 
ENDROOT
BRANCH   1   2
ATOM      2  C   UNL     1      19.284  67.644  16.026  1.00  0.00     0.000 C 
BRANCH   2   3
ATOM      3  C   UNL     1      19.342  67.560  17.556  1.00  0.00     0.000 C 
BRANCH   3   4
ATOM      4  C   UNL     1      20.300  68.610  18.131  1.00  0.00     0.006 C 
BRANCH   4   5
ATOM      5  C   UNL     1      20.554  69.732  17.120  1.00  0.00     0.053 C 
BRANCH   5   6
ATOM      6  C   UNL     1      21.872  70.388  17.386  1.00  0.00     0.041 C 
ATOM      7  O   UNL     1      22.492  70.154  18.456  1.00  0.00    -0.550 OA
ATOM      8  O   UNL     1      22.439  71.221  16.429  1.00  0.00    -0.550 OA
ENDBRANCH   5   6
ENDBRANCH   4   5
ENDBRANCH   3   4
ENDBRANCH   2   3
ENDBRANCH   1   2
BRANCH   1   9
ATOM      9  C   UNL     1      21.257  66.633  14.808  1.00  0.00     0.000 C 
BRANCH   9  10
ATOM     10  C   UNL     1      22.379  65.992  15.645  1.00  0.00    -0.000 C 
BRANCH  10  11
ATOM     11  C   UNL     1      23.133  66.958  16.576  1.00  0.00    -0.000 C 
BRANCH  11  12
ATOM     12  C   UNL     1      23.170  66.476  18.037  1.00  0.00    -0.000 C 
BRANCH  12  13
ATOM     13  C   UNL     1      22.508  65.101  18.220  1.00  0.00    -0.003 C 
ATOM     14  C   UNL     1      21.419  65.106  19.293  1.00  0.00     0.004 C 
ENDBRANCH  12  13
ENDBRANCH  11  12
ENDBRANCH  10  11
ENDBRANCH   9  10
ENDBRANCH   1   9
TORSDOF 10
ENDMDL
MODEL 8
REMARK VINA RESULT:    -2.705      2.696      4.881
REMARK INTER + INTRA:          -5.706
REMARK INTER:                  -4.193
REMARK INTRA:                  -1.513
REMARK UNBOUND:                -1.420
REMARK SMILES CCCCCCCCCCCC(=O)[O-]
REMARK SMILES IDX 7 1 8 2 9 3 10 4 11 5 12 6 13 7 14 8 6 9 5 10 4 11 3 12 2 13
REMARK SMILES IDX 1 14
REMARK H PARENT
REMARK Flexibility Score: inf
ROOT
ATOM      1  C   UNL     1      20.743  70.504  17.083  1.00  0.00     0.000 C 
ENDROOT
BRANCH   1   2
ATOM      2  C   UNL     1      20.969  69.624  15.848  1.00  0.00     0.000 C 
BRANCH   2   3
ATOM      3  C   UNL     1      19.665  68.947  15.407  1.00  0.00     0.000 C 
BRANCH   3   4
ATOM      4  C   UNL     1      19.643  67.471  15.823  1.00  0.00     0.006 C 
BRANCH   4   5
ATOM      5  C   UNL     1      19.072  67.307  17.235  1.00  0.00     0.053 C 
BRANCH   5   6
ATOM      6  C   UNL     1      19.233  65.896  17.704  1.00  0.00     0.041 C 
ATOM      7  O   UNL     1      19.322  64.957  16.871  1.00  0.00    -0.550 OA
ATOM      8  O   UNL     1      19.334  65.623  19.063  1.00  0.00    -0.550 OA
ENDBRANCH   5   6
ENDBRANCH   4   5
ENDBRANCH   3   4
ENDBRANCH   2   3
ENDBRANCH   1   2
BRANCH   1   9
ATOM      9  C   UNL     1      21.951  70.446  18.030  1.00  0.00     0.000 C 
BRANCH   9  10
ATOM     10  C   UNL     1      22.771  69.151  17.881  1.00  0.00    -0.000 C 
BRANCH  10  11
ATOM     11  C   UNL     1      22.316  67.983  18.775  1.00  0.00    -0.000 C 
BRANCH  11  12
ATOM     12  C   UNL     1      22.815  66.616  18.275  1.00  0.00    -0.000 C 
BRANCH  12  13
ATOM     13  C   UNL     1      23.563  66.717  16.936  1.00  0.00    -0.003 C 
ATOM     14  C   UNL     1      22.884  65.925  15.817  1.00  0.00     0.004 C 
ENDBRANCH  12  13
ENDBRANCH  11  12
ENDBRANCH  10  11
ENDBRANCH   9  10
ENDBRANCH   1   9
TORSDOF 10
ENDMDL
MODEL 9
REMARK VINA RESULT:    -2.685      1.264      2.128
REMARK INTER + INTRA:          -5.675
REMARK INTER:                  -4.084
REMARK INTRA:                  -1.591
REMARK UNBOUND:                -1.420
REMARK SMILES CCCCCCCCCCCC(=O)[O-]
REMARK SMILES IDX 7 1 8 2 9 3 10 4 11 5 12 6 13 7 14 8 6 9 5 10 4 11 3 12 2 13
REMARK SMILES IDX 1 14
REMARK H PARENT
REMARK Flexibility Score: inf
ROOT
ATOM      1  C   UNL     1      22.848  67.588  17.685  1.00  0.00     0.000 C 
ENDROOT
BRANCH   1   2
ATOM      2  C   UNL     1      22.363  68.597  18.732  1.00  0.00     0.000 C 
BRANCH   2   3
ATOM      3  C   UNL     1      22.032  69.947  18.085  1.00  0.00     0.000 C 
BRANCH   3   4
ATOM      4  C   UNL     1      21.538  69.761  16.645  1.00  0.00     0.006 C 
BRANCH   4   5
ATOM      5  C   UNL     1      20.081  70.209  16.502  1.00  0.00     0.053 C 
BRANCH   5   6
ATOM      6  C   UNL     1      19.995  71.702  16.448  1.00  0.00     0.041 C 
ATOM      7  O   UNL     1      19.196  72.319  17.199  1.00  0.00    -0.550 OA
ATOM      8  O   UNL     1      20.834  72.415  15.600  1.00  0.00    -0.550 OA
ENDBRANCH   5   6
ENDBRANCH   4   5
ENDBRANCH   3   4
ENDBRANCH   2   3
ENDBRANCH   1   2
BRANCH   1   9
ATOM      9  C   UNL     1      22.747  66.150  18.218  1.00  0.00     0.000 C 
BRANCH   9  10
ATOM     10  C   UNL     1      21.558  65.372  17.627  1.00  0.00    -0.000 C 
BRANCH  10  11
ATOM     11  C   UNL     1      20.873  66.040  16.421  1.00  0.00    -0.000 C 
BRANCH  11  12
ATOM     12  C   UNL     1      19.428  66.478  16.719  1.00  0.00    -0.000 C 
BRANCH  12  13
ATOM     13  C   UNL     1      19.023  66.215  18.178  1.00  0.00    -0.003 C 
ATOM     14  C   UNL     1      18.773  67.502  18.965  1.00  0.00     0.004 C 
ENDBRANCH  12  13
ENDBRANCH  11  12
ENDBRANCH  10  11
ENDBRANCH   9  10
ENDBRANCH   1   9
TORSDOF 10
ENDMDL
