MODEL 1
REMARK VINA RESULT:    -4.513      0.000      0.000
REMARK INTER + INTRA:          -6.138
REMARK INTER:                  -6.359
REMARK INTRA:                   0.222
REMARK UNBOUND:                 0.222
REMARK SMILES CC1=CCC(=C(C)C)C(=O)CC(C)=CCC1
REMARK SMILES IDX 12 1 14 2 13 3 15 4 16 5 2 6 1 7 3 8 11 10 9 11 10 12 5 13
REMARK SMILES IDX 6 14 7 15 8 16 4 17
REMARK H PARENT
REMARK Flexibility Score: 60.00
ROOT
ATOM      1  C   UNL     1      15.178 -34.010  20.960  1.00  0.00    -0.070 C 
ATOM      2  C   UNL     1      14.311 -33.115  20.438  1.00  0.00    -0.027 C 
ATOM      3  C   UNL     1      15.791 -35.024  20.027  1.00  0.00     0.039 C 
ENDROOT
BRANCH   2   4
ATOM      4  C   UNL     1      13.671 -31.966  21.186  1.00  0.00     0.032 C 
BRANCH   4   5
ATOM      5  C   UNL     1      14.555 -30.709  21.324  1.00  0.00     0.034 C 
BRANCH   5   6
ATOM      6  C   UNL     1      14.702 -30.238  22.760  1.00  0.00    -0.077 C 
ATOM      7  C   UNL     1      13.491 -29.639  23.430  1.00  0.00     0.039 C 
ATOM      8  C   UNL     1      15.830 -30.382  23.500  1.00  0.00    -0.023 CG0
ATOM      9  G   UNL     1      17.163 -30.933  23.035  1.00  0.00     0.000 G0
ENDBRANCH   5   6
ENDBRANCH   4   5
ENDBRANCH   2   4
BRANCH   1  10
ATOM     10  C   UNL     1      15.630 -33.986  22.406  1.00  0.00     0.111 C 
BRANCH  10  11
ATOM     11  C   UNL     1      17.033 -33.456  22.542  1.00  0.00     0.163 C 
ATOM     12  O   UNL     1      17.920 -33.922  21.776  1.00  0.00    -0.294 OA
BRANCH  11  13
ATOM     13  C   UNL     1      17.389 -32.368  23.500  1.00  0.00    -0.002 C 
ATOM     14  C   UNL     1      17.969 -32.658  24.703  1.00  0.00    -0.069 C 
ATOM     15  C   UNL     1      18.124 -34.087  25.174  1.00  0.00     0.039 C 
ATOM     16  C   UNL     1      18.485 -31.575  25.626  1.00  0.00     0.039 C 
BRANCH  13  17
ATOM     17  C   UNL     1      17.169 -30.936  23.038  1.00  0.00     0.066 CG0
ATOM     18  G   UNL     1      15.829 -30.387  23.485  1.00  0.00     0.000 G0
ENDBRANCH  13  17
ENDBRANCH  11  13
ENDBRANCH  10  11
ENDBRANCH   1  10
TORSDOF 0
ENDMDL
MODEL 2
REMARK VINA RESULT:    -4.473      2.174      4.820
REMARK INTER + INTRA:          -6.081
REMARK INTER:                  -6.667
REMARK INTRA:                   0.586
REMARK UNBOUND:                 0.222
REMARK SMILES CC1=CCC(=C(C)C)C(=O)CC(C)=CCC1
REMARK SMILES IDX 12 1 14 2 13 3 15 4 16 5 2 6 1 7 3 8 11 10 9 11 10 12 5 13
REMARK SMILES IDX 6 14 7 15 8 16 4 17
REMARK H PARENT
REMARK Flexibility Score: 60.00
ROOT
ATOM      1  C   UNL     1      16.966 -31.012  22.242  1.00  0.00    -0.070 C 
ATOM      2  C   UNL     1      17.605 -31.407  21.118  1.00  0.00    -0.027 C 
ATOM      3  C   UNL     1      16.434 -29.602  22.291  1.00  0.00     0.039 C 
ENDROOT
BRANCH   2   4
ATOM      4  C   UNL     1      18.121 -32.802  20.840  1.00  0.00     0.032 C 
BRANCH   4   5
ATOM      5  C   UNL     1      17.352 -33.571  19.746  1.00  0.00     0.034 C 
BRANCH   5   6
ATOM      6  C   UNL     1      16.378 -34.592  20.306  1.00  0.00    -0.077 C 
ATOM      7  C   UNL     1      16.833 -36.029  20.380  1.00  0.00     0.039 C 
ATOM      8  C   UNL     1      15.155 -34.288  20.805  1.00  0.00    -0.023 CG0
ATOM      9  G   UNL     1      14.485 -32.929  20.819  1.00  0.00     0.000 G0
ENDBRANCH   5   6
ENDBRANCH   4   5
ENDBRANCH   2   4
BRANCH   1  10
ATOM     10  C   UNL     1      16.681 -31.938  23.406  1.00  0.00     0.111 C 
BRANCH  10  11
ATOM     11  C   UNL     1      15.410 -32.718  23.198  1.00  0.00     0.163 C 
ATOM     12  O   UNL     1      15.200 -33.718  23.936  1.00  0.00    -0.294 OA
BRANCH  11  13
ATOM     13  C   UNL     1      14.376 -32.314  22.200  1.00  0.00    -0.002 C 
ATOM     14  C   UNL     1      13.434 -31.372  22.511  1.00  0.00    -0.069 C 
ATOM     15  C   UNL     1      13.306 -30.825  23.915  1.00  0.00     0.039 C 
ATOM     16  C   UNL     1      12.475 -30.827  21.475  1.00  0.00     0.039 C 
BRANCH  13  17
ATOM     17  C   UNL     1      14.478 -32.920  20.809  1.00  0.00     0.066 CG0
ATOM     18  G   UNL     1      15.152 -34.277  20.821  1.00  0.00     0.000 G0
ENDBRANCH  13  17
ENDBRANCH  11  13
ENDBRANCH  10  11
ENDBRANCH   1  10
TORSDOF 0
ENDMDL
MODEL 3
REMARK VINA RESULT:    -4.372      2.195      4.136
REMARK INTER + INTRA:          -5.940
REMARK INTER:                  -6.240
REMARK INTRA:                   0.300
REMARK UNBOUND:                 0.222
REMARK SMILES CC1=CCC(=C(C)C)C(=O)CC(C)=CCC1
REMARK SMILES IDX 12 1 14 2 13 3 15 4 16 5 2 6 1 7 3 8 11 10 9 11 10 12 5 13
REMARK SMILES IDX 6 14 7 15 8 16 4 17
REMARK H PARENT
REMARK Flexibility Score: 60.00
ROOT
ATOM      1  C   UNL     1      14.610 -33.178  21.096  1.00  0.00    -0.070 C 
ATOM      2  C   UNL     1      14.918 -33.997  20.066  1.00  0.00    -0.027 C 
ATOM      3  C   UNL     1      13.693 -32.013  20.820  1.00  0.00     0.039 C 
ENDROOT
BRANCH   2   4
ATOM      4  C   UNL     1      15.738 -35.266  20.162  1.00  0.00     0.032 C 
BRANCH   4   5
ATOM      5  C   UNL     1      17.120 -35.096  20.825  1.00  0.00     0.034 C 
BRANCH   5   6
ATOM      6  C   UNL     1      18.004 -34.088  20.112  1.00  0.00    -0.077 C 
ATOM      7  C   UNL     1      18.344 -34.352  18.666  1.00  0.00     0.039 C 
ATOM      8  C   UNL     1      18.451 -32.935  20.668  1.00  0.00    -0.023 CG0
ATOM      9  G   UNL     1      18.252 -32.472  22.097  1.00  0.00     0.000 G0
ENDBRANCH   5   6
ENDBRANCH   4   5
ENDBRANCH   2   4
BRANCH   1  10
ATOM     10  C   UNL     1      15.064 -33.425  22.520  1.00  0.00     0.111 C 
BRANCH  10  11
ATOM     11  C   UNL     1      15.869 -32.271  23.056  1.00  0.00     0.163 C 
ATOM     12  O   UNL     1      15.618 -31.863  24.222  1.00  0.00    -0.294 OA
BRANCH  11  13
ATOM     13  C   UNL     1      16.981 -31.643  22.283  1.00  0.00    -0.002 C 
ATOM     14  C   UNL     1      16.884 -30.353  21.840  1.00  0.00    -0.069 C 
ATOM     15  C   UNL     1      15.595 -29.573  21.975  1.00  0.00     0.039 C 
ATOM     16  C   UNL     1      18.051 -29.638  21.194  1.00  0.00     0.039 C 
BRANCH  13  17
ATOM     17  C   UNL     1      18.249 -32.462  22.100  1.00  0.00     0.066 CG0
ATOM     18  G   UNL     1      18.429 -32.933  20.670  1.00  0.00     0.000 G0
ENDBRANCH  13  17
ENDBRANCH  11  13
ENDBRANCH  10  11
ENDBRANCH   1  10
TORSDOF 0
ENDMDL
MODEL 4
REMARK VINA RESULT:    -4.296      2.304      4.339
REMARK INTER + INTRA:          -5.832
REMARK INTER:                  -6.186
REMARK INTRA:                   0.354
REMARK UNBOUND:                 0.222
REMARK SMILES CC1=CCC(=C(C)C)C(=O)CC(C)=CCC1
REMARK SMILES IDX 12 1 14 2 13 3 15 4 16 5 2 6 1 7 3 8 11 10 9 11 10 12 5 13
REMARK SMILES IDX 6 14 7 15 8 16 4 17
REMARK H PARENT
REMARK Flexibility Score: 60.00
ROOT
ATOM      1  C   UNL     1      13.955 -30.614  23.530  1.00  0.00    -0.070 C 
ATOM      2  C   UNL     1      13.527 -31.730  24.161  1.00  0.00    -0.027 C 
ATOM      3  C   UNL     1      12.951 -29.518  23.280  1.00  0.00     0.039 C 
ENDROOT
BRANCH   2   4
ATOM      4  C   UNL     1      14.398 -32.892  24.587  1.00  0.00     0.032 C 
BRANCH   4   5
ATOM      5  C   UNL     1      15.009 -33.704  23.427  1.00  0.00     0.034 C 
BRANCH   5   6
ATOM      6  C   UNL     1      16.510 -33.894  23.556  1.00  0.00    -0.077 C 
ATOM      7  C   UNL     1      17.030 -34.543  24.815  1.00  0.00     0.039 C 
ATOM      8  C   UNL     1      17.407 -33.581  22.588  1.00  0.00    -0.023 CG0
ATOM      9  G   UNL     1      17.120 -32.908  21.260  1.00  0.00     0.000 G0
ENDBRANCH   5   6
ENDBRANCH   4   5
ENDBRANCH   2   4
BRANCH   1  10
ATOM     10  C   UNL     1      15.402 -30.376  23.150  1.00  0.00     0.111 C 
BRANCH  10  11
ATOM     11  C   UNL     1      15.693 -30.844  21.748  1.00  0.00     0.163 C 
ATOM     12  O   UNL     1      14.790 -30.711  20.879  1.00  0.00    -0.294 OA
BRANCH  11  13
ATOM     13  C   UNL     1      17.020 -31.397  21.347  1.00  0.00    -0.002 C 
ATOM     14  C   UNL     1      18.098 -30.573  21.175  1.00  0.00    -0.069 C 
ATOM     15  C   UNL     1      17.951 -29.068  21.229  1.00  0.00     0.039 C 
ATOM     16  C   UNL     1      19.488 -31.115  20.925  1.00  0.00     0.039 C 
BRANCH  13  17
ATOM     17  C   UNL     1      17.138 -32.908  21.235  1.00  0.00     0.066 CG0
ATOM     18  G   UNL     1      17.411 -33.565  22.573  1.00  0.00     0.000 G0
ENDBRANCH  13  17
ENDBRANCH  11  13
ENDBRANCH  10  11
ENDBRANCH   1  10
TORSDOF 0
ENDMDL
MODEL 5
REMARK VINA RESULT:    -4.290      2.126      4.081
REMARK INTER + INTRA:          -5.824
REMARK INTER:                  -6.148
REMARK INTRA:                   0.324
REMARK UNBOUND:                 0.222
REMARK SMILES CC1=CCC(=C(C)C)C(=O)CC(C)=CCC1
REMARK SMILES IDX 12 1 14 2 13 3 15 4 16 5 2 6 1 7 3 8 11 10 9 11 10 12 5 13
REMARK SMILES IDX 6 14 7 15 8 16 4 17
REMARK H PARENT
REMARK Flexibility Score: 60.00
ROOT
ATOM      1  C   UNL     1      14.338 -32.534  21.154  1.00  0.00    -0.070 C 
ATOM      2  C   UNL     1      14.412 -33.253  20.012  1.00  0.00    -0.027 C 
ATOM      3  C   UNL     1      13.494 -31.285  21.147  1.00  0.00     0.039 C 
ENDROOT
BRANCH   2   4
ATOM      4  C   UNL     1      15.124 -34.578  19.848  1.00  0.00     0.032 C 
BRANCH   4   5
ATOM      5  C   UNL     1      16.595 -34.473  19.398  1.00  0.00     0.034 C 
BRANCH   5   6
ATOM      6  C   UNL     1      17.520 -35.408  20.157  1.00  0.00    -0.077 C 
ATOM      7  C   UNL     1      17.549 -36.858  19.739  1.00  0.00     0.039 C 
ATOM      8  C   UNL     1      18.370 -35.014  21.137  1.00  0.00    -0.023 CG0
ATOM      9  G   UNL     1      18.500 -33.625  21.730  1.00  0.00     0.000 G0
ENDBRANCH   5   6
ENDBRANCH   4   5
ENDBRANCH   2   4
BRANCH   1  10
ATOM     10  C   UNL     1      14.982 -32.969  22.455  1.00  0.00     0.111 C 
BRANCH  10  11
ATOM     11  C   UNL     1      16.391 -32.453  22.579  1.00  0.00     0.163 C 
ATOM     12  O   UNL     1      16.578 -31.210  22.484  1.00  0.00    -0.294 OA
BRANCH  11  13
ATOM     13  C   UNL     1      17.550 -33.348  22.867  1.00  0.00    -0.002 C 
ATOM     14  C   UNL     1      17.677 -33.958  24.084  1.00  0.00    -0.069 C 
ATOM     15  C   UNL     1      16.744 -33.627  25.228  1.00  0.00     0.039 C 
ATOM     16  C   UNL     1      18.749 -34.991  24.355  1.00  0.00     0.039 C 
BRANCH  13  17
ATOM     17  C   UNL     1      18.517 -33.623  21.726  1.00  0.00     0.066 CG0
ATOM     18  G   UNL     1      18.355 -35.018  21.157  1.00  0.00     0.000 G0
ENDBRANCH  13  17
ENDBRANCH  11  13
ENDBRANCH  10  11
ENDBRANCH   1  10
TORSDOF 0
ENDMDL
MODEL 6
REMARK VINA RESULT:    -4.242      2.209      4.508
REMARK INTER + INTRA:          -5.756
REMARK INTER:                  -6.030
REMARK INTRA:                   0.273
REMARK UNBOUND:                 0.222
REMARK SMILES CC1=CCC(=C(C)C)C(=O)CC(C)=CCC1
REMARK SMILES IDX 12 1 14 2 13 3 15 4 16 5 2 6 1 7 3 8 11 10 9 11 10 12 5 13
REMARK SMILES IDX 6 14 7 15 8 16 4 17
REMARK H PARENT
REMARK Flexibility Score: 60.00
ROOT
ATOM      1  C   UNL     1      18.542 -30.838  21.203  1.00  0.00    -0.070 C 
ATOM      2  C   UNL     1      18.877 -31.955  20.520  1.00  0.00    -0.027 C 
ATOM      3  C   UNL     1      19.637 -29.850  21.518  1.00  0.00     0.039 C 
ENDROOT
BRANCH   2   4
ATOM      4  C   UNL     1      17.911 -33.012  20.028  1.00  0.00     0.032 C 
BRANCH   4   5
ATOM      5  C   UNL     1      17.590 -34.123  21.049  1.00  0.00     0.034 C 
BRANCH   5   6
ATOM      6  C   UNL     1      16.100 -34.355  21.230  1.00  0.00    -0.077 C 
ATOM      7  C   UNL     1      15.370 -35.105  20.144  1.00  0.00     0.039 C 
ATOM      8  C   UNL     1      15.398 -33.993  22.332  1.00  0.00    -0.023 CG0
ATOM      9  G   UNL     1      15.912 -33.220  23.530  1.00  0.00     0.000 G0
ENDBRANCH   5   6
ENDBRANCH   4   5
ENDBRANCH   2   4
BRANCH   1  10
ATOM     10  C   UNL     1      17.118 -30.490  21.583  1.00  0.00     0.111 C 
BRANCH  10  11
ATOM     11  C   UNL     1      16.820 -30.849  23.014  1.00  0.00     0.163 C 
ATOM     12  O   UNL     1      17.552 -30.356  23.914  1.00  0.00    -0.294 OA
BRANCH  11  13
ATOM     13  C   UNL     1      15.663 -31.710  23.401  1.00  0.00    -0.002 C 
ATOM     14  C   UNL     1      14.412 -31.178  23.544  1.00  0.00    -0.069 C 
ATOM     15  C   UNL     1      14.183 -29.684  23.473  1.00  0.00     0.039 C 
ATOM     16  C   UNL     1      13.195 -32.045  23.779  1.00  0.00     0.039 C 
BRANCH  13  17
ATOM     17  C   UNL     1      15.921 -33.203  23.531  1.00  0.00     0.066 CG0
ATOM     18  G   UNL     1      15.400 -33.983  22.341  1.00  0.00     0.000 G0
ENDBRANCH  13  17
ENDBRANCH  11  13
ENDBRANCH  10  11
ENDBRANCH   1  10
TORSDOF 0
ENDMDL
MODEL 7
REMARK VINA RESULT:    -4.235      1.965      4.799
REMARK INTER + INTRA:          -5.746
REMARK INTER:                  -5.876
REMARK INTRA:                   0.129
REMARK UNBOUND:                 0.222
REMARK SMILES CC1=CCC(=C(C)C)C(=O)CC(C)=CCC1
REMARK SMILES IDX 12 1 14 2 13 3 15 4 16 5 2 6 1 7 3 8 11 10 9 11 10 12 5 13
REMARK SMILES IDX 6 14 7 15 8 16 4 17
REMARK H PARENT
REMARK Flexibility Score: 60.00
ROOT
ATOM      1  C   UNL     1      17.824 -33.946  24.638  1.00  0.00    -0.070 C 
ATOM      2  C   UNL     1      18.527 -34.786  23.846  1.00  0.00    -0.027 C 
ATOM      3  C   UNL     1      18.554 -33.268  25.770  1.00  0.00     0.039 C 
ENDROOT
BRANCH   2   4
ATOM      4  C   UNL     1      18.000 -35.481  22.609  1.00  0.00     0.032 C 
BRANCH   4   5
ATOM      5  C   UNL     1      18.011 -34.621  21.328  1.00  0.00     0.034 C 
BRANCH   5   6
ATOM      6  C   UNL     1      16.675 -34.607  20.608  1.00  0.00    -0.077 C 
ATOM      7  C   UNL     1      16.233 -35.876  19.923  1.00  0.00     0.039 C 
ATOM      8  C   UNL     1      15.823 -33.552  20.597  1.00  0.00    -0.023 CG0
ATOM      9  G   UNL     1      16.060 -32.180  21.196  1.00  0.00     0.000 G0
ENDBRANCH   5   6
ENDBRANCH   4   5
ENDBRANCH   2   4
BRANCH   1  10
ATOM     10  C   UNL     1      16.374 -33.585  24.389  1.00  0.00     0.111 C 
BRANCH  10  11
ATOM     11  C   UNL     1      16.239 -32.224  23.760  1.00  0.00     0.163 C 
ATOM     12  O   UNL     1      16.909 -31.275  24.251  1.00  0.00    -0.294 OA
BRANCH  11  13
ATOM     13  C   UNL     1      15.395 -31.978  22.554  1.00  0.00    -0.002 C 
ATOM     14  C   UNL     1      14.113 -31.521  22.678  1.00  0.00    -0.069 C 
ATOM     15  C   UNL     1      13.452 -31.400  24.034  1.00  0.00     0.039 C 
ATOM     16  C   UNL     1      13.288 -31.112  21.477  1.00  0.00     0.039 C 
BRANCH  13  17
ATOM     17  C   UNL     1      16.054 -32.165  21.196  1.00  0.00     0.066 CG0
ATOM     18  G   UNL     1      15.817 -33.549  20.627  1.00  0.00     0.000 G0
ENDBRANCH  13  17
ENDBRANCH  11  13
ENDBRANCH  10  11
ENDBRANCH   1  10
TORSDOF 0
ENDMDL
MODEL 8
REMARK VINA RESULT:    -4.235      2.270      3.810
REMARK INTER + INTRA:          -5.746
REMARK INTER:                  -5.876
REMARK INTRA:                   0.130
REMARK UNBOUND:                 0.222
REMARK SMILES CC1=CCC(=C(C)C)C(=O)CC(C)=CCC1
REMARK SMILES IDX 12 1 14 2 13 3 15 4 16 5 2 6 1 7 3 8 11 10 9 11 10 12 5 13
REMARK SMILES IDX 6 14 7 15 8 16 4 17
REMARK H PARENT
REMARK Flexibility Score: 60.00
ROOT
ATOM      1  C   UNL     1      14.897 -30.626  22.598  1.00  0.00    -0.070 C 
ATOM      2  C   UNL     1      15.610 -29.777  21.825  1.00  0.00    -0.027 C 
ATOM      3  C   UNL     1      13.398 -30.633  22.442  1.00  0.00     0.039 C 
ENDROOT
BRANCH   2   4
ATOM      4  C   UNL     1      17.120 -29.692  21.767  1.00  0.00     0.032 C 
BRANCH   4   5
ATOM      5  C   UNL     1      17.785 -30.667  20.774  1.00  0.00     0.034 C 
BRANCH   5   6
ATOM      6  C   UNL     1      19.000 -31.371  21.353  1.00  0.00    -0.077 C 
ATOM      7  C   UNL     1      20.260 -30.562  21.534  1.00  0.00     0.039 C 
ATOM      8  C   UNL     1      19.005 -32.658  21.779  1.00  0.00    -0.023 CG0
ATOM      9  G   UNL     1      17.871 -33.659  21.681  1.00  0.00     0.000 G0
ENDBRANCH   5   6
ENDBRANCH   4   5
ENDBRANCH   2   4
BRANCH   1  10
ATOM     10  C   UNL     1      15.534 -31.628  23.539  1.00  0.00     0.111 C 
BRANCH  10  11
ATOM     11  C   UNL     1      15.718 -32.970  22.881  1.00  0.00     0.163 C 
ATOM     12  O   UNL     1      14.752 -33.448  22.227  1.00  0.00    -0.294 OA
BRANCH  11  13
ATOM     13  C   UNL     1      17.011 -33.716  22.928  1.00  0.00    -0.002 C 
ATOM     14  C   UNL     1      17.345 -34.468  24.019  1.00  0.00    -0.069 C 
ATOM     15  C   UNL     1      16.500 -34.449  25.274  1.00  0.00     0.039 C 
ATOM     16  C   UNL     1      18.568 -35.359  24.033  1.00  0.00     0.039 C 
BRANCH  13  17
ATOM     17  C   UNL     1      17.881 -33.675  21.682  1.00  0.00     0.066 CG0
ATOM     18  G   UNL     1      18.995 -32.653  21.790  1.00  0.00     0.000 G0
ENDBRANCH  13  17
ENDBRANCH  11  13
ENDBRANCH  10  11
ENDBRANCH   1  10
TORSDOF 0
ENDMDL
MODEL 9
REMARK VINA RESULT:    -4.057      1.761      4.160
REMARK INTER + INTRA:          -5.496
REMARK INTER:                  -5.750
REMARK INTRA:                   0.254
REMARK UNBOUND:                 0.222
REMARK SMILES CC1=CCC(=C(C)C)C(=O)CC(C)=CCC1
REMARK SMILES IDX 12 1 14 2 13 3 15 4 16 5 2 6 1 7 3 8 11 10 9 11 10 12 5 13
REMARK SMILES IDX 6 14 7 15 8 16 4 17
REMARK H PARENT
REMARK Flexibility Score: 60.00
ROOT
ATOM      1  C   UNL     1      17.354 -36.041  20.701  1.00  0.00    -0.070 C 
ATOM      2  C   UNL     1      18.323 -36.356  21.589  1.00  0.00    -0.027 C 
ATOM      3  C   UNL     1      17.334 -36.781  19.387  1.00  0.00     0.039 C 
ENDROOT
BRANCH   2   4
ATOM      4  C   UNL     1      18.452 -35.799  22.990  1.00  0.00     0.032 C 
BRANCH   4   5
ATOM      5  C   UNL     1      18.939 -34.337  23.064  1.00  0.00     0.034 C 
BRANCH   5   6
ATOM      6  C   UNL     1      18.065 -33.461  23.944  1.00  0.00    -0.077 C 
ATOM      7  C   UNL     1      17.972 -33.810  25.409  1.00  0.00     0.039 C 
ATOM      8  C   UNL     1      17.420 -32.348  23.515  1.00  0.00    -0.023 CG0
ATOM      9  G   UNL     1      17.355 -31.819  22.096  1.00  0.00     0.000 G0
ENDBRANCH   5   6
ENDBRANCH   4   5
ENDBRANCH   2   4
BRANCH   1  10
ATOM     10  C   UNL     1      16.243 -35.056  20.998  1.00  0.00     0.111 C 
BRANCH  10  11
ATOM     11  C   UNL     1      16.581 -33.672  20.509  1.00  0.00     0.163 C 
ATOM     12  O   UNL     1      17.131 -33.559  19.380  1.00  0.00    -0.294 OA
BRANCH  11  13
ATOM     13  C   UNL     1      16.236 -32.442  21.282  1.00  0.00    -0.002 C 
ATOM     14  C   UNL     1      14.950 -31.978  21.320  1.00  0.00    -0.069 C 
ATOM     15  C   UNL     1      13.868 -32.594  20.461  1.00  0.00     0.039 C 
ATOM     16  C   UNL     1      14.539 -30.832  22.219  1.00  0.00     0.039 C 
BRANCH  13  17
ATOM     17  C   UNL     1      17.348 -31.796  22.093  1.00  0.00     0.066 CG0
ATOM     18  G   UNL     1      17.424 -32.343  23.504  1.00  0.00     0.000 G0
ENDBRANCH  13  17
ENDBRANCH  11  13
ENDBRANCH  10  11
ENDBRANCH   1  10
TORSDOF 0
ENDMDL
