MODEL 1
REMARK VINA RESULT:    -3.520      0.000      0.000
REMARK INTER + INTRA:          -5.529
REMARK INTER:                  -4.754
REMARK INTRA:                  -0.775
REMARK UNBOUND:                -0.775
REMARK SMILES C[C@H](O)[C@@H](O)[C@@H](O)[C@@H](O)C=O
REMARK SMILES IDX 4 1 2 2 1 3 3 4 6 6 8 7 10 8 11 9 9 10 7 12 5 14
REMARK H PARENT 3 5 9 11 7 13 5 15
REMARK Flexibility Score: inf
ROOT
ATOM      1  C   UNL     1       0.954   7.515   3.689  1.00  0.00     0.174 C 
ENDROOT
BRANCH   1   2
ATOM      2  C   UNL     1       1.858   6.342   4.154  1.00  0.00     0.142 C 
ATOM      3  C   UNL     1       3.003   6.042   3.181  1.00  0.00     0.041 C 
BRANCH   2   4
ATOM      4  O   UNL     1       1.081   5.177   4.279  1.00  0.00    -0.391 OA
ATOM      5  H   UNL     1       1.608   4.428   3.894  1.00  0.00     0.211 HD
ENDBRANCH   2   4
ENDBRANCH   1   2
BRANCH   1   6
ATOM      6  C   UNL     1      -0.020   8.002   4.800  1.00  0.00     0.181 C 
BRANCH   6   7
ATOM      7  C   UNL     1      -1.483   7.534   4.553  1.00  0.00     0.209 C 
BRANCH   7   8
ATOM      8  C   UNL     1      -2.469   8.293   5.406  1.00  0.00     0.258 C 
ATOM      9  O   UNL     1      -2.962   9.337   5.009  1.00  0.00    -0.300 OA
ENDBRANCH   7   8
BRANCH   7  10
ATOM     10  O   UNL     1      -1.636   6.154   4.776  1.00  0.00    -0.383 OA
ATOM     11  H   UNL     1      -1.718   5.710   3.892  1.00  0.00     0.211 HD
ENDBRANCH   7  10
ENDBRANCH   6   7
BRANCH   6  12
ATOM     12  O   UNL     1       0.002   9.409   4.832  1.00  0.00    -0.387 OA
ATOM     13  H   UNL     1      -0.139   9.686   5.775  1.00  0.00     0.211 HD
ENDBRANCH   6  12
ENDBRANCH   1   6
BRANCH   1  14
ATOM     14  O   UNL     1       0.224   7.073   2.569  1.00  0.00    -0.388 OA
ATOM     15  H   UNL     1      -0.313   7.841   2.241  1.00  0.00     0.211 HD
ENDBRANCH   1  14
TORSDOF 8
ENDMDL
MODEL 2
REMARK VINA RESULT:    -3.422     13.231     15.120
REMARK INTER + INTRA:          -5.398
REMARK INTER:                  -4.635
REMARK INTRA:                  -0.763
REMARK UNBOUND:                -0.775
REMARK SMILES C[C@H](O)[C@@H](O)[C@@H](O)[C@@H](O)C=O
REMARK SMILES IDX 4 1 2 2 1 3 3 4 6 6 8 7 10 8 11 9 9 10 7 12 5 14
REMARK H PARENT 3 5 9 11 7 13 5 15
REMARK Flexibility Score: inf
ROOT
ATOM      1  C   UNL     1      -0.927  -7.292   3.567  1.00  0.00     0.174 C 
ENDROOT
BRANCH   1   2
ATOM      2  C   UNL     1      -1.856  -6.117   3.975  1.00  0.00     0.142 C 
ATOM      3  C   UNL     1      -3.041  -5.927   3.024  1.00  0.00     0.041 C 
BRANCH   2   4
ATOM      4  O   UNL     1      -1.115  -4.922   3.987  1.00  0.00    -0.391 OA
ATOM      5  H   UNL     1      -1.029  -4.619   3.045  1.00  0.00     0.211 HD
ENDBRANCH   2   4
ENDBRANCH   1   2
BRANCH   1   6
ATOM      6  C   UNL     1      -0.028  -7.784   4.737  1.00  0.00     0.181 C 
BRANCH   6   7
ATOM      7  C   UNL     1       1.435  -7.268   4.618  1.00  0.00     0.209 C 
BRANCH   7   8
ATOM      8  C   UNL     1       2.383  -8.053   5.489  1.00  0.00     0.258 C 
ATOM      9  O   UNL     1       2.934  -9.056   5.064  1.00  0.00    -0.300 OA
ENDBRANCH   7   8
BRANCH   7  10
ATOM     10  O   UNL     1       1.534  -5.901   4.932  1.00  0.00    -0.383 OA
ATOM     11  H   UNL     1       2.318  -5.782   5.530  1.00  0.00     0.211 HD
ENDBRANCH   7  10
ENDBRANCH   6   7
BRANCH   6  12
ATOM     12  O   UNL     1      -0.008  -9.192   4.729  1.00  0.00    -0.387 OA
ATOM     13  H   UNL     1      -0.939  -9.501   4.886  1.00  0.00     0.211 HD
ENDBRANCH   6  12
ENDBRANCH   1   6
BRANCH   1  14
ATOM     14  O   UNL     1      -0.126  -6.851   2.497  1.00  0.00    -0.388 OA
ATOM     15  H   UNL     1      -0.053  -5.863   2.567  1.00  0.00     0.211 HD
ENDBRANCH   1  14
TORSDOF 8
ENDMDL
MODEL 3
REMARK VINA RESULT:    -3.385     14.010     15.472
REMARK INTER + INTRA:          -5.348
REMARK INTER:                  -4.652
REMARK INTRA:                  -0.696
REMARK UNBOUND:                -0.775
REMARK SMILES C[C@H](O)[C@@H](O)[C@@H](O)[C@@H](O)C=O
REMARK SMILES IDX 4 1 2 2 1 3 3 4 6 6 8 7 10 8 11 9 9 10 7 12 5 14
REMARK H PARENT 3 5 9 11 7 13 5 15
REMARK Flexibility Score: inf
ROOT
ATOM      1  C   UNL     1      -1.083  -7.408   4.526  1.00  0.00     0.174 C 
ENDROOT
BRANCH   1   2
ATOM      2  C   UNL     1      -0.637  -6.296   3.538  1.00  0.00     0.142 C 
ATOM      3  C   UNL     1      -1.765  -5.821   2.616  1.00  0.00     0.041 C 
BRANCH   2   4
ATOM      4  O   UNL     1       0.405  -6.783   2.730  1.00  0.00    -0.391 OA
ATOM      5  H   UNL     1       1.011  -6.020   2.539  1.00  0.00     0.211 HD
ENDBRANCH   2   4
ENDBRANCH   1   2
BRANCH   1   6
ATOM      6  C   UNL     1      -0.237  -7.430   5.831  1.00  0.00     0.181 C 
BRANCH   6   7
ATOM      7  C   UNL     1       0.791  -8.597   5.852  1.00  0.00     0.209 C 
BRANCH   7   8
ATOM      8  C   UNL     1       1.671  -8.551   7.075  1.00  0.00     0.258 C 
ATOM      9  O   UNL     1       1.183  -8.541   8.195  1.00  0.00    -0.300 OA
ENDBRANCH   7   8
BRANCH   7  10
ATOM     10  O   UNL     1       1.594  -8.609   4.698  1.00  0.00    -0.383 OA
ATOM     11  H   UNL     1       1.289  -7.871   4.107  1.00  0.00     0.211 HD
ENDBRANCH   7  10
ENDBRANCH   6   7
BRANCH   6  12
ATOM     12  O   UNL     1      -1.106  -7.577   6.928  1.00  0.00    -0.387 OA
ATOM     13  H   UNL     1      -0.544  -7.731   7.732  1.00  0.00     0.211 HD
ENDBRANCH   6  12
ENDBRANCH   1   6
BRANCH   1  14
ATOM     14  O   UNL     1      -0.969  -8.642   3.858  1.00  0.00    -0.388 OA
ATOM     15  H   UNL     1      -1.081  -8.467   2.887  1.00  0.00     0.211 HD
ENDBRANCH   1  14
TORSDOF 8
ENDMDL
MODEL 4
REMARK VINA RESULT:    -3.365     16.114     16.867
REMARK INTER + INTRA:          -5.320
REMARK INTER:                  -4.628
REMARK INTRA:                  -0.692
REMARK UNBOUND:                -0.775
REMARK SMILES C[C@H](O)[C@@H](O)[C@@H](O)[C@@H](O)C=O
REMARK SMILES IDX 4 1 2 2 1 3 3 4 6 6 8 7 10 8 11 9 9 10 7 12 5 14
REMARK H PARENT 3 5 9 11 7 13 5 15
REMARK Flexibility Score: inf
ROOT
ATOM      1  C   UNL     1      -6.424  -5.196  -3.598  1.00  0.00     0.174 C 
ENDROOT
BRANCH   1   2
ATOM      2  C   UNL     1      -6.072  -6.236  -2.500  1.00  0.00     0.142 C 
ATOM      3  C   UNL     1      -4.579  -6.573  -2.445  1.00  0.00     0.041 C 
BRANCH   2   4
ATOM      4  O   UNL     1      -6.776  -7.427  -2.746  1.00  0.00    -0.391 OA
ATOM      5  H   UNL     1      -7.016  -7.435  -3.709  1.00  0.00     0.211 HD
ENDBRANCH   2   4
ENDBRANCH   1   2
BRANCH   1   6
ATOM      6  C   UNL     1      -7.948  -5.135  -3.905  1.00  0.00     0.181 C 
BRANCH   6   7
ATOM      7  C   UNL     1      -8.336  -3.874  -4.728  1.00  0.00     0.209 C 
BRANCH   7   8
ATOM      8  C   UNL     1      -8.682  -4.217  -6.156  1.00  0.00     0.258 C 
ATOM      9  O   UNL     1      -8.363  -5.296  -6.632  1.00  0.00    -0.300 OA
ENDBRANCH   7   8
BRANCH   7  10
ATOM     10  O   UNL     1      -7.317  -2.905  -4.714  1.00  0.00    -0.383 OA
ATOM     11  H   UNL     1      -7.438  -2.347  -3.901  1.00  0.00     0.211 HD
ENDBRANCH   7  10
ENDBRANCH   6   7
BRANCH   6  12
ATOM     12  O   UNL     1      -8.651  -5.109  -2.686  1.00  0.00    -0.387 OA
ATOM     13  H   UNL     1      -8.220  -5.768  -2.081  1.00  0.00     0.211 HD
ENDBRANCH   6  12
ENDBRANCH   1   6
BRANCH   1  14
ATOM     14  O   UNL     1      -5.713  -5.548  -4.761  1.00  0.00    -0.388 OA
ATOM     15  H   UNL     1      -6.341  -5.475  -5.527  1.00  0.00     0.211 HD
ENDBRANCH   1  14
TORSDOF 8
ENDMDL
MODEL 5
REMARK VINA RESULT:    -3.363      9.408     12.045
REMARK INTER + INTRA:          -5.317
REMARK INTER:                  -4.715
REMARK INTRA:                  -0.603
REMARK UNBOUND:                -0.775
REMARK SMILES C[C@H](O)[C@@H](O)[C@@H](O)[C@@H](O)C=O
REMARK SMILES IDX 4 1 2 2 1 3 3 4 6 6 8 7 10 8 11 9 9 10 7 12 5 14
REMARK H PARENT 3 5 9 11 7 13 5 15
REMARK Flexibility Score: inf
ROOT
ATOM      1  C   UNL     1       6.434   5.204  -3.561  1.00  0.00     0.174 C 
ENDROOT
BRANCH   1   2
ATOM      2  C   UNL     1       6.180   6.259  -2.449  1.00  0.00     0.142 C 
ATOM      3  C   UNL     1       4.702   6.628  -2.295  1.00  0.00     0.041 C 
BRANCH   2   4
ATOM      4  O   UNL     1       6.890   7.434  -2.753  1.00  0.00    -0.391 OA
ATOM      5  H   UNL     1       7.777   7.160  -3.105  1.00  0.00     0.211 HD
ENDBRANCH   2   4
ENDBRANCH   1   2
BRANCH   1   6
ATOM      6  C   UNL     1       7.909   5.193  -4.056  1.00  0.00     0.181 C 
BRANCH   6   7
ATOM      7  C   UNL     1       8.218   3.971  -4.967  1.00  0.00     0.209 C 
BRANCH   7   8
ATOM      8  C   UNL     1       8.418   4.377  -6.406  1.00  0.00     0.258 C 
ATOM      9  O   UNL     1       8.557   5.552  -6.708  1.00  0.00    -0.300 OA
ENDBRANCH   7   8
BRANCH   7  10
ATOM     10  O   UNL     1       7.210   2.994  -4.892  1.00  0.00    -0.383 OA
ATOM     11  H   UNL     1       7.335   2.369  -5.655  1.00  0.00     0.211 HD
ENDBRANCH   7  10
ENDBRANCH   6   7
BRANCH   6  12
ATOM     12  O   UNL     1       8.760   5.145  -2.936  1.00  0.00    -0.387 OA
ATOM     13  H   UNL     1       9.174   4.243  -2.918  1.00  0.00     0.211 HD
ENDBRANCH   6  12
ENDBRANCH   1   6
BRANCH   1  14
ATOM     14  O   UNL     1       5.569   5.497  -4.632  1.00  0.00    -0.388 OA
ATOM     15  H   UNL     1       4.663   5.180  -4.378  1.00  0.00     0.211 HD
ENDBRANCH   1  14
TORSDOF 8
ENDMDL
MODEL 6
REMARK VINA RESULT:    -3.341      1.808      2.635
REMARK INTER + INTRA:          -5.288
REMARK INTER:                  -4.563
REMARK INTRA:                  -0.725
REMARK UNBOUND:                -0.775
REMARK SMILES C[C@H](O)[C@@H](O)[C@@H](O)[C@@H](O)C=O
REMARK SMILES IDX 4 1 2 2 1 3 3 4 6 6 8 7 10 8 11 9 9 10 7 12 5 14
REMARK H PARENT 3 5 9 11 7 13 5 15
REMARK Flexibility Score: inf
ROOT
ATOM      1  C   UNL     1       0.134   8.206   5.486  1.00  0.00     0.174 C 
ENDROOT
BRANCH   1   2
ATOM      2  C   UNL     1       0.291   7.107   4.400  1.00  0.00     0.142 C 
ATOM      3  C   UNL     1       1.656   7.138   3.705  1.00  0.00     0.041 C 
BRANCH   2   4
ATOM      4  O   UNL     1      -0.698   7.282   3.417  1.00  0.00    -0.391 OA
ATOM      5  H   UNL     1      -0.307   7.848   2.701  1.00  0.00     0.211 HD
ENDBRANCH   2   4
ENDBRANCH   1   2
BRANCH   1   6
ATOM      6  C   UNL     1      -1.071   7.946   6.436  1.00  0.00     0.181 C 
BRANCH   6   7
ATOM      7  C   UNL     1      -2.189   9.017   6.281  1.00  0.00     0.209 C 
BRANCH   7   8
ATOM      8  C   UNL     1      -3.316   8.801   7.260  1.00  0.00     0.258 C 
ATOM      9  O   UNL     1      -3.152   9.003   8.453  1.00  0.00    -0.300 OA
ENDBRANCH   7   8
BRANCH   7  10
ATOM     10  O   UNL     1      -2.705   9.049   4.974  1.00  0.00    -0.383 OA
ATOM     11  H   UNL     1      -3.015   8.134   4.746  1.00  0.00     0.211 HD
ENDBRANCH   7  10
ENDBRANCH   6   7
BRANCH   6  12
ATOM     12  O   UNL     1      -0.609   7.968   7.765  1.00  0.00    -0.387 OA
ATOM     13  H   UNL     1       0.383   7.959   7.734  1.00  0.00     0.211 HD
ENDBRANCH   6  12
ENDBRANCH   1   6
BRANCH   1  14
ATOM     14  O   UNL     1      -0.031   9.438   4.827  1.00  0.00    -0.388 OA
ATOM     15  H   UNL     1      -0.483  10.056   5.459  1.00  0.00     0.211 HD
ENDBRANCH   1  14
TORSDOF 8
ENDMDL
MODEL 7
REMARK VINA RESULT:    -3.313      2.031      2.526
REMARK INTER + INTRA:          -5.251
REMARK INTER:                  -4.528
REMARK INTRA:                  -0.723
REMARK UNBOUND:                -0.775
REMARK SMILES C[C@H](O)[C@@H](O)[C@@H](O)[C@@H](O)C=O
REMARK SMILES IDX 4 1 2 2 1 3 3 4 6 6 8 7 10 8 11 9 9 10 7 12 5 14
REMARK H PARENT 3 5 9 11 7 13 5 15
REMARK Flexibility Score: inf
ROOT
ATOM      1  C   UNL     1       1.120   7.366   4.400  1.00  0.00     0.174 C 
ENDROOT
BRANCH   1   2
ATOM      2  C   UNL     1       0.407   6.382   3.433  1.00  0.00     0.142 C 
ATOM      3  C   UNL     1       1.277   5.974   2.240  1.00  0.00     0.041 C 
BRANCH   2   4
ATOM      4  O   UNL     1      -0.759   6.986   2.931  1.00  0.00    -0.391 OA
ATOM      5  H   UNL     1      -0.506   7.888   2.604  1.00  0.00     0.211 HD
ENDBRANCH   2   4
ENDBRANCH   1   2
BRANCH   1   6
ATOM      6  C   UNL     1       0.444   7.432   5.799  1.00  0.00     0.181 C 
BRANCH   6   7
ATOM      7  C   UNL     1      -0.326   8.764   6.023  1.00  0.00     0.209 C 
BRANCH   7   8
ATOM      8  C   UNL     1      -1.007   8.803   7.369  1.00  0.00     0.258 C 
ATOM      9  O   UNL     1      -0.353   8.779   8.399  1.00  0.00    -0.300 OA
ENDBRANCH   7   8
BRANCH   7  10
ATOM     10  O   UNL     1      -1.275   8.997   5.012  1.00  0.00    -0.383 OA
ATOM     11  H   UNL     1      -1.652   8.119   4.740  1.00  0.00     0.211 HD
ENDBRANCH   7  10
ENDBRANCH   6   7
BRANCH   6  12
ATOM     12  O   UNL     1       1.440   7.318   6.787  1.00  0.00    -0.387 OA
ATOM     13  H   UNL     1       1.019   7.537   7.659  1.00  0.00     0.211 HD
ENDBRANCH   6  12
ENDBRANCH   1   6
BRANCH   1  14
ATOM     14  O   UNL     1       1.107   8.639   3.799  1.00  0.00    -0.388 OA
ATOM     15  H   UNL     1       0.184   8.804   3.472  1.00  0.00     0.211 HD
ENDBRANCH   1  14
TORSDOF 8
ENDMDL
MODEL 8
REMARK VINA RESULT:    -3.287      1.065      2.250
REMARK INTER + INTRA:          -5.215
REMARK INTER:                  -4.458
REMARK INTRA:                  -0.757
REMARK UNBOUND:                -0.775
REMARK SMILES C[C@H](O)[C@@H](O)[C@@H](O)[C@@H](O)C=O
REMARK SMILES IDX 4 1 2 2 1 3 3 4 6 6 8 7 10 8 11 9 9 10 7 12 5 14
REMARK H PARENT 3 5 9 11 7 13 5 15
REMARK Flexibility Score: inf
ROOT
ATOM      1  C   UNL     1       0.079   6.207   4.528  1.00  0.00     0.174 C 
ENDROOT
BRANCH   1   2
ATOM      2  C   UNL     1       0.875   6.318   3.199  1.00  0.00     0.142 C 
ATOM      3  C   UNL     1       2.386   6.455   3.410  1.00  0.00     0.041 C 
BRANCH   2   4
ATOM      4  O   UNL     1       0.434   7.446   2.486  1.00  0.00    -0.391 OA
ATOM      5  H   UNL     1       0.594   8.239   3.062  1.00  0.00     0.211 HD
ENDBRANCH   2   4
ENDBRANCH   1   2
BRANCH   1   6
ATOM      6  C   UNL     1      -1.194   7.100   4.544  1.00  0.00     0.181 C 
BRANCH   6   7
ATOM      7  C   UNL     1      -1.022   8.363   5.435  1.00  0.00     0.209 C 
BRANCH   7   8
ATOM      8  C   UNL     1      -2.349   8.964   5.825  1.00  0.00     0.258 C 
ATOM      9  O   UNL     1      -3.243   9.086   5.003  1.00  0.00    -0.300 OA
ENDBRANCH   7   8
BRANCH   7  10
ATOM     10  O   UNL     1      -0.231   9.342   4.808  1.00  0.00    -0.383 OA
ATOM     11  H   UNL     1      -0.644   9.550   3.929  1.00  0.00     0.211 HD
ENDBRANCH   7  10
ENDBRANCH   6   7
BRANCH   6  12
ATOM     12  O   UNL     1      -2.270   6.341   5.044  1.00  0.00    -0.387 OA
ATOM     13  H   UNL     1      -2.311   6.497   6.024  1.00  0.00     0.211 HD
ENDBRANCH   6  12
ENDBRANCH   1   6
BRANCH   1  14
ATOM     14  O   UNL     1       0.943   6.582   5.574  1.00  0.00    -0.388 OA
ATOM     15  H   UNL     1       1.843   6.728   5.180  1.00  0.00     0.211 HD
ENDBRANCH   1  14
TORSDOF 8
ENDMDL
MODEL 9
REMARK VINA RESULT:    -3.245      1.681      4.517
REMARK INTER + INTRA:          -5.158
REMARK INTER:                  -4.462
REMARK INTRA:                  -0.696
REMARK UNBOUND:                -0.775
REMARK SMILES C[C@H](O)[C@@H](O)[C@@H](O)[C@@H](O)C=O
REMARK SMILES IDX 4 1 2 2 1 3 3 4 6 6 8 7 10 8 11 9 9 10 7 12 5 14
REMARK H PARENT 3 5 9 11 7 13 5 15
REMARK Flexibility Score: inf
ROOT
ATOM      1  C   UNL     1      -0.189   8.100   5.295  1.00  0.00     0.174 C 
ENDROOT
BRANCH   1   2
ATOM      2  C   UNL     1      -0.501   8.217   6.812  1.00  0.00     0.142 C 
ATOM      3  C   UNL     1      -1.913   8.738   7.097  1.00  0.00     0.041 C 
BRANCH   2   4
ATOM      4  O   UNL     1       0.415   9.101   7.408  1.00  0.00    -0.391 OA
ATOM      5  H   UNL     1       1.300   8.651   7.410  1.00  0.00     0.211 HD
ENDBRANCH   2   4
ENDBRANCH   1   2
BRANCH   1   6
ATOM      6  C   UNL     1       1.176   7.410   5.013  1.00  0.00     0.181 C 
BRANCH   6   7
ATOM      7  C   UNL     1       1.160   6.581   3.697  1.00  0.00     0.209 C 
BRANCH   7   8
ATOM      8  C   UNL     1       2.553   6.268   3.210  1.00  0.00     0.258 C 
ATOM      9  O   UNL     1       3.292   5.544   3.859  1.00  0.00    -0.300 OA
ENDBRANCH   7   8
BRANCH   7  10
ATOM     10  O   UNL     1       0.443   7.232   2.677  1.00  0.00    -0.383 OA
ATOM     11  H   UNL     1      -0.508   7.283   2.958  1.00  0.00     0.211 HD
ENDBRANCH   7  10
ENDBRANCH   6   7
BRANCH   6  12
ATOM     12  O   UNL     1       1.475   6.546   6.083  1.00  0.00    -0.387 OA
ATOM     13  H   UNL     1       2.291   6.038   5.835  1.00  0.00     0.211 HD
ENDBRANCH   6  12
ENDBRANCH   1   6
BRANCH   1  14
ATOM     14  O   UNL     1      -0.191   9.400   4.757  1.00  0.00    -0.388 OA
ATOM     15  H   UNL     1       0.640   9.503   4.223  1.00  0.00     0.211 HD
ENDBRANCH   1  14
TORSDOF 8
ENDMDL
