MODEL 1
REMARK VINA RESULT:    -4.328      0.000      0.000
REMARK INTER + INTRA:          -9.698
REMARK INTER:                  -8.124
REMARK INTRA:                  -1.574
REMARK UNBOUND:                -1.574
REMARK SMILES O=C([O-])CCCCCCCCCCCCCCC(=O)[O-]
REMARK SMILES IDX 10 1 9 2 8 3 7 4 6 5 5 6 4 7 2 8 1 9 3 10 11 11 12 12 13 13
REMARK SMILES IDX 14 14 15 15 16 16 17 17 18 18 19 19 20 20
REMARK H PARENT
REMARK Flexibility Score: inf
ROOT
ATOM      1  C   UNL     1     111.695 111.482 122.638  1.00  0.00     0.000 C 
ENDROOT
BRANCH   1   2
ATOM      2  C   UNL     1     111.908 112.706 121.736  1.00  0.00     0.000 C 
BRANCH   2   3
ATOM      3  C   UNL     1     110.648 113.002 120.907  1.00  0.00     0.000 C 
BRANCH   3   4
ATOM      4  C   UNL     1     110.684 112.346 119.517  1.00  0.00     0.000 C 
BRANCH   4   5
ATOM      5  C   UNL     1     109.286 111.967 119.005  1.00  0.00     0.000 C 
BRANCH   5   6
ATOM      6  C   UNL     1     109.219 110.474 118.648  1.00  0.00     0.006 C 
BRANCH   6   7
ATOM      7  C   UNL     1     107.779 109.945 118.630  1.00  0.00     0.053 C 
BRANCH   7   8
ATOM      8  C   UNL     1     107.729 108.464 118.843  1.00  0.00     0.041 C 
ATOM      9  O   UNL     1     107.036 107.736 118.084  1.00  0.00    -0.550 OA
ATOM     10  O   UNL     1     108.423 107.890 119.901  1.00  0.00    -0.550 OA
ENDBRANCH   7   8
ENDBRANCH   6   7
ENDBRANCH   5   6
ENDBRANCH   4   5
ENDBRANCH   3   4
ENDBRANCH   2   3
ENDBRANCH   1   2
BRANCH   1  11
ATOM     11  C   UNL     1     112.097 110.158 121.964  1.00  0.00     0.000 C 
BRANCH  11  12
ATOM     12  C   UNL     1     113.385 110.215 121.121  1.00  0.00     0.000 C 
BRANCH  12  13
ATOM     13  C   UNL     1     114.457 109.221 121.596  1.00  0.00     0.000 C 
BRANCH  13  14
ATOM     14  C   UNL     1     115.725 109.915 122.125  1.00  0.00     0.000 C 
BRANCH  14  15
ATOM     15  C   UNL     1     115.492 111.263 122.836  1.00  0.00     0.000 C 
BRANCH  15  16
ATOM     16  C   UNL     1     116.236 112.466 122.220  1.00  0.00     0.006 C 
BRANCH  16  17
ATOM     17  C   UNL     1     115.374 113.335 121.291  1.00  0.00     0.053 C 
BRANCH  17  18
ATOM     18  C   UNL     1     115.804 113.222 119.862  1.00  0.00     0.041 C 
ATOM     19  O   UNL     1     115.818 112.100 119.290  1.00  0.00    -0.550 OA
ATOM     20  O   UNL     1     116.159 114.362 119.150  1.00  0.00    -0.550 OA
ENDBRANCH  17  18
ENDBRANCH  16  17
ENDBRANCH  15  16
ENDBRANCH  14  15
ENDBRANCH  13  14
ENDBRANCH  12  13
ENDBRANCH  11  12
ENDBRANCH   1  11
TORSDOF 15
ENDMDL
MODEL 2
REMARK VINA RESULT:    -4.257      1.946      5.848
REMARK INTER + INTRA:          -9.564
REMARK INTER:                  -7.203
REMARK INTRA:                  -2.361
REMARK UNBOUND:                -1.574
REMARK SMILES O=C([O-])CCCCCCCCCCCCCCC(=O)[O-]
REMARK SMILES IDX 10 1 9 2 8 3 7 4 6 5 5 6 4 7 2 8 1 9 3 10 11 11 12 12 13 13
REMARK SMILES IDX 14 14 15 15 16 16 17 17 18 18 19 19 20 20
REMARK H PARENT
REMARK Flexibility Score: inf
ROOT
ATOM      1  C   UNL     1     115.402 110.322 122.337  1.00  0.00     0.000 C 
ENDROOT
BRANCH   1   2
ATOM      2  C   UNL     1     116.679 110.690 121.570  1.00  0.00     0.000 C 
BRANCH   2   3
ATOM      3  C   UNL     1     116.785 112.210 121.377  1.00  0.00     0.000 C 
BRANCH   3   4
ATOM      4  C   UNL     1     115.457 112.937 121.644  1.00  0.00     0.000 C 
BRANCH   4   5
ATOM      5  C   UNL     1     115.081 113.914 120.519  1.00  0.00     0.000 C 
BRANCH   5   6
ATOM      6  C   UNL     1     115.325 113.283 119.140  1.00  0.00     0.006 C 
BRANCH   6   7
ATOM      7  C   UNL     1     114.119 112.468 118.654  1.00  0.00     0.053 C 
BRANCH   7   8
ATOM      8  C   UNL     1     113.630 112.942 117.321  1.00  0.00     0.041 C 
ATOM      9  O   UNL     1     112.727 112.309 116.713  1.00  0.00    -0.550 OA
ATOM     10  O   UNL     1     114.196 114.067 116.733  1.00  0.00    -0.550 OA
ENDBRANCH   7   8
ENDBRANCH   6   7
ENDBRANCH   5   6
ENDBRANCH   4   5
ENDBRANCH   3   4
ENDBRANCH   2   3
ENDBRANCH   1   2
BRANCH   1  11
ATOM     11  C   UNL     1     114.504 109.331 121.574  1.00  0.00     0.000 C 
BRANCH  11  12
ATOM     12  C   UNL     1     113.191 109.921 121.028  1.00  0.00     0.000 C 
BRANCH  12  13
ATOM     13  C   UNL     1     112.016 109.780 122.008  1.00  0.00     0.000 C 
BRANCH  13  14
ATOM     14  C   UNL     1     111.599 111.120 122.640  1.00  0.00     0.000 C 
BRANCH  14  15
ATOM     15  C   UNL     1     111.835 112.366 121.762  1.00  0.00     0.000 C 
BRANCH  15  16
ATOM     16  C   UNL     1     110.586 112.900 121.032  1.00  0.00     0.006 C 
BRANCH  16  17
ATOM     17  C   UNL     1     110.574 112.631 119.520  1.00  0.00     0.053 C 
BRANCH  17  18
ATOM     18  C   UNL     1     109.758 111.425 119.173  1.00  0.00     0.041 C 
ATOM     19  O   UNL     1     110.311 110.302 119.037  1.00  0.00    -0.550 OA
ATOM     20  O   UNL     1     108.380 111.535 119.032  1.00  0.00    -0.550 OA
ENDBRANCH  17  18
ENDBRANCH  16  17
ENDBRANCH  15  16
ENDBRANCH  14  15
ENDBRANCH  13  14
ENDBRANCH  12  13
ENDBRANCH  11  12
ENDBRANCH   1  11
TORSDOF 15
ENDMDL
MODEL 3
REMARK VINA RESULT:    -4.226      1.898      2.754
REMARK INTER + INTRA:          -9.506
REMARK INTER:                  -7.700
REMARK INTRA:                  -1.806
REMARK UNBOUND:                -1.574
REMARK SMILES O=C([O-])CCCCCCCCCCCCCCC(=O)[O-]
REMARK SMILES IDX 10 1 9 2 8 3 7 4 6 5 5 6 4 7 2 8 1 9 3 10 11 11 12 12 13 13
REMARK SMILES IDX 14 14 15 15 16 16 17 17 18 18 19 19 20 20
REMARK H PARENT
REMARK Flexibility Score: inf
ROOT
ATOM      1  C   UNL     1     111.991 112.622 120.078  1.00  0.00     0.000 C 
ENDROOT
BRANCH   1   2
ATOM      2  C   UNL     1     111.071 112.257 118.905  1.00  0.00     0.000 C 
BRANCH   2   3
ATOM      3  C   UNL     1     109.594 112.409 119.299  1.00  0.00     0.000 C 
BRANCH   3   4
ATOM      4  C   UNL     1     108.744 111.192 118.900  1.00  0.00     0.000 C 
BRANCH   4   5
ATOM      5  C   UNL     1     109.592 109.937 118.643  1.00  0.00     0.000 C 
BRANCH   5   6
ATOM      6  C   UNL     1     108.704 108.744 118.260  1.00  0.00     0.006 C 
BRANCH   6   7
ATOM      7  C   UNL     1     107.495 108.597 119.193  1.00  0.00     0.053 C 
BRANCH   7   8
ATOM      8  C   UNL     1     106.264 108.184 118.447  1.00  0.00     0.041 C 
ATOM      9  O   UNL     1     105.673 107.111 118.741  1.00  0.00    -0.550 OA
ATOM     10  O   UNL     1     105.788 108.968 117.404  1.00  0.00    -0.550 OA
ENDBRANCH   7   8
ENDBRANCH   6   7
ENDBRANCH   5   6
ENDBRANCH   4   5
ENDBRANCH   3   4
ENDBRANCH   2   3
ENDBRANCH   1   2
BRANCH   1  11
ATOM     11  C   UNL     1     111.273 112.594 121.440  1.00  0.00     0.000 C 
BRANCH  11  12
ATOM     12  C   UNL     1     111.713 111.465 122.390  1.00  0.00     0.000 C 
BRANCH  12  13
ATOM     13  C   UNL     1     111.896 110.116 121.676  1.00  0.00     0.000 C 
BRANCH  13  14
ATOM     14  C   UNL     1     113.342 109.593 121.746  1.00  0.00     0.000 C 
BRANCH  14  15
ATOM     15  C   UNL     1     114.127 109.643 120.420  1.00  0.00     0.000 C 
BRANCH  15  16
ATOM     16  C   UNL     1     115.269 110.678 120.373  1.00  0.00     0.006 C 
BRANCH  16  17
ATOM     17  C   UNL     1     115.378 111.558 121.627  1.00  0.00     0.053 C 
BRANCH  17  18
ATOM     18  C   UNL     1     116.589 111.224 122.441  1.00  0.00     0.041 C 
ATOM     19  O   UNL     1     117.009 110.038 122.497  1.00  0.00    -0.550 OA
ATOM     20  O   UNL     1     117.275 112.230 123.112  1.00  0.00    -0.550 OA
ENDBRANCH  17  18
ENDBRANCH  16  17
ENDBRANCH  15  16
ENDBRANCH  14  15
ENDBRANCH  13  14
ENDBRANCH  12  13
ENDBRANCH  11  12
ENDBRANCH   1  11
TORSDOF 15
ENDMDL
MODEL 4
REMARK VINA RESULT:    -4.213      2.109      6.519
REMARK INTER + INTRA:          -9.481
REMARK INTER:                  -7.026
REMARK INTRA:                  -2.454
REMARK UNBOUND:                -1.574
REMARK SMILES O=C([O-])CCCCCCCCCCCCCCC(=O)[O-]
REMARK SMILES IDX 10 1 9 2 8 3 7 4 6 5 5 6 4 7 2 8 1 9 3 10 11 11 12 12 13 13
REMARK SMILES IDX 14 14 15 15 16 16 17 17 18 18 19 19 20 20
REMARK H PARENT
REMARK Flexibility Score: inf
ROOT
ATOM      1  C   UNL     1     111.581 112.621 121.732  1.00  0.00     0.000 C 
ENDROOT
BRANCH   1   2
ATOM      2  C   UNL     1     112.126 111.396 122.480  1.00  0.00     0.000 C 
BRANCH   2   3
ATOM      3  C   UNL     1     111.949 110.119 121.645  1.00  0.00     0.000 C 
BRANCH   3   4
ATOM      4  C   UNL     1     113.234 109.707 120.910  1.00  0.00     0.000 C 
BRANCH   4   5
ATOM      5  C   UNL     1     114.343 109.248 121.869  1.00  0.00     0.000 C 
BRANCH   5   6
ATOM      6  C   UNL     1     115.653 110.002 121.593  1.00  0.00     0.006 C 
BRANCH   6   7
ATOM      7  C   UNL     1     116.120 110.818 122.806  1.00  0.00     0.053 C 
BRANCH   7   8
ATOM      8  C   UNL     1     117.072 111.903 122.412  1.00  0.00     0.041 C 
ATOM      9  O   UNL     1     117.396 112.796 123.239  1.00  0.00    -0.550 OA
ATOM     10  O   UNL     1     117.577 111.949 121.118  1.00  0.00    -0.550 OA
ENDBRANCH   7   8
ENDBRANCH   6   7
ENDBRANCH   5   6
ENDBRANCH   4   5
ENDBRANCH   3   4
ENDBRANCH   2   3
ENDBRANCH   1   2
BRANCH   1  11
ATOM     11  C   UNL     1     112.590 113.780 121.657  1.00  0.00     0.000 C 
BRANCH  11  12
ATOM     12  C   UNL     1     114.045 113.367 121.366  1.00  0.00     0.000 C 
BRANCH  12  13
ATOM     13  C   UNL     1     114.688 114.191 120.239  1.00  0.00     0.000 C 
BRANCH  13  14
ATOM     14  C   UNL     1     114.967 113.358 118.974  1.00  0.00     0.000 C 
BRANCH  14  15
ATOM     15  C   UNL     1     114.043 112.141 118.768  1.00  0.00     0.000 C 
BRANCH  15  16
ATOM     16  C   UNL     1     112.693 112.450 118.090  1.00  0.00     0.006 C 
BRANCH  16  17
ATOM     17  C   UNL     1     111.836 111.210 117.791  1.00  0.00     0.053 C 
BRANCH  17  18
ATOM     18  C   UNL     1     110.477 111.308 118.410  1.00  0.00     0.041 C 
ATOM     19  O   UNL     1     109.868 110.268 118.776  1.00  0.00    -0.550 OA
ATOM     20  O   UNL     1     109.894 112.553 118.615  1.00  0.00    -0.550 OA
ENDBRANCH  17  18
ENDBRANCH  16  17
ENDBRANCH  15  16
ENDBRANCH  14  15
ENDBRANCH  13  14
ENDBRANCH  12  13
ENDBRANCH  11  12
ENDBRANCH   1  11
TORSDOF 15
ENDMDL
MODEL 5
REMARK VINA RESULT:    -4.203      1.739      3.230
REMARK INTER + INTRA:          -9.463
REMARK INTER:                  -7.747
REMARK INTRA:                  -1.717
REMARK UNBOUND:                -1.574
REMARK SMILES O=C([O-])CCCCCCCCCCCCCCC(=O)[O-]
REMARK SMILES IDX 10 1 9 2 8 3 7 4 6 5 5 6 4 7 2 8 1 9 3 10 11 11 12 12 13 13
REMARK SMILES IDX 14 14 15 15 16 16 17 17 18 18 19 19 20 20
REMARK H PARENT
REMARK Flexibility Score: inf
ROOT
ATOM      1  C   UNL     1     111.117 112.531 118.976  1.00  0.00     0.000 C 
ENDROOT
BRANCH   1   2
ATOM      2  C   UNL     1     111.130 111.220 118.178  1.00  0.00     0.000 C 
BRANCH   2   3
ATOM      3  C   UNL     1     110.189 110.183 118.811  1.00  0.00     0.000 C 
BRANCH   3   4
ATOM      4  C   UNL     1     108.911 109.960 117.987  1.00  0.00     0.000 C 
BRANCH   4   5
ATOM      5  C   UNL     1     107.686 109.660 118.865  1.00  0.00     0.000 C 
BRANCH   5   6
ATOM      6  C   UNL     1     107.664 108.183 119.288  1.00  0.00     0.006 C 
BRANCH   6   7
ATOM      7  C   UNL     1     106.240 107.678 119.560  1.00  0.00     0.053 C 
BRANCH   7   8
ATOM      8  C   UNL     1     105.552 107.253 118.300  1.00  0.00     0.041 C 
ATOM      9  O   UNL     1     105.829 106.147 117.767  1.00  0.00    -0.550 OA
ATOM     10  O   UNL     1     104.625 108.094 117.696  1.00  0.00    -0.550 OA
ENDBRANCH   7   8
ENDBRANCH   6   7
ENDBRANCH   5   6
ENDBRANCH   4   5
ENDBRANCH   3   4
ENDBRANCH   2   3
ENDBRANCH   1   2
BRANCH   1  11
ATOM     11  C   UNL     1     110.617 112.353 120.421  1.00  0.00     0.000 C 
BRANCH  11  12
ATOM     12  C   UNL     1     111.686 112.542 121.513  1.00  0.00     0.000 C 
BRANCH  12  13
ATOM     13  C   UNL     1     111.730 111.378 122.516  1.00  0.00     0.000 C 
BRANCH  13  14
ATOM     14  C   UNL     1     112.011 110.021 121.846  1.00  0.00     0.000 C 
BRANCH  14  15
ATOM     15  C   UNL     1     113.501 109.666 121.673  1.00  0.00     0.000 C 
BRANCH  15  16
ATOM     16  C   UNL     1     114.016 109.687 120.220  1.00  0.00     0.006 C 
BRANCH  16  17
ATOM     17  C   UNL     1     114.495 111.065 119.737  1.00  0.00     0.053 C 
BRANCH  17  18
ATOM     18  C   UNL     1     115.847 111.408 120.281  1.00  0.00     0.041 C 
ATOM     19  O   UNL     1     116.050 112.529 120.817  1.00  0.00    -0.550 OA
ATOM     20  O   UNL     1     116.876 110.476 120.226  1.00  0.00    -0.550 OA
ENDBRANCH  17  18
ENDBRANCH  16  17
ENDBRANCH  15  16
ENDBRANCH  14  15
ENDBRANCH  13  14
ENDBRANCH  12  13
ENDBRANCH  11  12
ENDBRANCH   1  11
TORSDOF 15
ENDMDL
MODEL 6
REMARK VINA RESULT:    -4.179      1.704      7.214
REMARK INTER + INTRA:          -9.417
REMARK INTER:                  -7.047
REMARK INTRA:                  -2.370
REMARK UNBOUND:                -1.574
REMARK SMILES O=C([O-])CCCCCCCCCCCCCCC(=O)[O-]
REMARK SMILES IDX 10 1 9 2 8 3 7 4 6 5 5 6 4 7 2 8 1 9 3 10 11 11 12 12 13 13
REMARK SMILES IDX 14 14 15 15 16 16 17 17 18 18 19 19 20 20
REMARK H PARENT
REMARK Flexibility Score: inf
ROOT
ATOM      1  C   UNL     1     113.323 109.310 121.905  1.00  0.00     0.000 C 
ENDROOT
BRANCH   1   2
ATOM      2  C   UNL     1     114.220 109.421 120.665  1.00  0.00     0.000 C 
BRANCH   2   3
ATOM      3  C   UNL     1     115.503 110.203 120.983  1.00  0.00     0.000 C 
BRANCH   3   4
ATOM      4  C   UNL     1     115.542 110.717 122.431  1.00  0.00     0.000 C 
BRANCH   4   5
ATOM      5  C   UNL     1     116.321 112.033 122.571  1.00  0.00     0.000 C 
BRANCH   5   6
ATOM      6  C   UNL     1     116.960 112.436 121.234  1.00  0.00     0.006 C 
BRANCH   6   7
ATOM      7  C   UNL     1     116.502 113.824 120.766  1.00  0.00     0.053 C 
BRANCH   7   8
ATOM      8  C   UNL     1     117.546 114.503 119.936  1.00  0.00     0.041 C 
ATOM      9  O   UNL     1     117.523 114.406 118.681  1.00  0.00    -0.550 OA
ATOM     10  O   UNL     1     118.567 115.218 120.551  1.00  0.00    -0.550 OA
ENDBRANCH   7   8
ENDBRANCH   6   7
ENDBRANCH   5   6
ENDBRANCH   4   5
ENDBRANCH   3   4
ENDBRANCH   2   3
ENDBRANCH   1   2
BRANCH   1  11
ATOM     11  C   UNL     1     111.967 110.017 121.734  1.00  0.00     0.000 C 
BRANCH  11  12
ATOM     12  C   UNL     1     111.822 111.351 122.491  1.00  0.00     0.000 C 
BRANCH  12  13
ATOM     13  C   UNL     1     111.624 112.553 121.554  1.00  0.00     0.000 C 
BRANCH  13  14
ATOM     14  C   UNL     1     112.921 112.975 120.840  1.00  0.00     0.000 C 
BRANCH  14  15
ATOM     15  C   UNL     1     113.045 112.519 119.372  1.00  0.00     0.000 C 
BRANCH  15  16
ATOM     16  C   UNL     1     111.716 112.442 118.595  1.00  0.00     0.006 C 
BRANCH  16  17
ATOM     17  C   UNL     1     111.269 111.015 118.244  1.00  0.00     0.053 C 
BRANCH  17  18
ATOM     18  C   UNL     1     109.884 110.726 118.733  1.00  0.00     0.041 C 
ATOM     19  O   UNL     1     109.494 109.537 118.872  1.00  0.00    -0.550 OA
ATOM     20  O   UNL     1     109.034 111.773 119.069  1.00  0.00    -0.550 OA
ENDBRANCH  17  18
ENDBRANCH  16  17
ENDBRANCH  15  16
ENDBRANCH  14  15
ENDBRANCH  13  14
ENDBRANCH  12  13
ENDBRANCH  11  12
ENDBRANCH   1  11
TORSDOF 15
ENDMDL
MODEL 7
REMARK VINA RESULT:    -4.163      1.973      2.182
REMARK INTER + INTRA:          -9.388
REMARK INTER:                  -7.173
REMARK INTRA:                  -2.215
REMARK UNBOUND:                -1.574
REMARK SMILES O=C([O-])CCCCCCCCCCCCCCC(=O)[O-]
REMARK SMILES IDX 10 1 9 2 8 3 7 4 6 5 5 6 4 7 2 8 1 9 3 10 11 11 12 12 13 13
REMARK SMILES IDX 14 14 15 15 16 16 17 17 18 18 19 19 20 20
REMARK H PARENT
REMARK Flexibility Score: inf
ROOT
ATOM      1  C   UNL     1     111.514 111.121 122.541  1.00  0.00     0.000 C 
ENDROOT
BRANCH   1   2
ATOM      2  C   UNL     1     112.330 112.414 122.403  1.00  0.00     0.000 C 
BRANCH   2   3
ATOM      3  C   UNL     1     111.655 113.388 121.425  1.00  0.00     0.000 C 
BRANCH   3   4
ATOM      4  C   UNL     1     110.388 112.801 120.782  1.00  0.00     0.000 C 
BRANCH   4   5
ATOM      5  C   UNL     1     110.559 112.527 119.280  1.00  0.00     0.000 C 
BRANCH   5   6
ATOM      6  C   UNL     1     110.340 111.040 118.966  1.00  0.00     0.006 C 
BRANCH   6   7
ATOM      7  C   UNL     1     111.487 110.446 118.137  1.00  0.00     0.053 C 
BRANCH   7   8
ATOM      8  C   UNL     1     111.014 109.960 116.802  1.00  0.00     0.041 C 
ATOM      9  O   UNL     1     111.426 108.862 116.343  1.00  0.00    -0.550 OA
ATOM     10  O   UNL     1     110.142 110.736 116.049  1.00  0.00    -0.550 OA
ENDBRANCH   7   8
ENDBRANCH   6   7
ENDBRANCH   5   6
ENDBRANCH   4   5
ENDBRANCH   3   4
ENDBRANCH   2   3
ENDBRANCH   1   2
BRANCH   1  11
ATOM     11  C   UNL     1     112.246 109.885 121.989  1.00  0.00     0.000 C 
BRANCH  11  12
ATOM     12  C   UNL     1     113.516 110.184 121.171  1.00  0.00     0.000 C 
BRANCH  12  13
ATOM     13  C   UNL     1     114.667 109.212 121.475  1.00  0.00     0.000 C 
BRANCH  13  14
ATOM     14  C   UNL     1     115.753 109.832 122.374  1.00  0.00     0.000 C 
BRANCH  14  15
ATOM     15  C   UNL     1     115.527 111.307 122.760  1.00  0.00     0.000 C 
BRANCH  15  16
ATOM     16  C   UNL     1     116.445 112.320 122.046  1.00  0.00     0.006 C 
BRANCH  16  17
ATOM     17  C   UNL     1     115.706 113.310 121.132  1.00  0.00     0.053 C 
BRANCH  17  18
ATOM     18  C   UNL     1     115.462 112.738 119.770  1.00  0.00     0.041 C 
ATOM     19  O   UNL     1     116.311 111.971 119.242  1.00  0.00    -0.550 OA
ATOM     20  O   UNL     1     114.282 113.025 119.096  1.00  0.00    -0.550 OA
ENDBRANCH  17  18
ENDBRANCH  16  17
ENDBRANCH  15  16
ENDBRANCH  14  15
ENDBRANCH  13  14
ENDBRANCH  12  13
ENDBRANCH  11  12
ENDBRANCH   1  11
TORSDOF 15
ENDMDL
MODEL 8
REMARK VINA RESULT:    -4.123      2.517      3.627
REMARK INTER + INTRA:          -9.313
REMARK INTER:                  -7.156
REMARK INTRA:                  -2.157
REMARK UNBOUND:                -1.574
REMARK SMILES O=C([O-])CCCCCCCCCCCCCCC(=O)[O-]
REMARK SMILES IDX 10 1 9 2 8 3 7 4 6 5 5 6 4 7 2 8 1 9 3 10 11 11 12 12 13 13
REMARK SMILES IDX 14 14 15 15 16 16 17 17 18 18 19 19 20 20
REMARK H PARENT
REMARK Flexibility Score: inf
ROOT
ATOM      1  C   UNL     1     113.256 109.940 121.011  1.00  0.00     0.000 C 
ENDROOT
BRANCH   1   2
ATOM      2  C   UNL     1     112.015 109.934 121.914  1.00  0.00     0.000 C 
BRANCH   2   3
ATOM      3  C   UNL     1     111.825 111.298 122.596  1.00  0.00     0.000 C 
BRANCH   3   4
ATOM      4  C   UNL     1     112.030 112.477 121.631  1.00  0.00     0.000 C 
BRANCH   4   5
ATOM      5  C   UNL     1     110.705 113.122 121.196  1.00  0.00     0.000 C 
BRANCH   5   6
ATOM      6  C   UNL     1     110.261 112.591 119.825  1.00  0.00     0.006 C 
BRANCH   6   7
ATOM      7  C   UNL     1     111.452 112.311 118.898  1.00  0.00     0.053 C 
BRANCH   7   8
ATOM      8  C   UNL     1     111.162 112.716 117.486  1.00  0.00     0.041 C 
ATOM      9  O   UNL     1     110.009 112.562 117.004  1.00  0.00    -0.550 OA
ATOM     10  O   UNL     1     112.176 113.233 116.688  1.00  0.00    -0.550 OA
ENDBRANCH   7   8
ENDBRANCH   6   7
ENDBRANCH   5   6
ENDBRANCH   4   5
ENDBRANCH   3   4
ENDBRANCH   2   3
ENDBRANCH   1   2
BRANCH   1  11
ATOM     11  C   UNL     1     114.462 109.219 121.638  1.00  0.00     0.000 C 
BRANCH  11  12
ATOM     12  C   UNL     1     115.567 110.142 122.186  1.00  0.00     0.000 C 
BRANCH  12  13
ATOM     13  C   UNL     1     115.974 111.243 121.194  1.00  0.00     0.000 C 
BRANCH  13  14
ATOM     14  C   UNL     1     115.739 112.662 121.745  1.00  0.00     0.000 C 
BRANCH  14  15
ATOM     15  C   UNL     1     115.661 113.778 120.684  1.00  0.00     0.000 C 
BRANCH  15  16
ATOM     16  C   UNL     1     114.826 113.436 119.433  1.00  0.00     0.006 C 
BRANCH  16  17
ATOM     17  C   UNL     1     115.412 113.970 118.116  1.00  0.00     0.053 C 
BRANCH  17  18
ATOM     18  C   UNL     1     116.860 113.618 117.965  1.00  0.00     0.041 C 
ATOM     19  O   UNL     1     117.735 114.523 117.951  1.00  0.00    -0.550 OA
ATOM     20  O   UNL     1     117.245 112.286 117.875  1.00  0.00    -0.550 OA
ENDBRANCH  17  18
ENDBRANCH  16  17
ENDBRANCH  15  16
ENDBRANCH  14  15
ENDBRANCH  13  14
ENDBRANCH  12  13
ENDBRANCH  11  12
ENDBRANCH   1  11
TORSDOF 15
ENDMDL
MODEL 9
REMARK VINA RESULT:    -4.099      2.702      5.602
REMARK INTER + INTRA:          -9.268
REMARK INTER:                  -7.909
REMARK INTRA:                  -1.360
REMARK UNBOUND:                -1.574
REMARK SMILES O=C([O-])CCCCCCCCCCCCCCC(=O)[O-]
REMARK SMILES IDX 10 1 9 2 8 3 7 4 6 5 5 6 4 7 2 8 1 9 3 10 11 11 12 12 13 13
REMARK SMILES IDX 14 14 15 15 16 16 17 17 18 18 19 19 20 20
REMARK H PARENT
REMARK Flexibility Score: inf
ROOT
ATOM      1  C   UNL     1     108.479 108.563 118.671  1.00  0.00     0.000 C 
ENDROOT
BRANCH   1   2
ATOM      2  C   UNL     1     107.831 107.963 119.927  1.00  0.00     0.000 C 
BRANCH   2   3
ATOM      3  C   UNL     1     106.307 107.860 119.764  1.00  0.00     0.000 C 
BRANCH   3   4
ATOM      4  C   UNL     1     105.896 106.948 118.597  1.00  0.00     0.000 C 
BRANCH   4   5
ATOM      5  C   UNL     1     104.629 107.440 117.880  1.00  0.00     0.000 C 
BRANCH   5   6
ATOM      6  C   UNL     1     104.981 108.108 116.542  1.00  0.00     0.006 C 
BRANCH   6   7
ATOM      7  C   UNL     1     106.158 107.417 115.840  1.00  0.00     0.053 C 
BRANCH   7   8
ATOM      8  C   UNL     1     105.703 106.272 114.990  1.00  0.00     0.041 C 
ATOM      9  O   UNL     1     105.856 105.087 115.386  1.00  0.00    -0.550 OA
ATOM     10  O   UNL     1     105.140 106.513 113.743  1.00  0.00    -0.550 OA
ENDBRANCH   7   8
ENDBRANCH   6   7
ENDBRANCH   5   6
ENDBRANCH   4   5
ENDBRANCH   3   4
ENDBRANCH   2   3
ENDBRANCH   1   2
BRANCH   1  11
ATOM     11  C   UNL     1     107.841 109.897 118.243  1.00  0.00     0.000 C 
BRANCH  11  12
ATOM     12  C   UNL     1     108.392 111.147 118.956  1.00  0.00     0.000 C 
BRANCH  12  13
ATOM     13  C   UNL     1     109.928 111.198 118.975  1.00  0.00     0.000 C 
BRANCH  13  14
ATOM     14  C   UNL     1     110.476 112.536 119.504  1.00  0.00     0.000 C 
BRANCH  14  15
ATOM     15  C   UNL     1     110.594 112.640 121.038  1.00  0.00     0.000 C 
BRANCH  15  16
ATOM     16  C   UNL     1     112.010 112.946 121.568  1.00  0.00     0.006 C 
BRANCH  16  17
ATOM     17  C   UNL     1     112.637 111.811 122.391  1.00  0.00     0.053 C 
BRANCH  17  18
ATOM     18  C   UNL     1     112.543 110.492 121.688  1.00  0.00     0.041 C 
ATOM     19  O   UNL     1     111.761 109.601 122.112  1.00  0.00    -0.550 OA
ATOM     20  O   UNL     1     113.294 110.260 120.543  1.00  0.00    -0.550 OA
ENDBRANCH  17  18
ENDBRANCH  16  17
ENDBRANCH  15  16
ENDBRANCH  14  15
ENDBRANCH  13  14
ENDBRANCH  12  13
ENDBRANCH  11  12
ENDBRANCH   1  11
TORSDOF 15
ENDMDL
