MODEL 1
REMARK VINA RESULT:    -6.150      0.000      0.000
REMARK INTER + INTRA:         -13.146
REMARK INTER:                 -11.183
REMARK INTRA:                  -1.962
REMARK UNBOUND:                -1.962
REMARK SMILES CCCCCC=CCC=CCCCCCCCC(=O)[O-]
REMARK SMILES IDX 11 1 12 2 13 3 14 4 15 5 16 6 17 7 18 8 19 9 20 10 10 11
REMARK SMILES IDX 9 12 8 13 7 14 6 15 5 16 4 17 3 18 2 19 1 20
REMARK H PARENT
REMARK Flexibility Score: inf
ROOT
ATOM      1  C   UNL     1      10.977  17.698  24.776  1.00  0.00     0.027 C 
ENDROOT
BRANCH   1   2
ATOM      2  C   UNL     1      11.219  17.717  23.263  1.00  0.00     0.004 C 
BRANCH   2   3
ATOM      3  C   UNL     1      12.525  16.997  22.906  1.00  0.00     0.000 C 
BRANCH   3   4
ATOM      4  C   UNL     1      12.249  15.592  22.357  1.00  0.00     0.000 C 
BRANCH   4   5
ATOM      5  C   UNL     1      12.889  14.519  23.249  1.00  0.00     0.000 C 
BRANCH   5   6
ATOM      6  C   UNL     1      11.852  13.570  23.878  1.00  0.00     0.006 C 
BRANCH   6   7
ATOM      7  C   UNL     1      10.652  13.253  22.971  1.00  0.00     0.053 C 
BRANCH   7   8
ATOM      8  C   UNL     1      10.924  12.089  22.067  1.00  0.00     0.041 C 
ATOM      9  O   UNL     1      10.672  10.916  22.450  1.00  0.00    -0.550 OA
ATOM     10  O   UNL     1      11.486  12.298  20.813  1.00  0.00    -0.550 OA
ENDBRANCH   7   8
ENDBRANCH   6   7
ENDBRANCH   5   6
ENDBRANCH   4   5
ENDBRANCH   3   4
ENDBRANCH   2   3
ENDBRANCH   1   2
BRANCH   1  11
ATOM     11  C   UNL     1      12.283  17.633  25.527  1.00  0.00    -0.031 C 
ATOM     12  C   UNL     1      12.611  16.668  26.405  1.00  0.00    -0.027 C 
BRANCH  12  13
ATOM     13  C   UNL     1      11.698  15.542  26.822  1.00  0.00     0.054 C 
BRANCH  13  14
ATOM     14  C   UNL     1      12.196  14.870  28.070  1.00  0.00    -0.027 C 
ATOM     15  C   UNL     1      13.326  14.145  28.076  1.00  0.00    -0.031 C 
BRANCH  15  16
ATOM     16  C   UNL     1      13.824  13.473  29.326  1.00  0.00     0.027 C 
BRANCH  16  17
ATOM     17  C   UNL     1      12.923  13.804  30.526  1.00  0.00     0.004 C 
BRANCH  17  18
ATOM     18  C   UNL     1      13.616  14.715  31.550  1.00  0.00     0.000 C 
BRANCH  18  19
ATOM     19  C   UNL     1      12.721  15.876  32.012  1.00  0.00    -0.003 C 
ATOM     20  C   UNL     1      12.689  16.992  30.972  1.00  0.00     0.004 C 
ENDBRANCH  18  19
ENDBRANCH  17  18
ENDBRANCH  16  17
ENDBRANCH  15  16
ENDBRANCH  13  14
ENDBRANCH  12  13
ENDBRANCH   1  11
TORSDOF 14
ENDMDL
MODEL 2
REMARK VINA RESULT:    -5.974      3.029      7.179
REMARK INTER + INTRA:         -12.826
REMARK INTER:                 -10.878
REMARK INTRA:                  -1.948
REMARK UNBOUND:                -1.962
REMARK SMILES CCCCCC=CCC=CCCCCCCCC(=O)[O-]
REMARK SMILES IDX 11 1 12 2 13 3 14 4 15 5 16 6 17 7 18 8 19 9 20 10 10 11
REMARK SMILES IDX 9 12 8 13 7 14 6 15 5 16 4 17 3 18 2 19 1 20
REMARK H PARENT
REMARK Flexibility Score: inf
ROOT
ATOM      1  C   UNL     1      13.187  13.224  30.356  1.00  0.00     0.027 C 
ENDROOT
BRANCH   1   2
ATOM      2  C   UNL     1      13.628  14.123  31.516  1.00  0.00     0.004 C 
BRANCH   2   3
ATOM      3  C   UNL     1      12.427  14.846  32.138  1.00  0.00     0.000 C 
BRANCH   3   4
ATOM      4  C   UNL     1      12.221  16.225  31.498  1.00  0.00     0.000 C 
BRANCH   4   5
ATOM      5  C   UNL     1      10.835  16.325  30.845  1.00  0.00     0.000 C 
BRANCH   5   6
ATOM      6  C   UNL     1      10.083  14.982  30.831  1.00  0.00     0.006 C 
BRANCH   6   7
ATOM      7  C   UNL     1       8.565  15.110  30.624  1.00  0.00     0.053 C 
BRANCH   7   8
ATOM      8  C   UNL     1       8.106  14.410  29.381  1.00  0.00     0.041 C 
ATOM      9  O   UNL     1       8.546  14.763  28.256  1.00  0.00    -0.550 OA
ATOM     10  O   UNL     1       7.168  13.389  29.465  1.00  0.00    -0.550 OA
ENDBRANCH   7   8
ENDBRANCH   6   7
ENDBRANCH   5   6
ENDBRANCH   4   5
ENDBRANCH   3   4
ENDBRANCH   2   3
ENDBRANCH   1   2
BRANCH   1  11
ATOM     11  C   UNL     1      14.029  13.478  29.131  1.00  0.00    -0.031 C 
ATOM     12  C   UNL     1      13.662  14.263  28.102  1.00  0.00    -0.027 C 
BRANCH  12  13
ATOM     13  C   UNL     1      12.326  14.953  27.986  1.00  0.00     0.054 C 
BRANCH  13  14
ATOM     14  C   UNL     1      11.837  14.959  26.564  1.00  0.00    -0.027 C 
ATOM     15  C   UNL     1      12.459  14.256  25.604  1.00  0.00    -0.031 C 
BRANCH  15  16
ATOM     16  C   UNL     1      11.968  14.262  24.182  1.00  0.00     0.027 C 
BRANCH  16  17
ATOM     17  C   UNL     1      12.745  15.281  23.335  1.00  0.00     0.004 C 
BRANCH  17  18
ATOM     18  C   UNL     1      12.065  16.658  23.299  1.00  0.00     0.000 C 
BRANCH  18  19
ATOM     19  C   UNL     1      12.828  17.717  24.109  1.00  0.00    -0.003 C 
ATOM     20  C   UNL     1      11.951  18.302  25.212  1.00  0.00     0.004 C 
ENDBRANCH  18  19
ENDBRANCH  17  18
ENDBRANCH  16  17
ENDBRANCH  15  16
ENDBRANCH  13  14
ENDBRANCH  12  13
ENDBRANCH   1  11
TORSDOF 14
ENDMDL
MODEL 3
REMARK VINA RESULT:    -5.913      3.286      7.237
REMARK INTER + INTRA:         -12.715
REMARK INTER:                 -10.284
REMARK INTRA:                  -2.431
REMARK UNBOUND:                -1.962
REMARK SMILES CCCCCC=CCC=CCCCCCCCC(=O)[O-]
REMARK SMILES IDX 11 1 12 2 13 3 14 4 15 5 16 6 17 7 18 8 19 9 20 10 10 11
REMARK SMILES IDX 9 12 8 13 7 14 6 15 5 16 4 17 3 18 2 19 1 20
REMARK H PARENT
REMARK Flexibility Score: inf
ROOT
ATOM      1  C   UNL     1      13.967  14.961  31.882  1.00  0.00     0.027 C 
ENDROOT
BRANCH   1   2
ATOM      2  C   UNL     1      12.780  15.880  32.184  1.00  0.00     0.004 C 
BRANCH   2   3
ATOM      3  C   UNL     1      12.664  16.992  31.134  1.00  0.00     0.000 C 
BRANCH   3   4
ATOM      4  C   UNL     1      11.527  16.703  30.147  1.00  0.00     0.000 C 
BRANCH   4   5
ATOM      5  C   UNL     1      10.417  15.879  30.814  1.00  0.00     0.000 C 
BRANCH   5   6
ATOM      6  C   UNL     1      10.078  14.593  30.038  1.00  0.00     0.006 C 
BRANCH   6   7
ATOM      7  C   UNL     1       8.866  14.721  29.101  1.00  0.00     0.053 C 
BRANCH   7   8
ATOM      8  C   UNL     1       7.659  14.018  29.645  1.00  0.00     0.041 C 
ATOM      9  O   UNL     1       7.323  14.173  30.848  1.00  0.00    -0.550 OA
ATOM     10  O   UNL     1       6.925  13.166  28.828  1.00  0.00    -0.550 OA
ENDBRANCH   7   8
ENDBRANCH   6   7
ENDBRANCH   5   6
ENDBRANCH   4   5
ENDBRANCH   3   4
ENDBRANCH   2   3
ENDBRANCH   1   2
BRANCH   1  11
ATOM     11  C   UNL     1      13.495  13.630  31.353  1.00  0.00    -0.031 C 
ATOM     12  C   UNL     1      13.519  13.273  30.057  1.00  0.00    -0.027 C 
BRANCH  12  13
ATOM     13  C   UNL     1      13.960  14.171  28.928  1.00  0.00     0.054 C 
BRANCH  13  14
ATOM     14  C   UNL     1      13.007  14.097  27.768  1.00  0.00    -0.027 C 
ATOM     15  C   UNL     1      12.579  15.201  27.137  1.00  0.00    -0.031 C 
BRANCH  15  16
ATOM     16  C   UNL     1      11.626  15.125  25.977  1.00  0.00     0.027 C 
BRANCH  16  17
ATOM     17  C   UNL     1      12.193  15.852  24.748  1.00  0.00     0.004 C 
BRANCH  17  18
ATOM     18  C   UNL     1      12.324  14.930  23.525  1.00  0.00     0.000 C 
BRANCH  18  19
ATOM     19  C   UNL     1      11.562  13.608  23.696  1.00  0.00    -0.003 C 
ATOM     20  C   UNL     1      12.519  12.419  23.711  1.00  0.00     0.004 C 
ENDBRANCH  18  19
ENDBRANCH  17  18
ENDBRANCH  16  17
ENDBRANCH  15  16
ENDBRANCH  13  14
ENDBRANCH  12  13
ENDBRANCH   1  11
TORSDOF 14
ENDMDL
MODEL 4
REMARK VINA RESULT:    -5.884      3.282      7.564
REMARK INTER + INTRA:         -12.662
REMARK INTER:                 -10.879
REMARK INTRA:                  -1.783
REMARK UNBOUND:                -1.962
REMARK SMILES CCCCCC=CCC=CCCCCCCCC(=O)[O-]
REMARK SMILES IDX 11 1 12 2 13 3 14 4 15 5 16 6 17 7 18 8 19 9 20 10 10 11
REMARK SMILES IDX 9 12 8 13 7 14 6 15 5 16 4 17 3 18 2 19 1 20
REMARK H PARENT
REMARK Flexibility Score: inf
ROOT
ATOM      1  C   UNL     1      13.149  13.318  30.111  1.00  0.00     0.027 C 
ENDROOT
BRANCH   1   2
ATOM      2  C   UNL     1      13.553  13.980  31.433  1.00  0.00     0.004 C 
BRANCH   2   3
ATOM      3  C   UNL     1      13.605  15.506  31.290  1.00  0.00     0.000 C 
BRANCH   3   4
ATOM      4  C   UNL     1      12.340  16.156  31.863  1.00  0.00     0.000 C 
BRANCH   4   5
ATOM      5  C   UNL     1      11.343  16.495  30.746  1.00  0.00     0.000 C 
BRANCH   5   6
ATOM      6  C   UNL     1       9.938  15.920  31.005  1.00  0.00     0.006 C 
BRANCH   6   7
ATOM      7  C   UNL     1       9.550  14.757  30.077  1.00  0.00     0.053 C 
BRANCH   7   8
ATOM      8  C   UNL     1       8.079  14.729  29.797  1.00  0.00     0.041 C 
ATOM      9  O   UNL     1       7.628  15.214  28.726  1.00  0.00    -0.550 OA
ATOM     10  O   UNL     1       7.202  14.196  30.734  1.00  0.00    -0.550 OA
ENDBRANCH   7   8
ENDBRANCH   6   7
ENDBRANCH   5   6
ENDBRANCH   4   5
ENDBRANCH   3   4
ENDBRANCH   2   3
ENDBRANCH   1   2
BRANCH   1  11
ATOM     11  C   UNL     1      14.013  13.810  28.978  1.00  0.00    -0.031 C 
ATOM     12  C   UNL     1      13.558  14.492  27.912  1.00  0.00    -0.027 C 
BRANCH  12  13
ATOM     13  C   UNL     1      12.106  14.810  27.654  1.00  0.00     0.054 C 
BRANCH  13  14
ATOM     14  C   UNL     1      11.952  15.753  26.494  1.00  0.00    -0.027 C 
ATOM     15  C   UNL     1      12.663  16.889  26.411  1.00  0.00    -0.031 C 
BRANCH  15  16
ATOM     16  C   UNL     1      12.508  17.831  25.249  1.00  0.00     0.027 C 
BRANCH  16  17
ATOM     17  C   UNL     1      11.048  17.888  24.776  1.00  0.00     0.004 C 
BRANCH  17  18
ATOM     18  C   UNL     1      10.877  17.406  23.327  1.00  0.00     0.000 C 
BRANCH  18  19
ATOM     19  C   UNL     1      10.231  16.015  23.237  1.00  0.00    -0.003 C 
ATOM     20  C   UNL     1       9.493  15.836  21.914  1.00  0.00     0.004 C 
ENDBRANCH  18  19
ENDBRANCH  17  18
ENDBRANCH  16  17
ENDBRANCH  15  16
ENDBRANCH  13  14
ENDBRANCH  12  13
ENDBRANCH   1  11
TORSDOF 14
ENDMDL
MODEL 5
REMARK VINA RESULT:    -5.821      2.941      6.512
REMARK INTER + INTRA:         -12.548
REMARK INTER:                 -10.517
REMARK INTRA:                  -2.030
REMARK UNBOUND:                -1.962
REMARK SMILES CCCCCC=CCC=CCCCCCCCC(=O)[O-]
REMARK SMILES IDX 11 1 12 2 13 3 14 4 15 5 16 6 17 7 18 8 19 9 20 10 10 11
REMARK SMILES IDX 9 12 8 13 7 14 6 15 5 16 4 17 3 18 2 19 1 20
REMARK H PARENT
REMARK Flexibility Score: inf
ROOT
ATOM      1  C   UNL     1      13.294  15.970  30.664  1.00  0.00     0.027 C 
ENDROOT
BRANCH   1   2
ATOM      2  C   UNL     1      11.899  16.602  30.719  1.00  0.00     0.004 C 
BRANCH   2   3
ATOM      3  C   UNL     1      10.961  15.787  31.618  1.00  0.00     0.000 C 
BRANCH   3   4
ATOM      4  C   UNL     1       9.604  15.562  30.939  1.00  0.00     0.000 C 
BRANCH   4   5
ATOM      5  C   UNL     1       9.724  14.546  29.795  1.00  0.00     0.000 C 
BRANCH   5   6
ATOM      6  C   UNL     1       8.356  14.088  29.257  1.00  0.00     0.006 C 
BRANCH   6   7
ATOM      7  C   UNL     1       7.870  14.866  28.023  1.00  0.00     0.053 C 
BRANCH   7   8
ATOM      8  C   UNL     1       7.141  13.985  27.055  1.00  0.00     0.041 C 
ATOM      9  O   UNL     1       7.138  14.258  25.827  1.00  0.00    -0.550 OA
ATOM     10  O   UNL     1       6.437  12.879  27.517  1.00  0.00    -0.550 OA
ENDBRANCH   7   8
ENDBRANCH   6   7
ENDBRANCH   5   6
ENDBRANCH   4   5
ENDBRANCH   3   4
ENDBRANCH   2   3
ENDBRANCH   1   2
BRANCH   1  11
ATOM     11  C   UNL     1      13.200  14.465  30.638  1.00  0.00    -0.031 C 
ATOM     12  C   UNL     1      13.549  13.697  29.590  1.00  0.00    -0.027 C 
BRANCH  12  13
ATOM     13  C   UNL     1      14.023  14.227  28.260  1.00  0.00     0.054 C 
BRANCH  13  14
ATOM     14  C   UNL     1      12.897  14.296  27.268  1.00  0.00    -0.027 C 
ATOM     15  C   UNL     1      12.224  15.436  27.044  1.00  0.00    -0.031 C 
BRANCH  15  16
ATOM     16  C   UNL     1      11.097  15.503  26.050  1.00  0.00     0.027 C 
BRANCH  16  17
ATOM     17  C   UNL     1      11.265  16.703  25.106  1.00  0.00     0.004 C 
BRANCH  17  18
ATOM     18  C   UNL     1      12.381  17.657  25.557  1.00  0.00     0.000 C 
BRANCH  18  19
ATOM     19  C   UNL     1      13.127  18.297  24.376  1.00  0.00    -0.003 C 
ATOM     20  C   UNL     1      12.415  18.010  23.056  1.00  0.00     0.004 C 
ENDBRANCH  18  19
ENDBRANCH  17  18
ENDBRANCH  16  17
ENDBRANCH  15  16
ENDBRANCH  13  14
ENDBRANCH  12  13
ENDBRANCH   1  11
TORSDOF 14
ENDMDL
MODEL 6
REMARK VINA RESULT:    -5.665      3.473      5.607
REMARK INTER + INTRA:         -12.264
REMARK INTER:                 -10.532
REMARK INTRA:                  -1.732
REMARK UNBOUND:                -1.962
REMARK SMILES CCCCCC=CCC=CCCCCCCCC(=O)[O-]
REMARK SMILES IDX 11 1 12 2 13 3 14 4 15 5 16 6 17 7 18 8 19 9 20 10 10 11
REMARK SMILES IDX 9 12 8 13 7 14 6 15 5 16 4 17 3 18 2 19 1 20
REMARK H PARENT
REMARK Flexibility Score: inf
ROOT
ATOM      1  C   UNL     1      14.340  14.509  28.471  1.00  0.00     0.027 C 
ENDROOT
BRANCH   1   2
ATOM      2  C   UNL     1      13.218  15.317  27.811  1.00  0.00     0.004 C 
BRANCH   2   3
ATOM      3  C   UNL     1      12.436  14.457  26.811  1.00  0.00     0.000 C 
BRANCH   3   4
ATOM      4  C   UNL     1      11.200  15.201  26.291  1.00  0.00     0.000 C 
BRANCH   4   5
ATOM      5  C   UNL     1      11.011  14.967  24.786  1.00  0.00     0.000 C 
BRANCH   5   6
ATOM      6  C   UNL     1      11.080  16.269  23.966  1.00  0.00     0.006 C 
BRANCH   6   7
ATOM      7  C   UNL     1      12.508  16.782  23.715  1.00  0.00     0.053 C 
BRANCH   7   8
ATOM      8  C   UNL     1      12.763  18.089  24.401  1.00  0.00     0.041 C 
ATOM      9  O   UNL     1      13.654  18.868  23.971  1.00  0.00    -0.550 OA
ATOM     10  O   UNL     1      12.038  18.433  25.535  1.00  0.00    -0.550 OA
ENDBRANCH   7   8
ENDBRANCH   6   7
ENDBRANCH   5   6
ENDBRANCH   4   5
ENDBRANCH   3   4
ENDBRANCH   2   3
ENDBRANCH   1   2
BRANCH   1  11
ATOM     11  C   UNL     1      13.794  13.262  29.118  1.00  0.00    -0.031 C 
ATOM     12  C   UNL     1      13.219  13.223  30.334  1.00  0.00    -0.027 C 
BRANCH  12  13
ATOM     13  C   UNL     1      13.094  14.406  31.262  1.00  0.00     0.054 C 
BRANCH  13  14
ATOM     14  C   UNL     1      11.679  14.908  31.318  1.00  0.00    -0.027 C 
ATOM     15  C   UNL     1      10.825  14.723  30.298  1.00  0.00    -0.031 C 
BRANCH  15  16
ATOM     16  C   UNL     1       9.409  15.225  30.357  1.00  0.00     0.027 C 
BRANCH  16  17
ATOM     17  C   UNL     1       8.477  14.348  29.506  1.00  0.00     0.004 C 
BRANCH  17  18
ATOM     18  C   UNL     1       7.744  15.148  28.418  1.00  0.00     0.000 C 
BRANCH  18  19
ATOM     19  C   UNL     1       7.384  14.292  27.195  1.00  0.00    -0.003 C 
ATOM     20  C   UNL     1       6.580  13.061  27.602  1.00  0.00     0.004 C 
ENDBRANCH  18  19
ENDBRANCH  17  18
ENDBRANCH  16  17
ENDBRANCH  15  16
ENDBRANCH  13  14
ENDBRANCH  12  13
ENDBRANCH   1  11
TORSDOF 14
ENDMDL
MODEL 7
REMARK VINA RESULT:    -5.598      3.385      5.980
REMARK INTER + INTRA:         -12.142
REMARK INTER:                 -10.511
REMARK INTRA:                  -1.631
REMARK UNBOUND:                -1.962
REMARK SMILES CCCCCC=CCC=CCCCCCCCC(=O)[O-]
REMARK SMILES IDX 11 1 12 2 13 3 14 4 15 5 16 6 17 7 18 8 19 9 20 10 10 11
REMARK SMILES IDX 9 12 8 13 7 14 6 15 5 16 4 17 3 18 2 19 1 20
REMARK H PARENT
REMARK Flexibility Score: inf
ROOT
ATOM      1  C   UNL     1      13.220  13.601  30.628  1.00  0.00     0.027 C 
ENDROOT
BRANCH   1   2
ATOM      2  C   UNL     1      13.700  13.465  29.179  1.00  0.00     0.004 C 
BRANCH   2   3
ATOM      3  C   UNL     1      13.781  14.835  28.496  1.00  0.00     0.000 C 
BRANCH   3   4
ATOM      4  C   UNL     1      12.471  15.168  27.771  1.00  0.00     0.000 C 
BRANCH   4   5
ATOM      5  C   UNL     1      12.491  14.638  26.330  1.00  0.00     0.000 C 
BRANCH   5   6
ATOM      6  C   UNL     1      11.328  15.179  25.479  1.00  0.00     0.006 C 
BRANCH   6   7
ATOM      7  C   UNL     1      11.767  16.012  24.264  1.00  0.00     0.053 C 
BRANCH   7   8
ATOM      8  C   UNL     1      11.513  17.475  24.465  1.00  0.00     0.041 C 
ATOM      9  O   UNL     1      11.978  18.067  25.474  1.00  0.00    -0.550 OA
ATOM     10  O   UNL     1      10.736  18.177  23.551  1.00  0.00    -0.550 OA
ENDBRANCH   7   8
ENDBRANCH   6   7
ENDBRANCH   5   6
ENDBRANCH   4   5
ENDBRANCH   3   4
ENDBRANCH   2   3
ENDBRANCH   1   2
BRANCH   1  11
ATOM     11  C   UNL     1      13.583  14.953  31.188  1.00  0.00    -0.031 C 
ATOM     12  C   UNL     1      12.724  15.771  31.823  1.00  0.00    -0.027 C 
BRANCH  12  13
ATOM     13  C   UNL     1      11.254  15.491  32.011  1.00  0.00     0.054 C 
BRANCH  13  14
ATOM     14  C   UNL     1      10.515  15.561  30.705  1.00  0.00    -0.027 C 
ATOM     15  C   UNL     1       9.562  14.670  30.386  1.00  0.00    -0.031 C 
BRANCH  15  16
ATOM     16  C   UNL     1       8.823  14.742  29.079  1.00  0.00     0.027 C 
BRANCH  16  17
ATOM     17  C   UNL     1       7.527  13.918  29.132  1.00  0.00     0.004 C 
BRANCH  17  18
ATOM     18  C   UNL     1       6.962  13.617  27.735  1.00  0.00     0.000 C 
BRANCH  18  19
ATOM     19  C   UNL     1       7.068  14.817  26.782  1.00  0.00    -0.003 C 
ATOM     20  C   UNL     1       7.763  14.426  25.481  1.00  0.00     0.004 C 
ENDBRANCH  18  19
ENDBRANCH  17  18
ENDBRANCH  16  17
ENDBRANCH  15  16
ENDBRANCH  13  14
ENDBRANCH  12  13
ENDBRANCH   1  11
TORSDOF 14
ENDMDL
MODEL 8
REMARK VINA RESULT:    -5.557      4.353      7.077
REMARK INTER + INTRA:         -12.068
REMARK INTER:                  -9.965
REMARK INTRA:                  -2.103
REMARK UNBOUND:                -1.962
REMARK SMILES CCCCCC=CCC=CCCCCCCCC(=O)[O-]
REMARK SMILES IDX 11 1 12 2 13 3 14 4 15 5 16 6 17 7 18 8 19 9 20 10 10 11
REMARK SMILES IDX 9 12 8 13 7 14 6 15 5 16 4 17 3 18 2 19 1 20
REMARK H PARENT
REMARK Flexibility Score: inf
ROOT
ATOM      1  C   UNL     1       9.919  14.798  21.146  1.00  0.00     0.027 C 
ENDROOT
BRANCH   1   2
ATOM      2  C   UNL     1       8.785  14.704  22.172  1.00  0.00     0.004 C 
BRANCH   2   3
ATOM      3  C   UNL     1       9.178  13.796  23.344  1.00  0.00     0.000 C 
BRANCH   3   4
ATOM      4  C   UNL     1      10.014  14.561  24.378  1.00  0.00     0.000 C 
BRANCH   4   5
ATOM      5  C   UNL     1      11.491  14.148  24.302  1.00  0.00     0.000 C 
BRANCH   5   6
ATOM      6  C   UNL     1      12.453  15.343  24.444  1.00  0.00     0.006 C 
BRANCH   6   7
ATOM      7  C   UNL     1      12.405  16.335  23.271  1.00  0.00     0.053 C 
BRANCH   7   8
ATOM      8  C   UNL     1      12.070  17.724  23.724  1.00  0.00     0.041 C 
ATOM      9  O   UNL     1      10.885  18.143  23.660  1.00  0.00    -0.550 OA
ATOM     10  O   UNL     1      13.075  18.565  24.187  1.00  0.00    -0.550 OA
ENDBRANCH   7   8
ENDBRANCH   6   7
ENDBRANCH   5   6
ENDBRANCH   4   5
ENDBRANCH   3   4
ENDBRANCH   2   3
ENDBRANCH   1   2
BRANCH   1  11
ATOM     11  C   UNL     1      10.404  13.425  20.755  1.00  0.00    -0.031 C 
ATOM     12  C   UNL     1      11.675  13.131  20.427  1.00  0.00    -0.027 C 
BRANCH  12  13
ATOM     13  C   UNL     1      12.793  14.139  20.336  1.00  0.00     0.054 C 
BRANCH  13  14
ATOM     14  C   UNL     1      14.124  13.506  20.631  1.00  0.00    -0.027 C 
ATOM     15  C   UNL     1      14.537  13.292  21.890  1.00  0.00    -0.031 C 
BRANCH  15  16
ATOM     16  C   UNL     1      15.869  12.658  22.183  1.00  0.00     0.027 C 
BRANCH  16  17
ATOM     17  C   UNL     1      16.886  12.974  21.077  1.00  0.00     0.004 C 
BRANCH  17  18
ATOM     18  C   UNL     1      18.192  13.569  21.628  1.00  0.00     0.000 C 
BRANCH  18  19
ATOM     19  C   UNL     1      18.408  13.246  23.114  1.00  0.00    -0.003 C 
ATOM     20  C   UNL     1      19.460  12.156  23.292  1.00  0.00     0.004 C 
ENDBRANCH  18  19
ENDBRANCH  17  18
ENDBRANCH  16  17
ENDBRANCH  15  16
ENDBRANCH  13  14
ENDBRANCH  12  13
ENDBRANCH   1  11
TORSDOF 14
ENDMDL
MODEL 9
REMARK VINA RESULT:    -5.511      4.636      7.060
REMARK INTER + INTRA:         -11.984
REMARK INTER:                 -10.547
REMARK INTRA:                  -1.437
REMARK UNBOUND:                -1.962
REMARK SMILES CCCCCC=CCC=CCCCCCCCC(=O)[O-]
REMARK SMILES IDX 11 1 12 2 13 3 14 4 15 5 16 6 17 7 18 8 19 9 20 10 10 11
REMARK SMILES IDX 9 12 8 13 7 14 6 15 5 16 4 17 3 18 2 19 1 20
REMARK H PARENT
REMARK Flexibility Score: inf
ROOT
ATOM      1  C   UNL     1      12.087  13.639  20.153  1.00  0.00     0.027 C 
ENDROOT
BRANCH   1   2
ATOM      2  C   UNL     1      11.316  14.041  21.415  1.00  0.00     0.004 C 
BRANCH   2   3
ATOM      3  C   UNL     1      11.777  13.220  22.625  1.00  0.00     0.000 C 
BRANCH   3   4
ATOM      4  C   UNL     1      12.741  14.026  23.504  1.00  0.00     0.000 C 
BRANCH   4   5
ATOM      5  C   UNL     1      12.231  14.105  24.949  1.00  0.00     0.000 C 
BRANCH   5   6
ATOM      6  C   UNL     1      11.397  15.372  25.220  1.00  0.00     0.006 C 
BRANCH   6   7
ATOM      7  C   UNL     1      11.751  16.565  24.317  1.00  0.00     0.053 C 
BRANCH   7   8
ATOM      8  C   UNL     1      12.656  17.541  25.005  1.00  0.00     0.041 C 
ATOM      9  O   UNL     1      12.812  17.490  26.253  1.00  0.00    -0.550 OA
ATOM     10  O   UNL     1      13.302  18.527  24.269  1.00  0.00    -0.550 OA
ENDBRANCH   7   8
ENDBRANCH   6   7
ENDBRANCH   5   6
ENDBRANCH   4   5
ENDBRANCH   3   4
ENDBRANCH   2   3
ENDBRANCH   1   2
BRANCH   1  11
ATOM     11  C   UNL     1      13.227  14.592  19.896  1.00  0.00    -0.031 C 
ATOM     12  C   UNL     1      14.528  14.254  19.944  1.00  0.00    -0.027 C 
BRANCH  12  13
ATOM     13  C   UNL     1      15.047  12.890  20.327  1.00  0.00     0.054 C 
BRANCH  13  14
ATOM     14  C   UNL     1      16.209  12.996  21.274  1.00  0.00    -0.027 C 
ATOM     15  C   UNL     1      17.345  13.622  20.928  1.00  0.00    -0.031 C 
BRANCH  15  16
ATOM     16  C   UNL     1      18.507  13.727  21.877  1.00  0.00     0.027 C 
BRANCH  16  17
ATOM     17  C   UNL     1      18.261  12.893  23.144  1.00  0.00     0.004 C 
BRANCH  17  18
ATOM     18  C   UNL     1      19.513  12.779  24.027  1.00  0.00     0.000 C 
BRANCH  18  19
ATOM     19  C   UNL     1      19.684  13.980  24.970  1.00  0.00    -0.003 C 
ATOM     20  C   UNL     1      20.572  13.623  26.158  1.00  0.00     0.004 C 
ENDBRANCH  18  19
ENDBRANCH  17  18
ENDBRANCH  16  17
ENDBRANCH  15  16
ENDBRANCH  13  14
ENDBRANCH  12  13
ENDBRANCH   1  11
TORSDOF 14
ENDMDL
