MODEL 1
REMARK VINA RESULT:    -4.505      0.000      0.000
REMARK INTER + INTRA:          -7.327
REMARK INTER:                  -6.085
REMARK INTRA:                  -1.242
REMARK UNBOUND:                -1.242
REMARK SMILES C=CC(C)=CCC=C(C)CCC=C(C)C
REMARK SMILES IDX 8 1 7 2 9 3 10 4 11 5 12 6 14 7 13 8 15 9 6 10 5 11 3 12
REMARK SMILES IDX 4 13 2 14 1 15
REMARK H PARENT
REMARK Flexibility Score: inf
ROOT
ATOM      1  C   UNL     1      31.666   9.226  32.620  1.00  0.00    -0.077 C 
ATOM      2  C   UNL     1      30.559   9.811  32.115  1.00  0.00    -0.024 C 
ATOM      3  C   UNL     1      32.847  10.047  33.086  1.00  0.00     0.039 C 
ENDROOT
BRANCH   1   4
ATOM      4  C   UNL     1      31.729   7.715  32.720  1.00  0.00     0.034 C 
BRANCH   4   5
ATOM      5  C   UNL     1      30.722   7.037  31.780  1.00  0.00     0.032 C 
BRANCH   5   6
ATOM      6  C   UNL     1      31.371   6.596  30.489  1.00  0.00    -0.028 C 
ATOM      7  C   UNL     1      29.999   8.139  29.072  1.00  0.00     0.039 C 
ATOM      8  C   UNL     1      31.079   7.103  29.270  1.00  0.00    -0.080 C 
ATOM      9  C   UNL     1      31.849   6.594  28.080  1.00  0.00     0.039 C 
ENDBRANCH   5   6
ENDBRANCH   4   5
ENDBRANCH   1   4
BRANCH   2  10
ATOM     10  C   UNL     1      30.405  11.306  31.978  1.00  0.00     0.055 C 
BRANCH  10  11
ATOM     11  C   UNL     1      30.630  11.749  30.557  1.00  0.00    -0.020 C 
ATOM     12  C   UNL     1      29.661  11.846  29.623  1.00  0.00    -0.055 C 
ATOM     13  C   UNL     1      28.223  11.491  29.925  1.00  0.00     0.044 C 
BRANCH  12  14
ATOM     14  C   UNL     1      30.062  12.245  28.248  1.00  0.00    -0.005 C 
ATOM     15  C   UNL     1      29.505  11.749  27.144  1.00  0.00     0.009 C 
ENDBRANCH  12  14
ENDBRANCH  10  11
ENDBRANCH   2  10
TORSDOF 6
ENDMDL
MODEL 2
REMARK VINA RESULT:    -4.483      1.283      5.344
REMARK INTER + INTRA:          -7.297
REMARK INTER:                  -6.361
REMARK INTRA:                  -0.936
REMARK UNBOUND:                -1.242
REMARK SMILES C=CC(C)=CCC=C(C)CCC=C(C)C
REMARK SMILES IDX 8 1 7 2 9 3 10 4 11 5 12 6 14 7 13 8 15 9 6 10 5 11 3 12
REMARK SMILES IDX 4 13 2 14 1 15
REMARK H PARENT
REMARK Flexibility Score: inf
ROOT
ATOM      1  C   UNL     1      30.686   7.425  28.151  1.00  0.00    -0.077 C 
ATOM      2  C   UNL     1      30.096   7.718  29.331  1.00  0.00    -0.024 C 
ATOM      3  C   UNL     1      31.954   6.606  28.088  1.00  0.00     0.039 C 
ENDROOT
BRANCH   1   4
ATOM      4  C   UNL     1      30.065   7.929  26.864  1.00  0.00     0.034 C 
BRANCH   4   5
ATOM      5  C   UNL     1      29.010   9.015  27.125  1.00  0.00     0.032 C 
BRANCH   5   6
ATOM      6  C   UNL     1      29.606  10.402  27.054  1.00  0.00    -0.028 C 
ATOM      7  C   UNL     1      28.774  11.060  29.323  1.00  0.00     0.039 C 
ATOM      8  C   UNL     1      29.535  11.319  28.044  1.00  0.00    -0.080 C 
ATOM      9  C   UNL     1      30.224  12.644  27.844  1.00  0.00     0.039 C 
ENDBRANCH   5   6
ENDBRANCH   4   5
ENDBRANCH   1   4
BRANCH   2  10
ATOM     10  C   UNL     1      30.640   7.259  30.661  1.00  0.00     0.055 C 
BRANCH  10  11
ATOM     11  C   UNL     1      31.119   8.424  31.485  1.00  0.00    -0.020 C 
ATOM     12  C   UNL     1      31.642   8.322  32.724  1.00  0.00    -0.055 C 
ATOM     13  C   UNL     1      31.782   6.989  33.424  1.00  0.00     0.044 C 
BRANCH  12  14
ATOM     14  C   UNL     1      32.016   9.579  33.424  1.00  0.00    -0.005 C 
ATOM     15  C   UNL     1      33.019  10.368  33.038  1.00  0.00     0.009 C 
ENDBRANCH  12  14
ENDBRANCH  10  11
ENDBRANCH   2  10
TORSDOF 6
ENDMDL
MODEL 3
REMARK VINA RESULT:    -4.450      2.986      5.354
REMARK INTER + INTRA:          -7.253
REMARK INTER:                  -6.406
REMARK INTRA:                  -0.847
REMARK UNBOUND:                -1.242
REMARK SMILES C=CC(C)=CCC=C(C)CCC=C(C)C
REMARK SMILES IDX 8 1 7 2 9 3 10 4 11 5 12 6 14 7 13 8 15 9 6 10 5 11 3 12
REMARK SMILES IDX 4 13 2 14 1 15
REMARK H PARENT
REMARK Flexibility Score: inf
ROOT
ATOM      1  C   UNL     1      31.638   9.631  34.128  1.00  0.00    -0.077 C 
ATOM      2  C   UNL     1      31.082   8.571  33.502  1.00  0.00    -0.024 C 
ATOM      3  C   UNL     1      32.830  10.353  33.544  1.00  0.00     0.039 C 
ENDROOT
BRANCH   1   4
ATOM      4  C   UNL     1      31.056  10.105  35.445  1.00  0.00     0.034 C 
BRANCH   4   5
ATOM      5  C   UNL     1      31.796   9.502  36.648  1.00  0.00     0.032 C 
BRANCH   5   6
ATOM      6  C   UNL     1      30.891   8.621  37.476  1.00  0.00    -0.028 C 
ATOM      7  C   UNL     1      31.685   6.503  36.401  1.00  0.00     0.039 C 
ATOM      8  C   UNL     1      30.852   7.272  37.399  1.00  0.00    -0.080 C 
ATOM      9  C   UNL     1      29.930   6.527  38.328  1.00  0.00     0.039 C 
ENDBRANCH   5   6
ENDBRANCH   4   5
ENDBRANCH   1   4
BRANCH   2  10
ATOM     10  C   UNL     1      31.590   8.029  32.189  1.00  0.00     0.055 C 
BRANCH  10  11
ATOM     11  C   UNL     1      30.800   8.578  31.032  1.00  0.00    -0.020 C 
ATOM     12  C   UNL     1      30.651   7.957  29.843  1.00  0.00    -0.055 C 
ATOM     13  C   UNL     1      31.298   6.621  29.554  1.00  0.00     0.044 C 
BRANCH  12  14
ATOM     14  C   UNL     1      29.884   8.663  28.784  1.00  0.00    -0.005 C 
ATOM     15  C   UNL     1      29.400   9.898  28.922  1.00  0.00     0.009 C 
ENDBRANCH  12  14
ENDBRANCH  10  11
ENDBRANCH   2  10
TORSDOF 6
ENDMDL
MODEL 4
REMARK VINA RESULT:    -4.422      2.336      5.343
REMARK INTER + INTRA:          -7.215
REMARK INTER:                  -5.377
REMARK INTRA:                  -1.838
REMARK UNBOUND:                -1.242
REMARK SMILES C=CC(C)=CCC=C(C)CCC=C(C)C
REMARK SMILES IDX 8 1 7 2 9 3 10 4 11 5 12 6 14 7 13 8 15 9 6 10 5 11 3 12
REMARK SMILES IDX 4 13 2 14 1 15
REMARK H PARENT
REMARK Flexibility Score: inf
ROOT
ATOM      1  C   UNL     1      30.717   9.676  31.426  1.00  0.00    -0.077 C 
ATOM      2  C   UNL     1      31.808   9.783  32.215  1.00  0.00    -0.024 C 
ATOM      3  C   UNL     1      29.614  10.709  31.463  1.00  0.00     0.039 C 
ENDROOT
BRANCH   1   4
ATOM      4  C   UNL     1      30.593   8.495  30.485  1.00  0.00     0.034 C 
BRANCH   4   5
ATOM      5  C   UNL     1      31.004   7.179  31.162  1.00  0.00     0.032 C 
BRANCH   5   6
ATOM      6  C   UNL     1      30.059   6.806  32.280  1.00  0.00    -0.028 C 
ATOM      7  C   UNL     1      31.871   6.693  34.005  1.00  0.00     0.039 C 
ATOM      8  C   UNL     1      30.428   6.614  33.566  1.00  0.00    -0.080 C 
ATOM      9  C   UNL     1      29.360   6.294  34.578  1.00  0.00     0.039 C 
ENDBRANCH   5   6
ENDBRANCH   4   5
ENDBRANCH   1   4
BRANCH   2  10
ATOM     10  C   UNL     1      32.019  10.924  33.180  1.00  0.00     0.055 C 
BRANCH  10  11
ATOM     11  C   UNL     1      32.323  10.416  34.564  1.00  0.00    -0.020 C 
ATOM     12  C   UNL     1      31.392  10.003  35.449  1.00  0.00    -0.055 C 
ATOM     13  C   UNL     1      29.915  10.031  35.125  1.00  0.00     0.044 C 
BRANCH  12  14
ATOM     14  C   UNL     1      31.856   9.583  36.797  1.00  0.00    -0.005 C 
ATOM     15  C   UNL     1      31.360   8.535  37.455  1.00  0.00     0.009 C 
ENDBRANCH  12  14
ENDBRANCH  10  11
ENDBRANCH   2  10
TORSDOF 6
ENDMDL
MODEL 5
REMARK VINA RESULT:    -4.415      3.310      6.619
REMARK INTER + INTRA:          -7.205
REMARK INTER:                  -5.587
REMARK INTRA:                  -1.618
REMARK UNBOUND:                -1.242
REMARK SMILES C=CC(C)=CCC=C(C)CCC=C(C)C
REMARK SMILES IDX 8 1 7 2 9 3 10 4 11 5 12 6 14 7 13 8 15 9 6 10 5 11 3 12
REMARK SMILES IDX 4 13 2 14 1 15
REMARK H PARENT
REMARK Flexibility Score: inf
ROOT
ATOM      1  C   UNL     1      30.549   6.640  33.586  1.00  0.00    -0.077 C 
ATOM      2  C   UNL     1      31.572   6.642  34.468  1.00  0.00    -0.024 C 
ATOM      3  C   UNL     1      29.136   6.323  34.021  1.00  0.00     0.039 C 
ENDROOT
BRANCH   1   4
ATOM      4  C   UNL     1      30.821   6.960  32.131  1.00  0.00     0.034 C 
BRANCH   4   5
ATOM      5  C   UNL     1      30.619   8.452  31.825  1.00  0.00     0.032 C 
BRANCH   5   6
ATOM      6  C   UNL     1      31.812   9.276  32.250  1.00  0.00    -0.028 C 
ATOM      7  C   UNL     1      30.630  10.288  34.212  1.00  0.00     0.039 C 
ATOM      8  C   UNL     1      31.842  10.081  33.335  1.00  0.00    -0.080 C 
ATOM      9  C   UNL     1      33.124  10.802  33.658  1.00  0.00     0.039 C 
ENDBRANCH   5   6
ENDBRANCH   4   5
ENDBRANCH   1   4
BRANCH   2  10
ATOM     10  C   UNL     1      31.397   6.338  35.935  1.00  0.00     0.055 C 
BRANCH  10  11
ATOM     11  C   UNL     1      31.494   7.590  36.766  1.00  0.00    -0.020 C 
ATOM     12  C   UNL     1      30.498   8.081  37.531  1.00  0.00    -0.055 C 
ATOM     13  C   UNL     1      29.147   7.406  37.612  1.00  0.00     0.044 C 
BRANCH  12  14
ATOM     14  C   UNL     1      30.740   9.361  38.247  1.00  0.00    -0.005 C 
ATOM     15  C   UNL     1      31.590  10.295  37.820  1.00  0.00     0.009 C 
ENDBRANCH  12  14
ENDBRANCH  10  11
ENDBRANCH   2  10
TORSDOF 6
ENDMDL
MODEL 6
REMARK VINA RESULT:    -4.414      1.290      4.050
REMARK INTER + INTRA:          -7.204
REMARK INTER:                  -6.120
REMARK INTRA:                  -1.084
REMARK UNBOUND:                -1.242
REMARK SMILES C=CC(C)=CCC=C(C)CCC=C(C)C
REMARK SMILES IDX 8 1 7 2 9 3 10 4 11 5 12 6 14 7 13 8 15 9 6 10 5 11 3 12
REMARK SMILES IDX 4 13 2 14 1 15
REMARK H PARENT
REMARK Flexibility Score: inf
ROOT
ATOM      1  C   UNL     1      30.979   7.283  29.304  1.00  0.00    -0.077 C 
ATOM      2  C   UNL     1      29.951   8.128  29.069  1.00  0.00    -0.024 C 
ATOM      3  C   UNL     1      31.754   6.654  28.169  1.00  0.00     0.039 C 
ENDROOT
BRANCH   1   4
ATOM      4  C   UNL     1      31.363   6.958  30.733  1.00  0.00     0.034 C 
BRANCH   4   5
ATOM      5  C   UNL     1      30.694   7.909  31.736  1.00  0.00     0.032 C 
BRANCH   5   6
ATOM      6  C   UNL     1      31.711   8.739  32.484  1.00  0.00    -0.028 C 
ATOM      7  C   UNL     1      30.960  10.896  31.457  1.00  0.00     0.039 C 
ATOM      8  C   UNL     1      31.822  10.083  32.392  1.00  0.00    -0.080 C 
ATOM      9  C   UNL     1      32.856  10.776  33.241  1.00  0.00     0.039 C 
ENDBRANCH   5   6
ENDBRANCH   4   5
ENDBRANCH   1   4
BRANCH   2  10
ATOM     10  C   UNL     1      29.499   8.511  27.682  1.00  0.00     0.055 C 
BRANCH  10  11
ATOM     11  C   UNL     1      29.573  10.001  27.478  1.00  0.00    -0.020 C 
ATOM     12  C   UNL     1      30.116  10.600  26.397  1.00  0.00    -0.055 C 
ATOM     13  C   UNL     1      30.730   9.803  25.269  1.00  0.00     0.044 C 
BRANCH  12  14
ATOM     14  C   UNL     1      30.160  12.085  26.377  1.00  0.00    -0.005 C 
ATOM     15  C   UNL     1      30.055  12.841  27.471  1.00  0.00     0.009 C 
ENDBRANCH  12  14
ENDBRANCH  10  11
ENDBRANCH   2  10
TORSDOF 6
ENDMDL
MODEL 7
REMARK VINA RESULT:    -4.344      3.311      5.985
REMARK INTER + INTRA:          -7.109
REMARK INTER:                  -5.315
REMARK INTRA:                  -1.793
REMARK UNBOUND:                -1.242
REMARK SMILES C=CC(C)=CCC=C(C)CCC=C(C)C
REMARK SMILES IDX 8 1 7 2 9 3 10 4 11 5 12 6 14 7 13 8 15 9 6 10 5 11 3 12
REMARK SMILES IDX 4 13 2 14 1 15
REMARK H PARENT
REMARK Flexibility Score: inf
ROOT
ATOM      1  C   UNL     1      30.180   6.380  35.118  1.00  0.00    -0.077 C 
ATOM      2  C   UNL     1      31.347   6.727  34.534  1.00  0.00    -0.024 C 
ATOM      3  C   UNL     1      28.871   6.456  34.366  1.00  0.00     0.039 C 
ENDROOT
BRANCH   1   4
ATOM      4  C   UNL     1      30.180   5.907  36.558  1.00  0.00     0.034 C 
BRANCH   4   5
ATOM      5  C   UNL     1      30.725   6.980  37.512  1.00  0.00     0.032 C 
BRANCH   5   6
ATOM      6  C   UNL     1      29.952   8.273  37.400  1.00  0.00    -0.028 C 
ATOM      7  C   UNL     1      31.980   9.637  36.853  1.00  0.00     0.039 C 
ATOM      8  C   UNL     1      30.496   9.467  37.076  1.00  0.00    -0.080 C 
ATOM      9  C   UNL     1      29.585  10.660  36.954  1.00  0.00     0.039 C 
ENDBRANCH   5   6
ENDBRANCH   4   5
ENDBRANCH   1   4
BRANCH   2  10
ATOM     10  C   UNL     1      31.446   7.206  33.107  1.00  0.00     0.055 C 
BRANCH  10  11
ATOM     11  C   UNL     1      32.136   8.542  33.028  1.00  0.00    -0.020 C 
ATOM     12  C   UNL     1      31.509   9.734  33.108  1.00  0.00    -0.055 C 
ATOM     13  C   UNL     1      30.010   9.837  33.273  1.00  0.00     0.044 C 
BRANCH  12  14
ATOM     14  C   UNL     1      32.333  10.961  32.956  1.00  0.00    -0.005 C 
ATOM     15  C   UNL     1      32.113  11.885  32.020  1.00  0.00     0.009 C 
ENDBRANCH  12  14
ENDBRANCH  10  11
ENDBRANCH   2  10
TORSDOF 6
ENDMDL
MODEL 8
REMARK VINA RESULT:    -4.337      2.407      5.092
REMARK INTER + INTRA:          -7.099
REMARK INTER:                  -6.170
REMARK INTRA:                  -0.929
REMARK UNBOUND:                -1.242
REMARK SMILES C=CC(C)=CCC=C(C)CCC=C(C)C
REMARK SMILES IDX 8 1 7 2 9 3 10 4 11 5 12 6 14 7 13 8 15 9 6 10 5 11 3 12
REMARK SMILES IDX 4 13 2 14 1 15
REMARK H PARENT
REMARK Flexibility Score: inf
ROOT
ATOM      1  C   UNL     1      31.798   8.564  32.633  1.00  0.00    -0.077 C 
ATOM      2  C   UNL     1      31.132   8.754  31.474  1.00  0.00    -0.024 C 
ATOM      3  C   UNL     1      31.967   7.184  33.226  1.00  0.00     0.039 C 
ENDROOT
BRANCH   1   4
ATOM      4  C   UNL     1      32.386   9.758  33.357  1.00  0.00     0.034 C 
BRANCH   4   5
ATOM      5  C   UNL     1      31.379  10.390  34.330  1.00  0.00     0.032 C 
BRANCH   5   6
ATOM      6  C   UNL     1      31.602   9.920  35.749  1.00  0.00    -0.028 C 
ATOM      7  C   UNL     1      29.575   8.450  35.762  1.00  0.00     0.039 C 
ATOM      8  C   UNL     1      30.819   9.028  36.394  1.00  0.00    -0.080 C 
ATOM      9  C   UNL     1      31.200   8.620  37.793  1.00  0.00     0.039 C 
ENDBRANCH   5   6
ENDBRANCH   4   5
ENDBRANCH   1   4
BRANCH   2  10
ATOM     10  C   UNL     1      30.515   7.627  30.682  1.00  0.00     0.055 C 
BRANCH  10  11
ATOM     11  C   UNL     1      30.144   8.076  29.294  1.00  0.00    -0.020 C 
ATOM     12  C   UNL     1      30.703   7.602  28.161  1.00  0.00    -0.055 C 
ATOM     13  C   UNL     1      31.797   6.558  28.188  1.00  0.00     0.044 C 
BRANCH  12  14
ATOM     14  C   UNL     1      30.263   8.194  26.871  1.00  0.00    -0.005 C 
ATOM     15  C   UNL     1      29.331   9.143  26.775  1.00  0.00     0.009 C 
ENDBRANCH  12  14
ENDBRANCH  10  11
ENDBRANCH   2  10
TORSDOF 6
ENDMDL
MODEL 9
REMARK VINA RESULT:    -4.266      2.509      5.065
REMARK INTER + INTRA:          -7.004
REMARK INTER:                  -5.654
REMARK INTRA:                  -1.351
REMARK UNBOUND:                -1.242
REMARK SMILES C=CC(C)=CCC=C(C)CCC=C(C)C
REMARK SMILES IDX 8 1 7 2 9 3 10 4 11 5 12 6 14 7 13 8 15 9 6 10 5 11 3 12
REMARK SMILES IDX 4 13 2 14 1 15
REMARK H PARENT
REMARK Flexibility Score: inf
ROOT
ATOM      1  C   UNL     1      30.891   6.487  34.615  1.00  0.00    -0.077 C 
ATOM      2  C   UNL     1      31.778   6.910  33.689  1.00  0.00    -0.024 C 
ATOM      3  C   UNL     1      29.497   6.053  34.227  1.00  0.00     0.039 C 
ENDROOT
BRANCH   1   4
ATOM      4  C   UNL     1      31.300   6.449  36.073  1.00  0.00     0.034 C 
BRANCH   4   5
ATOM      5  C   UNL     1      31.603   7.851  36.620  1.00  0.00     0.032 C 
BRANCH   5   6
ATOM      6  C   UNL     1      30.492   8.826  36.304  1.00  0.00    -0.028 C 
ATOM      7  C   UNL     1      31.937  10.269  34.855  1.00  0.00     0.039 C 
ATOM      8  C   UNL     1      30.619   9.897  35.491  1.00  0.00    -0.080 C 
ATOM      9  C   UNL     1      29.404  10.750  35.234  1.00  0.00     0.039 C 
ENDBRANCH   5   6
ENDBRANCH   4   5
ENDBRANCH   1   4
BRANCH   2  10
ATOM     10  C   UNL     1      31.463   6.980  32.215  1.00  0.00     0.055 C 
BRANCH  10  11
ATOM     11  C   UNL     1      31.024   8.364  31.818  1.00  0.00    -0.020 C 
ATOM     12  C   UNL     1      30.545   8.697  30.601  1.00  0.00    -0.055 C 
ATOM     13  C   UNL     1      30.418   7.680  29.489  1.00  0.00     0.044 C 
BRANCH  12  14
ATOM     14  C   UNL     1      30.209  10.123  30.354  1.00  0.00    -0.005 C 
ATOM     15  C   UNL     1      30.026  11.017  31.327  1.00  0.00     0.009 C 
ENDBRANCH  12  14
ENDBRANCH  10  11
ENDBRANCH   2  10
TORSDOF 6
ENDMDL
