MODEL 1
REMARK VINA RESULT:    -5.999      0.000      0.000
REMARK INTER + INTRA:         -10.207
REMARK INTER:                  -9.155
REMARK INTRA:                  -1.052
REMARK UNBOUND:                -1.052
REMARK SMILES OC[C@@H]1O[C@](CO)(O[C@@H]2O[C@H](CO)[C@H](O)[C@H](O)[C@H]2O)[C@@H](O)[C@@H]1O
REMARK SMILES IDX 8 1 9 2 11 3 14 4 10 5 16 6 18 7 12 8 13 9 15 11 17 13 19 15
REMARK SMILES IDX 5 17 20 18 4 19 22 20 3 21 6 22 7 23 21 25 23 27 2 29 1 30
REMARK H PARENT 13 10 15 12 17 14 19 16 7 24 21 26 23 28 1 31
REMARK Flexibility Score: inf
ROOT
ATOM      1  O   UNL     1      14.689  27.167  52.408  1.00  0.00    -0.313 OA
ENDROOT
BRANCH   1   2
ATOM      2  C   UNL     1      16.104  27.736  52.875  1.00  0.00     0.285 C 
ATOM      3  C   UNL     1      16.549  29.696  54.545  1.00  0.00     0.178 C 
ATOM      4  C   UNL     1      16.449  30.935  53.422  1.00  0.00     0.177 C 
ATOM      5  O   UNL     1      15.921  28.388  54.210  1.00  0.00    -0.341 OA
ATOM      6  C   UNL     1      16.046  30.209  52.100  1.00  0.00     0.179 C 
ATOM      7  C   UNL     1      16.692  28.777  51.856  1.00  0.00     0.202 C 
BRANCH   3   8
ATOM      8  C   UNL     1      16.361  30.251  56.089  1.00  0.00     0.191 C 
BRANCH   8   9
ATOM      9  O   UNL     1      14.978  30.356  56.341  1.00  0.00    -0.394 OA
ATOM     10  H   UNL     1      14.584  31.045  55.705  1.00  0.00     0.210 HD
ENDBRANCH   8   9
ENDBRANCH   3   8
BRANCH   4  11
ATOM     11  O   UNL     1      15.428  31.861  53.892  1.00  0.00    -0.387 OA
ATOM     12  H   UNL     1      14.480  31.838  53.220  1.00  0.00     0.211 HD
ENDBRANCH   4  11
BRANCH   6  13
ATOM     13  O   UNL     1      14.659  30.353  52.130  1.00  0.00    -0.387 OA
ATOM     14  H   UNL     1      14.316  29.780  52.879  1.00  0.00     0.211 HD
ENDBRANCH   6  13
BRANCH   7  15
ATOM     15  O   UNL     1      18.116  28.905  51.992  1.00  0.00    -0.385 OA
ATOM     16  H   UNL     1      18.540  28.007  52.137  1.00  0.00     0.211 HD
ENDBRANCH   7  15
ENDBRANCH   1   2
BRANCH   1  17
ATOM     17  C   UNL     1      14.510  25.774  51.933  1.00  0.00     0.224 C 
ATOM     18  C   UNL     1      14.022  26.151  50.418  1.00  0.00     0.208 C 
ATOM     19  O   UNL     1      15.490  24.862  51.278  1.00  0.00    -0.337 OA
ATOM     20  C   UNL     1      14.525  25.165  49.417  1.00  0.00     0.180 C 
ATOM     21  C   UNL     1      15.946  25.271  50.078  1.00  0.00     0.179 C 
BRANCH  17  22
ATOM     22  C   UNL     1      15.599  25.086  52.929  1.00  0.00     0.225 C 
BRANCH  22  23
ATOM     23  O   UNL     1      15.334  23.902  53.739  1.00  0.00    -0.391 OA
ATOM     24  H   UNL     1      15.635  23.093  53.241  1.00  0.00     0.210 HD
ENDBRANCH  22  23
ENDBRANCH  17  22
BRANCH  18  25
ATOM     25  O   UNL     1      14.510  27.381  49.864  1.00  0.00    -0.385 OA
ATOM     26  H   UNL     1      15.281  27.779  50.328  1.00  0.00     0.211 HD
ENDBRANCH  18  25
BRANCH  20  27
ATOM     27  O   UNL     1      13.955  23.893  49.664  1.00  0.00    -0.387 OA
ATOM     28  H   UNL     1      12.993  23.937  49.401  1.00  0.00     0.211 HD
ENDBRANCH  20  27
BRANCH  21  29
ATOM     29  C   UNL     1      17.020  24.278  49.534  1.00  0.00     0.191 C 
BRANCH  29  30
ATOM     30  O   UNL     1      16.641  23.875  48.249  1.00  0.00    -0.394 OA
ATOM     31  H   UNL     1      17.313  24.142  47.556  1.00  0.00     0.210 HD
ENDBRANCH  29  30
ENDBRANCH  21  29
ENDBRANCH   1  17
TORSDOF 13
ENDMDL
MODEL 2
REMARK VINA RESULT:    -5.942      2.391      6.516
REMARK INTER + INTRA:         -10.121
REMARK INTER:                  -9.195
REMARK INTRA:                  -0.925
REMARK UNBOUND:                -1.052
REMARK SMILES OC[C@@H]1O[C@](CO)(O[C@@H]2O[C@H](CO)[C@H](O)[C@H](O)[C@H]2O)[C@@H](O)[C@@H]1O
REMARK SMILES IDX 8 1 9 2 11 3 14 4 10 5 16 6 18 7 12 8 13 9 15 11 17 13 19 15
REMARK SMILES IDX 5 17 20 18 4 19 22 20 3 21 6 22 7 23 21 25 23 27 2 29 1 30
REMARK H PARENT 13 10 15 12 17 14 19 16 7 24 21 26 23 28 1 31
REMARK Flexibility Score: inf
ROOT
ATOM      1  O   UNL     1      15.403  29.742  51.900  1.00  0.00    -0.313 OA
ENDROOT
BRANCH   1   2
ATOM      2  C   UNL     1      15.736  28.378  51.142  1.00  0.00     0.285 C 
ATOM      3  C   UNL     1      14.711  26.019  51.605  1.00  0.00     0.178 C 
ATOM      4  C   UNL     1      15.779  25.578  52.817  1.00  0.00     0.177 C 
ATOM      5  O   UNL     1      14.558  27.467  51.293  1.00  0.00    -0.341 OA
ATOM      6  C   UNL     1      16.658  26.852  53.023  1.00  0.00     0.179 C 
ATOM      7  C   UNL     1      17.021  27.678  51.715  1.00  0.00     0.202 C 
BRANCH   3   8
ATOM      8  C   UNL     1      13.338  25.102  51.633  1.00  0.00     0.191 C 
BRANCH   8   9
ATOM      9  O   UNL     1      12.374  25.799  52.389  1.00  0.00    -0.394 OA
ATOM     10  H   UNL     1      11.461  25.391  52.206  1.00  0.00     0.210 HD
ENDBRANCH   8   9
ENDBRANCH   3   8
BRANCH   4  11
ATOM     11  O   UNL     1      14.985  25.243  53.991  1.00  0.00    -0.387 OA
ATOM     12  H   UNL     1      13.846  25.363  53.792  1.00  0.00     0.211 HD
ENDBRANCH   4  11
BRANCH   6  13
ATOM     13  O   UNL     1      15.985  27.471  54.076  1.00  0.00    -0.387 OA
ATOM     14  H   UNL     1      15.389  26.782  54.495  1.00  0.00     0.211 HD
ENDBRANCH   6  13
BRANCH   7  15
ATOM     15  O   UNL     1      17.598  26.769  50.764  1.00  0.00    -0.385 OA
ATOM     16  H   UNL     1      17.329  27.018  49.829  1.00  0.00     0.211 HD
ENDBRANCH   7  15
ENDBRANCH   1   2
BRANCH   1  17
ATOM     17  C   UNL     1      14.626  30.833  51.265  1.00  0.00     0.224 C 
ATOM     18  C   UNL     1      14.642  31.848  52.547  1.00  0.00     0.208 C 
ATOM     19  O   UNL     1      15.102  31.998  50.469  1.00  0.00    -0.337 OA
ATOM     20  C   UNL     1      14.732  33.275  52.117  1.00  0.00     0.180 C 
ATOM     21  C   UNL     1      15.887  32.869  51.132  1.00  0.00     0.179 C 
BRANCH  17  22
ATOM     22  C   UNL     1      15.045  30.503  49.727  1.00  0.00     0.225 C 
BRANCH  22  23
ATOM     23  O   UNL     1      14.306  30.972  48.559  1.00  0.00    -0.391 OA
ATOM     24  H   UNL     1      14.311  31.969  48.550  1.00  0.00     0.210 HD
ENDBRANCH  22  23
ENDBRANCH  17  22
BRANCH  18  25
ATOM     25  O   UNL     1      15.765  31.756  53.435  1.00  0.00    -0.385 OA
ATOM     26  H   UNL     1      15.573  31.937  54.383  1.00  0.00     0.211 HD
ENDBRANCH  18  25
BRANCH  20  27
ATOM     27  O   UNL     1      13.568  33.636  51.398  1.00  0.00    -0.387 OA
ATOM     28  H   UNL     1      13.169  32.800  51.028  1.00  0.00     0.211 HD
ENDBRANCH  20  27
BRANCH  21  29
ATOM     29  C   UNL     1      16.385  33.996  50.175  1.00  0.00     0.191 C 
BRANCH  29  30
ATOM     30  O   UNL     1      15.504  35.079  50.268  1.00  0.00    -0.394 OA
ATOM     31  H   UNL     1      14.958  35.194  49.436  1.00  0.00     0.210 HD
ENDBRANCH  29  30
ENDBRANCH  21  29
ENDBRANCH   1  17
TORSDOF 13
ENDMDL
MODEL 3
REMARK VINA RESULT:    -5.923      2.162      6.490
REMARK INTER + INTRA:         -10.092
REMARK INTER:                  -9.072
REMARK INTRA:                  -1.020
REMARK UNBOUND:                -1.052
REMARK SMILES OC[C@@H]1O[C@](CO)(O[C@@H]2O[C@H](CO)[C@H](O)[C@H](O)[C@H]2O)[C@@H](O)[C@@H]1O
REMARK SMILES IDX 8 1 9 2 11 3 14 4 10 5 16 6 18 7 12 8 13 9 15 11 17 13 19 15
REMARK SMILES IDX 5 17 20 18 4 19 22 20 3 21 6 22 7 23 21 25 23 27 2 29 1 30
REMARK H PARENT 13 10 15 12 17 14 19 16 7 24 21 26 23 28 1 31
REMARK Flexibility Score: inf
ROOT
ATOM      1  O   UNL     1      15.256  29.277  50.440  1.00  0.00    -0.313 OA
ENDROOT
BRANCH   1   2
ATOM      2  C   UNL     1      14.635  27.808  50.498  1.00  0.00     0.285 C 
ATOM      3  C   UNL     1      15.390  25.832  52.032  1.00  0.00     0.178 C 
ATOM      4  C   UNL     1      16.599  25.255  51.025  1.00  0.00     0.177 C 
ATOM      5  O   UNL     1      14.932  27.237  51.850  1.00  0.00    -0.341 OA
ATOM      6  C   UNL     1      16.630  26.285  49.851  1.00  0.00     0.179 C 
ATOM      7  C   UNL     1      15.227  26.869  49.387  1.00  0.00     0.202 C 
BRANCH   3   8
ATOM      8  C   UNL     1      15.573  25.291  53.581  1.00  0.00     0.191 C 
BRANCH   8   9
ATOM      9  O   UNL     1      15.535  23.882  53.549  1.00  0.00    -0.394 OA
ATOM     10  H   UNL     1      14.568  23.581  53.638  1.00  0.00     0.210 HD
ENDBRANCH   8   9
ENDBRANCH   3   8
BRANCH   4  11
ATOM     11  O   UNL     1      17.833  25.240  51.797  1.00  0.00    -0.387 OA
ATOM     12  H   UNL     1      17.650  25.515  52.912  1.00  0.00     0.211 HD
ENDBRANCH   4  11
BRANCH   6  13
ATOM     13  O   UNL     1      17.637  27.148  50.284  1.00  0.00    -0.387 OA
ATOM     14  H   UNL     1      17.549  27.233  51.279  1.00  0.00     0.211 HD
ENDBRANCH   6  13
BRANCH   7  15
ATOM     15  O   UNL     1      14.356  25.761  49.112  1.00  0.00    -0.385 OA
ATOM     16  H   UNL     1      14.889  24.934  48.911  1.00  0.00     0.211 HD
ENDBRANCH   7  15
ENDBRANCH   1   2
BRANCH   1  17
ATOM     17  C   UNL     1      14.558  30.456  51.006  1.00  0.00     0.224 C 
ATOM     18  C   UNL     1      15.558  30.676  52.281  1.00  0.00     0.208 C 
ATOM     19  O   UNL     1      14.765  31.905  50.727  1.00  0.00    -0.337 OA
ATOM     20  C   UNL     1      15.738  32.124  52.595  1.00  0.00     0.180 C 
ATOM     21  C   UNL     1      15.975  32.391  51.065  1.00  0.00     0.179 C 
BRANCH  17  22
ATOM     22  C   UNL     1      13.922  30.997  49.608  1.00  0.00     0.225 C 
BRANCH  22  23
ATOM     23  O   UNL     1      14.252  30.454  48.294  1.00  0.00    -0.391 OA
ATOM     24  H   UNL     1      13.500  30.640  47.667  1.00  0.00     0.210 HD
ENDBRANCH  22  23
ENDBRANCH  17  22
BRANCH  18  25
ATOM     25  O   UNL     1      16.921  30.257  52.119  1.00  0.00    -0.385 OA
ATOM     26  H   UNL     1      17.555  30.965  51.867  1.00  0.00     0.211 HD
ENDBRANCH  18  25
BRANCH  20  27
ATOM     27  O   UNL     1      14.508  32.684  53.014  1.00  0.00    -0.387 OA
ATOM     28  H   UNL     1      13.990  31.965  53.474  1.00  0.00     0.211 HD
ENDBRANCH  20  27
BRANCH  21  29
ATOM     29  C   UNL     1      16.098  33.891  50.653  1.00  0.00     0.191 C 
BRANCH  29  30
ATOM     30  O   UNL     1      14.923  34.552  51.028  1.00  0.00    -0.394 OA
ATOM     31  H   UNL     1      14.500  35.034  50.258  1.00  0.00     0.210 HD
ENDBRANCH  29  30
ENDBRANCH  21  29
ENDBRANCH   1  17
TORSDOF 13
ENDMDL
MODEL 4
REMARK VINA RESULT:    -5.703      2.196      6.751
REMARK INTER + INTRA:          -9.756
REMARK INTER:                  -8.978
REMARK INTRA:                  -0.777
REMARK UNBOUND:                -1.052
REMARK SMILES OC[C@@H]1O[C@](CO)(O[C@@H]2O[C@H](CO)[C@H](O)[C@H](O)[C@H]2O)[C@@H](O)[C@@H]1O
REMARK SMILES IDX 8 1 9 2 11 3 14 4 10 5 16 6 18 7 12 8 13 9 15 11 17 13 19 15
REMARK SMILES IDX 5 17 20 18 4 19 22 20 3 21 6 22 7 23 21 25 23 27 2 29 1 30
REMARK H PARENT 13 10 15 12 17 14 19 16 7 24 21 26 23 28 1 31
REMARK Flexibility Score: inf
ROOT
ATOM      1  O   UNL     1      15.733  29.235  50.714  1.00  0.00    -0.313 OA
ENDROOT
BRANCH   1   2
ATOM      2  C   UNL     1      15.630  27.890  51.566  1.00  0.00     0.285 C 
ATOM      3  C   UNL     1      16.450  25.509  50.870  1.00  0.00     0.178 C 
ATOM      4  C   UNL     1      15.064  25.061  50.041  1.00  0.00     0.177 C 
ATOM      5  O   UNL     1      16.702  26.960  51.090  1.00  0.00    -0.341 OA
ATOM      6  C   UNL     1      14.175  26.344  50.080  1.00  0.00     0.179 C 
ATOM      7  C   UNL     1      14.227  27.199  51.418  1.00  0.00     0.202 C 
BRANCH   3   8
ATOM      8  C   UNL     1      17.744  24.572  50.453  1.00  0.00     0.191 C 
BRANCH   8   9
ATOM      9  O   UNL     1      18.578  24.467  51.584  1.00  0.00    -0.394 OA
ATOM     10  H   UNL     1      18.820  25.404  51.897  1.00  0.00     0.210 HD
ENDBRANCH   8   9
ENDBRANCH   3   8
BRANCH   4  11
ATOM     11  O   UNL     1      15.469  24.695  48.692  1.00  0.00    -0.387 OA
ATOM     12  H   UNL     1      15.447  23.544  48.530  1.00  0.00     0.211 HD
ENDBRANCH   4  11
BRANCH   6  13
ATOM     13  O   UNL     1      14.508  26.935  48.861  1.00  0.00    -0.387 OA
ATOM     14  H   UNL     1      14.011  27.804  48.806  1.00  0.00     0.211 HD
ENDBRANCH   6  13
BRANCH   7  15
ATOM     15  O   UNL     1      13.953  26.317  52.518  1.00  0.00    -0.385 OA
ATOM     16  H   UNL     1      13.486  26.808  53.258  1.00  0.00     0.211 HD
ENDBRANCH   7  15
ENDBRANCH   1   2
BRANCH   1  17
ATOM     17  C   UNL     1      14.837  30.393  50.946  1.00  0.00     0.224 C 
ATOM     18  C   UNL     1      15.515  30.880  52.352  1.00  0.00     0.208 C 
ATOM     19  O   UNL     1      14.983  31.809  50.507  1.00  0.00    -0.337 OA
ATOM     20  C   UNL     1      15.506  32.367  52.481  1.00  0.00     0.180 C 
ATOM     21  C   UNL     1      16.048  32.463  51.010  1.00  0.00     0.179 C 
BRANCH  17  22
ATOM     22  C   UNL     1      14.480  30.681  49.384  1.00  0.00     0.225 C 
BRANCH  22  23
ATOM     23  O   UNL     1      14.592  29.686  48.321  1.00  0.00    -0.391 OA
ATOM     24  H   UNL     1      13.705  29.582  47.879  1.00  0.00     0.210 HD
ENDBRANCH  22  23
ENDBRANCH  17  22
BRANCH  18  25
ATOM     25  O   UNL     1      16.909  30.595  52.536  1.00  0.00    -0.385 OA
ATOM     26  H   UNL     1      17.518  31.358  52.416  1.00  0.00     0.211 HD
ENDBRANCH  18  25
BRANCH  20  27
ATOM     27  O   UNL     1      14.172  32.837  52.553  1.00  0.00    -0.387 OA
ATOM     28  H   UNL     1      13.705  32.550  51.720  1.00  0.00     0.211 HD
ENDBRANCH  20  27
BRANCH  21  29
ATOM     29  C   UNL     1      16.137  33.903  50.416  1.00  0.00     0.191 C 
BRANCH  29  30
ATOM     30  O   UNL     1      15.032  34.637  50.864  1.00  0.00    -0.394 OA
ATOM     31  H   UNL     1      14.293  34.044  51.188  1.00  0.00     0.210 HD
ENDBRANCH  29  30
ENDBRANCH  21  29
ENDBRANCH   1  17
TORSDOF 13
ENDMDL
MODEL 5
REMARK VINA RESULT:    -5.589      1.832      6.480
REMARK INTER + INTRA:          -9.581
REMARK INTER:                  -8.048
REMARK INTRA:                  -1.534
REMARK UNBOUND:                -1.052
REMARK SMILES OC[C@@H]1O[C@](CO)(O[C@@H]2O[C@H](CO)[C@H](O)[C@H](O)[C@H]2O)[C@@H](O)[C@@H]1O
REMARK SMILES IDX 8 1 9 2 11 3 14 4 10 5 16 6 18 7 12 8 13 9 15 11 17 13 19 15
REMARK SMILES IDX 5 17 20 18 4 19 22 20 3 21 6 22 7 23 21 25 23 27 2 29 1 30
REMARK H PARENT 13 10 15 12 17 14 19 16 7 24 21 26 23 28 1 31
REMARK Flexibility Score: inf
ROOT
ATOM      1  O   UNL     1      17.196  27.462  53.177  1.00  0.00    -0.313 OA
ENDROOT
BRANCH   1   2
ATOM      2  C   UNL     1      17.073  26.364  52.026  1.00  0.00     0.285 C 
ATOM      3  C   UNL     1      15.226  26.203  50.185  1.00  0.00     0.178 C 
ATOM      4  C   UNL     1      14.119  25.336  51.095  1.00  0.00     0.177 C 
ATOM      5  O   UNL     1      16.287  26.963  50.901  1.00  0.00    -0.341 OA
ATOM      6  C   UNL     1      14.786  25.241  52.504  1.00  0.00     0.179 C 
ATOM      7  C   UNL     1      16.364  25.055  52.527  1.00  0.00     0.202 C 
BRANCH   3   8
ATOM      8  C   UNL     1      14.512  26.938  48.890  1.00  0.00     0.191 C 
BRANCH   8   9
ATOM      9  O   UNL     1      13.625  26.011  48.308  1.00  0.00    -0.394 OA
ATOM     10  H   UNL     1      12.676  26.361  48.410  1.00  0.00     0.210 HD
ENDBRANCH   8   9
ENDBRANCH   3   8
BRANCH   4  11
ATOM     11  O   UNL     1      12.879  26.098  51.107  1.00  0.00    -0.387 OA
ATOM     12  H   UNL     1      12.892  26.935  51.914  1.00  0.00     0.211 HD
ENDBRANCH   4  11
BRANCH   6  13
ATOM     13  O   UNL     1      14.204  26.334  53.147  1.00  0.00    -0.387 OA
ATOM     14  H   UNL     1      13.239  26.361  52.873  1.00  0.00     0.211 HD
ENDBRANCH   6  13
BRANCH   7  15
ATOM     15  O   UNL     1      16.688  23.928  51.697  1.00  0.00    -0.385 OA
ATOM     16  H   UNL     1      17.641  23.981  51.385  1.00  0.00     0.211 HD
ENDBRANCH   7  15
ENDBRANCH   1   2
BRANCH   1  17
ATOM     17  C   UNL     1      17.436  28.895  52.886  1.00  0.00     0.224 C 
ATOM     18  C   UNL     1      16.029  29.454  53.502  1.00  0.00     0.208 C 
ATOM     19  O   UNL     1      18.096  29.937  53.722  1.00  0.00    -0.337 OA
ATOM     20  C   UNL     1      16.205  30.785  54.154  1.00  0.00     0.180 C 
ATOM     21  C   UNL     1      17.476  30.221  54.885  1.00  0.00     0.179 C 
BRANCH  17  22
ATOM     22  C   UNL     1      19.063  28.833  52.926  1.00  0.00     0.225 C 
BRANCH  22  23
ATOM     23  O   UNL     1      19.935  29.932  52.522  1.00  0.00    -0.391 OA
ATOM     24  H   UNL     1      19.421  30.785  52.558  1.00  0.00     0.210 HD
ENDBRANCH  22  23
ENDBRANCH  17  22
BRANCH  18  25
ATOM     25  O   UNL     1      15.441  28.699  54.570  1.00  0.00    -0.385 OA
ATOM     26  H   UNL     1      14.581  29.038  54.907  1.00  0.00     0.211 HD
ENDBRANCH  18  25
BRANCH  20  27
ATOM     27  O   UNL     1      16.572  31.752  53.187  1.00  0.00    -0.387 OA
ATOM     28  H   UNL     1      17.439  31.463  52.786  1.00  0.00     0.211 HD
ENDBRANCH  20  27
BRANCH  21  29
ATOM     29  C   UNL     1      18.300  31.262  55.704  1.00  0.00     0.191 C 
BRANCH  29  30
ATOM     30  O   UNL     1      19.154  31.941  54.829  1.00  0.00    -0.394 OA
ATOM     31  H   UNL     1      20.094  31.980  55.172  1.00  0.00     0.210 HD
ENDBRANCH  29  30
ENDBRANCH  21  29
ENDBRANCH   1  17
TORSDOF 13
ENDMDL
MODEL 6
REMARK VINA RESULT:    -5.581      2.033      6.282
REMARK INTER + INTRA:          -9.570
REMARK INTER:                  -8.393
REMARK INTRA:                  -1.177
REMARK UNBOUND:                -1.052
REMARK SMILES OC[C@@H]1O[C@](CO)(O[C@@H]2O[C@H](CO)[C@H](O)[C@H](O)[C@H]2O)[C@@H](O)[C@@H]1O
REMARK SMILES IDX 8 1 9 2 11 3 14 4 10 5 16 6 18 7 12 8 13 9 15 11 17 13 19 15
REMARK SMILES IDX 5 17 20 18 4 19 22 20 3 21 6 22 7 23 21 25 23 27 2 29 1 30
REMARK H PARENT 13 10 15 12 17 14 19 16 7 24 21 26 23 28 1 31
REMARK Flexibility Score: inf
ROOT
ATOM      1  O   UNL     1      15.357  29.108  52.232  1.00  0.00    -0.313 OA
ENDROOT
BRANCH   1   2
ATOM      2  C   UNL     1      15.939  27.824  51.483  1.00  0.00     0.285 C 
ATOM      3  C   UNL     1      15.112  25.355  51.700  1.00  0.00     0.178 C 
ATOM      4  C   UNL     1      16.033  24.959  53.042  1.00  0.00     0.177 C 
ATOM      5  O   UNL     1      14.854  26.795  51.422  1.00  0.00    -0.341 OA
ATOM      6  C   UNL     1      16.734  26.301  53.424  1.00  0.00     0.179 C 
ATOM      7  C   UNL     1      17.193  27.226  52.216  1.00  0.00     0.202 C 
BRANCH   3   8
ATOM      8  C   UNL     1      13.854  24.307  51.489  1.00  0.00     0.191 C 
BRANCH   8   9
ATOM      9  O   UNL     1      12.746  24.822  52.191  1.00  0.00    -0.394 OA
ATOM     10  H   UNL     1      12.074  24.072  52.333  1.00  0.00     0.210 HD
ENDBRANCH   8   9
ENDBRANCH   3   8
BRANCH   4  11
ATOM     11  O   UNL     1      15.116  24.488  54.070  1.00  0.00    -0.387 OA
ATOM     12  H   UNL     1      15.444  23.461  54.506  1.00  0.00     0.211 HD
ENDBRANCH   4  11
BRANCH   6  13
ATOM     13  O   UNL     1      15.853  26.796  54.386  1.00  0.00    -0.387 OA
ATOM     14  H   UNL     1      14.937  26.458  54.153  1.00  0.00     0.211 HD
ENDBRANCH   6  13
BRANCH   7  15
ATOM     15  O   UNL     1      17.995  26.430  51.330  1.00  0.00    -0.385 OA
ATOM     16  H   UNL     1      18.825  26.927  51.061  1.00  0.00     0.211 HD
ENDBRANCH   7  15
ENDBRANCH   1   2
BRANCH   1  17
ATOM     17  C   UNL     1      16.024  30.430  52.176  1.00  0.00     0.224 C 
ATOM     18  C   UNL     1      15.499  30.845  50.684  1.00  0.00     0.208 C 
ATOM     19  O   UNL     1      15.524  31.764  52.610  1.00  0.00    -0.337 OA
ATOM     20  C   UNL     1      15.226  32.309  50.585  1.00  0.00     0.180 C 
ATOM     21  C   UNL     1      14.444  32.220  51.945  1.00  0.00     0.179 C 
BRANCH  17  22
ATOM     22  C   UNL     1      16.057  30.701  53.781  1.00  0.00     0.225 C 
BRANCH  22  23
ATOM     23  O   UNL     1      15.663  29.718  54.786  1.00  0.00    -0.391 OA
ATOM     24  H   UNL     1      16.356  29.003  54.830  1.00  0.00     0.210 HD
ENDBRANCH  22  23
ENDBRANCH  17  22
BRANCH  18  25
ATOM     25  O   UNL     1      14.240  30.301  50.262  1.00  0.00    -0.385 OA
ATOM     26  H   UNL     1      14.294  29.505  49.686  1.00  0.00     0.211 HD
ENDBRANCH  18  25
BRANCH  20  27
ATOM     27  O   UNL     1      16.429  33.037  50.749  1.00  0.00    -0.387 OA
ATOM     28  H   UNL     1      16.470  33.344  51.697  1.00  0.00     0.211 HD
ENDBRANCH  20  27
BRANCH  21  29
ATOM     29  C   UNL     1      13.969  33.582  52.541  1.00  0.00     0.191 C 
BRANCH  29  30
ATOM     30  O   UNL     1      14.449  34.614  51.727  1.00  0.00    -0.394 OA
ATOM     31  H   UNL     1      14.740  35.410  52.261  1.00  0.00     0.210 HD
ENDBRANCH  29  30
ENDBRANCH  21  29
ENDBRANCH   1  17
TORSDOF 13
ENDMDL
MODEL 7
REMARK VINA RESULT:    -5.559      2.889      6.194
REMARK INTER + INTRA:          -9.536
REMARK INTER:                  -8.008
REMARK INTRA:                  -1.528
REMARK UNBOUND:                -1.052
REMARK SMILES OC[C@@H]1O[C@](CO)(O[C@@H]2O[C@H](CO)[C@H](O)[C@H](O)[C@H]2O)[C@@H](O)[C@@H]1O
REMARK SMILES IDX 8 1 9 2 11 3 14 4 10 5 16 6 18 7 12 8 13 9 15 11 17 13 19 15
REMARK SMILES IDX 5 17 20 18 4 19 22 20 3 21 6 22 7 23 21 25 23 27 2 29 1 30
REMARK H PARENT 13 10 15 12 17 14 19 16 7 24 21 26 23 28 1 31
REMARK Flexibility Score: inf
ROOT
ATOM      1  O   UNL     1      18.391  26.430  53.403  1.00  0.00    -0.313 OA
ENDROOT
BRANCH   1   2
ATOM      2  C   UNL     1      17.358  25.373  52.804  1.00  0.00     0.285 C 
ATOM      3  C   UNL     1      15.468  25.825  51.057  1.00  0.00     0.178 C 
ATOM      4  C   UNL     1      14.299  26.307  52.155  1.00  0.00     0.177 C 
ATOM      5  O   UNL     1      16.896  25.884  51.475  1.00  0.00    -0.341 OA
ATOM      6  C   UNL     1      15.050  26.309  53.524  1.00  0.00     0.179 C 
ATOM      7  C   UNL     1      16.119  25.154  53.744  1.00  0.00     0.202 C 
BRANCH   3   8
ATOM      8  C   UNL     1      15.107  26.317  49.522  1.00  0.00     0.191 C 
BRANCH   8   9
ATOM      9  O   UNL     1      13.735  26.080  49.309  1.00  0.00    -0.394 OA
ATOM     10  H   UNL     1      13.612  25.699  48.375  1.00  0.00     0.210 HD
ENDBRANCH   8   9
ENDBRANCH   3   8
BRANCH   4  11
ATOM     11  O   UNL     1      13.851  27.633  51.754  1.00  0.00    -0.387 OA
ATOM     12  H   UNL     1      13.119  28.097  52.529  1.00  0.00     0.211 HD
ENDBRANCH   4  11
BRANCH   6  13
ATOM     13  O   UNL     1      15.441  27.646  53.610  1.00  0.00    -0.387 OA
ATOM     14  H   UNL     1      15.136  28.100  52.769  1.00  0.00     0.211 HD
ENDBRANCH   6  13
BRANCH   7  15
ATOM     15  O   UNL     1      15.472  23.898  53.484  1.00  0.00    -0.385 OA
ATOM     16  H   UNL     1      16.047  23.318  52.899  1.00  0.00     0.211 HD
ENDBRANCH   7  15
ENDBRANCH   1   2
BRANCH   1  17
ATOM     17  C   UNL     1      19.431  27.083  52.573  1.00  0.00     0.224 C 
ATOM     18  C   UNL     1      18.804  28.591  52.633  1.00  0.00     0.208 C 
ATOM     19  O   UNL     1      20.717  27.714  52.984  1.00  0.00    -0.337 OA
ATOM     20  C   UNL     1      19.874  29.631  52.671  1.00  0.00     0.180 C 
ATOM     21  C   UNL     1      20.600  28.793  53.783  1.00  0.00     0.179 C 
BRANCH  17  22
ATOM     22  C   UNL     1      20.639  26.047  52.921  1.00  0.00     0.225 C 
BRANCH  22  23
ATOM     23  O   UNL     1      21.957  26.087  52.296  1.00  0.00    -0.391 OA
ATOM     24  H   UNL     1      21.875  25.803  51.345  1.00  0.00     0.210 HD
ENDBRANCH  22  23
ENDBRANCH  17  22
BRANCH  18  25
ATOM     25  O   UNL     1      18.044  28.934  53.800  1.00  0.00    -0.385 OA
ATOM     26  H   UNL     1      17.068  28.956  53.681  1.00  0.00     0.211 HD
ENDBRANCH  18  25
BRANCH  20  27
ATOM     27  O   UNL     1      20.614  29.607  51.465  1.00  0.00    -0.387 OA
ATOM     28  H   UNL     1      21.228  28.821  51.503  1.00  0.00     0.211 HD
ENDBRANCH  20  27
BRANCH  21  29
ATOM     29  C   UNL     1      22.009  29.313  54.209  1.00  0.00     0.191 C 
BRANCH  29  30
ATOM     30  O   UNL     1      22.931  28.957  53.219  1.00  0.00    -0.394 OA
ATOM     31  H   UNL     1      23.412  29.754  52.849  1.00  0.00     0.210 HD
ENDBRANCH  29  30
ENDBRANCH  21  29
ENDBRANCH   1  17
TORSDOF 13
ENDMDL
MODEL 8
REMARK VINA RESULT:    -5.509      3.202      4.852
REMARK INTER + INTRA:          -9.459
REMARK INTER:                  -7.966
REMARK INTRA:                  -1.493
REMARK UNBOUND:                -1.052
REMARK SMILES OC[C@@H]1O[C@](CO)(O[C@@H]2O[C@H](CO)[C@H](O)[C@H](O)[C@H]2O)[C@@H](O)[C@@H]1O
REMARK SMILES IDX 8 1 9 2 11 3 14 4 10 5 16 6 18 7 12 8 13 9 15 11 17 13 19 15
REMARK SMILES IDX 5 17 20 18 4 19 22 20 3 21 6 22 7 23 21 25 23 27 2 29 1 30
REMARK H PARENT 13 10 15 12 17 14 19 16 7 24 21 26 23 28 1 31
REMARK Flexibility Score: inf
ROOT
ATOM      1  O   UNL     1      18.205  26.154  52.064  1.00  0.00    -0.313 OA
ENDROOT
BRANCH   1   2
ATOM      2  C   UNL     1      19.672  26.320  52.669  1.00  0.00     0.285 C 
ATOM      3  C   UNL     1      21.236  28.405  52.477  1.00  0.00     0.178 C 
ATOM      4  C   UNL     1      21.917  28.001  51.001  1.00  0.00     0.177 C 
ATOM      5  O   UNL     1      19.934  27.784  52.846  1.00  0.00    -0.341 OA
ATOM      6  C   UNL     1      21.148  26.711  50.575  1.00  0.00     0.179 C 
ATOM      7  C   UNL     1      20.772  25.696  51.739  1.00  0.00     0.202 C 
BRANCH   3   8
ATOM      8  C   UNL     1      21.436  30.006  52.828  1.00  0.00     0.191 C 
BRANCH   8   9
ATOM      9  O   UNL     1      20.415  30.719  52.167  1.00  0.00    -0.394 OA
ATOM     10  H   UNL     1      20.742  31.665  51.991  1.00  0.00     0.210 HD
ENDBRANCH   8   9
ENDBRANCH   3   8
BRANCH   4  11
ATOM     11  O   UNL     1      21.686  29.120  50.099  1.00  0.00    -0.387 OA
ATOM     12  H   UNL     1      22.529  29.218  49.305  1.00  0.00     0.211 HD
ENDBRANCH   4  11
BRANCH   6  13
ATOM     13  O   UNL     1      20.145  27.253  49.772  1.00  0.00    -0.387 OA
ATOM     14  H   UNL     1      19.977  26.603  49.026  1.00  0.00     0.211 HD
ENDBRANCH   6  13
BRANCH   7  15
ATOM     15  O   UNL     1      21.973  25.395  52.468  1.00  0.00    -0.385 OA
ATOM     16  H   UNL     1      22.390  24.547  52.128  1.00  0.00     0.211 HD
ENDBRANCH   7  15
ENDBRANCH   1   2
BRANCH   1  17
ATOM     17  C   UNL     1      17.010  26.759  52.701  1.00  0.00     0.224 C 
ATOM     18  C   UNL     1      16.757  27.914  51.572  1.00  0.00     0.208 C 
ATOM     19  O   UNL     1      15.570  26.421  52.528  1.00  0.00    -0.337 OA
ATOM     20  C   UNL     1      15.301  28.169  51.363  1.00  0.00     0.180 C 
ATOM     21  C   UNL     1      15.075  26.616  51.289  1.00  0.00     0.179 C 
BRANCH  17  22
ATOM     22  C   UNL     1      16.507  25.421  53.482  1.00  0.00     0.225 C 
BRANCH  22  23
ATOM     23  O   UNL     1      15.327  25.370  54.340  1.00  0.00    -0.391 OA
ATOM     24  H   UNL     1      15.613  25.456  55.291  1.00  0.00     0.210 HD
ENDBRANCH  22  23
ENDBRANCH  17  22
BRANCH  18  25
ATOM     25  O   UNL     1      17.181  27.621  50.234  1.00  0.00    -0.385 OA
ATOM     26  H   UNL     1      18.113  27.853  50.023  1.00  0.00     0.211 HD
ENDBRANCH  18  25
BRANCH  20  27
ATOM     27  O   UNL     1      14.730  28.700  52.544  1.00  0.00    -0.387 OA
ATOM     28  H   UNL     1      15.260  28.359  53.317  1.00  0.00     0.211 HD
ENDBRANCH  20  27
BRANCH  21  29
ATOM     29  C   UNL     1      13.587  26.153  51.215  1.00  0.00     0.191 C 
BRANCH  29  30
ATOM     30  O   UNL     1      13.058  26.149  52.510  1.00  0.00    -0.394 OA
ATOM     31  H   UNL     1      13.774  26.122  53.209  1.00  0.00     0.210 HD
ENDBRANCH  29  30
ENDBRANCH  21  29
ENDBRANCH   1  17
TORSDOF 13
ENDMDL
MODEL 9
REMARK VINA RESULT:    -5.495      1.764      6.576
REMARK INTER + INTRA:          -9.438
REMARK INTER:                  -8.324
REMARK INTRA:                  -1.114
REMARK UNBOUND:                -1.052
REMARK SMILES OC[C@@H]1O[C@](CO)(O[C@@H]2O[C@H](CO)[C@H](O)[C@H](O)[C@H]2O)[C@@H](O)[C@@H]1O
REMARK SMILES IDX 8 1 9 2 11 3 14 4 10 5 16 6 18 7 12 8 13 9 15 11 17 13 19 15
REMARK SMILES IDX 5 17 20 18 4 19 22 20 3 21 6 22 7 23 21 25 23 27 2 29 1 30
REMARK H PARENT 13 10 15 12 17 14 19 16 7 24 21 26 23 28 1 31
REMARK Flexibility Score: inf
ROOT
ATOM      1  O   UNL     1      16.329  27.775  52.827  1.00  0.00    -0.313 OA
ENDROOT
BRANCH   1   2
ATOM      2  C   UNL     1      16.955  26.678  51.851  1.00  0.00     0.285 C 
ATOM      3  C   UNL     1      15.707  25.289  50.024  1.00  0.00     0.178 C 
ATOM      4  C   UNL     1      15.189  24.058  51.035  1.00  0.00     0.177 C 
ATOM      5  O   UNL     1      16.085  26.593  50.636  1.00  0.00    -0.341 OA
ATOM      6  C   UNL     1      15.652  24.520  52.454  1.00  0.00     0.179 C 
ATOM      7  C   UNL     1      17.053  25.266  52.531  1.00  0.00     0.202 C 
BRANCH   3   8
ATOM      8  C   UNL     1      14.837  25.336  48.621  1.00  0.00     0.191 C 
BRANCH   8   9
ATOM      9  O   UNL     1      13.713  26.158  48.843  1.00  0.00    -0.394 OA
ATOM     10  H   UNL     1      13.129  25.724  49.553  1.00  0.00     0.210 HD
ENDBRANCH   8   9
ENDBRANCH   3   8
BRANCH   4  11
ATOM     11  O   UNL     1      13.741  23.978  50.912  1.00  0.00    -0.387 OA
ATOM     12  H   UNL     1      13.301  23.093  51.523  1.00  0.00     0.211 HD
ENDBRANCH   4  11
BRANCH   6  13
ATOM     13  O   UNL     1      14.498  25.154  52.915  1.00  0.00    -0.387 OA
ATOM     14  H   UNL     1      13.822  25.118  52.175  1.00  0.00     0.211 HD
ENDBRANCH   6  13
BRANCH   7  15
ATOM     15  O   UNL     1      18.032  24.435  51.886  1.00  0.00    -0.385 OA
ATOM     16  H   UNL     1      18.782  24.992  51.518  1.00  0.00     0.211 HD
ENDBRANCH   7  15
ENDBRANCH   1   2
BRANCH   1  17
ATOM     17  C   UNL     1      17.083  28.346  53.968  1.00  0.00     0.224 C 
ATOM     18  C   UNL     1      17.712  29.622  53.161  1.00  0.00     0.208 C 
ATOM     19  O   UNL     1      16.650  29.339  54.990  1.00  0.00    -0.337 OA
ATOM     20  C   UNL     1      17.812  30.829  54.034  1.00  0.00     0.180 C 
ATOM     21  C   UNL     1      16.340  30.561  54.513  1.00  0.00     0.179 C 
BRANCH  17  22
ATOM     22  C   UNL     1      16.125  27.762  55.148  1.00  0.00     0.225 C 
BRANCH  22  23
ATOM     23  O   UNL     1      14.837  27.117  54.913  1.00  0.00    -0.391 OA
ATOM     24  H   UNL     1      14.926  26.140  55.090  1.00  0.00     0.210 HD
ENDBRANCH  22  23
ENDBRANCH  17  22
BRANCH  18  25
ATOM     25  O   UNL     1      16.948  30.137  52.062  1.00  0.00    -0.385 OA
ATOM     26  H   UNL     1      17.165  31.057  51.789  1.00  0.00     0.211 HD
ENDBRANCH  18  25
BRANCH  20  27
ATOM     27  O   UNL     1      18.730  30.590  55.084  1.00  0.00    -0.387 OA
ATOM     28  H   UNL     1      19.602  30.335  54.672  1.00  0.00     0.211 HD
ENDBRANCH  20  27
BRANCH  21  29
ATOM     29  C   UNL     1      15.826  31.483  55.663  1.00  0.00     0.191 C 
BRANCH  29  30
ATOM     30  O   UNL     1      15.093  32.531  55.096  1.00  0.00    -0.394 OA
ATOM     31  H   UNL     1      15.342  33.419  55.487  1.00  0.00     0.210 HD
ENDBRANCH  29  30
ENDBRANCH  21  29
ENDBRANCH   1  17
TORSDOF 13
ENDMDL
