MODEL 1
REMARK VINA RESULT:    -3.864      0.000      0.000
REMARK INTER + INTRA:          -9.156
REMARK INTER:                  -7.026
REMARK INTRA:                  -2.131
REMARK UNBOUND:                -2.131
REMARK SMILES CCCCCCCCCCCCCCCC(=O)[O-]
REMARK SMILES IDX 9 1 10 2 11 3 12 4 13 5 14 6 15 7 16 8 17 9 18 10 8 11 7 12
REMARK SMILES IDX 6 13 5 14 4 15 3 16 2 17 1 18
REMARK H PARENT
REMARK Flexibility Score: inf
ROOT
ATOM      1  C   UNL     1      16.568  16.536   6.716  1.00  0.00     0.000 C 
ENDROOT
BRANCH   1   2
ATOM      2  C   UNL     1      17.076  15.206   7.292  1.00  0.00     0.000 C 
BRANCH   2   3
ATOM      3  C   UNL     1      17.714  15.363   8.683  1.00  0.00     0.000 C 
BRANCH   3   4
ATOM      4  C   UNL     1      19.257  15.308   8.664  1.00  0.00     0.000 C 
BRANCH   4   5
ATOM      5  C   UNL     1      19.861  15.504  10.065  1.00  0.00     0.000 C 
BRANCH   5   6
ATOM      6  C   UNL     1      21.398  15.602  10.040  1.00  0.00     0.006 C 
BRANCH   6   7
ATOM      7  C   UNL     1      22.016  16.043  11.376  1.00  0.00     0.053 C 
BRANCH   7   8
ATOM      8  C   UNL     1      22.534  17.447  11.318  1.00  0.00     0.041 C 
ATOM      9  O   UNL     1      23.456  17.751  10.516  1.00  0.00    -0.550 OA
ATOM     10  O   UNL     1      21.988  18.425  12.140  1.00  0.00    -0.550 OA
ENDBRANCH   7   8
ENDBRANCH   6   7
ENDBRANCH   5   6
ENDBRANCH   4   5
ENDBRANCH   3   4
ENDBRANCH   2   3
ENDBRANCH   1   2
BRANCH   1  11
ATOM     11  C   UNL     1      15.805  17.341   7.773  1.00  0.00     0.000 C 
BRANCH  11  12
ATOM     12  C   UNL     1      16.215  18.820   7.736  1.00  0.00    -0.000 C 
BRANCH  12  13
ATOM     13  C   UNL     1      17.740  19.012   7.748  1.00  0.00    -0.000 C 
BRANCH  13  14
ATOM     14  C   UNL     1      18.319  19.075   9.169  1.00  0.00    -0.000 C 
BRANCH  14  15
ATOM     15  C   UNL     1      19.851  19.016   9.142  1.00  0.00    -0.000 C 
BRANCH  15  16
ATOM     16  C   UNL     1      20.363  18.655   7.740  1.00  0.00    -0.000 C 
BRANCH  16  17
ATOM     17  C   UNL     1      21.892  18.510   7.689  1.00  0.00    -0.003 C 
ATOM     18  C   UNL     1      22.501  19.112   6.423  1.00  0.00     0.004 C 
ENDBRANCH  16  17
ENDBRANCH  15  16
ENDBRANCH  14  15
ENDBRANCH  13  14
ENDBRANCH  12  13
ENDBRANCH  11  12
ENDBRANCH   1  11
TORSDOF 14
ENDMDL
MODEL 2
REMARK VINA RESULT:    -3.859      2.588      4.985
REMARK INTER + INTRA:          -9.148
REMARK INTER:                  -6.823
REMARK INTRA:                  -2.325
REMARK UNBOUND:                -2.131
REMARK SMILES CCCCCCCCCCCCCCCC(=O)[O-]
REMARK SMILES IDX 9 1 10 2 11 3 12 4 13 5 14 6 15 7 16 8 17 9 18 10 8 11 7 12
REMARK SMILES IDX 6 13 5 14 4 15 3 16 2 17 1 18
REMARK H PARENT
REMARK Flexibility Score: inf
ROOT
ATOM      1  C   UNL     1      23.492  18.089   9.449  1.00  0.00     0.000 C 
ENDROOT
BRANCH   1   2
ATOM      2  C   UNL     1      23.163  17.700  10.896  1.00  0.00     0.000 C 
BRANCH   2   3
ATOM      3  C   UNL     1      21.736  17.148  11.058  1.00  0.00     0.000 C 
BRANCH   3   4
ATOM      4  C   UNL     1      21.686  15.623  11.292  1.00  0.00     0.000 C 
BRANCH   4   5
ATOM      5  C   UNL     1      20.336  15.016  10.872  1.00  0.00     0.000 C 
BRANCH   5   6
ATOM      6  C   UNL     1      20.092  15.107   9.354  1.00  0.00     0.006 C 
BRANCH   6   7
ATOM      7  C   UNL     1      21.170  14.412   8.507  1.00  0.00     0.053 C 
BRANCH   7   8
ATOM      8  C   UNL     1      21.255  12.945   8.803  1.00  0.00     0.041 C 
ATOM      9  O   UNL     1      22.296  12.460   9.317  1.00  0.00    -0.550 OA
ATOM     10  O   UNL     1      20.176  12.116   8.523  1.00  0.00    -0.550 OA
ENDBRANCH   7   8
ENDBRANCH   6   7
ENDBRANCH   5   6
ENDBRANCH   4   5
ENDBRANCH   3   4
ENDBRANCH   2   3
ENDBRANCH   1   2
BRANCH   1  11
ATOM     11  C   UNL     1      22.274  17.905   8.536  1.00  0.00     0.000 C 
BRANCH  11  12
ATOM     12  C   UNL     1      22.472  18.643   7.204  1.00  0.00    -0.000 C 
BRANCH  12  13
ATOM     13  C   UNL     1      21.190  18.693   6.358  1.00  0.00    -0.000 C 
BRANCH  13  14
ATOM     14  C   UNL     1      20.609  17.299   6.078  1.00  0.00    -0.000 C 
BRANCH  14  15
ATOM     15  C   UNL     1      19.136  17.223   6.496  1.00  0.00    -0.000 C 
BRANCH  15  16
ATOM     16  C   UNL     1      18.687  18.528   7.169  1.00  0.00    -0.000 C 
BRANCH  16  17
ATOM     17  C   UNL     1      18.196  18.313   8.609  1.00  0.00    -0.003 C 
ATOM     18  C   UNL     1      19.014  19.097   9.635  1.00  0.00     0.004 C 
ENDBRANCH  16  17
ENDBRANCH  15  16
ENDBRANCH  14  15
ENDBRANCH  13  14
ENDBRANCH  12  13
ENDBRANCH  11  12
ENDBRANCH   1  11
TORSDOF 14
ENDMDL
MODEL 3
REMARK VINA RESULT:    -3.841      2.237      4.811
REMARK INTER + INTRA:          -9.116
REMARK INTER:                  -7.375
REMARK INTRA:                  -1.741
REMARK UNBOUND:                -2.131
REMARK SMILES CCCCCCCCCCCCCCCC(=O)[O-]
REMARK SMILES IDX 9 1 10 2 11 3 12 4 13 5 14 6 15 7 16 8 17 9 18 10 8 11 7 12
REMARK SMILES IDX 6 13 5 14 4 15 3 16 2 17 1 18
REMARK H PARENT
REMARK Flexibility Score: inf
ROOT
ATOM      1  C   UNL     1      22.534  17.517   8.411  1.00  0.00     0.000 C 
ENDROOT
BRANCH   1   2
ATOM      2  C   UNL     1      23.481  18.086   9.478  1.00  0.00     0.000 C 
BRANCH   2   3
ATOM      3  C   UNL     1      23.220  17.506  10.879  1.00  0.00     0.000 C 
BRANCH   3   4
ATOM      4  C   UNL     1      21.724  17.276  11.183  1.00  0.00     0.000 C 
BRANCH   4   5
ATOM      5  C   UNL     1      21.326  15.796  11.050  1.00  0.00     0.000 C 
BRANCH   5   6
ATOM      6  C   UNL     1      19.881  15.614  10.550  1.00  0.00     0.006 C 
BRANCH   6   7
ATOM      7  C   UNL     1      19.781  15.195   9.074  1.00  0.00     0.053 C 
BRANCH   7   8
ATOM      8  C   UNL     1      20.623  13.993   8.775  1.00  0.00     0.041 C 
ATOM      9  O   UNL     1      20.323  12.871   9.260  1.00  0.00    -0.550 OA
ATOM     10  O   UNL     1      21.731  14.109   7.946  1.00  0.00    -0.550 OA
ENDBRANCH   7   8
ENDBRANCH   6   7
ENDBRANCH   5   6
ENDBRANCH   4   5
ENDBRANCH   3   4
ENDBRANCH   2   3
ENDBRANCH   1   2
BRANCH   1  11
ATOM     11  C   UNL     1      21.909  18.637   7.573  1.00  0.00     0.000 C 
BRANCH  11  12
ATOM     12  C   UNL     1      20.379  18.639   7.717  1.00  0.00    -0.000 C 
BRANCH  12  13
ATOM     13  C   UNL     1      19.916  19.130   9.097  1.00  0.00    -0.000 C 
BRANCH  13  14
ATOM     14  C   UNL     1      18.390  19.071   9.266  1.00  0.00    -0.000 C 
BRANCH  14  15
ATOM     15  C   UNL     1      17.720  18.502   8.010  1.00  0.00    -0.000 C 
BRANCH  15  16
ATOM     16  C   UNL     1      16.557  19.395   7.553  1.00  0.00    -0.000 C 
BRANCH  16  17
ATOM     17  C   UNL     1      16.540  19.611   6.032  1.00  0.00    -0.003 C 
ATOM     18  C   UNL     1      16.334  18.312   5.253  1.00  0.00     0.004 C 
ENDBRANCH  16  17
ENDBRANCH  15  16
ENDBRANCH  14  15
ENDBRANCH  13  14
ENDBRANCH  12  13
ENDBRANCH  11  12
ENDBRANCH   1  11
TORSDOF 14
ENDMDL
MODEL 4
REMARK VINA RESULT:    -3.803      1.530      3.424
REMARK INTER + INTRA:          -9.046
REMARK INTER:                  -6.582
REMARK INTRA:                  -2.464
REMARK UNBOUND:                -2.131
REMARK SMILES CCCCCCCCCCCCCCCC(=O)[O-]
REMARK SMILES IDX 9 1 10 2 11 3 12 4 13 5 14 6 15 7 16 8 17 9 18 10 8 11 7 12
REMARK SMILES IDX 6 13 5 14 4 15 3 16 2 17 1 18
REMARK H PARENT
REMARK Flexibility Score: inf
ROOT
ATOM      1  C   UNL     1      17.889  15.445   8.299  1.00  0.00     0.000 C 
ENDROOT
BRANCH   1   2
ATOM      2  C   UNL     1      17.109  16.765   8.374  1.00  0.00     0.000 C 
BRANCH   2   3
ATOM      3  C   UNL     1      17.829  17.925   7.665  1.00  0.00     0.000 C 
BRANCH   3   4
ATOM      4  C   UNL     1      18.345  19.014   8.631  1.00  0.00     0.000 C 
BRANCH   4   5
ATOM      5  C   UNL     1      19.881  19.024   8.726  1.00  0.00     0.000 C 
BRANCH   5   6
ATOM      6  C   UNL     1      20.397  18.440  10.054  1.00  0.00     0.006 C 
BRANCH   6   7
ATOM      7  C   UNL     1      21.854  17.955   9.997  1.00  0.00     0.053 C 
BRANCH   7   8
ATOM      8  C   UNL     1      22.336  17.471  11.330  1.00  0.00     0.041 C 
ATOM      9  O   UNL     1      22.508  16.241  11.536  1.00  0.00    -0.550 OA
ATOM     10  O   UNL     1      22.610  18.382  12.343  1.00  0.00    -0.550 OA
ENDBRANCH   7   8
ENDBRANCH   6   7
ENDBRANCH   5   6
ENDBRANCH   4   5
ENDBRANCH   3   4
ENDBRANCH   2   3
ENDBRANCH   1   2
BRANCH   1  11
ATOM     11  C   UNL     1      18.865  15.312   9.473  1.00  0.00     0.000 C 
BRANCH  11  12
ATOM     12  C   UNL     1      20.200  14.709   9.010  1.00  0.00    -0.000 C 
BRANCH  12  13
ATOM     13  C   UNL     1      20.601  15.173   7.601  1.00  0.00    -0.000 C 
BRANCH  13  14
ATOM     14  C   UNL     1      22.115  15.391   7.457  1.00  0.00    -0.000 C 
BRANCH  14  15
ATOM     15  C   UNL     1      22.437  16.190   6.189  1.00  0.00    -0.000 C 
BRANCH  15  16
ATOM     16  C   UNL     1      22.798  17.643   6.532  1.00  0.00    -0.000 C 
BRANCH  16  17
ATOM     17  C   UNL     1      22.029  18.661   5.674  1.00  0.00    -0.003 C 
ATOM     18  C   UNL     1      20.670  18.137   5.211  1.00  0.00     0.004 C 
ENDBRANCH  16  17
ENDBRANCH  15  16
ENDBRANCH  14  15
ENDBRANCH  13  14
ENDBRANCH  12  13
ENDBRANCH  11  12
ENDBRANCH   1  11
TORSDOF 14
ENDMDL
MODEL 5
REMARK VINA RESULT:    -3.770      2.449      4.857
REMARK INTER + INTRA:          -8.987
REMARK INTER:                  -6.717
REMARK INTRA:                  -2.270
REMARK UNBOUND:                -2.131
REMARK SMILES CCCCCCCCCCCCCCCC(=O)[O-]
REMARK SMILES IDX 9 1 10 2 11 3 12 4 13 5 14 6 15 7 16 8 17 9 18 10 8 11 7 12
REMARK SMILES IDX 6 13 5 14 4 15 3 16 2 17 1 18
REMARK H PARENT
REMARK Flexibility Score: inf
ROOT
ATOM      1  C   UNL     1      23.090  17.947   9.838  1.00  0.00     0.000 C 
ENDROOT
BRANCH   1   2
ATOM      2  C   UNL     1      22.698  16.872  10.861  1.00  0.00     0.000 C 
BRANCH   2   3
ATOM      3  C   UNL     1      21.180  16.800  11.101  1.00  0.00     0.000 C 
BRANCH   3   4
ATOM      4  C   UNL     1      20.596  15.381  10.935  1.00  0.00     0.000 C 
BRANCH   4   5
ATOM      5  C   UNL     1      19.592  15.300   9.770  1.00  0.00     0.000 C 
BRANCH   5   6
ATOM      6  C   UNL     1      20.241  14.812   8.462  1.00  0.00     0.006 C 
BRANCH   6   7
ATOM      7  C   UNL     1      21.504  13.961   8.673  1.00  0.00     0.053 C 
BRANCH   7   8
ATOM      8  C   UNL     1      22.133  13.562   7.373  1.00  0.00     0.041 C 
ATOM      9  O   UNL     1      22.597  14.437   6.596  1.00  0.00    -0.550 OA
ATOM     10  O   UNL     1      22.221  12.219   7.027  1.00  0.00    -0.550 OA
ENDBRANCH   7   8
ENDBRANCH   6   7
ENDBRANCH   5   6
ENDBRANCH   4   5
ENDBRANCH   3   4
ENDBRANCH   2   3
ENDBRANCH   1   2
BRANCH   1  11
ATOM     11  C   UNL     1      22.738  17.508   8.412  1.00  0.00     0.000 C 
BRANCH  11  12
ATOM     12  C   UNL     1      21.939  18.599   7.684  1.00  0.00    -0.000 C 
BRANCH  12  13
ATOM     13  C   UNL     1      20.421  18.427   7.845  1.00  0.00    -0.000 C 
BRANCH  13  14
ATOM     14  C   UNL     1      19.851  19.251   9.009  1.00  0.00    -0.000 C 
BRANCH  14  15
ATOM     15  C   UNL     1      18.377  18.908   9.256  1.00  0.00    -0.000 C 
BRANCH  15  16
ATOM     16  C   UNL     1      17.757  18.226   8.028  1.00  0.00    -0.000 C 
BRANCH  16  17
ATOM     17  C   UNL     1      16.785  19.144   7.270  1.00  0.00    -0.003 C 
ATOM     18  C   UNL     1      17.061  19.185   5.768  1.00  0.00     0.004 C 
ENDBRANCH  16  17
ENDBRANCH  15  16
ENDBRANCH  14  15
ENDBRANCH  13  14
ENDBRANCH  12  13
ENDBRANCH  11  12
ENDBRANCH   1  11
TORSDOF 14
ENDMDL
MODEL 6
REMARK VINA RESULT:    -3.755      1.543      3.431
REMARK INTER + INTRA:          -8.959
REMARK INTER:                  -6.697
REMARK INTRA:                  -2.262
REMARK UNBOUND:                -2.131
REMARK SMILES CCCCCCCCCCCCCCCC(=O)[O-]
REMARK SMILES IDX 9 1 10 2 11 3 12 4 13 5 14 6 15 7 16 8 17 9 18 10 8 11 7 12
REMARK SMILES IDX 6 13 5 14 4 15 3 16 2 17 1 18
REMARK H PARENT
REMARK Flexibility Score: inf
ROOT
ATOM      1  C   UNL     1      17.567  19.271   8.094  1.00  0.00     0.000 C 
ENDROOT
BRANCH   1   2
ATOM      2  C   UNL     1      18.356  18.688   9.274  1.00  0.00     0.000 C 
BRANCH   2   3
ATOM      3  C   UNL     1      19.868  18.954   9.171  1.00  0.00     0.000 C 
BRANCH   3   4
ATOM      4  C   UNL     1      20.397  18.957   7.721  1.00  0.00     0.000 C 
BRANCH   4   5
ATOM      5  C   UNL     1      21.863  18.497   7.638  1.00  0.00     0.000 C 
BRANCH   5   6
ATOM      6  C   UNL     1      22.211  17.433   8.695  1.00  0.00     0.006 C 
BRANCH   6   7
ATOM      7  C   UNL     1      23.150  17.938   9.802  1.00  0.00     0.053 C 
BRANCH   7   8
ATOM      8  C   UNL     1      22.628  17.617  11.169  1.00  0.00     0.041 C 
ATOM      9  O   UNL     1      22.956  18.326  12.157  1.00  0.00    -0.550 OA
ATOM     10  O   UNL     1      21.767  16.543  11.350  1.00  0.00    -0.550 OA
ENDBRANCH   7   8
ENDBRANCH   6   7
ENDBRANCH   5   6
ENDBRANCH   4   5
ENDBRANCH   3   4
ENDBRANCH   2   3
ENDBRANCH   1   2
BRANCH   1  11
ATOM     11  C   UNL     1      16.474  18.303   7.627  1.00  0.00     0.000 C 
BRANCH  11  12
ATOM     12  C   UNL     1      16.667  16.915   8.257  1.00  0.00    -0.000 C 
BRANCH  12  13
ATOM     13  C   UNL     1      16.338  15.772   7.284  1.00  0.00    -0.000 C 
BRANCH  13  14
ATOM     14  C   UNL     1      17.551  14.876   6.990  1.00  0.00    -0.000 C 
BRANCH  14  15
ATOM     15  C   UNL     1      18.863  15.618   7.271  1.00  0.00    -0.000 C 
BRANCH  15  16
ATOM     16  C   UNL     1      19.759  15.643   6.023  1.00  0.00    -0.000 C 
BRANCH  16  17
ATOM     17  C   UNL     1      19.012  16.125   4.769  1.00  0.00    -0.003 C 
ATOM     18  C   UNL     1      18.750  17.630   4.779  1.00  0.00     0.004 C 
ENDBRANCH  16  17
ENDBRANCH  15  16
ENDBRANCH  14  15
ENDBRANCH  13  14
ENDBRANCH  12  13
ENDBRANCH  11  12
ENDBRANCH   1  11
TORSDOF 14
ENDMDL
MODEL 7
REMARK VINA RESULT:    -3.755      2.970      5.649
REMARK INTER + INTRA:          -8.958
REMARK INTER:                  -6.721
REMARK INTRA:                  -2.237
REMARK UNBOUND:                -2.131
REMARK SMILES CCCCCCCCCCCCCCCC(=O)[O-]
REMARK SMILES IDX 9 1 10 2 11 3 12 4 13 5 14 6 15 7 16 8 17 9 18 10 8 11 7 12
REMARK SMILES IDX 6 13 5 14 4 15 3 16 2 17 1 18
REMARK H PARENT
REMARK Flexibility Score: inf
ROOT
ATOM      1  C   UNL     1      23.244  15.666   6.413  1.00  0.00     0.000 C 
ENDROOT
BRANCH   1   2
ATOM      2  C   UNL     1      22.908  17.123   6.065  1.00  0.00     0.000 C 
BRANCH   2   3
ATOM      3  C   UNL     1      22.759  18.016   7.308  1.00  0.00     0.000 C 
BRANCH   3   4
ATOM      4  C   UNL     1      21.604  19.034   7.203  1.00  0.00     0.000 C 
BRANCH   4   5
ATOM      5  C   UNL     1      20.493  18.760   8.233  1.00  0.00     0.000 C 
BRANCH   5   6
ATOM      6  C   UNL     1      19.131  18.477   7.574  1.00  0.00     0.006 C 
BRANCH   6   7
ATOM      7  C   UNL     1      18.116  17.798   8.508  1.00  0.00     0.053 C 
BRANCH   7   8
ATOM      8  C   UNL     1      16.705  18.019   8.056  1.00  0.00     0.041 C 
ATOM      9  O   UNL     1      15.821  17.153   8.289  1.00  0.00    -0.550 OA
ATOM     10  O   UNL     1      16.362  19.188   7.390  1.00  0.00    -0.550 OA
ENDBRANCH   7   8
ENDBRANCH   6   7
ENDBRANCH   5   6
ENDBRANCH   4   5
ENDBRANCH   3   4
ENDBRANCH   2   3
ENDBRANCH   1   2
BRANCH   1  11
ATOM     11  C   UNL     1      22.068  14.736   6.096  1.00  0.00     0.000 C 
BRANCH  11  12
ATOM     12  C   UNL     1      20.781  15.233   6.771  1.00  0.00    -0.000 C 
BRANCH  12  13
ATOM     13  C   UNL     1      20.324  14.319   7.920  1.00  0.00    -0.000 C 
BRANCH  13  14
ATOM     14  C   UNL     1      20.209  15.063   9.259  1.00  0.00    -0.000 C 
BRANCH  14  15
ATOM     15  C   UNL     1      21.591  15.474   9.780  1.00  0.00    -0.000 C 
BRANCH  15  16
ATOM     16  C   UNL     1      21.466  16.420  10.983  1.00  0.00    -0.000 C 
BRANCH  16  17
ATOM     17  C   UNL     1      22.595  17.461  11.036  1.00  0.00    -0.003 C 
ATOM     18  C   UNL     1      22.372  18.522  12.113  1.00  0.00     0.004 C 
ENDBRANCH  16  17
ENDBRANCH  15  16
ENDBRANCH  14  15
ENDBRANCH  13  14
ENDBRANCH  12  13
ENDBRANCH  11  12
ENDBRANCH   1  11
TORSDOF 14
ENDMDL
MODEL 8
REMARK VINA RESULT:    -3.729      2.740      4.025
REMARK INTER + INTRA:          -8.911
REMARK INTER:                  -6.834
REMARK INTRA:                  -2.077
REMARK UNBOUND:                -2.131
REMARK SMILES CCCCCCCCCCCCCCCC(=O)[O-]
REMARK SMILES IDX 9 1 10 2 11 3 12 4 13 5 14 6 15 7 16 8 17 9 18 10 8 11 7 12
REMARK SMILES IDX 6 13 5 14 4 15 3 16 2 17 1 18
REMARK H PARENT
REMARK Flexibility Score: inf
ROOT
ATOM      1  C   UNL     1      19.442  16.299   8.605  1.00  0.00     0.000 C 
ENDROOT
BRANCH   1   2
ATOM      2  C   UNL     1      20.335  15.202   9.202  1.00  0.00     0.000 C 
BRANCH   2   3
ATOM      3  C   UNL     1      21.299  14.590   8.172  1.00  0.00     0.000 C 
BRANCH   3   4
ATOM      4  C   UNL     1      21.763  13.162   8.533  1.00  0.00     0.000 C 
BRANCH   4   5
ATOM      5  C   UNL     1      20.762  12.442   9.452  1.00  0.00     0.000 C 
BRANCH   5   6
ATOM      6  C   UNL     1      21.453  11.668  10.591  1.00  0.00     0.006 C 
BRANCH   6   7
ATOM      7  C   UNL     1      21.200  12.259  11.987  1.00  0.00     0.053 C 
BRANCH   7   8
ATOM      8  C   UNL     1      22.426  12.911  12.550  1.00  0.00     0.041 C 
ATOM      9  O   UNL     1      22.753  14.071  12.186  1.00  0.00    -0.550 OA
ATOM     10  O   UNL     1      23.201  12.242  13.488  1.00  0.00    -0.550 OA
ENDBRANCH   7   8
ENDBRANCH   6   7
ENDBRANCH   5   6
ENDBRANCH   4   5
ENDBRANCH   3   4
ENDBRANCH   2   3
ENDBRANCH   1   2
BRANCH   1  11
ATOM     11  C   UNL     1      19.382  17.524   9.525  1.00  0.00     0.000 C 
BRANCH  11  12
ATOM     12  C   UNL     1      19.833  18.789   8.781  1.00  0.00    -0.000 C 
BRANCH  12  13
ATOM     13  C   UNL     1      20.514  18.476   7.439  1.00  0.00    -0.000 C 
BRANCH  13  14
ATOM     14  C   UNL     1      22.004  18.847   7.429  1.00  0.00    -0.000 C 
BRANCH  14  15
ATOM     15  C   UNL     1      22.852  17.733   8.056  1.00  0.00    -0.000 C 
BRANCH  15  16
ATOM     16  C   UNL     1      23.456  18.187   9.393  1.00  0.00    -0.000 C 
BRANCH  16  17
ATOM     17  C   UNL     1      22.917  17.384  10.587  1.00  0.00    -0.003 C 
ATOM     18  C   UNL     1      22.413  18.276  11.721  1.00  0.00     0.004 C 
ENDBRANCH  16  17
ENDBRANCH  15  16
ENDBRANCH  14  15
ENDBRANCH  13  14
ENDBRANCH  12  13
ENDBRANCH  11  12
ENDBRANCH   1  11
TORSDOF 14
ENDMDL
MODEL 9
REMARK VINA RESULT:    -3.710      3.627      5.482
REMARK INTER + INTRA:          -8.877
REMARK INTER:                  -6.346
REMARK INTRA:                  -2.531
REMARK UNBOUND:                -2.131
REMARK SMILES CCCCCCCCCCCCCCCC(=O)[O-]
REMARK SMILES IDX 9 1 10 2 11 3 12 4 13 5 14 6 15 7 16 8 17 9 18 10 8 11 7 12
REMARK SMILES IDX 6 13 5 14 4 15 3 16 2 17 1 18
REMARK H PARENT
REMARK Flexibility Score: inf
ROOT
ATOM      1  C   UNL     1      22.326  18.651   6.978  1.00  0.00     0.000 C 
ENDROOT
BRANCH   1   2
ATOM      2  C   UNL     1      23.103  17.476   7.585  1.00  0.00     0.000 C 
BRANCH   2   3
ATOM      3  C   UNL     1      23.005  16.194   6.741  1.00  0.00     0.000 C 
BRANCH   3   4
ATOM      4  C   UNL     1      22.188  15.071   7.415  1.00  0.00     0.000 C 
BRANCH   4   5
ATOM      5  C   UNL     1      21.148  14.458   6.461  1.00  0.00     0.000 C 
BRANCH   5   6
ATOM      6  C   UNL     1      21.618  14.455   4.994  1.00  0.00     0.006 C 
BRANCH   6   7
ATOM      7  C   UNL     1      22.069  13.076   4.488  1.00  0.00     0.053 C 
BRANCH   7   8
ATOM      8  C   UNL     1      23.368  12.651   5.104  1.00  0.00     0.041 C 
ATOM      9  O   UNL     1      24.407  13.341   4.936  1.00  0.00    -0.550 OA
ATOM     10  O   UNL     1      23.426  11.498   5.877  1.00  0.00    -0.550 OA
ENDBRANCH   7   8
ENDBRANCH   6   7
ENDBRANCH   5   6
ENDBRANCH   4   5
ENDBRANCH   3   4
ENDBRANCH   2   3
ENDBRANCH   1   2
BRANCH   1  11
ATOM     11  C   UNL     1      21.038  18.927   7.763  1.00  0.00     0.000 C 
BRANCH  11  12
ATOM     12  C   UNL     1      19.838  18.227   7.108  1.00  0.00    -0.000 C 
BRANCH  12  13
ATOM     13  C   UNL     1      19.159  17.216   8.045  1.00  0.00    -0.000 C 
BRANCH  13  14
ATOM     14  C   UNL     1      19.498  17.457   9.524  1.00  0.00    -0.000 C 
BRANCH  14  15
ATOM     15  C   UNL     1      19.902  16.150  10.215  1.00  0.00    -0.000 C 
BRANCH  15  16
ATOM     16  C   UNL     1      21.347  16.222  10.729  1.00  0.00    -0.000 C 
BRANCH  16  17
ATOM     17  C   UNL     1      21.729  17.627  11.222  1.00  0.00    -0.003 C 
ATOM     18  C   UNL     1      23.240  17.855  11.243  1.00  0.00     0.004 C 
ENDBRANCH  16  17
ENDBRANCH  15  16
ENDBRANCH  14  15
ENDBRANCH  13  14
ENDBRANCH  12  13
ENDBRANCH  11  12
ENDBRANCH   1  11
TORSDOF 14
ENDMDL
