MODEL 1
REMARK VINA RESULT:    -3.390      0.000      0.000
REMARK INTER + INTRA:          -7.058
REMARK INTER:                  -5.768
REMARK INTRA:                  -1.290
REMARK UNBOUND:                -1.290
REMARK SMILES CCCCCCCCCCCCCC(=O)[O-]
REMARK SMILES IDX 8 1 9 2 10 3 11 4 12 5 13 6 14 7 15 8 16 9 7 10 6 11 5 12
REMARK SMILES IDX 4 13 3 14 2 15 1 16
REMARK H PARENT
REMARK Flexibility Score: inf
ROOT
ATOM      1  C   UNL     1      56.063  27.615 -33.417  1.00  0.00     0.000 C 
ENDROOT
BRANCH   1   2
ATOM      2  C   UNL     1      56.916  27.311 -34.662  1.00  0.00     0.000 C 
BRANCH   2   3
ATOM      3  C   UNL     1      56.953  28.487 -35.652  1.00  0.00     0.000 C 
BRANCH   3   4
ATOM      4  C   UNL     1      55.586  28.746 -36.310  1.00  0.00     0.000 C 
BRANCH   4   5
ATOM      5  C   UNL     1      55.710  29.455 -37.668  1.00  0.00     0.006 C 
BRANCH   5   6
ATOM      6  C   UNL     1      54.358  29.952 -38.198  1.00  0.00     0.053 C 
BRANCH   6   7
ATOM      7  C   UNL     1      54.045  31.304 -37.643  1.00  0.00     0.041 C 
ATOM      8  O   UNL     1      54.976  32.084 -37.311  1.00  0.00    -0.550 OA
ATOM      9  O   UNL     1      52.725  31.725 -37.538  1.00  0.00    -0.550 OA
ENDBRANCH   6   7
ENDBRANCH   5   6
ENDBRANCH   4   5
ENDBRANCH   3   4
ENDBRANCH   2   3
ENDBRANCH   1   2
BRANCH   1  10
ATOM     10  C   UNL     1      56.881  28.249 -32.282  1.00  0.00     0.000 C 
BRANCH  10  11
ATOM     11  C   UNL     1      56.142  28.227 -30.937  1.00  0.00    -0.000 C 
BRANCH  11  12
ATOM     12  C   UNL     1      56.371  29.531 -30.161  1.00  0.00    -0.000 C 
BRANCH  12  13
ATOM     13  C   UNL     1      56.658  30.697 -31.118  1.00  0.00    -0.000 C 
BRANCH  13  14
ATOM     14  C   UNL     1      55.506  31.713 -31.175  1.00  0.00    -0.000 C 
BRANCH  14  15
ATOM     15  C   UNL     1      54.641  31.557 -32.433  1.00  0.00    -0.003 C 
ATOM     16  C   UNL     1      55.508  31.441 -33.685  1.00  0.00     0.004 C 
ENDBRANCH  14  15
ENDBRANCH  13  14
ENDBRANCH  12  13
ENDBRANCH  11  12
ENDBRANCH  10  11
ENDBRANCH   1  10
TORSDOF 12
ENDMDL
MODEL 2
REMARK VINA RESULT:    -3.369      2.944      6.008
REMARK INTER + INTRA:          -7.022
REMARK INTER:                  -5.963
REMARK INTRA:                  -1.059
REMARK UNBOUND:                -1.290
REMARK SMILES CCCCCCCCCCCCCC(=O)[O-]
REMARK SMILES IDX 8 1 9 2 10 3 11 4 12 5 13 6 14 7 15 8 16 9 7 10 6 11 5 12
REMARK SMILES IDX 4 13 3 14 2 15 1 16
REMARK H PARENT
REMARK Flexibility Score: inf
ROOT
ATOM      1  C   UNL     1      55.246  26.464 -36.041  1.00  0.00     0.000 C 
ENDROOT
BRANCH   1   2
ATOM      2  C   UNL     1      56.274  26.516 -34.896  1.00  0.00     0.000 C 
BRANCH   2   3
ATOM      3  C   UNL     1      57.125  27.796 -34.928  1.00  0.00     0.000 C 
BRANCH   3   4
ATOM      4  C   UNL     1      56.811  28.741 -33.755  1.00  0.00     0.000 C 
BRANCH   4   5
ATOM      5  C   UNL     1      55.989  28.059 -32.650  1.00  0.00     0.006 C 
BRANCH   5   6
ATOM      6  C   UNL     1      56.616  28.228 -31.260  1.00  0.00     0.053 C 
BRANCH   6   7
ATOM      7  C   UNL     1      55.999  29.388 -30.547  1.00  0.00     0.041 C 
ATOM      8  O   UNL     1      56.189  29.547 -29.312  1.00  0.00    -0.550 OA
ATOM      9  O   UNL     1      55.256  30.324 -31.255  1.00  0.00    -0.550 OA
ENDBRANCH   6   7
ENDBRANCH   5   6
ENDBRANCH   4   5
ENDBRANCH   3   4
ENDBRANCH   2   3
ENDBRANCH   1   2
BRANCH   1  10
ATOM     10  C   UNL     1      55.235  27.749 -36.883  1.00  0.00     0.000 C 
BRANCH  10  11
ATOM     11  C   UNL     1      54.565  27.554 -38.250  1.00  0.00    -0.000 C 
BRANCH  11  12
ATOM     12  C   UNL     1      54.230  28.905 -38.896  1.00  0.00    -0.000 C 
BRANCH  12  13
ATOM     13  C   UNL     1      55.225  29.988 -38.454  1.00  0.00    -0.000 C 
BRANCH  13  14
ATOM     14  C   UNL     1      54.580  31.379 -38.353  1.00  0.00    -0.000 C 
BRANCH  14  15
ATOM     15  C   UNL     1      54.697  31.985 -36.947  1.00  0.00    -0.003 C 
ATOM     16  C   UNL     1      55.856  31.360 -36.175  1.00  0.00     0.004 C 
ENDBRANCH  14  15
ENDBRANCH  13  14
ENDBRANCH  12  13
ENDBRANCH  11  12
ENDBRANCH  10  11
ENDBRANCH   1  10
TORSDOF 12
ENDMDL
MODEL 3
REMARK VINA RESULT:    -3.360      1.276      2.425
REMARK INTER + INTRA:          -7.007
REMARK INTER:                  -5.568
REMARK INTRA:                  -1.439
REMARK UNBOUND:                -1.290
REMARK SMILES CCCCCCCCCCCCCC(=O)[O-]
REMARK SMILES IDX 8 1 9 2 10 3 11 4 12 5 13 6 14 7 15 8 16 9 7 10 6 11 5 12
REMARK SMILES IDX 4 13 3 14 2 15 1 16
REMARK H PARENT
REMARK Flexibility Score: inf
ROOT
ATOM      1  C   UNL     1      56.647  27.951 -32.616  1.00  0.00     0.000 C 
ENDROOT
BRANCH   1   2
ATOM      2  C   UNL     1      55.706  27.436 -33.720  1.00  0.00     0.000 C 
BRANCH   2   3
ATOM      3  C   UNL     1      56.373  27.429 -35.105  1.00  0.00     0.000 C 
BRANCH   3   4
ATOM      4  C   UNL     1      55.626  28.308 -36.124  1.00  0.00     0.000 C 
BRANCH   4   5
ATOM      5  C   UNL     1      56.402  29.585 -36.483  1.00  0.00     0.006 C 
BRANCH   5   6
ATOM      6  C   UNL     1      55.509  30.833 -36.493  1.00  0.00     0.053 C 
BRANCH   6   7
ATOM      7  C   UNL     1      54.658  30.855 -37.723  1.00  0.00     0.041 C 
ATOM      8  O   UNL     1      53.502  31.352 -37.683  1.00  0.00    -0.550 OA
ATOM      9  O   UNL     1      55.160  30.375 -38.925  1.00  0.00    -0.550 OA
ENDBRANCH   6   7
ENDBRANCH   5   6
ENDBRANCH   4   5
ENDBRANCH   3   4
ENDBRANCH   2   3
ENDBRANCH   1   2
BRANCH   1  10
ATOM     10  C   UNL     1      56.961  29.449 -32.760  1.00  0.00     0.000 C 
BRANCH  10  11
ATOM     11  C   UNL     1      55.698  30.322 -32.746  1.00  0.00    -0.000 C 
BRANCH  11  12
ATOM     12  C   UNL     1      56.003  31.723 -32.200  1.00  0.00    -0.000 C 
BRANCH  12  13
ATOM     13  C   UNL     1      55.639  31.824 -30.712  1.00  0.00    -0.000 C 
BRANCH  13  14
ATOM     14  C   UNL     1      56.871  31.755 -29.795  1.00  0.00    -0.000 C 
BRANCH  14  15
ATOM     15  C   UNL     1      56.711  30.728 -28.666  1.00  0.00    -0.003 C 
ATOM     16  C   UNL     1      56.037  29.455 -29.173  1.00  0.00     0.004 C 
ENDBRANCH  14  15
ENDBRANCH  13  14
ENDBRANCH  12  13
ENDBRANCH  11  12
ENDBRANCH  10  11
ENDBRANCH   1  10
TORSDOF 12
ENDMDL
MODEL 4
REMARK VINA RESULT:    -3.330      1.440      2.925
REMARK INTER + INTRA:          -6.957
REMARK INTER:                  -6.217
REMARK INTRA:                  -0.740
REMARK UNBOUND:                -1.290
REMARK SMILES CCCCCCCCCCCCCC(=O)[O-]
REMARK SMILES IDX 8 1 9 2 10 3 11 4 12 5 13 6 14 7 15 8 16 9 7 10 6 11 5 12
REMARK SMILES IDX 4 13 3 14 2 15 1 16
REMARK H PARENT
REMARK Flexibility Score: inf
ROOT
ATOM      1  C   UNL     1      55.248  26.469 -36.008  1.00  0.00     0.000 C 
ENDROOT
BRANCH   1   2
ATOM      2  C   UNL     1      55.242  27.752 -36.858  1.00  0.00     0.000 C 
BRANCH   2   3
ATOM      3  C   UNL     1      54.530  27.561 -38.207  1.00  0.00     0.000 C 
BRANCH   3   4
ATOM      4  C   UNL     1      54.625  28.807 -39.105  1.00  0.00     0.000 C 
BRANCH   4   5
ATOM      5  C   UNL     1      55.366  29.969 -38.427  1.00  0.00     0.006 C 
BRANCH   5   6
ATOM      6  C   UNL     1      54.687  31.323 -38.670  1.00  0.00     0.053 C 
BRANCH   6   7
ATOM      7  C   UNL     1      53.883  31.725 -37.475  1.00  0.00     0.041 C 
ATOM      8  O   UNL     1      54.457  32.008 -36.390  1.00  0.00    -0.550 OA
ATOM      9  O   UNL     1      52.501  31.838 -37.571  1.00  0.00    -0.550 OA
ENDBRANCH   6   7
ENDBRANCH   5   6
ENDBRANCH   4   5
ENDBRANCH   3   4
ENDBRANCH   2   3
ENDBRANCH   1   2
BRANCH   1  10
ATOM     10  C   UNL     1      56.175  26.574 -34.788  1.00  0.00     0.000 C 
BRANCH  10  11
ATOM     11  C   UNL     1      56.923  27.913 -34.727  1.00  0.00    -0.000 C 
BRANCH  11  12
ATOM     12  C   UNL     1      56.389  28.792 -33.589  1.00  0.00    -0.000 C 
BRANCH  12  13
ATOM     13  C   UNL     1      56.004  27.939 -32.371  1.00  0.00    -0.000 C 
BRANCH  13  14
ATOM     14  C   UNL     1      56.678  28.420 -31.075  1.00  0.00    -0.000 C 
BRANCH  14  15
ATOM     15  C   UNL     1      55.984  29.647 -30.468  1.00  0.00    -0.003 C 
ATOM     16  C   UNL     1      56.261  29.749 -28.970  1.00  0.00     0.004 C 
ENDBRANCH  14  15
ENDBRANCH  13  14
ENDBRANCH  12  13
ENDBRANCH  11  12
ENDBRANCH  10  11
ENDBRANCH   1  10
TORSDOF 12
ENDMDL
MODEL 5
REMARK VINA RESULT:    -3.198      2.537      5.756
REMARK INTER + INTRA:          -6.732
REMARK INTER:                  -5.735
REMARK INTRA:                  -0.997
REMARK UNBOUND:                -1.290
REMARK SMILES CCCCCCCCCCCCCC(=O)[O-]
REMARK SMILES IDX 8 1 9 2 10 3 11 4 12 5 13 6 14 7 15 8 16 9 7 10 6 11 5 12
REMARK SMILES IDX 4 13 3 14 2 15 1 16
REMARK H PARENT
REMARK Flexibility Score: inf
ROOT
ATOM      1  C   UNL     1      56.069  29.065 -35.210  1.00  0.00     0.000 C 
ENDROOT
BRANCH   1   2
ATOM      2  C   UNL     1      56.746  27.684 -35.266  1.00  0.00     0.000 C 
BRANCH   2   3
ATOM      3  C   UNL     1      57.039  27.115 -33.868  1.00  0.00     0.000 C 
BRANCH   3   4
ATOM      4  C   UNL     1      57.125  28.211 -32.792  1.00  0.00     0.000 C 
BRANCH   4   5
ATOM      5  C   UNL     1      56.013  28.093 -31.737  1.00  0.00     0.006 C 
BRANCH   5   6
ATOM      6  C   UNL     1      56.200  29.072 -30.571  1.00  0.00     0.053 C 
BRANCH   6   7
ATOM      7  C   UNL     1      55.871  30.466 -31.002  1.00  0.00     0.041 C 
ATOM      8  O   UNL     1      54.909  30.675 -31.787  1.00  0.00    -0.550 OA
ATOM      9  O   UNL     1      56.593  31.539 -30.496  1.00  0.00    -0.550 OA
ENDBRANCH   6   7
ENDBRANCH   5   6
ENDBRANCH   4   5
ENDBRANCH   3   4
ENDBRANCH   2   3
ENDBRANCH   1   2
BRANCH   1  10
ATOM     10  C   UNL     1      57.061  30.218 -35.432  1.00  0.00     0.000 C 
BRANCH  10  11
ATOM     11  C   UNL     1      56.387  31.596 -35.381  1.00  0.00    -0.000 C 
BRANCH  11  12
ATOM     12  C   UNL     1      54.948  31.524 -35.910  1.00  0.00    -0.000 C 
BRANCH  12  13
ATOM     13  C   UNL     1      54.906  31.774 -37.424  1.00  0.00    -0.000 C 
BRANCH  13  14
ATOM     14  C   UNL     1      54.210  30.639 -38.192  1.00  0.00    -0.000 C 
BRANCH  14  15
ATOM     15  C   UNL     1      55.174  29.511 -38.583  1.00  0.00    -0.003 C 
ATOM     16  C   UNL     1      54.440  28.178 -38.705  1.00  0.00     0.004 C 
ENDBRANCH  14  15
ENDBRANCH  13  14
ENDBRANCH  12  13
ENDBRANCH  11  12
ENDBRANCH  10  11
ENDBRANCH   1  10
TORSDOF 12
ENDMDL
MODEL 6
REMARK VINA RESULT:    -3.117     21.437     22.924
REMARK INTER + INTRA:          -6.594
REMARK INTER:                  -5.962
REMARK INTRA:                  -0.631
REMARK UNBOUND:                -1.290
REMARK SMILES CCCCCCCCCCCCCC(=O)[O-]
REMARK SMILES IDX 8 1 9 2 10 3 11 4 12 5 13 6 14 7 15 8 16 9 7 10 6 11 5 12
REMARK SMILES IDX 4 13 3 14 2 15 1 16
REMARK H PARENT
REMARK Flexibility Score: inf
ROOT
ATOM      1  C   UNL     1      41.646  11.964 -35.747  1.00  0.00     0.000 C 
ENDROOT
BRANCH   1   2
ATOM      2  C   UNL     1      42.978  12.621 -36.153  1.00  0.00     0.000 C 
BRANCH   2   3
ATOM      3  C   UNL     1      44.148  12.182 -35.257  1.00  0.00     0.000 C 
BRANCH   3   4
ATOM      4  C   UNL     1      43.923  12.536 -33.777  1.00  0.00     0.000 C 
BRANCH   4   5
ATOM      5  C   UNL     1      45.214  12.986 -33.075  1.00  0.00     0.006 C 
BRANCH   5   6
ATOM      6  C   UNL     1      45.699  11.974 -32.029  1.00  0.00     0.053 C 
BRANCH   6   7
ATOM      7  C   UNL     1      45.910  12.647 -30.710  1.00  0.00     0.041 C 
ATOM      8  O   UNL     1      45.573  13.850 -30.552  1.00  0.00    -0.550 OA
ATOM      9  O   UNL     1      46.433  11.932 -29.640  1.00  0.00    -0.550 OA
ENDBRANCH   6   7
ENDBRANCH   5   6
ENDBRANCH   4   5
ENDBRANCH   3   4
ENDBRANCH   2   3
ENDBRANCH   1   2
BRANCH   1  10
ATOM     10  C   UNL     1      40.424  12.751 -36.247  1.00  0.00     0.000 C 
BRANCH  10  11
ATOM     11  C   UNL     1      39.169  11.876 -36.370  1.00  0.00    -0.000 C 
BRANCH  11  12
ATOM     12  C   UNL     1      38.112  12.552 -37.253  1.00  0.00    -0.000 C 
BRANCH  12  13
ATOM     13  C   UNL     1      36.902  12.998 -36.418  1.00  0.00    -0.000 C 
BRANCH  13  14
ATOM     14  C   UNL     1      37.031  12.612 -34.936  1.00  0.00    -0.000 C 
BRANCH  14  15
ATOM     15  C   UNL     1      37.194  13.833 -34.020  1.00  0.00    -0.003 C 
ATOM     16  C   UNL     1      37.809  15.009 -34.775  1.00  0.00     0.004 C 
ENDBRANCH  14  15
ENDBRANCH  13  14
ENDBRANCH  12  13
ENDBRANCH  11  12
ENDBRANCH  10  11
ENDBRANCH   1  10
TORSDOF 12
ENDMDL
MODEL 7
REMARK VINA RESULT:    -3.051      2.580      4.553
REMARK INTER + INTRA:          -6.482
REMARK INTER:                  -5.286
REMARK INTRA:                  -1.197
REMARK UNBOUND:                -1.290
REMARK SMILES CCCCCCCCCCCCCC(=O)[O-]
REMARK SMILES IDX 8 1 9 2 10 3 11 4 12 5 13 6 14 7 15 8 16 9 7 10 6 11 5 12
REMARK SMILES IDX 4 13 3 14 2 15 1 16
REMARK H PARENT
REMARK Flexibility Score: inf
ROOT
ATOM      1  C   UNL     1      54.414  32.125 -36.416  1.00  0.00     0.000 C 
ENDROOT
BRANCH   1   2
ATOM      2  C   UNL     1      53.850  31.278 -37.571  1.00  0.00     0.000 C 
BRANCH   2   3
ATOM      3  C   UNL     1      54.917  30.379 -38.217  1.00  0.00     0.000 C 
BRANCH   3   4
ATOM      4  C   UNL     1      54.950  28.968 -37.603  1.00  0.00     0.000 C 
BRANCH   4   5
ATOM      5  C   UNL     1      56.162  28.752 -36.683  1.00  0.00     0.006 C 
BRANCH   5   6
ATOM      6  C   UNL     1      55.763  28.232 -35.296  1.00  0.00     0.053 C 
BRANCH   6   7
ATOM      7  C   UNL     1      56.009  26.760 -35.199  1.00  0.00     0.041 C 
ATOM      8  O   UNL     1      55.235  25.950 -35.774  1.00  0.00    -0.550 OA
ATOM      9  O   UNL     1      57.121  26.284 -34.517  1.00  0.00    -0.550 OA
ENDBRANCH   6   7
ENDBRANCH   5   6
ENDBRANCH   4   5
ENDBRANCH   3   4
ENDBRANCH   2   3
ENDBRANCH   1   2
BRANCH   1  10
ATOM     10  C   UNL     1      55.948  32.083 -36.348  1.00  0.00     0.000 C 
BRANCH  10  11
ATOM     11  C   UNL     1      56.477  32.125 -34.908  1.00  0.00    -0.000 C 
BRANCH  11  12
ATOM     12  C   UNL     1      55.497  31.449 -33.941  1.00  0.00    -0.000 C 
BRANCH  12  13
ATOM     13  C   UNL     1      55.674  31.985 -32.513  1.00  0.00    -0.000 C 
BRANCH  13  14
ATOM     14  C   UNL     1      56.305  30.952 -31.566  1.00  0.00    -0.000 C 
BRANCH  14  15
ATOM     15  C   UNL     1      55.391  29.746 -31.313  1.00  0.00    -0.003 C 
ATOM     16  C   UNL     1      56.068  28.445 -31.738  1.00  0.00     0.004 C 
ENDBRANCH  14  15
ENDBRANCH  13  14
ENDBRANCH  12  13
ENDBRANCH  11  12
ENDBRANCH  10  11
ENDBRANCH   1  10
TORSDOF 12
ENDMDL
MODEL 8
REMARK VINA RESULT:    -2.597      1.827      5.430
REMARK INTER + INTRA:          -5.709
REMARK INTER:                  -5.175
REMARK INTRA:                  -0.534
REMARK UNBOUND:                -1.290
REMARK SMILES CCCCCCCCCCCCCC(=O)[O-]
REMARK SMILES IDX 8 1 9 2 10 3 11 4 12 5 13 6 14 7 15 8 16 9 7 10 6 11 5 12
REMARK SMILES IDX 4 13 3 14 2 15 1 16
REMARK H PARENT
REMARK Flexibility Score: inf
ROOT
ATOM      1  C   UNL     1      55.965  28.399 -34.580  1.00  0.00     0.000 C 
ENDROOT
BRANCH   1   2
ATOM      2  C   UNL     1      56.385  27.392 -33.495  1.00  0.00     0.000 C 
BRANCH   2   3
ATOM      3  C   UNL     1      56.542  28.047 -32.113  1.00  0.00     0.000 C 
BRANCH   3   4
ATOM      4  C   UNL     1      56.522  29.584 -32.184  1.00  0.00     0.000 C 
BRANCH   4   5
ATOM      5  C   UNL     1      55.533  30.208 -31.187  1.00  0.00     0.006 C 
BRANCH   5   6
ATOM      6  C   UNL     1      55.341  31.714 -31.413  1.00  0.00     0.053 C 
BRANCH   6   7
ATOM      7  C   UNL     1      54.442  31.956 -32.583  1.00  0.00     0.041 C 
ATOM      8  O   UNL     1      54.919  32.014 -33.747  1.00  0.00    -0.550 OA
ATOM      9  O   UNL     1      53.070  32.067 -32.395  1.00  0.00    -0.550 OA
ENDBRANCH   6   7
ENDBRANCH   5   6
ENDBRANCH   4   5
ENDBRANCH   3   4
ENDBRANCH   2   3
ENDBRANCH   1   2
BRANCH   1  10
ATOM     10  C   UNL     1      56.980  28.484 -35.730  1.00  0.00     0.000 C 
BRANCH  10  11
ATOM     11  C   UNL     1      56.615  29.562 -36.761  1.00  0.00    -0.000 C 
BRANCH  11  12
ATOM     12  C   UNL     1      55.223  29.308 -37.353  1.00  0.00    -0.000 C 
BRANCH  12  13
ATOM     13  C   UNL     1      55.185  29.671 -38.845  1.00  0.00    -0.000 C 
BRANCH  13  14
ATOM     14  C   UNL     1      54.803  31.140 -39.087  1.00  0.00    -0.000 C 
BRANCH  14  15
ATOM     15  C   UNL     1      54.504  31.896 -37.786  1.00  0.00    -0.003 C 
ATOM     16  C   UNL     1      53.003  32.116 -37.610  1.00  0.00     0.004 C 
ENDBRANCH  14  15
ENDBRANCH  13  14
ENDBRANCH  12  13
ENDBRANCH  11  12
ENDBRANCH  10  11
ENDBRANCH   1  10
TORSDOF 12
ENDMDL
