MODEL 1
REMARK VINA RESULT:    -7.270      0.000      0.000
REMARK INTER + INTRA:          -9.280
REMARK INTER:                  -8.970
REMARK INTRA:                  -0.310
REMARK UNBOUND:                -0.310
REMARK SMILES Oc1cc(O)c2cc(O)c(-c3cc(O)c(O)c(O)c3)[o+]c2c1
REMARK SMILES IDX 10 1 20 2 21 3 22 4 2 5 3 6 4 7 6 8 7 9 8 10 11 11 12 12
REMARK SMILES IDX 13 13 19 14 15 15 17 16 14 17 16 19 18 21 9 23 1 25 5 27
REMARK H PARENT 14 18 16 20 18 22 9 24 1 26 5 28
REMARK Flexibility Score: inf
ROOT
ATOM      1  C   UNL     1      49.326  11.805   7.976  1.00  0.00     0.402 A 
ATOM      2  O   UNL     1      49.220  11.484   6.689  1.00  0.00    -0.202 OA
ATOM      3  C   UNL     1      50.164  11.745   5.791  1.00  0.00     0.368 A 
ATOM      4  C   UNL     1      49.963  11.366   4.462  1.00  0.00     0.162 A 
ATOM      5  C   UNL     1      50.938  11.625   3.499  1.00  0.00     0.128 A 
ATOM      6  C   UNL     1      52.126  12.267   3.866  1.00  0.00     0.093 A 
ATOM      7  C   UNL     1      52.353  12.658   5.191  1.00  0.00     0.136 A 
ATOM      8  C   UNL     1      51.361  12.398   6.173  1.00  0.00     0.125 A 
ATOM      9  C   UNL     1      51.497  12.765   7.522  1.00  0.00     0.078 A 
ATOM     10  C   UNL     1      50.474  12.480   8.432  1.00  0.00     0.223 A 
ENDROOT
BRANCH   1  11
ATOM     11  C   UNL     1      48.208  11.451   8.881  1.00  0.00     0.091 A 
ATOM     12  C   UNL     1      47.001  12.170   8.868  1.00  0.00     0.068 A 
ATOM     13  C   UNL     1      45.963  11.833   9.748  1.00  0.00     0.162 A 
ATOM     14  C   UNL     1      48.375  10.412   9.810  1.00  0.00     0.068 A 
ATOM     15  C   UNL     1      46.128  10.781  10.657  1.00  0.00     0.200 A 
ATOM     16  C   UNL     1      47.340  10.070  10.690  1.00  0.00     0.162 A 
BRANCH  13  17
ATOM     17  O   UNL     1      44.765  12.545   9.728  1.00  0.00    -0.504 OA
ATOM     18  H   UNL     1      43.977  12.274  10.306  1.00  0.00     0.293 HD
ENDBRANCH  13  17
BRANCH  15  19
ATOM     19  O   UNL     1      45.083  10.457  11.522  1.00  0.00    -0.502 OA
ATOM     20  H   UNL     1      44.133  10.335  11.198  1.00  0.00     0.293 HD
ENDBRANCH  15  19
BRANCH  16  21
ATOM     21  O   UNL     1      47.512   9.027  11.599  1.00  0.00    -0.504 OA
ATOM     22  H   UNL     1      47.795   9.199  12.557  1.00  0.00     0.293 HD
ENDBRANCH  16  21
ENDBRANCH   1  11
BRANCH  10  23
ATOM     23  O   UNL     1      50.586  12.888   9.761  1.00  0.00    -0.500 OA
ATOM     24  H   UNL     1      51.358  13.463  10.079  1.00  0.00     0.294 HD
ENDBRANCH  10  23
BRANCH   5  25
ATOM     25  O   UNL     1      50.718  11.239   2.178  1.00  0.00    -0.507 OA
ATOM     26  H   UNL     1      50.296  10.345   1.950  1.00  0.00     0.293 HD
ENDBRANCH   5  25
BRANCH   7  27
ATOM     27  O   UNL     1      53.566  13.290   5.477  1.00  0.00    -0.507 OA
ATOM     28  H   UNL     1      54.420  13.146   4.958  1.00  0.00     0.293 HD
ENDBRANCH   7  27
TORSDOF 7
ENDMDL
MODEL 2
REMARK VINA RESULT:    -7.235      0.106      1.791
REMARK INTER + INTRA:          -9.237
REMARK INTER:                  -8.879
REMARK INTRA:                  -0.358
REMARK UNBOUND:                -0.310
REMARK SMILES Oc1cc(O)c2cc(O)c(-c3cc(O)c(O)c(O)c3)[o+]c2c1
REMARK SMILES IDX 10 1 20 2 21 3 22 4 2 5 3 6 4 7 6 8 7 9 8 10 11 11 12 12
REMARK SMILES IDX 13 13 19 14 15 15 17 16 14 17 16 19 18 21 9 23 1 25 5 27
REMARK H PARENT 14 18 16 20 18 22 9 24 1 26 5 28
REMARK Flexibility Score: inf
ROOT
ATOM      1  C   UNL     1      49.346  11.815   8.022  1.00  0.00     0.402 A 
ATOM      2  O   UNL     1      49.204  11.455   6.749  1.00  0.00    -0.202 OA
ATOM      3  C   UNL     1      50.114  11.707   5.814  1.00  0.00     0.368 A 
ATOM      4  C   UNL     1      49.876  11.287   4.503  1.00  0.00     0.162 A 
ATOM      5  C   UNL     1      50.814  11.535   3.501  1.00  0.00     0.128 A 
ATOM      6  C   UNL     1      52.002  12.207   3.811  1.00  0.00     0.093 A 
ATOM      7  C   UNL     1      52.265  12.638   5.116  1.00  0.00     0.136 A 
ATOM      8  C   UNL     1      51.311  12.391   6.137  1.00  0.00     0.125 A 
ATOM      9  C   UNL     1      51.483  12.797   7.470  1.00  0.00     0.078 A 
ATOM     10  C   UNL     1      50.497  12.521   8.421  1.00  0.00     0.223 A 
ENDROOT
BRANCH   1  11
ATOM     11  C   UNL     1      48.265  11.468   8.973  1.00  0.00     0.091 A 
ATOM     12  C   UNL     1      48.394  10.390   9.865  1.00  0.00     0.068 A 
ATOM     13  C   UNL     1      47.349  10.064  10.742  1.00  0.00     0.162 A 
ATOM     14  C   UNL     1      47.063  12.193   8.947  1.00  0.00     0.068 A 
ATOM     15  C   UNL     1      46.162  10.806  10.726  1.00  0.00     0.200 A 
ATOM     16  C   UNL     1      46.017  11.873   9.822  1.00  0.00     0.162 A 
BRANCH  13  17
ATOM     17  O   UNL     1      47.483   8.998  11.630  1.00  0.00    -0.504 OA
ATOM     18  H   UNL     1      48.317   8.878  12.193  1.00  0.00     0.293 HD
ENDBRANCH  13  17
BRANCH  15  19
ATOM     19  O   UNL     1      45.135  10.470  11.608  1.00  0.00    -0.502 OA
ATOM     20  H   UNL     1      44.159  10.597  11.372  1.00  0.00     0.293 HD
ENDBRANCH  15  19
BRANCH  16  21
ATOM     21  O   UNL     1      44.834  12.609   9.796  1.00  0.00    -0.504 OA
ATOM     22  H   UNL     1      44.707  13.432  10.373  1.00  0.00     0.293 HD
ENDBRANCH  16  21
ENDBRANCH   1  11
BRANCH  10  23
ATOM     23  O   UNL     1      50.645  12.968   9.734  1.00  0.00    -0.500 OA
ATOM     24  H   UNL     1      51.406  12.650  10.323  1.00  0.00     0.294 HD
ENDBRANCH  10  23
BRANCH   5  25
ATOM     25  O   UNL     1      50.558  11.108   2.200  1.00  0.00    -0.507 OA
ATOM     26  H   UNL     1      49.612  11.023   1.846  1.00  0.00     0.293 HD
ENDBRANCH   5  25
BRANCH   7  27
ATOM     27  O   UNL     1      53.476  13.299   5.344  1.00  0.00    -0.507 OA
ATOM     28  H   UNL     1      54.075  13.659   4.615  1.00  0.00     0.293 HD
ENDBRANCH   7  27
TORSDOF 7
ENDMDL
MODEL 3
REMARK VINA RESULT:    -6.935      0.995      2.538
REMARK INTER + INTRA:          -8.867
REMARK INTER:                  -8.484
REMARK INTRA:                  -0.382
REMARK UNBOUND:                -0.310
REMARK SMILES Oc1cc(O)c2cc(O)c(-c3cc(O)c(O)c(O)c3)[o+]c2c1
REMARK SMILES IDX 10 1 20 2 21 3 22 4 2 5 3 6 4 7 6 8 7 9 8 10 11 11 12 12
REMARK SMILES IDX 13 13 19 14 15 15 17 16 14 17 16 19 18 21 9 23 1 25 5 27
REMARK H PARENT 14 18 16 20 18 22 9 24 1 26 5 28
REMARK Flexibility Score: inf
ROOT
ATOM      1  C   UNL     1      48.819  11.232   7.262  1.00  0.00     0.402 A 
ATOM      2  O   UNL     1      49.872  12.032   7.402  1.00  0.00    -0.202 OA
ATOM      3  C   UNL     1      50.759  12.247   6.435  1.00  0.00     0.368 A 
ATOM      4  C   UNL     1      51.833  13.108   6.677  1.00  0.00     0.162 A 
ATOM      5  C   UNL     1      52.777  13.355   5.680  1.00  0.00     0.128 A 
ATOM      6  C   UNL     1      52.648  12.739   4.430  1.00  0.00     0.093 A 
ATOM      7  C   UNL     1      51.581  11.872   4.163  1.00  0.00     0.136 A 
ATOM      8  C   UNL     1      50.621  11.616   5.176  1.00  0.00     0.125 A 
ATOM      9  C   UNL     1      49.527  10.753   5.002  1.00  0.00     0.078 A 
ATOM     10  C   UNL     1      48.623  10.546   6.048  1.00  0.00     0.223 A 
ENDROOT
BRANCH   1  11
ATOM     11  C   UNL     1      47.896  11.081   8.410  1.00  0.00     0.091 A 
ATOM     12  C   UNL     1      46.743  11.875   8.531  1.00  0.00     0.068 A 
ATOM     13  C   UNL     1      45.895  11.733   9.638  1.00  0.00     0.162 A 
ATOM     14  C   UNL     1      48.206  10.167   9.429  1.00  0.00     0.068 A 
ATOM     15  C   UNL     1      46.198  10.803  10.639  1.00  0.00     0.200 A 
ATOM     16  C   UNL     1      47.360  10.018  10.536  1.00  0.00     0.162 A 
BRANCH  13  17
ATOM     17  O   UNL     1      44.748  12.518   9.752  1.00  0.00    -0.504 OA
ATOM     18  H   UNL     1      44.761  13.409  10.235  1.00  0.00     0.293 HD
ENDBRANCH  13  17
BRANCH  15  19
ATOM     19  O   UNL     1      45.340  10.672  11.731  1.00  0.00    -0.502 OA
ATOM     20  H   UNL     1      44.934   9.782  11.994  1.00  0.00     0.293 HD
ENDBRANCH  15  19
BRANCH  16  21
ATOM     21  O   UNL     1      47.670   9.097  11.535  1.00  0.00    -0.504 OA
ATOM     22  H   UNL     1      48.629   8.914  11.810  1.00  0.00     0.293 HD
ENDBRANCH  16  21
ENDBRANCH   1  11
BRANCH  10  23
ATOM     23  O   UNL     1      47.564   9.651   5.893  1.00  0.00    -0.500 OA
ATOM     24  H   UNL     1      47.007   9.343   6.681  1.00  0.00     0.294 HD
ENDBRANCH  10  23
BRANCH   5  25
ATOM     25  O   UNL     1      53.840  14.217   5.940  1.00  0.00    -0.507 OA
ATOM     26  H   UNL     1      54.552  13.989   6.626  1.00  0.00     0.293 HD
ENDBRANCH   5  25
BRANCH   7  27
ATOM     27  O   UNL     1      51.521  11.299   2.889  1.00  0.00    -0.507 OA
ATOM     28  H   UNL     1      51.986  10.441   2.628  1.00  0.00     0.293 HD
ENDBRANCH   7  27
TORSDOF 7
ENDMDL
MODEL 4
REMARK VINA RESULT:    -6.921      1.444      7.306
REMARK INTER + INTRA:          -8.849
REMARK INTER:                  -8.501
REMARK INTRA:                  -0.348
REMARK UNBOUND:                -0.310
REMARK SMILES Oc1cc(O)c2cc(O)c(-c3cc(O)c(O)c(O)c3)[o+]c2c1
REMARK SMILES IDX 10 1 20 2 21 3 22 4 2 5 3 6 4 7 6 8 7 9 8 10 11 11 12 12
REMARK SMILES IDX 13 13 19 14 15 15 17 16 14 17 16 19 18 21 9 23 1 25 5 27
REMARK H PARENT 14 18 16 20 18 22 9 24 1 26 5 28
REMARK Flexibility Score: inf
ROOT
ATOM      1  C   UNL     1      49.482  12.017   7.666  1.00  0.00     0.402 A 
ATOM      2  O   UNL     1      48.780  13.034   8.157  1.00  0.00    -0.202 OA
ATOM      3  C   UNL     1      47.856  12.896   9.102  1.00  0.00     0.368 A 
ATOM      4  C   UNL     1      47.172  14.026   9.556  1.00  0.00     0.162 A 
ATOM      5  C   UNL     1      46.199  13.911  10.549  1.00  0.00     0.128 A 
ATOM      6  C   UNL     1      45.907  12.655  11.095  1.00  0.00     0.093 A 
ATOM      7  C   UNL     1      46.578  11.507  10.657  1.00  0.00     0.136 A 
ATOM      8  C   UNL     1      47.566  11.621   9.645  1.00  0.00     0.125 A 
ATOM      9  C   UNL     1      48.279  10.523   9.136  1.00  0.00     0.078 A 
ATOM     10  C   UNL     1      49.237  10.712   8.135  1.00  0.00     0.223 A 
ENDROOT
BRANCH   1  11
ATOM     11  C   UNL     1      50.492  12.302   6.621  1.00  0.00     0.091 A 
ATOM     12  C   UNL     1      51.755  12.824   6.947  1.00  0.00     0.068 A 
ATOM     13  C   UNL     1      52.689  13.108   5.941  1.00  0.00     0.162 A 
ATOM     14  C   UNL     1      50.165  12.100   5.271  1.00  0.00     0.068 A 
ATOM     15  C   UNL     1      52.363  12.883   4.598  1.00  0.00     0.200 A 
ATOM     16  C   UNL     1      51.095  12.380   4.261  1.00  0.00     0.162 A 
BRANCH  13  17
ATOM     17  O   UNL     1      53.943  13.621   6.269  1.00  0.00    -0.504 OA
ATOM     18  H   UNL     1      54.797  13.144   6.005  1.00  0.00     0.293 HD
ENDBRANCH  13  17
BRANCH  15  19
ATOM     19  O   UNL     1      53.307  13.168   3.611  1.00  0.00    -0.502 OA
ATOM     20  H   UNL     1      53.849  12.443   3.159  1.00  0.00     0.293 HD
ENDBRANCH  15  19
BRANCH  16  21
ATOM     21  O   UNL     1      50.764  12.162   2.925  1.00  0.00    -0.504 OA
ATOM     22  H   UNL     1      51.475  12.065   2.210  1.00  0.00     0.293 HD
ENDBRANCH  16  21
ENDBRANCH   1  11
BRANCH  10  23
ATOM     23  O   UNL     1      49.910   9.617   7.594  1.00  0.00    -0.500 OA
ATOM     24  H   UNL     1      50.055   8.766   8.124  1.00  0.00     0.294 HD
ENDBRANCH  10  23
BRANCH   5  25
ATOM     25  O   UNL     1      45.529  15.050  10.988  1.00  0.00    -0.507 OA
ATOM     26  H   UNL     1      44.519  15.124  10.936  1.00  0.00     0.293 HD
ENDBRANCH   5  25
BRANCH   7  27
ATOM     27  O   UNL     1      46.231  10.292  11.255  1.00  0.00    -0.507 OA
ATOM     28  H   UNL     1      45.452   9.717  10.967  1.00  0.00     0.293 HD
ENDBRANCH   7  27
TORSDOF 7
ENDMDL
MODEL 5
REMARK VINA RESULT:    -6.918      0.994      3.096
REMARK INTER + INTRA:          -8.845
REMARK INTER:                  -8.473
REMARK INTRA:                  -0.372
REMARK UNBOUND:                -0.310
REMARK SMILES Oc1cc(O)c2cc(O)c(-c3cc(O)c(O)c(O)c3)[o+]c2c1
REMARK SMILES IDX 10 1 20 2 21 3 22 4 2 5 3 6 4 7 6 8 7 9 8 10 11 11 12 12
REMARK SMILES IDX 13 13 19 14 15 15 17 16 14 17 16 19 18 21 9 23 1 25 5 27
REMARK H PARENT 14 18 16 20 18 22 9 24 1 26 5 28
REMARK Flexibility Score: inf
ROOT
ATOM      1  C   UNL     1      48.832  11.241   7.283  1.00  0.00     0.402 A 
ATOM      2  O   UNL     1      49.876  12.057   7.399  1.00  0.00    -0.202 OA
ATOM      3  C   UNL     1      50.746  12.275   6.418  1.00  0.00     0.368 A 
ATOM      4  C   UNL     1      51.811  13.153   6.634  1.00  0.00     0.162 A 
ATOM      5  C   UNL     1      52.737  13.402   5.622  1.00  0.00     0.128 A 
ATOM      6  C   UNL     1      52.599  12.770   4.381  1.00  0.00     0.093 A 
ATOM      7  C   UNL     1      51.541  11.885   4.138  1.00  0.00     0.136 A 
ATOM      8  C   UNL     1      50.599  11.627   5.167  1.00  0.00     0.125 A 
ATOM      9  C   UNL     1      49.515  10.747   5.018  1.00  0.00     0.078 A 
ATOM     10  C   UNL     1      48.628  10.539   6.079  1.00  0.00     0.223 A 
ENDROOT
BRANCH   1  11
ATOM     11  C   UNL     1      47.928  11.090   8.446  1.00  0.00     0.091 A 
ATOM     12  C   UNL     1      48.199  10.165   9.467  1.00  0.00     0.068 A 
ATOM     13  C   UNL     1      47.318  10.021  10.549  1.00  0.00     0.162 A 
ATOM     14  C   UNL     1      46.747  11.846   8.505  1.00  0.00     0.068 A 
ATOM     15  C   UNL     1      46.153  10.795  10.612  1.00  0.00     0.200 A 
ATOM     16  C   UNL     1      45.864  11.709   9.584  1.00  0.00     0.162 A 
BRANCH  13  17
ATOM     17  O   UNL     1      47.593   9.106  11.564  1.00  0.00    -0.504 OA
ATOM     18  H   UNL     1      47.747   9.404  12.520  1.00  0.00     0.293 HD
ENDBRANCH  13  17
BRANCH  15  19
ATOM     19  O   UNL     1      45.291  10.641  11.698  1.00  0.00    -0.502 OA
ATOM     20  H   UNL     1      44.967  11.429  12.244  1.00  0.00     0.293 HD
ENDBRANCH  15  19
BRANCH  16  21
ATOM     21  O   UNL     1      44.701  12.475   9.639  1.00  0.00    -0.504 OA
ATOM     22  H   UNL     1      44.065  12.420  10.427  1.00  0.00     0.293 HD
ENDBRANCH  16  21
ENDBRANCH   1  11
BRANCH  10  23
ATOM     23  O   UNL     1      47.581   9.628   5.949  1.00  0.00    -0.500 OA
ATOM     24  H   UNL     1      47.201   9.379   5.043  1.00  0.00     0.294 HD
ENDBRANCH  10  23
BRANCH   5  25
ATOM     25  O   UNL     1      53.792  14.281   5.858  1.00  0.00    -0.507 OA
ATOM     26  H   UNL     1      53.629  15.254   6.091  1.00  0.00     0.293 HD
ENDBRANCH   5  25
BRANCH   7  27
ATOM     27  O   UNL     1      51.471  11.298   2.871  1.00  0.00    -0.507 OA
ATOM     28  H   UNL     1      50.680  10.772   2.530  1.00  0.00     0.293 HD
ENDBRANCH   7  27
TORSDOF 7
ENDMDL
MODEL 6
REMARK VINA RESULT:    -6.879      1.433      7.214
REMARK INTER + INTRA:          -8.798
REMARK INTER:                  -8.439
REMARK INTRA:                  -0.359
REMARK UNBOUND:                -0.310
REMARK SMILES Oc1cc(O)c2cc(O)c(-c3cc(O)c(O)c(O)c3)[o+]c2c1
REMARK SMILES IDX 10 1 20 2 21 3 22 4 2 5 3 6 4 7 6 8 7 9 8 10 11 11 12 12
REMARK SMILES IDX 13 13 19 14 15 15 17 16 14 17 16 19 18 21 9 23 1 25 5 27
REMARK H PARENT 14 18 16 20 18 22 9 24 1 26 5 28
REMARK Flexibility Score: inf
ROOT
ATOM      1  C   UNL     1      49.513  12.075   7.583  1.00  0.00     0.402 A 
ATOM      2  O   UNL     1      48.786  13.079   8.065  1.00  0.00    -0.202 OA
ATOM      3  C   UNL     1      47.866  12.926   9.013  1.00  0.00     0.368 A 
ATOM      4  C   UNL     1      47.154  14.043   9.457  1.00  0.00     0.162 A 
ATOM      5  C   UNL     1      46.186  13.912  10.452  1.00  0.00     0.128 A 
ATOM      6  C   UNL     1      45.926  12.655  11.010  1.00  0.00     0.093 A 
ATOM      7  C   UNL     1      46.626  11.520  10.583  1.00  0.00     0.136 A 
ATOM      8  C   UNL     1      47.609  11.649   9.568  1.00  0.00     0.125 A 
ATOM      9  C   UNL     1      48.350  10.566   9.069  1.00  0.00     0.078 A 
ATOM     10  C   UNL     1      49.301  10.769   8.065  1.00  0.00     0.223 A 
ENDROOT
BRANCH   1  11
ATOM     11  C   UNL     1      50.514  12.376   6.534  1.00  0.00     0.091 A 
ATOM     12  C   UNL     1      50.232  12.170   5.173  1.00  0.00     0.068 A 
ATOM     13  C   UNL     1      51.202  12.440   4.197  1.00  0.00     0.162 A 
ATOM     14  C   UNL     1      51.792  12.823   6.907  1.00  0.00     0.068 A 
ATOM     15  C   UNL     1      52.466  12.907   4.575  1.00  0.00     0.200 A 
ATOM     16  C   UNL     1      52.764  13.096   5.936  1.00  0.00     0.162 A 
BRANCH  13  17
ATOM     17  O   UNL     1      50.916  12.240   2.847  1.00  0.00    -0.504 OA
ATOM     18  H   UNL     1      49.996  11.946   2.537  1.00  0.00     0.293 HD
ENDBRANCH  13  17
BRANCH  15  19
ATOM     19  O   UNL     1      53.417  13.174   3.590  1.00  0.00    -0.502 OA
ATOM     20  H   UNL     1      54.251  12.611   3.479  1.00  0.00     0.293 HD
ENDBRANCH  15  19
BRANCH  16  21
ATOM     21  O   UNL     1      54.024  13.553   6.316  1.00  0.00    -0.504 OA
ATOM     22  H   UNL     1      54.264  13.700   7.290  1.00  0.00     0.293 HD
ENDBRANCH  16  21
ENDBRANCH   1  11
BRANCH  10  23
ATOM     23  O   UNL     1      50.002   9.686   7.533  1.00  0.00    -0.500 OA
ATOM     24  H   UNL     1      50.347   8.935   8.120  1.00  0.00     0.294 HD
ENDBRANCH  10  23
BRANCH   5  25
ATOM     25  O   UNL     1      45.487  15.038  10.882  1.00  0.00    -0.507 OA
ATOM     26  H   UNL     1      45.574  15.929  10.406  1.00  0.00     0.293 HD
ENDBRANCH   5  25
BRANCH   7  27
ATOM     27  O   UNL     1      46.310  10.302  11.193  1.00  0.00    -0.507 OA
ATOM     28  H   UNL     1      46.982   9.703  11.649  1.00  0.00     0.293 HD
ENDBRANCH   7  27
TORSDOF 7
ENDMDL
MODEL 7
REMARK VINA RESULT:    -6.704      1.555      7.223
REMARK INTER + INTRA:          -8.581
REMARK INTER:                  -8.216
REMARK INTRA:                  -0.366
REMARK UNBOUND:                -0.310
REMARK SMILES Oc1cc(O)c2cc(O)c(-c3cc(O)c(O)c(O)c3)[o+]c2c1
REMARK SMILES IDX 10 1 20 2 21 3 22 4 2 5 3 6 4 7 6 8 7 9 8 10 11 11 12 12
REMARK SMILES IDX 13 13 19 14 15 15 17 16 14 17 16 19 18 21 9 23 1 25 5 27
REMARK H PARENT 14 18 16 20 18 22 9 24 1 26 5 28
REMARK Flexibility Score: inf
ROOT
ATOM      1  C   UNL     1      49.376  10.883   6.483  1.00  0.00     0.402 A 
ATOM      2  O   UNL     1      48.349  11.563   6.986  1.00  0.00    -0.202 OA
ATOM      3  C   UNL     1      47.779  11.270   8.150  1.00  0.00     0.368 A 
ATOM      4  C   UNL     1      46.706  12.045   8.596  1.00  0.00     0.162 A 
ATOM      5  C   UNL     1      46.091  11.763   9.816  1.00  0.00     0.128 A 
ATOM      6  C   UNL     1      46.551  10.697  10.597  1.00  0.00     0.093 A 
ATOM      7  C   UNL     1      47.624   9.904  10.173  1.00  0.00     0.136 A 
ATOM      8  C   UNL     1      48.250  10.188   8.931  1.00  0.00     0.125 A 
ATOM      9  C   UNL     1      49.323   9.440   8.420  1.00  0.00     0.078 A 
ATOM     10  C   UNL     1      49.888   9.776   7.186  1.00  0.00     0.223 A 
ENDROOT
BRANCH   1  11
ATOM     11  C   UNL     1      49.931  11.314   5.179  1.00  0.00     0.091 A 
ATOM     12  C   UNL     1      49.540  10.698   3.978  1.00  0.00     0.068 A 
ATOM     13  C   UNL     1      50.094  11.106   2.757  1.00  0.00     0.162 A 
ATOM     14  C   UNL     1      50.909  12.320   5.144  1.00  0.00     0.068 A 
ATOM     15  C   UNL     1      51.052  12.125   2.727  1.00  0.00     0.200 A 
ATOM     16  C   UNL     1      51.464  12.733   3.926  1.00  0.00     0.162 A 
BRANCH  13  17
ATOM     17  O   UNL     1      49.699  10.496   1.566  1.00  0.00    -0.504 OA
ATOM     18  H   UNL     1      49.719  10.994   0.683  1.00  0.00     0.293 HD
ENDBRANCH  13  17
BRANCH  15  19
ATOM     19  O   UNL     1      51.590  12.521   1.502  1.00  0.00    -0.502 OA
ATOM     20  H   UNL     1      52.587  12.546   1.334  1.00  0.00     0.293 HD
ENDBRANCH  15  19
BRANCH  16  21
ATOM     21  O   UNL     1      52.425  13.743   3.901  1.00  0.00    -0.504 OA
ATOM     22  H   UNL     1      52.831  14.110   4.754  1.00  0.00     0.293 HD
ENDBRANCH  16  21
ENDBRANCH   1  11
BRANCH  10  23
ATOM     23  O   UNL     1      50.921   9.004   6.655  1.00  0.00    -0.500 OA
ATOM     24  H   UNL     1      50.972   8.003   6.810  1.00  0.00     0.294 HD
ENDBRANCH  10  23
BRANCH   5  25
ATOM     25  O   UNL     1      45.022  12.548  10.243  1.00  0.00    -0.507 OA
ATOM     26  H   UNL     1      44.620  12.439  11.168  1.00  0.00     0.293 HD
ENDBRANCH   5  25
BRANCH   7  27
ATOM     27  O   UNL     1      48.026   8.862  11.013  1.00  0.00    -0.507 OA
ATOM     28  H   UNL     1      47.756   7.896  10.891  1.00  0.00     0.293 HD
ENDBRANCH   7  27
TORSDOF 7
ENDMDL
MODEL 8
REMARK VINA RESULT:    -6.678      1.519      7.212
REMARK INTER + INTRA:          -8.549
REMARK INTER:                  -8.179
REMARK INTRA:                  -0.370
REMARK UNBOUND:                -0.310
REMARK SMILES Oc1cc(O)c2cc(O)c(-c3cc(O)c(O)c(O)c3)[o+]c2c1
REMARK SMILES IDX 10 1 20 2 21 3 22 4 2 5 3 6 4 7 6 8 7 9 8 10 11 11 12 12
REMARK SMILES IDX 13 13 19 14 15 15 17 16 14 17 16 19 18 21 9 23 1 25 5 27
REMARK H PARENT 14 18 16 20 18 22 9 24 1 26 5 28
REMARK Flexibility Score: inf
ROOT
ATOM      1  C   UNL     1      49.387  10.910   6.590  1.00  0.00     0.402 A 
ATOM      2  O   UNL     1      48.368  11.621   7.066  1.00  0.00    -0.202 OA
ATOM      3  C   UNL     1      47.762  11.349   8.217  1.00  0.00     0.368 A 
ATOM      4  C   UNL     1      46.700  12.155   8.634  1.00  0.00     0.162 A 
ATOM      5  C   UNL     1      46.048  11.895   9.839  1.00  0.00     0.128 A 
ATOM      6  C   UNL     1      46.459  10.821  10.636  1.00  0.00     0.093 A 
ATOM      7  C   UNL     1      47.520   9.997  10.241  1.00  0.00     0.136 A 
ATOM      8  C   UNL     1      48.184  10.257   9.014  1.00  0.00     0.125 A 
ATOM      9  C   UNL     1      49.248   9.478   8.531  1.00  0.00     0.078 A 
ATOM     10  C   UNL     1      49.851   9.793   7.310  1.00  0.00     0.223 A 
ENDROOT
BRANCH   1  11
ATOM     11  C   UNL     1      49.985  11.320   5.299  1.00  0.00     0.091 A 
ATOM     12  C   UNL     1      50.962  12.327   5.232  1.00  0.00     0.068 A 
ATOM     13  C   UNL     1      51.499  12.716   3.997  1.00  0.00     0.162 A 
ATOM     14  C   UNL     1      49.528  10.732   4.109  1.00  0.00     0.068 A 
ATOM     15  C   UNL     1      51.055  12.109   2.817  1.00  0.00     0.200 A 
ATOM     16  C   UNL     1      50.063  11.115   2.872  1.00  0.00     0.162 A 
BRANCH  13  17
ATOM     17  O   UNL     1      52.474  13.712   3.936  1.00  0.00    -0.504 OA
ATOM     18  H   UNL     1      53.293  13.690   4.532  1.00  0.00     0.293 HD
ENDBRANCH  13  17
BRANCH  15  19
ATOM     19  O   UNL     1      51.604  12.506   1.597  1.00  0.00    -0.502 OA
ATOM     20  H   UNL     1      52.289  13.248   1.530  1.00  0.00     0.293 HD
ENDBRANCH  15  19
BRANCH  16  21
ATOM     21  O   UNL     1      49.612  10.514   1.698  1.00  0.00    -0.504 OA
ATOM     22  H   UNL     1      48.725  10.025   1.659  1.00  0.00     0.293 HD
ENDBRANCH  16  21
ENDBRANCH   1  11
BRANCH  10  23
ATOM     23  O   UNL     1      50.875   8.990   6.807  1.00  0.00    -0.500 OA
ATOM     24  H   UNL     1      51.775   9.376   6.545  1.00  0.00     0.294 HD
ENDBRANCH  10  23
BRANCH   5  25
ATOM     25  O   UNL     1      44.991  12.711  10.238  1.00  0.00    -0.507 OA
ATOM     26  H   UNL     1      44.911  13.669   9.916  1.00  0.00     0.293 HD
ENDBRANCH   5  25
BRANCH   7  27
ATOM     27  O   UNL     1      47.872   8.947  11.094  1.00  0.00    -0.507 OA
ATOM     28  H   UNL     1      48.303   9.068  11.999  1.00  0.00     0.293 HD
ENDBRANCH   7  27
TORSDOF 7
ENDMDL
MODEL 9
REMARK VINA RESULT:    -6.572      2.592      8.328
REMARK INTER + INTRA:          -8.419
REMARK INTER:                  -8.100
REMARK INTRA:                  -0.319
REMARK UNBOUND:                -0.310
REMARK SMILES Oc1cc(O)c2cc(O)c(-c3cc(O)c(O)c(O)c3)[o+]c2c1
REMARK SMILES IDX 10 1 20 2 21 3 22 4 2 5 3 6 4 7 6 8 7 9 8 10 11 11 12 12
REMARK SMILES IDX 13 13 19 14 15 15 17 16 14 17 16 19 18 21 9 23 1 25 5 27
REMARK H PARENT 14 18 16 20 18 22 9 24 1 26 5 28
REMARK Flexibility Score: inf
ROOT
ATOM      1  C   UNL     1      51.954  12.887   4.858  1.00  0.00     0.402 A 
ATOM      2  O   UNL     1      51.349  13.608   5.797  1.00  0.00    -0.202 OA
ATOM      3  C   UNL     1      50.630  13.074   6.779  1.00  0.00     0.368 A 
ATOM      4  C   UNL     1      50.034  13.915   7.722  1.00  0.00     0.162 A 
ATOM      5  C   UNL     1      49.278  13.381   8.766  1.00  0.00     0.128 A 
ATOM      6  C   UNL     1      49.115  11.995   8.869  1.00  0.00     0.093 A 
ATOM      7  C   UNL     1      49.702  11.130   7.938  1.00  0.00     0.136 A 
ATOM      8  C   UNL     1      50.470  11.670   6.873  1.00  0.00     0.125 A 
ATOM      9  C   UNL     1      51.083  10.881   5.887  1.00  0.00     0.078 A 
ATOM     10  C   UNL     1      51.822  11.485   4.865  1.00  0.00     0.223 A 
ENDROOT
BRANCH   1  11
ATOM     11  C   UNL     1      52.734  13.600   3.821  1.00  0.00     0.091 A 
ATOM     12  C   UNL     1      53.987  14.166   4.109  1.00  0.00     0.068 A 
ATOM     13  C   UNL     1      54.700  14.857   3.119  1.00  0.00     0.162 A 
ATOM     14  C   UNL     1      52.189  13.764   2.538  1.00  0.00     0.068 A 
ATOM     15  C   UNL     1      54.161  14.998   1.835  1.00  0.00     0.200 A 
ATOM     16  C   UNL     1      52.898  14.452   1.544  1.00  0.00     0.162 A 
BRANCH  13  17
ATOM     17  O   UNL     1      55.946  15.412   3.407  1.00  0.00    -0.504 OA
ATOM     18  H   UNL     1      56.034  16.279   3.926  1.00  0.00     0.293 HD
ENDBRANCH  13  17
BRANCH  15  19
ATOM     19  O   UNL     1      54.886  15.685   0.862  1.00  0.00    -0.502 OA
ATOM     20  H   UNL     1      54.638  15.651  -0.119  1.00  0.00     0.293 HD
ENDBRANCH  15  19
BRANCH  16  21
ATOM     21  O   UNL     1      52.353  14.597   0.269  1.00  0.00    -0.504 OA
ATOM     22  H   UNL     1      51.381  14.382   0.079  1.00  0.00     0.293 HD
ENDBRANCH  16  21
ENDBRANCH   1  11
BRANCH  10  23
ATOM     23  O   UNL     1      52.391  10.706   3.857  1.00  0.00    -0.500 OA
ATOM     24  H   UNL     1      52.446  11.033   2.899  1.00  0.00     0.294 HD
ENDBRANCH  10  23
BRANCH   5  25
ATOM     25  O   UNL     1      48.691  14.236   9.696  1.00  0.00    -0.507 OA
ATOM     26  H   UNL     1      49.190  15.036  10.069  1.00  0.00     0.293 HD
ENDBRANCH   5  25
BRANCH   7  27
ATOM     27  O   UNL     1      49.495   9.759   8.113  1.00  0.00    -0.507 OA
ATOM     28  H   UNL     1      49.014   9.166   7.453  1.00  0.00     0.293 HD
ENDBRANCH   7  27
TORSDOF 7
ENDMDL
