MODEL 1
REMARK VINA RESULT:    -6.067      0.000      0.000
REMARK INTER + INTRA:          -6.717
REMARK INTER:                  -6.599
REMARK INTRA:                  -0.118
REMARK UNBOUND:                -0.118
REMARK SMILES CC(C)c1cc2c(cc1O)[C@]1(C)CCCC(C)(C)[C@@H]1CC2=O
REMARK SMILES IDX 4 1 9 2 8 3 7 4 6 5 5 6 21 7 22 8 20 9 19 10 11 11 13 12
REMARK SMILES IDX 14 13 15 14 16 15 17 16 18 17 12 18 2 19 1 20 3 21 10 22
REMARK H PARENT 10 23
REMARK Flexibility Score: inf
ROOT
ATOM      1  C   UNL     1      32.095   9.540 105.747  1.00  0.00    -0.003 A 
ATOM      2  C   UNL     1      31.850  10.803 105.154  1.00  0.00     0.119 A 
ATOM      3  C   UNL     1      32.863  11.768 105.112  1.00  0.00     0.051 A 
ATOM      4  C   UNL     1      34.153  11.515 105.630  1.00  0.00    -0.027 A 
ATOM      5  C   UNL     1      34.406  10.229 106.139  1.00  0.00     0.022 A 
ATOM      6  C   UNL     1      33.402   9.255 106.187  1.00  0.00     0.020 A 
ATOM      7  C   UNL     1      35.718   9.968 106.716  1.00  0.00     0.163 C 
ATOM      8  O   UNL     1      36.229   8.816 106.720  1.00  0.00    -0.294 OA
ATOM      9  C   UNL     1      36.373  11.110 107.394  1.00  0.00     0.086 C 
ATOM     10  C   UNL     1      36.538  12.343 106.443  1.00  0.00     0.013 C 
ATOM     11  C   UNL     1      35.349  12.470 105.352  1.00  0.00    -0.003 C 
ATOM     12  C   UNL     1      35.810  12.077 103.919  1.00  0.00     0.012 C 
ATOM     13  C   UNL     1      37.144  12.671 103.513  1.00  0.00     0.001 C 
ATOM     14  C   UNL     1      38.228  12.151 104.446  1.00  0.00     0.007 C 
ATOM     15  C   UNL     1      38.033  12.614 105.910  1.00  0.00    -0.031 C 
ATOM     16  C   UNL     1      38.392  14.125 106.016  1.00  0.00     0.011 C 
ATOM     17  C   UNL     1      39.126  11.889 106.742  1.00  0.00     0.011 C 
ATOM     18  C   UNL     1      34.836  13.941 105.346  1.00  0.00     0.017 C 
ENDROOT
BRANCH   1  19
ATOM     19  C   UNL     1      31.003   8.478 105.855  1.00  0.00     0.017 C 
ATOM     20  C   UNL     1      30.690   7.898 104.473  1.00  0.00     0.012 C 
ATOM     21  C   UNL     1      31.345   7.357 106.853  1.00  0.00     0.012 C 
ENDBRANCH   1  19
BRANCH   2  22
ATOM     22  O   UNL     1      30.628  11.135 104.562  1.00  0.00    -0.508 OA
ATOM     23  H   UNL     1      29.778  11.313 105.078  1.00  0.00     0.293 HD
ENDBRANCH   2  22
TORSDOF 2
ENDMDL
MODEL 2
REMARK VINA RESULT:    -4.936      2.543      4.924
REMARK INTER + INTRA:          -5.487
REMARK INTER:                  -5.246
REMARK INTRA:                  -0.241
REMARK UNBOUND:                -0.118
REMARK SMILES CC(C)c1cc2c(cc1O)[C@]1(C)CCCC(C)(C)[C@@H]1CC2=O
REMARK SMILES IDX 4 1 9 2 8 3 7 4 6 5 5 6 21 7 22 8 20 9 19 10 11 11 13 12
REMARK SMILES IDX 14 13 15 14 16 15 17 16 18 17 12 18 2 19 1 20 3 21 10 22
REMARK H PARENT 10 23
REMARK Flexibility Score: inf
ROOT
ATOM      1  C   UNL     1      35.582  11.469 106.101  1.00  0.00    -0.003 A 
ATOM      2  C   UNL     1      36.278  11.265 107.319  1.00  0.00     0.119 A 
ATOM      3  C   UNL     1      37.676  11.335 107.350  1.00  0.00     0.051 A 
ATOM      4  C   UNL     1      38.431  11.629 106.193  1.00  0.00    -0.027 A 
ATOM      5  C   UNL     1      37.724  11.912 105.012  1.00  0.00     0.022 A 
ATOM      6  C   UNL     1      36.326  11.845 104.967  1.00  0.00     0.020 A 
ATOM      7  C   UNL     1      38.490  12.174 103.801  1.00  0.00     0.163 C 
ATOM      8  O   UNL     1      38.049  12.907 102.875  1.00  0.00    -0.294 OA
ATOM      9  C   UNL     1      39.773  11.445 103.669  1.00  0.00     0.086 C 
ATOM     10  C   UNL     1      40.732  11.719 104.876  1.00  0.00     0.013 C 
ATOM     11  C   UNL     1      39.947  11.971 106.270  1.00  0.00    -0.003 C 
ATOM     12  C   UNL     1      39.968  13.464 106.705  1.00  0.00     0.012 C 
ATOM     13  C   UNL     1      41.327  14.125 106.584  1.00  0.00     0.001 C 
ATOM     14  C   UNL     1      41.758  14.120 105.125  1.00  0.00     0.007 C 
ATOM     15  C   UNL     1      41.977  12.693 104.568  1.00  0.00    -0.031 C 
ATOM     16  C   UNL     1      43.292  12.113 105.163  1.00  0.00     0.011 C 
ATOM     17  C   UNL     1      42.268  12.861 103.051  1.00  0.00     0.011 C 
ATOM     18  C   UNL     1      40.610  11.099 107.377  1.00  0.00     0.017 C 
ENDROOT
BRANCH   1  19
ATOM     19  C   UNL     1      34.063  11.354 106.017  1.00  0.00     0.017 C 
ATOM     20  C   UNL     1      33.496  12.462 105.125  1.00  0.00     0.012 C 
ATOM     21  C   UNL     1      33.586   9.971 105.536  1.00  0.00     0.012 C 
ENDBRANCH   1  19
BRANCH   2  22
ATOM     22  O   UNL     1      35.625  11.024 108.531  1.00  0.00    -0.508 OA
ATOM     23  H   UNL     1      34.640  11.189 108.688  1.00  0.00     0.293 HD
ENDBRANCH   2  22
TORSDOF 2
ENDMDL
MODEL 3
REMARK VINA RESULT:    -3.982      1.516      3.197
REMARK INTER + INTRA:          -4.450
REMARK INTER:                  -4.721
REMARK INTRA:                   0.271
REMARK UNBOUND:                -0.118
REMARK SMILES CC(C)c1cc2c(cc1O)[C@]1(C)CCCC(C)(C)[C@@H]1CC2=O
REMARK SMILES IDX 4 1 9 2 8 3 7 4 6 5 5 6 21 7 22 8 20 9 19 10 11 11 13 12
REMARK SMILES IDX 14 13 15 14 16 15 17 16 18 17 12 18 2 19 1 20 3 21 10 22
REMARK H PARENT 10 23
REMARK Flexibility Score: inf
ROOT
ATOM      1  C   UNL     1      32.660   8.580 106.775  1.00  0.00    -0.003 A 
ATOM      2  C   UNL     1      33.673   8.339 107.736  1.00  0.00     0.119 A 
ATOM      3  C   UNL     1      34.856   9.087 107.712  1.00  0.00     0.051 A 
ATOM      4  C   UNL     1      35.072  10.108 106.760  1.00  0.00    -0.027 A 
ATOM      5  C   UNL     1      34.024  10.393 105.867  1.00  0.00     0.022 A 
ATOM      6  C   UNL     1      32.836   9.652 105.879  1.00  0.00     0.020 A 
ATOM      7  C   UNL     1      34.249  11.412 104.851  1.00  0.00     0.163 C 
ATOM      8  O   UNL     1      33.306  12.095 104.369  1.00  0.00    -0.294 OA
ATOM      9  C   UNL     1      35.633  11.529 104.338  1.00  0.00     0.086 C 
ATOM     10  C   UNL     1      36.665  11.801 105.484  1.00  0.00     0.013 C 
ATOM     11  C   UNL     1      36.253  11.113 106.890  1.00  0.00    -0.003 C 
ATOM     12  C   UNL     1      35.744  12.147 107.935  1.00  0.00     0.012 C 
ATOM     13  C   UNL     1      36.599  13.395 108.037  1.00  0.00     0.001 C 
ATOM     14  C   UNL     1      36.583  14.124 106.702  1.00  0.00     0.007 C 
ATOM     15  C   UNL     1      37.237  13.305 105.563  1.00  0.00    -0.031 C 
ATOM     16  C   UNL     1      38.780  13.299 105.764  1.00  0.00     0.011 C 
ATOM     17  C   UNL     1      37.011  14.120 104.259  1.00  0.00     0.011 C 
ATOM     18  C   UNL     1      37.495  10.368 107.461  1.00  0.00     0.017 C 
ENDROOT
BRANCH   1  19
ATOM     19  C   UNL     1      31.377   7.755 106.737  1.00  0.00     0.017 C 
ATOM     20  C   UNL     1      30.655   7.957 105.401  1.00  0.00     0.012 C 
ATOM     21  C   UNL     1      31.611   6.258 107.009  1.00  0.00     0.012 C 
ENDBRANCH   1  19
BRANCH   2  22
ATOM     22  O   UNL     1      33.537   7.393 108.755  1.00  0.00    -0.508 OA
ATOM     23  H   UNL     1      32.715   7.295 109.334  1.00  0.00     0.293 HD
ENDBRANCH   2  22
TORSDOF 2
ENDMDL
MODEL 4
REMARK VINA RESULT:    -3.939      3.235      7.334
REMARK INTER + INTRA:          -4.403
REMARK INTER:                  -4.905
REMARK INTRA:                   0.503
REMARK UNBOUND:                -0.118
REMARK SMILES CC(C)c1cc2c(cc1O)[C@]1(C)CCCC(C)(C)[C@@H]1CC2=O
REMARK SMILES IDX 4 1 9 2 8 3 7 4 6 5 5 6 21 7 22 8 20 9 19 10 11 11 13 12
REMARK SMILES IDX 14 13 15 14 16 15 17 16 18 17 12 18 2 19 1 20 3 21 10 22
REMARK H PARENT 10 23
REMARK Flexibility Score: inf
ROOT
ATOM      1  C   UNL     1      41.601  11.527 105.948  1.00  0.00    -0.003 A 
ATOM      2  C   UNL     1      41.118  11.955 107.209  1.00  0.00     0.119 A 
ATOM      3  C   UNL     1      39.815  12.450 107.331  1.00  0.00     0.051 A 
ATOM      4  C   UNL     1      38.939  12.520 106.224  1.00  0.00    -0.027 A 
ATOM      5  C   UNL     1      39.403  12.014 104.998  1.00  0.00     0.022 A 
ATOM      6  C   UNL     1      40.705  11.517 104.862  1.00  0.00     0.020 A 
ATOM      7  C   UNL     1      38.528  12.120 103.838  1.00  0.00     0.163 C 
ATOM      8  O   UNL     1      38.583  11.301 102.882  1.00  0.00    -0.294 OA
ATOM      9  C   UNL     1      37.642  13.306 103.795  1.00  0.00     0.086 C 
ATOM     10  C   UNL     1      36.725  13.402 105.061  1.00  0.00     0.013 C 
ATOM     11  C   UNL     1      37.421  12.814 106.398  1.00  0.00    -0.003 C 
ATOM     12  C   UNL     1      36.826  11.441 106.826  1.00  0.00     0.012 C 
ATOM     13  C   UNL     1      35.312  11.385 106.791  1.00  0.00     0.001 C 
ATOM     14  C   UNL     1      34.835  11.608 105.363  1.00  0.00     0.007 C 
ATOM     15  C   UNL     1      35.178  13.020 104.829  1.00  0.00    -0.031 C 
ATOM     16  C   UNL     1      34.243  14.060 105.512  1.00  0.00     0.011 C 
ATOM     17  C   UNL     1      34.757  13.030 103.333  1.00  0.00     0.011 C 
ATOM     18  C   UNL     1      37.230  13.843 107.551  1.00  0.00     0.017 C 
ENDROOT
BRANCH   1  19
ATOM     19  C   UNL     1      43.031  11.026 105.764  1.00  0.00     0.017 C 
ATOM     20  C   UNL     1      43.937  12.167 105.291  1.00  0.00     0.012 C 
ATOM     21  C   UNL     1      43.607  10.361 107.028  1.00  0.00     0.012 C 
ENDBRANCH   1  19
BRANCH   2  22
ATOM     22  O   UNL     1      41.881  11.875 108.377  1.00  0.00    -0.508 OA
ATOM     23  H   UNL     1      42.208  11.010 108.784  1.00  0.00     0.293 HD
ENDBRANCH   2  22
TORSDOF 2
ENDMDL
MODEL 5
REMARK VINA RESULT:    -3.288      1.593      3.054
REMARK INTER + INTRA:          -3.695
REMARK INTER:                  -3.452
REMARK INTRA:                  -0.243
REMARK UNBOUND:                -0.118
REMARK SMILES CC(C)c1cc2c(cc1O)[C@]1(C)CCCC(C)(C)[C@@H]1CC2=O
REMARK SMILES IDX 4 1 9 2 8 3 7 4 6 5 5 6 21 7 22 8 20 9 19 10 11 11 13 12
REMARK SMILES IDX 14 13 15 14 16 15 17 16 18 17 12 18 2 19 1 20 3 21 10 22
REMARK H PARENT 10 23
REMARK Flexibility Score: inf
ROOT
ATOM      1  C   UNL     1      32.319   9.715 105.869  1.00  0.00    -0.003 A 
ATOM      2  C   UNL     1      33.156   9.145 106.860  1.00  0.00     0.119 A 
ATOM      3  C   UNL     1      34.487   9.561 106.979  1.00  0.00     0.051 A 
ATOM      4  C   UNL     1      35.031  10.564 106.146  1.00  0.00    -0.027 A 
ATOM      5  C   UNL     1      34.165  11.180 105.224  1.00  0.00     0.022 A 
ATOM      6  C   UNL     1      32.833  10.772 105.094  1.00  0.00     0.020 A 
ATOM      7  C   UNL     1      34.723  12.184 104.328  1.00  0.00     0.163 C 
ATOM      8  O   UNL     1      34.024  13.123 103.861  1.00  0.00    -0.294 OA
ATOM      9  C   UNL     1      36.129  11.980 103.912  1.00  0.00     0.086 C 
ATOM     10  C   UNL     1      37.098  11.884 105.138  1.00  0.00     0.013 C 
ATOM     11  C   UNL     1      36.412  11.216 106.443  1.00  0.00    -0.003 C 
ATOM     12  C   UNL     1      36.096  12.261 107.552  1.00  0.00     0.012 C 
ATOM     13  C   UNL     1      37.226  13.233 107.826  1.00  0.00     0.001 C 
ATOM     14  C   UNL     1      37.504  14.045 106.569  1.00  0.00     0.007 C 
ATOM     15  C   UNL     1      38.022  13.178 105.396  1.00  0.00    -0.031 C 
ATOM     16  C   UNL     1      39.492  12.758 105.687  1.00  0.00     0.011 C 
ATOM     17  C   UNL     1      38.116  14.124 104.168  1.00  0.00     0.011 C 
ATOM     18  C   UNL     1      37.375  10.133 107.011  1.00  0.00     0.017 C 
ENDROOT
BRANCH   1  19
ATOM     19  C   UNL     1      30.877   9.255 105.675  1.00  0.00     0.017 C 
ATOM     20  C   UNL     1      30.029  10.394 105.100  1.00  0.00     0.012 C 
ATOM     21  C   UNL     1      30.756   7.992 104.803  1.00  0.00     0.012 C 
ENDBRANCH   1  19
BRANCH   2  22
ATOM     22  O   UNL     1      32.703   8.188 107.772  1.00  0.00    -0.508 OA
ATOM     23  H   UNL     1      32.783   8.276 108.775  1.00  0.00     0.293 HD
ENDBRANCH   2  22
TORSDOF 2
ENDMDL
