MODEL 1
REMARK VINA RESULT:    -4.638      0.000      0.000
REMARK INTER + INTRA:         -10.957
REMARK INTER:                  -8.434
REMARK INTRA:                  -2.523
REMARK UNBOUND:                -2.523
REMARK SMILES CCCCCC=CCC=CCCCCCCCC(=O)[O-]
REMARK SMILES IDX 11 1 12 2 13 3 14 4 15 5 16 6 17 7 18 8 19 9 20 10 10 11
REMARK SMILES IDX 9 12 8 13 7 14 6 15 5 16 4 17 3 18 2 19 1 20
REMARK H PARENT
REMARK Flexibility Score: inf
ROOT
ATOM      1  C   UNL     1      -7.298   7.388  17.595  1.00  0.00     0.027 C 
ENDROOT
BRANCH   1   2
ATOM      2  C   UNL     1      -6.147   6.517  18.122  1.00  0.00     0.004 C 
BRANCH   2   3
ATOM      3  C   UNL     1      -5.357   5.852  16.981  1.00  0.00     0.000 C 
BRANCH   3   4
ATOM      4  C   UNL     1      -5.504   4.322  16.970  1.00  0.00     0.000 C 
BRANCH   4   5
ATOM      5  C   UNL     1      -4.416   3.627  16.139  1.00  0.00     0.000 C 
BRANCH   5   6
ATOM      6  C   UNL     1      -3.322   4.619  15.729  1.00  0.00     0.006 C 
BRANCH   6   7
ATOM      7  C   UNL     1      -2.009   3.893  15.419  1.00  0.00     0.053 C 
BRANCH   7   8
ATOM      8  C   UNL     1      -1.242   3.636  16.678  1.00  0.00     0.041 C 
ATOM      9  O   UNL     1      -0.608   4.570  17.235  1.00  0.00    -0.550 OA
ATOM     10  O   UNL     1      -1.271   2.378  17.267  1.00  0.00    -0.550 OA
ENDBRANCH   7   8
ENDBRANCH   6   7
ENDBRANCH   5   6
ENDBRANCH   4   5
ENDBRANCH   3   4
ENDBRANCH   2   3
ENDBRANCH   1   2
BRANCH   1  11
ATOM     11  C   UNL     1      -7.669   7.047  16.175  1.00  0.00    -0.031 C 
ATOM     12  C   UNL     1      -8.842   6.475  15.874  1.00  0.00    -0.027 C 
BRANCH  12  13
ATOM     13  C   UNL     1      -9.185   6.131  14.450  1.00  0.00     0.054 C 
BRANCH  13  14
ATOM     14  C   UNL     1      -7.947   5.938  13.621  1.00  0.00    -0.027 C 
ATOM     15  C   UNL     1      -7.231   4.804  13.685  1.00  0.00    -0.031 C 
BRANCH  15  16
ATOM     16  C   UNL     1      -5.995   4.605  12.853  1.00  0.00     0.027 C 
BRANCH  16  17
ATOM     17  C   UNL     1      -5.557   5.916  12.189  1.00  0.00     0.004 C 
BRANCH  17  18
ATOM     18  C   UNL     1      -4.611   6.706  13.108  1.00  0.00     0.000 C 
BRANCH  18  19
ATOM     19  C   UNL     1      -5.058   8.163  13.301  1.00  0.00    -0.003 C 
ATOM     20  C   UNL     1      -4.772   8.689  14.708  1.00  0.00     0.004 C 
ENDBRANCH  18  19
ENDBRANCH  17  18
ENDBRANCH  16  17
ENDBRANCH  15  16
ENDBRANCH  13  14
ENDBRANCH  12  13
ENDBRANCH   1  11
TORSDOF 14
ENDMDL
MODEL 2
REMARK VINA RESULT:    -4.517      4.063      6.399
REMARK INTER + INTRA:         -10.736
REMARK INTER:                  -9.666
REMARK INTRA:                  -1.070
REMARK UNBOUND:                -2.523
REMARK SMILES CCCCCC=CCC=CCCCCCCCC(=O)[O-]
REMARK SMILES IDX 11 1 12 2 13 3 14 4 15 5 16 6 17 7 18 8 19 9 20 10 10 11
REMARK SMILES IDX 9 12 8 13 7 14 6 15 5 16 4 17 3 18 2 19 1 20
REMARK H PARENT
REMARK Flexibility Score: inf
ROOT
ATOM      1  C   UNL     1       0.041   5.803  17.663  1.00  0.00     0.027 C 
ENDROOT
BRANCH   1   2
ATOM      2  C   UNL     1       1.013   6.641  16.817  1.00  0.00     0.004 C 
BRANCH   2   3
ATOM      3  C   UNL     1       0.849   8.150  17.075  1.00  0.00     0.000 C 
BRANCH   3   4
ATOM      4  C   UNL     1       1.613   8.624  18.321  1.00  0.00     0.000 C 
BRANCH   4   5
ATOM      5  C   UNL     1       0.716   8.726  19.564  1.00  0.00     0.000 C 
BRANCH   5   6
ATOM      6  C   UNL     1       1.040   7.611  20.565  1.00  0.00     0.006 C 
BRANCH   6   7
ATOM      7  C   UNL     1      -0.241   6.989  21.130  1.00  0.00     0.053 C 
BRANCH   7   8
ATOM      8  C   UNL     1      -0.110   6.768  22.604  1.00  0.00     0.041 C 
ATOM      9  O   UNL     1      -1.138   6.710  23.329  1.00  0.00    -0.550 OA
ATOM     10  O   UNL     1       1.143   6.572  23.170  1.00  0.00    -0.550 OA
ENDBRANCH   7   8
ENDBRANCH   6   7
ENDBRANCH   5   6
ENDBRANCH   4   5
ENDBRANCH   3   4
ENDBRANCH   2   3
ENDBRANCH   1   2
BRANCH   1  11
ATOM     11  C   UNL     1      -1.055   5.188  16.832  1.00  0.00    -0.031 C 
ATOM     12  C   UNL     1      -1.142   3.864  16.653  1.00  0.00    -0.027 C 
BRANCH  12  13
ATOM     13  C   UNL     1      -2.239   3.274  15.809  1.00  0.00     0.054 C 
BRANCH  13  14
ATOM     14  C   UNL     1      -3.593   3.714  16.287  1.00  0.00    -0.027 C 
ATOM     15  C   UNL     1      -4.581   4.000  15.425  1.00  0.00    -0.031 C 
BRANCH  15  16
ATOM     16  C   UNL     1      -5.940   4.435  15.900  1.00  0.00     0.027 C 
BRANCH  16  17
ATOM     17  C   UNL     1      -6.444   5.645  15.105  1.00  0.00     0.004 C 
BRANCH  17  18
ATOM     18  C   UNL     1      -6.882   6.777  16.047  1.00  0.00     0.000 C 
BRANCH  18  19
ATOM     19  C   UNL     1      -6.199   6.700  17.421  1.00  0.00    -0.003 C 
ATOM     20  C   UNL     1      -6.940   7.494  18.497  1.00  0.00     0.004 C 
ENDBRANCH  18  19
ENDBRANCH  17  18
ENDBRANCH  16  17
ENDBRANCH  15  16
ENDBRANCH  13  14
ENDBRANCH  12  13
ENDBRANCH   1  11
TORSDOF 14
ENDMDL
MODEL 3
REMARK VINA RESULT:    -4.506      3.863      7.281
REMARK INTER + INTRA:         -10.717
REMARK INTER:                  -9.340
REMARK INTRA:                  -1.377
REMARK UNBOUND:                -2.523
REMARK SMILES CCCCCC=CCC=CCCCCCCCC(=O)[O-]
REMARK SMILES IDX 11 1 12 2 13 3 14 4 15 5 16 6 17 7 18 8 19 9 20 10 10 11
REMARK SMILES IDX 9 12 8 13 7 14 6 15 5 16 4 17 3 18 2 19 1 20
REMARK H PARENT
REMARK Flexibility Score: inf
ROOT
ATOM      1  C   UNL     1      -4.878   4.192  15.686  1.00  0.00     0.027 C 
ENDROOT
BRANCH   1   2
ATOM      2  C   UNL     1      -4.674   4.382  14.174  1.00  0.00     0.004 C 
BRANCH   2   3
ATOM      3  C   UNL     1      -5.098   5.786  13.706  1.00  0.00     0.000 C 
BRANCH   3   4
ATOM      4  C   UNL     1      -4.072   6.869  14.077  1.00  0.00     0.000 C 
BRANCH   4   5
ATOM      5  C   UNL     1      -4.719   8.241  14.318  1.00  0.00     0.000 C 
BRANCH   5   6
ATOM      6  C   UNL     1      -6.048   8.096  15.067  1.00  0.00     0.006 C 
BRANCH   6   7
ATOM      7  C   UNL     1      -5.837   8.165  16.583  1.00  0.00     0.053 C 
BRANCH   7   8
ATOM      8  C   UNL     1      -6.734   7.194  17.282  1.00  0.00     0.041 C 
ATOM      9  O   UNL     1      -7.766   6.758  16.707  1.00  0.00    -0.550 OA
ATOM     10  O   UNL     1      -6.404   6.728  18.548  1.00  0.00    -0.550 OA
ENDBRANCH   7   8
ENDBRANCH   6   7
ENDBRANCH   5   6
ENDBRANCH   4   5
ENDBRANCH   3   4
ENDBRANCH   2   3
ENDBRANCH   1   2
BRANCH   1  11
ATOM     11  C   UNL     1      -3.576   4.193  16.443  1.00  0.00    -0.031 C 
ATOM     12  C   UNL     1      -2.411   3.930  15.836  1.00  0.00    -0.027 C 
BRANCH  12  13
ATOM     13  C   UNL     1      -1.124   3.925  16.614  1.00  0.00     0.054 C 
BRANCH  13  14
ATOM     14  C   UNL     1      -0.777   5.302  17.106  1.00  0.00    -0.027 C 
ATOM     15  C   UNL     1      -0.093   5.487  18.246  1.00  0.00    -0.031 C 
BRANCH  15  16
ATOM     16  C   UNL     1       0.261   6.863  18.737  1.00  0.00     0.027 C 
BRANCH  16  17
ATOM     17  C   UNL     1      -0.099   7.032  20.218  1.00  0.00     0.004 C 
BRANCH  17  18
ATOM     18  C   UNL     1       1.162   7.013  21.096  1.00  0.00     0.000 C 
BRANCH  18  19
ATOM     19  C   UNL     1       0.837   6.933  22.595  1.00  0.00    -0.003 C 
ATOM     20  C   UNL     1      -0.645   6.668  22.866  1.00  0.00     0.004 C 
ENDBRANCH  18  19
ENDBRANCH  17  18
ENDBRANCH  16  17
ENDBRANCH  15  16
ENDBRANCH  13  14
ENDBRANCH  12  13
ENDBRANCH   1  11
TORSDOF 14
ENDMDL
MODEL 4
REMARK VINA RESULT:    -4.395      4.341      7.783
REMARK INTER + INTRA:         -10.516
REMARK INTER:                  -9.156
REMARK INTRA:                  -1.360
REMARK UNBOUND:                -2.523
REMARK SMILES CCCCCC=CCC=CCCCCCCCC(=O)[O-]
REMARK SMILES IDX 11 1 12 2 13 3 14 4 15 5 16 6 17 7 18 8 19 9 20 10 10 11
REMARK SMILES IDX 9 12 8 13 7 14 6 15 5 16 4 17 3 18 2 19 1 20
REMARK H PARENT
REMARK Flexibility Score: inf
ROOT
ATOM      1  C   UNL     1      -3.053   3.825  15.374  1.00  0.00     0.027 C 
ENDROOT
BRANCH   1   2
ATOM      2  C   UNL     1      -3.788   3.214  16.578  1.00  0.00     0.004 C 
BRANCH   2   3
ATOM      3  C   UNL     1      -5.083   3.976  16.911  1.00  0.00     0.000 C 
BRANCH   3   4
ATOM      4  C   UNL     1      -5.889   4.354  15.658  1.00  0.00     0.000 C 
BRANCH   4   5
ATOM      5  C   UNL     1      -6.538   5.741  15.766  1.00  0.00     0.000 C 
BRANCH   5   6
ATOM      6  C   UNL     1      -5.505   6.800  16.164  1.00  0.00     0.006 C 
BRANCH   6   7
ATOM      7  C   UNL     1      -4.785   7.359  14.933  1.00  0.00     0.053 C 
BRANCH   7   8
ATOM      8  C   UNL     1      -4.782   8.855  14.962  1.00  0.00     0.041 C 
ATOM      9  O   UNL     1      -4.175   9.504  14.070  1.00  0.00    -0.550 OA
ATOM     10  O   UNL     1      -5.494   9.534  15.943  1.00  0.00    -0.550 OA
ENDBRANCH   7   8
ENDBRANCH   6   7
ENDBRANCH   5   6
ENDBRANCH   4   5
ENDBRANCH   3   4
ENDBRANCH   2   3
ENDBRANCH   1   2
BRANCH   1  11
ATOM     11  C   UNL     1      -1.976   4.792  15.794  1.00  0.00    -0.031 C 
ATOM     12  C   UNL     1      -1.115   4.499  16.776  1.00  0.00    -0.027 C 
BRANCH  12  13
ATOM     13  C   UNL     1      -0.055   5.486  17.187  1.00  0.00     0.054 C 
BRANCH  13  14
ATOM     14  C   UNL     1      -0.294   5.994  18.580  1.00  0.00    -0.027 C 
ATOM     15  C   UNL     1       0.490   6.938  19.125  1.00  0.00    -0.031 C 
BRANCH  15  16
ATOM     16  C   UNL     1       0.252   7.455  20.516  1.00  0.00     0.027 C 
BRANCH  16  17
ATOM     17  C   UNL     1       1.303   6.918  21.495  1.00  0.00     0.004 C 
BRANCH  17  18
ATOM     18  C   UNL     1       0.713   6.766  22.906  1.00  0.00     0.000 C 
BRANCH  18  19
ATOM     19  C   UNL     1      -0.804   7.002  22.940  1.00  0.00    -0.003 C 
ATOM     20  C   UNL     1      -1.490   6.278  24.099  1.00  0.00     0.004 C 
ENDBRANCH  18  19
ENDBRANCH  17  18
ENDBRANCH  16  17
ENDBRANCH  15  16
ENDBRANCH  13  14
ENDBRANCH  12  13
ENDBRANCH   1  11
TORSDOF 14
ENDMDL
MODEL 5
REMARK VINA RESULT:    -4.355      4.792      6.907
REMARK INTER + INTRA:         -10.443
REMARK INTER:                  -9.511
REMARK INTRA:                  -0.932
REMARK UNBOUND:                -2.523
REMARK SMILES CCCCCC=CCC=CCCCCCCCC(=O)[O-]
REMARK SMILES IDX 11 1 12 2 13 3 14 4 15 5 16 6 17 7 18 8 19 9 20 10 10 11
REMARK SMILES IDX 9 12 8 13 7 14 6 15 5 16 4 17 3 18 2 19 1 20
REMARK H PARENT
REMARK Flexibility Score: inf
ROOT
ATOM      1  C   UNL     1       0.478  10.653  15.829  1.00  0.00     0.027 C 
ENDROOT
BRANCH   1   2
ATOM      2  C   UNL     1       1.371   9.405  15.921  1.00  0.00     0.004 C 
BRANCH   2   3
ATOM      3  C   UNL     1       1.898   9.175  17.348  1.00  0.00     0.000 C 
BRANCH   3   4
ATOM      4  C   UNL     1       1.061   8.153  18.132  1.00  0.00     0.000 C 
BRANCH   4   5
ATOM      5  C   UNL     1       0.806   8.582  19.584  1.00  0.00     0.000 C 
BRANCH   5   6
ATOM      6  C   UNL     1       0.943   7.392  20.540  1.00  0.00     0.006 C 
BRANCH   6   7
ATOM      7  C   UNL     1      -0.378   7.112  21.264  1.00  0.00     0.053 C 
BRANCH   7   8
ATOM      8  C   UNL     1      -0.126   6.760  22.696  1.00  0.00     0.041 C 
ATOM      9  O   UNL     1      -1.078   6.740  23.520  1.00  0.00    -0.550 OA
ATOM     10  O   UNL     1       1.151   6.403  23.111  1.00  0.00    -0.550 OA
ENDBRANCH   7   8
ENDBRANCH   6   7
ENDBRANCH   5   6
ENDBRANCH   4   5
ENDBRANCH   3   4
ENDBRANCH   2   3
ENDBRANCH   1   2
BRANCH   1  11
ATOM     11  C   UNL     1      -0.348  10.672  14.570  1.00  0.00    -0.031 C 
ATOM     12  C   UNL     1      -0.453   9.595  13.782  1.00  0.00    -0.027 C 
BRANCH  12  13
ATOM     13  C   UNL     1      -1.273   9.641  12.522  1.00  0.00     0.054 C 
BRANCH  13  14
ATOM     14  C   UNL     1      -2.411   8.662  12.575  1.00  0.00    -0.027 C 
ATOM     15  C   UNL     1      -2.795   8.096  13.730  1.00  0.00    -0.031 C 
BRANCH  15  16
ATOM     16  C   UNL     1      -3.937   7.120  13.788  1.00  0.00     0.027 C 
BRANCH  16  17
ATOM     17  C   UNL     1      -4.652   7.183  15.143  1.00  0.00     0.004 C 
BRANCH  17  18
ATOM     18  C   UNL     1      -4.664   5.804  15.822  1.00  0.00     0.000 C 
BRANCH  18  19
ATOM     19  C   UNL     1      -3.536   4.890  15.321  1.00  0.00    -0.003 C 
ATOM     20  C   UNL     1      -3.261   3.717  16.263  1.00  0.00     0.004 C 
ENDBRANCH  18  19
ENDBRANCH  17  18
ENDBRANCH  16  17
ENDBRANCH  15  16
ENDBRANCH  13  14
ENDBRANCH  12  13
ENDBRANCH   1  11
TORSDOF 14
ENDMDL
MODEL 6
REMARK VINA RESULT:    -4.326      1.383      3.051
REMARK INTER + INTRA:         -10.389
REMARK INTER:                  -7.512
REMARK INTRA:                  -2.877
REMARK UNBOUND:                -2.523
REMARK SMILES CCCCCC=CCC=CCCCCCCCC(=O)[O-]
REMARK SMILES IDX 11 1 12 2 13 3 14 4 15 5 16 6 17 7 18 8 19 9 20 10 10 11
REMARK SMILES IDX 9 12 8 13 7 14 6 15 5 16 4 17 3 18 2 19 1 20
REMARK H PARENT
REMARK Flexibility Score: inf
ROOT
ATOM      1  C   UNL     1      -5.625   8.850  16.240  1.00  0.00     0.027 C 
ENDROOT
BRANCH   1   2
ATOM      2  C   UNL     1      -6.039   7.583  17.005  1.00  0.00     0.004 C 
BRANCH   2   3
ATOM      3  C   UNL     1      -7.166   6.818  16.289  1.00  0.00     0.000 C 
BRANCH   3   4
ATOM      4  C   UNL     1      -6.748   5.400  15.869  1.00  0.00     0.000 C 
BRANCH   4   5
ATOM      5  C   UNL     1      -5.474   4.922  16.582  1.00  0.00     0.000 C 
BRANCH   5   6
ATOM      6  C   UNL     1      -4.751   3.854  15.753  1.00  0.00     0.006 C 
BRANCH   6   7
ATOM      7  C   UNL     1      -3.456   4.408  15.151  1.00  0.00     0.053 C 
BRANCH   7   8
ATOM      8  C   UNL     1      -2.265   3.835  15.852  1.00  0.00     0.041 C 
ATOM      9  O   UNL     1      -2.401   2.859  16.637  1.00  0.00    -0.550 OA
ATOM     10  O   UNL     1      -0.998   4.344  15.600  1.00  0.00    -0.550 OA
ENDBRANCH   7   8
ENDBRANCH   6   7
ENDBRANCH   5   6
ENDBRANCH   4   5
ENDBRANCH   3   4
ENDBRANCH   2   3
ENDBRANCH   1   2
BRANCH   1  11
ATOM     11  C   UNL     1      -5.366   8.578  14.781  1.00  0.00    -0.031 C 
ATOM     12  C   UNL     1      -4.285   7.900  14.375  1.00  0.00    -0.027 C 
BRANCH  12  13
ATOM     13  C   UNL     1      -4.040   7.651  12.912  1.00  0.00     0.054 C 
BRANCH  13  14
ATOM     14  C   UNL     1      -5.238   7.023  12.257  1.00  0.00    -0.027 C 
ATOM     15  C   UNL     1      -5.536   5.727  12.438  1.00  0.00    -0.031 C 
BRANCH  15  16
ATOM     16  C   UNL     1      -6.737   5.097  11.789  1.00  0.00     0.027 C 
BRANCH  16  17
ATOM     17  C   UNL     1      -7.859   6.122  11.588  1.00  0.00     0.004 C 
BRANCH  17  18
ATOM     18  C   UNL     1      -8.731   6.237  12.849  1.00  0.00     0.000 C 
BRANCH  18  19
ATOM     19  C   UNL     1      -9.573   7.522  12.868  1.00  0.00    -0.003 C 
ATOM     20  C   UNL     1      -8.872   8.679  13.581  1.00  0.00     0.004 C 
ENDBRANCH  18  19
ENDBRANCH  17  18
ENDBRANCH  16  17
ENDBRANCH  15  16
ENDBRANCH  13  14
ENDBRANCH  12  13
ENDBRANCH   1  11
TORSDOF 14
ENDMDL
MODEL 7
REMARK VINA RESULT:    -4.302      1.387      2.294
REMARK INTER + INTRA:         -10.345
REMARK INTER:                  -7.911
REMARK INTRA:                  -2.434
REMARK UNBOUND:                -2.523
REMARK SMILES CCCCCC=CCC=CCCCCCCCC(=O)[O-]
REMARK SMILES IDX 11 1 12 2 13 3 14 4 15 5 16 6 17 7 18 8 19 9 20 10 10 11
REMARK SMILES IDX 9 12 8 13 7 14 6 15 5 16 4 17 3 18 2 19 1 20
REMARK H PARENT
REMARK Flexibility Score: inf
ROOT
ATOM      1  C   UNL     1      -8.244   6.747  16.262  1.00  0.00     0.027 C 
ENDROOT
BRANCH   1   2
ATOM      2  C   UNL     1      -6.865   7.421  16.339  1.00  0.00     0.004 C 
BRANCH   2   3
ATOM      3  C   UNL     1      -5.896   6.651  17.254  1.00  0.00     0.000 C 
BRANCH   3   4
ATOM      4  C   UNL     1      -5.034   5.637  16.485  1.00  0.00     0.000 C 
BRANCH   4   5
ATOM      5  C   UNL     1      -5.382   4.181  16.829  1.00  0.00     0.000 C 
BRANCH   5   6
ATOM      6  C   UNL     1      -4.207   3.248  16.515  1.00  0.00     0.006 C 
BRANCH   6   7
ATOM      7  C   UNL     1      -3.181   3.939  15.612  1.00  0.00     0.053 C 
BRANCH   7   8
ATOM      8  C   UNL     1      -1.790   3.649  16.082  1.00  0.00     0.041 C 
ATOM      9  O   UNL     1      -0.834   4.387  15.724  1.00  0.00    -0.550 OA
ATOM     10  O   UNL     1      -1.557   2.596  16.957  1.00  0.00    -0.550 OA
ENDBRANCH   7   8
ENDBRANCH   6   7
ENDBRANCH   5   6
ENDBRANCH   4   5
ENDBRANCH   3   4
ENDBRANCH   2   3
ENDBRANCH   1   2
BRANCH   1  11
ATOM     11  C   UNL     1      -8.871   6.883  14.899  1.00  0.00    -0.031 C 
ATOM     12  C   UNL     1      -8.823   8.034  14.216  1.00  0.00    -0.027 C 
BRANCH  12  13
ATOM     13  C   UNL     1      -9.467   8.150  12.861  1.00  0.00     0.054 C 
BRANCH  13  14
ATOM     14  C   UNL     1      -8.568   7.618  11.781  1.00  0.00    -0.027 C 
ATOM     15  C   UNL     1      -7.246   7.850  11.794  1.00  0.00    -0.031 C 
BRANCH  15  16
ATOM     16  C   UNL     1      -6.342   7.314  10.718  1.00  0.00     0.027 C 
BRANCH  16  17
ATOM     17  C   UNL     1      -5.069   6.705  11.317  1.00  0.00     0.004 C 
BRANCH  17  18
ATOM     18  C   UNL     1      -5.299   6.277  12.776  1.00  0.00     0.000 C 
BRANCH  18  19
ATOM     19  C   UNL     1      -5.613   4.780  12.909  1.00  0.00    -0.003 C 
ATOM     20  C   UNL     1      -7.022   4.516  13.442  1.00  0.00     0.004 C 
ENDBRANCH  18  19
ENDBRANCH  17  18
ENDBRANCH  16  17
ENDBRANCH  15  16
ENDBRANCH  13  14
ENDBRANCH  12  13
ENDBRANCH   1  11
TORSDOF 14
ENDMDL
MODEL 8
REMARK VINA RESULT:    -4.270      4.919      8.492
REMARK INTER + INTRA:         -10.287
REMARK INTER:                  -9.304
REMARK INTRA:                  -0.983
REMARK UNBOUND:                -2.523
REMARK SMILES CCCCCC=CCC=CCCCCCCCC(=O)[O-]
REMARK SMILES IDX 11 1 12 2 13 3 14 4 15 5 16 6 17 7 18 8 19 9 20 10 10 11
REMARK SMILES IDX 9 12 8 13 7 14 6 15 5 16 4 17 3 18 2 19 1 20
REMARK H PARENT
REMARK Flexibility Score: inf
ROOT
ATOM      1  C   UNL     1      -0.391  10.923  14.324  1.00  0.00     0.027 C 
ENDROOT
BRANCH   1   2
ATOM      2  C   UNL     1      -1.160   9.648  13.941  1.00  0.00     0.004 C 
BRANCH   2   3
ATOM      3  C   UNL     1      -2.572   9.961  13.415  1.00  0.00     0.000 C 
BRANCH   3   4
ATOM      4  C   UNL     1      -3.665   9.161  14.139  1.00  0.00     0.000 C 
BRANCH   4   5
ATOM      5  C   UNL     1      -4.583  10.048  14.993  1.00  0.00     0.000 C 
BRANCH   5   6
ATOM      6  C   UNL     1      -5.513   9.195  15.864  1.00  0.00     0.006 C 
BRANCH   6   7
ATOM      7  C   UNL     1      -5.321   7.703  15.578  1.00  0.00     0.053 C 
BRANCH   7   8
ATOM      8  C   UNL     1      -5.953   6.878  16.654  1.00  0.00     0.041 C 
ATOM      9  O   UNL     1      -5.235   6.191  17.430  1.00  0.00    -0.550 OA
ATOM     10  O   UNL     1      -7.329   6.907  16.836  1.00  0.00    -0.550 OA
ENDBRANCH   7   8
ENDBRANCH   6   7
ENDBRANCH   5   6
ENDBRANCH   4   5
ENDBRANCH   3   4
ENDBRANCH   2   3
ENDBRANCH   1   2
BRANCH   1  11
ATOM     11  C   UNL     1       0.558  10.694  15.471  1.00  0.00    -0.031 C 
ATOM     12  C   UNL     1       0.935   9.461  15.835  1.00  0.00    -0.027 C 
BRANCH  12  13
ATOM     13  C   UNL     1       1.874   9.256  16.992  1.00  0.00     0.054 C 
BRANCH  13  14
ATOM     14  C   UNL     1       1.185   8.578  18.142  1.00  0.00    -0.027 C 
ATOM     15  C   UNL     1       0.763   7.307  18.055  1.00  0.00    -0.031 C 
BRANCH  15  16
ATOM     16  C   UNL     1       0.078   6.623  19.206  1.00  0.00     0.027 C 
BRANCH  16  17
ATOM     17  C   UNL     1       0.515   7.225  20.547  1.00  0.00     0.004 C 
BRANCH  17  18
ATOM     18  C   UNL     1      -0.551   6.988  21.628  1.00  0.00     0.000 C 
BRANCH  18  19
ATOM     19  C   UNL     1       0.060   6.616  22.987  1.00  0.00    -0.003 C 
ATOM     20  C   UNL     1       1.586   6.710  22.996  1.00  0.00     0.004 C 
ENDBRANCH  18  19
ENDBRANCH  17  18
ENDBRANCH  16  17
ENDBRANCH  15  16
ENDBRANCH  13  14
ENDBRANCH  12  13
ENDBRANCH   1  11
TORSDOF 14
ENDMDL
MODEL 9
REMARK VINA RESULT:    -4.166      1.678      2.988
REMARK INTER + INTRA:         -10.099
REMARK INTER:                  -7.421
REMARK INTRA:                  -2.678
REMARK UNBOUND:                -2.523
REMARK SMILES CCCCCC=CCC=CCCCCCCCC(=O)[O-]
REMARK SMILES IDX 11 1 12 2 13 3 14 4 15 5 16 6 17 7 18 8 19 9 20 10 10 11
REMARK SMILES IDX 9 12 8 13 7 14 6 15 5 16 4 17 3 18 2 19 1 20
REMARK H PARENT
REMARK Flexibility Score: inf
ROOT
ATOM      1  C   UNL     1      -9.120   6.205  15.181  1.00  0.00     0.027 C 
ENDROOT
BRANCH   1   2
ATOM      2  C   UNL     1      -8.227   7.371  15.637  1.00  0.00     0.004 C 
BRANCH   2   3
ATOM      3  C   UNL     1      -7.329   6.980  16.824  1.00  0.00     0.000 C 
BRANCH   3   4
ATOM      4  C   UNL     1      -5.854   7.346  16.597  1.00  0.00     0.000 C 
BRANCH   4   5
ATOM      5  C   UNL     1      -4.904   6.168  16.856  1.00  0.00     0.000 C 
BRANCH   5   6
ATOM      6  C   UNL     1      -4.610   5.405  15.560  1.00  0.00     0.006 C 
BRANCH   6   7
ATOM      7  C   UNL     1      -5.282   4.028  15.567  1.00  0.00     0.053 C 
BRANCH   7   8
ATOM      8  C   UNL     1      -4.539   3.088  16.463  1.00  0.00     0.041 C 
ATOM      9  O   UNL     1      -3.282   3.130  16.522  1.00  0.00    -0.550 OA
ATOM     10  O   UNL     1      -5.236   2.201  17.273  1.00  0.00    -0.550 OA
ENDBRANCH   7   8
ENDBRANCH   6   7
ENDBRANCH   5   6
ENDBRANCH   4   5
ENDBRANCH   3   4
ENDBRANCH   2   3
ENDBRANCH   1   2
BRANCH   1  11
ATOM     11  C   UNL     1      -8.627   5.575  13.904  1.00  0.00    -0.031 C 
ATOM     12  C   UNL     1      -7.494   5.976  13.315  1.00  0.00    -0.027 C 
BRANCH  12  13
ATOM     13  C   UNL     1      -7.028   5.340  12.033  1.00  0.00     0.054 C 
BRANCH  13  14
ATOM     14  C   UNL     1      -6.177   6.284  11.233  1.00  0.00    -0.027 C 
ATOM     15  C   UNL     1      -4.860   6.407  11.463  1.00  0.00    -0.031 C 
BRANCH  15  16
ATOM     16  C   UNL     1      -4.004   7.346  10.660  1.00  0.00     0.027 C 
BRANCH  16  17
ATOM     17  C   UNL     1      -3.310   8.372  11.563  1.00  0.00     0.004 C 
BRANCH  17  18
ATOM     18  C   UNL     1      -3.505   8.019  13.046  1.00  0.00     0.000 C 
BRANCH  18  19
ATOM     19  C   UNL     1      -4.133   9.169  13.848  1.00  0.00    -0.003 C 
ATOM     20  C   UNL     1      -5.641   9.291  13.627  1.00  0.00     0.004 C 
ENDBRANCH  18  19
ENDBRANCH  17  18
ENDBRANCH  16  17
ENDBRANCH  15  16
ENDBRANCH  13  14
ENDBRANCH  12  13
ENDBRANCH   1  11
TORSDOF 14
ENDMDL
