MODEL 1
REMARK VINA RESULT:    -6.801      0.000      0.000
REMARK INTER + INTRA:         -10.644
REMARK INTER:                 -10.180
REMARK INTRA:                  -0.465
REMARK UNBOUND:                -0.465
REMARK SMILES COC(=O)C1=CO[C@H](O[C@@H]2O[C@H](CO)[C@H](O)[C@H](O)[C@@H]2O)[C@H]2C(CO)=CC[C@@H]12
REMARK SMILES IDX 9 1 8 2 5 3 6 4 27 5 7 6 21 7 26 8 22 9 25 10 3 11 4 12 2 13
REMARK SMILES IDX 1 14 23 15 24 16 10 18 19 19 11 20 17 21 12 22 15 23 20 24
REMARK SMILES IDX 18 26 13 28 14 29 16 31
REMARK H PARENT 24 17 20 25 18 27 14 30 16 32
REMARK Flexibility Score: inf
ROOT
ATOM      1  O   UNL     1      19.063  11.125 151.759  1.00  0.00    -0.310 OA
ENDROOT
BRANCH   1   2
ATOM      2  C   UNL     1      19.894  10.233 151.035  1.00  0.00     0.316 C 
ATOM      3  C   UNL     1      21.517   9.514 148.773  1.00  0.00     0.076 C 
ATOM      4  C   UNL     1      20.185   9.617 148.664  1.00  0.00     0.202 C 
ATOM      5  C   UNL     1      22.232  10.058 149.999  1.00  0.00     0.047 C 
ATOM      6  O   UNL     1      19.411  10.148 149.698  1.00  0.00    -0.471 OA
ATOM      7  C   UNL     1      21.335  10.778 151.036  1.00  0.00     0.094 C 
ATOM      8  C   UNL     1      22.966   8.972 150.799  1.00  0.00     0.037 C 
ATOM      9  C   UNL     1      22.020  10.461 152.332  1.00  0.00    -0.039 C 
ATOM     10  C   UNL     1      22.895   9.469 152.201  1.00  0.00    -0.024 C 
BRANCH   3  11
ATOM     11  C   UNL     1      22.314   8.954 147.657  1.00  0.00     0.337 C 
ATOM     12  O   UNL     1      23.145   9.683 147.050  1.00  0.00    -0.246 OA
BRANCH  11  13
ATOM     13  O   UNL     1      22.146   7.619 147.271  1.00  0.00    -0.466 OA
ATOM     14  C   UNL     1      22.954   6.997 146.275  1.00  0.00     0.282 C 
ENDBRANCH  11  13
ENDBRANCH   3  11
BRANCH   9  15
ATOM     15  C   UNL     1      21.716  11.125 153.649  1.00  0.00     0.187 C 
BRANCH  15  16
ATOM     16  O   UNL     1      20.496  10.658 154.157  1.00  0.00    -0.392 OA
ATOM     17  H   UNL     1      20.405   9.713 153.863  1.00  0.00     0.211 HD
ENDBRANCH  15  16
ENDBRANCH   9  15
ENDBRANCH   1   2
BRANCH   1  18
ATOM     18  C   UNL     1      17.851  10.504 152.144  1.00  0.00     0.286 C 
ATOM     19  C   UNL     1      18.057   8.979 152.104  1.00  0.00     0.202 C 
ATOM     20  O   UNL     1      17.497  10.919 153.458  1.00  0.00    -0.341 OA
ATOM     21  C   UNL     1      16.773   8.266 152.580  1.00  0.00     0.179 C 
ATOM     22  C   UNL     1      16.214  10.419 153.802  1.00  0.00     0.178 C 
ATOM     23  C   UNL     1      16.240   8.871 153.897  1.00  0.00     0.177 C 
BRANCH  19  24
ATOM     24  O   UNL     1      19.156   8.632 152.912  1.00  0.00    -0.385 OA
ATOM     25  H   UNL     1      19.613   7.867 152.473  1.00  0.00     0.211 HD
ENDBRANCH  19  24
BRANCH  21  26
ATOM     26  O   UNL     1      17.013   6.887 152.729  1.00  0.00    -0.387 OA
ATOM     27  H   UNL     1      17.999   6.768 152.730  1.00  0.00     0.211 HD
ENDBRANCH  21  26
BRANCH  22  28
ATOM     28  C   UNL     1      15.776  11.068 155.125  1.00  0.00     0.191 C 
BRANCH  28  29
ATOM     29  O   UNL     1      14.651  10.418 155.659  1.00  0.00    -0.394 OA
ATOM     30  H   UNL     1      14.667  10.577 156.637  1.00  0.00     0.210 HD
ENDBRANCH  28  29
ENDBRANCH  22  28
BRANCH  23  31
ATOM     31  O   UNL     1      16.983   8.411 155.004  1.00  0.00    -0.387 OA
ATOM     32  H   UNL     1      17.273   7.480 154.827  1.00  0.00     0.211 HD
ENDBRANCH  23  31
ENDBRANCH   1  18
TORSDOF 11
ENDMDL
MODEL 2
REMARK VINA RESULT:    -6.369     10.855     13.706
REMARK INTER + INTRA:          -9.998
REMARK INTER:                  -8.664
REMARK INTRA:                  -1.334
REMARK UNBOUND:                -0.465
REMARK SMILES COC(=O)C1=CO[C@H](O[C@@H]2O[C@H](CO)[C@H](O)[C@H](O)[C@@H]2O)[C@H]2C(CO)=CC[C@@H]12
REMARK SMILES IDX 9 1 8 2 5 3 6 4 27 5 7 6 21 7 26 8 22 9 25 10 3 11 4 12 2 13
REMARK SMILES IDX 1 14 23 15 24 16 10 18 19 19 11 20 17 21 12 22 15 23 20 24
REMARK SMILES IDX 18 26 13 28 14 29 16 31
REMARK H PARENT 24 17 20 25 18 27 14 30 16 32
REMARK Flexibility Score: inf
ROOT
ATOM      1  O   UNL     1      18.031   4.135 141.877  1.00  0.00    -0.310 OA
ENDROOT
BRANCH   1   2
ATOM      2  C   UNL     1      16.740   4.334 141.323  1.00  0.00     0.316 C 
ATOM      3  C   UNL     1      13.876   4.495 141.505  1.00  0.00     0.076 C 
ATOM      4  C   UNL     1      14.511   3.321 141.624  1.00  0.00     0.202 C 
ATOM      5  C   UNL     1      14.652   5.800 141.569  1.00  0.00     0.047 C 
ATOM      6  O   UNL     1      15.902   3.257 141.729  1.00  0.00    -0.471 OA
ATOM      7  C   UNL     1      16.169   5.666 141.848  1.00  0.00     0.094 C 
ATOM      8  C   UNL     1      14.560   6.620 140.274  1.00  0.00     0.037 C 
ATOM      9  C   UNL     1      16.743   6.823 141.085  1.00  0.00    -0.039 C 
ATOM     10  C   UNL     1      15.868   7.329 140.221  1.00  0.00    -0.024 C 
BRANCH   3  11
ATOM     11  C   UNL     1      12.398   4.535 141.403  1.00  0.00     0.337 C 
ATOM     12  O   UNL     1      11.763   3.496 141.075  1.00  0.00    -0.246 OA
BRANCH  11  13
ATOM     13  O   UNL     1      11.704   5.723 141.664  1.00  0.00    -0.466 OA
ATOM     14  C   UNL     1      10.304   5.863 141.437  1.00  0.00     0.282 C 
ENDBRANCH  11  13
ENDBRANCH   3  11
BRANCH   9  15
ATOM     15  C   UNL     1      18.157   7.322 141.216  1.00  0.00     0.187 C 
BRANCH  15  16
ATOM     16  O   UNL     1      18.651   7.048 142.499  1.00  0.00    -0.392 OA
ATOM     17  H   UNL     1      19.144   7.858 142.796  1.00  0.00     0.211 HD
ENDBRANCH  15  16
ENDBRANCH   9  15
ENDBRANCH   1   2
BRANCH   1  18
ATOM     18  C   UNL     1      18.916   3.562 140.933  1.00  0.00     0.286 C 
ATOM     19  C   UNL     1      20.171   4.450 140.850  1.00  0.00     0.202 C 
ATOM     20  O   UNL     1      19.269   2.248 141.344  1.00  0.00    -0.341 OA
ATOM     21  C   UNL     1      21.191   3.823 139.875  1.00  0.00     0.179 C 
ATOM     22  C   UNL     1      20.040   1.608 140.339  1.00  0.00     0.178 C 
ATOM     23  C   UNL     1      21.407   2.321 140.165  1.00  0.00     0.177 C 
BRANCH  19  24
ATOM     24  O   UNL     1      20.727   4.599 142.134  1.00  0.00    -0.385 OA
ATOM     25  H   UNL     1      21.674   4.874 142.015  1.00  0.00     0.211 HD
ENDBRANCH  19  24
BRANCH  21  26
ATOM     26  O   UNL     1      22.412   4.520 139.937  1.00  0.00    -0.387 OA
ATOM     27  H   UNL     1      22.509   5.002 139.074  1.00  0.00     0.211 HD
ENDBRANCH  21  26
BRANCH  22  28
ATOM     28  C   UNL     1      20.208   0.129 140.719  1.00  0.00     0.191 C 
BRANCH  28  29
ATOM     29  O   UNL     1      20.324  -0.027 142.109  1.00  0.00    -0.394 OA
ATOM     30  H   UNL     1      19.565   0.464 142.516  1.00  0.00     0.210 HD
ENDBRANCH  28  29
ENDBRANCH  22  28
BRANCH  23  31
ATOM     31  O   UNL     1      22.256   2.135 141.275  1.00  0.00    -0.387 OA
ATOM     32  H   UNL     1      22.718   1.264 141.178  1.00  0.00     0.211 HD
ENDBRANCH  23  31
ENDBRANCH   1  18
TORSDOF 11
ENDMDL
MODEL 3
REMARK VINA RESULT:    -6.054     10.478     12.781
REMARK INTER + INTRA:          -9.526
REMARK INTER:                  -8.444
REMARK INTRA:                  -1.083
REMARK UNBOUND:                -0.465
REMARK SMILES COC(=O)C1=CO[C@H](O[C@@H]2O[C@H](CO)[C@H](O)[C@H](O)[C@@H]2O)[C@H]2C(CO)=CC[C@@H]12
REMARK SMILES IDX 9 1 8 2 5 3 6 4 27 5 7 6 21 7 26 8 22 9 25 10 3 11 4 12 2 13
REMARK SMILES IDX 1 14 23 15 24 16 10 18 19 19 11 20 17 21 12 22 15 23 20 24
REMARK SMILES IDX 18 26 13 28 14 29 16 31
REMARK H PARENT 24 17 20 25 18 27 14 30 16 32
REMARK Flexibility Score: inf
ROOT
ATOM      1  O   UNL     1      16.055   2.053 141.815  1.00  0.00    -0.310 OA
ENDROOT
BRANCH   1   2
ATOM      2  C   UNL     1      17.292   2.443 141.241  1.00  0.00     0.316 C 
ATOM      3  C   UNL     1      19.727   3.970 141.206  1.00  0.00     0.076 C 
ATOM      4  C   UNL     1      18.540   4.556 140.995  1.00  0.00     0.202 C 
ATOM      5  C   UNL     1      19.800   2.557 141.759  1.00  0.00     0.047 C 
ATOM      6  O   UNL     1      17.344   3.865 141.198  1.00  0.00    -0.471 OA
ATOM      7  C   UNL     1      18.441   1.904 142.115  1.00  0.00     0.094 C 
ATOM      8  C   UNL     1      20.472   1.567 140.797  1.00  0.00     0.037 C 
ATOM      9  C   UNL     1      18.692   0.454 141.823  1.00  0.00    -0.039 C 
ATOM     10  C   UNL     1      19.790   0.278 141.095  1.00  0.00    -0.024 C 
BRANCH   3  11
ATOM     11  C   UNL     1      20.981   4.730 140.989  1.00  0.00     0.337 C 
ATOM     12  O   UNL     1      21.568   4.669 139.875  1.00  0.00    -0.246 OA
BRANCH  11  13
ATOM     13  O   UNL     1      21.519   5.511 142.019  1.00  0.00    -0.466 OA
ATOM     14  C   UNL     1      22.683   6.315 141.847  1.00  0.00     0.282 C 
ENDBRANCH  11  13
ENDBRANCH   3  11
BRANCH   9  15
ATOM     15  C   UNL     1      17.785  -0.674 142.235  1.00  0.00     0.187 C 
BRANCH  15  16
ATOM     16  O   UNL     1      16.984  -0.282 143.317  1.00  0.00    -0.392 OA
ATOM     17  H   UNL     1      16.100  -0.025 142.942  1.00  0.00     0.211 HD
ENDBRANCH  15  16
ENDBRANCH   9  15
ENDBRANCH   1   2
BRANCH   1  18
ATOM     18  C   UNL     1      14.980   2.809 141.288  1.00  0.00     0.286 C 
ATOM     19  C   UNL     1      13.849   1.836 140.909  1.00  0.00     0.202 C 
ATOM     20  O   UNL     1      14.524   3.738 142.263  1.00  0.00    -0.341 OA
ATOM     21  C   UNL     1      12.631   2.629 140.388  1.00  0.00     0.179 C 
ATOM     22  C   UNL     1      13.545   4.598 141.703  1.00  0.00     0.178 C 
ATOM     23  C   UNL     1      12.269   3.799 141.328  1.00  0.00     0.177 C 
BRANCH  19  24
ATOM     24  O   UNL     1      13.502   1.058 142.029  1.00  0.00    -0.385 OA
ATOM     25  H   UNL     1      12.790   1.548 142.518  1.00  0.00     0.211 HD
ENDBRANCH  19  24
BRANCH  21  26
ATOM     26  O   UNL     1      11.529   1.769 140.219  1.00  0.00    -0.387 OA
ATOM     27  H   UNL     1      10.874   2.004 140.928  1.00  0.00     0.211 HD
ENDBRANCH  21  26
BRANCH  22  28
ATOM     28  C   UNL     1      13.245   5.719 142.711  1.00  0.00     0.191 C 
BRANCH  28  29
ATOM     29  O   UNL     1      13.249   5.231 144.028  1.00  0.00    -0.394 OA
ATOM     30  H   UNL     1      13.844   4.438 144.037  1.00  0.00     0.210 HD
ENDBRANCH  28  29
ENDBRANCH  22  28
BRANCH  23  31
ATOM     31  O   UNL     1      11.567   3.341 142.462  1.00  0.00    -0.387 OA
ATOM     32  H   UNL     1      12.188   2.816 143.027  1.00  0.00     0.211 HD
ENDBRANCH  23  31
ENDBRANCH   1  18
TORSDOF 11
ENDMDL
MODEL 4
REMARK VINA RESULT:    -6.015     12.939     15.869
REMARK INTER + INTRA:          -9.469
REMARK INTER:                  -8.114
REMARK INTRA:                  -1.354
REMARK UNBOUND:                -0.465
REMARK SMILES COC(=O)C1=CO[C@H](O[C@@H]2O[C@H](CO)[C@H](O)[C@H](O)[C@@H]2O)[C@H]2C(CO)=CC[C@@H]12
REMARK SMILES IDX 9 1 8 2 5 3 6 4 27 5 7 6 21 7 26 8 22 9 25 10 3 11 4 12 2 13
REMARK SMILES IDX 1 14 23 15 24 16 10 18 19 19 11 20 17 21 12 22 15 23 20 24
REMARK SMILES IDX 18 26 13 28 14 29 16 31
REMARK H PARENT 24 17 20 25 18 27 14 30 16 32
REMARK Flexibility Score: inf
ROOT
ATOM      1  O   UNL     1      11.927   4.257 141.941  1.00  0.00    -0.310 OA
ENDROOT
BRANCH   1   2
ATOM      2  C   UNL     1      11.014   3.336 141.367  1.00  0.00     0.316 C 
ATOM      3  C   UNL     1       9.101   1.196 141.525  1.00  0.00     0.076 C 
ATOM      4  C   UNL     1      10.403   0.977 141.754  1.00  0.00     0.202 C 
ATOM      5  C   UNL     1       8.557   2.613 141.471  1.00  0.00     0.047 C 
ATOM      6  O   UNL     1      11.307   2.035 141.868  1.00  0.00    -0.471 OA
ATOM      7  C   UNL     1       9.581   3.737 141.765  1.00  0.00     0.094 C 
ATOM      8  C   UNL     1       7.955   2.976 140.107  1.00  0.00     0.037 C 
ATOM      9  C   UNL     1       9.087   4.860 140.901  1.00  0.00    -0.039 C 
ATOM     10  C   UNL     1       8.214   4.438 139.992  1.00  0.00    -0.024 C 
BRANCH   3  11
ATOM     11  C   UNL     1       8.162   0.054 141.416  1.00  0.00     0.337 C 
ATOM     12  O   UNL     1       7.892  -0.431 140.284  1.00  0.00    -0.246 OA
BRANCH  11  13
ATOM     13  O   UNL     1       7.570  -0.485 142.564  1.00  0.00    -0.466 OA
ATOM     14  C   UNL     1       6.619   0.230 143.349  1.00  0.00     0.282 C 
ENDBRANCH  11  13
ENDBRANCH   3  11
BRANCH   9  15
ATOM     15  C   UNL     1       9.564   6.285 140.989  1.00  0.00     0.187 C 
BRANCH  15  16
ATOM     16  O   UNL     1      10.269   6.488 142.184  1.00  0.00    -0.392 OA
ATOM     17  H   UNL     1      11.213   6.671 141.933  1.00  0.00     0.211 HD
ENDBRANCH  15  16
ENDBRANCH   9  15
ENDBRANCH   1   2
BRANCH   1  18
ATOM     18  C   UNL     1      13.115   4.351 141.176  1.00  0.00     0.286 C 
ATOM     19  C   UNL     1      13.426   5.842 140.952  1.00  0.00     0.202 C 
ATOM     20  O   UNL     1      14.184   3.725 141.874  1.00  0.00    -0.341 OA
ATOM     21  C   UNL     1      14.751   5.988 140.174  1.00  0.00     0.179 C 
ATOM     22  C   UNL     1      15.346   3.685 141.060  1.00  0.00     0.178 C 
ATOM     23  C   UNL     1      15.871   5.119 140.788  1.00  0.00     0.177 C 
BRANCH  19  24
ATOM     24  O   UNL     1      13.494   6.500 142.194  1.00  0.00    -0.385 OA
ATOM     25  H   UNL     1      14.188   6.037 142.733  1.00  0.00     0.211 HD
ENDBRANCH  19  24
BRANCH  21  26
ATOM     26  O   UNL     1      15.140   7.340 140.131  1.00  0.00    -0.387 OA
ATOM     27  H   UNL     1      14.903   7.733 141.011  1.00  0.00     0.211 HD
ENDBRANCH  21  26
BRANCH  22  28
ATOM     28  C   UNL     1      16.401   2.810 141.756  1.00  0.00     0.191 C 
BRANCH  28  29
ATOM     29  O   UNL     1      17.698   3.162 141.351  1.00  0.00    -0.394 OA
ATOM     30  H   UNL     1      17.959   3.956 141.884  1.00  0.00     0.210 HD
ENDBRANCH  28  29
ENDBRANCH  22  28
BRANCH  23  31
ATOM     31  O   UNL     1      16.407   5.725 141.944  1.00  0.00    -0.387 OA
ATOM     32  H   UNL     1      16.687   5.013 142.573  1.00  0.00     0.211 HD
ENDBRANCH  23  31
ENDBRANCH   1  18
TORSDOF 11
ENDMDL
MODEL 5
REMARK VINA RESULT:    -5.994     13.001     14.875
REMARK INTER + INTRA:          -9.438
REMARK INTER:                  -7.994
REMARK INTRA:                  -1.444
REMARK UNBOUND:                -0.465
REMARK SMILES COC(=O)C1=CO[C@H](O[C@@H]2O[C@H](CO)[C@H](O)[C@H](O)[C@@H]2O)[C@H]2C(CO)=CC[C@@H]12
REMARK SMILES IDX 9 1 8 2 5 3 6 4 27 5 7 6 21 7 26 8 22 9 25 10 3 11 4 12 2 13
REMARK SMILES IDX 1 14 23 15 24 16 10 18 19 19 11 20 17 21 12 22 15 23 20 24
REMARK SMILES IDX 18 26 13 28 14 29 16 31
REMARK H PARENT 24 17 20 25 18 27 14 30 16 32
REMARK Flexibility Score: inf
ROOT
ATOM      1  O   UNL     1      10.877   3.262 142.011  1.00  0.00    -0.310 OA
ENDROOT
BRANCH   1   2
ATOM      2  C   UNL     1      11.966   3.968 141.439  1.00  0.00     0.316 C 
ATOM      3  C   UNL     1      14.274   5.675 141.597  1.00  0.00     0.076 C 
ATOM      4  C   UNL     1      13.040   6.158 141.803  1.00  0.00     0.202 C 
ATOM      5  C   UNL     1      14.517   4.175 141.570  1.00  0.00     0.047 C 
ATOM      6  O   UNL     1      11.938   5.309 141.918  1.00  0.00    -0.471 OA
ATOM      7  C   UNL     1      13.282   3.289 141.864  1.00  0.00     0.094 C 
ATOM      8  C   UNL     1      15.049   3.675 140.220  1.00  0.00     0.037 C 
ATOM      9  C   UNL     1      13.547   2.075 141.022  1.00  0.00    -0.039 C 
ATOM     10  C   UNL     1      14.498   2.296 140.121  1.00  0.00    -0.024 C 
BRANCH   3  11
ATOM     11  C   UNL     1      15.427   6.599 141.486  1.00  0.00     0.337 C 
ATOM     12  O   UNL     1      15.496   7.404 140.518  1.00  0.00    -0.246 OA
BRANCH  11  13
ATOM     13  O   UNL     1      16.442   6.579 142.451  1.00  0.00    -0.466 OA
ATOM     14  C   UNL     1      17.720   7.170 142.235  1.00  0.00     0.282 C 
ENDBRANCH  11  13
ENDBRANCH   3  11
BRANCH   9  15
ATOM     15  C   UNL     1      12.788   0.779 141.122  1.00  0.00     0.187 C 
BRANCH  15  16
ATOM     16  O   UNL     1      12.119   0.702 142.351  1.00  0.00    -0.392 OA
ATOM     17  H   UNL     1      12.639   0.078 142.924  1.00  0.00     0.211 HD
ENDBRANCH  15  16
ENDBRANCH   9  15
ENDBRANCH   1   2
BRANCH   1  18
ATOM     18  C   UNL     1       9.729   3.326 141.185  1.00  0.00     0.286 C 
ATOM     19  C   UNL     1       9.272   1.886 140.884  1.00  0.00     0.202 C 
ATOM     20  O   UNL     1       8.697   4.039 141.854  1.00  0.00    -0.341 OA
ATOM     21  C   UNL     1       7.982   1.914 140.037  1.00  0.00     0.179 C 
ATOM     22  C   UNL     1       7.592   4.236 140.987  1.00  0.00     0.178 C 
ATOM     23  C   UNL     1       6.931   2.878 140.630  1.00  0.00     0.177 C 
BRANCH  19  24
ATOM     24  O   UNL     1       9.067   1.196 142.093  1.00  0.00    -0.385 OA
ATOM     25  H   UNL     1       8.108   1.300 142.331  1.00  0.00     0.211 HD
ENDBRANCH  19  24
BRANCH  21  26
ATOM     26  O   UNL     1       7.453   0.615 139.918  1.00  0.00    -0.387 OA
ATOM     27  H   UNL     1       7.797   0.245 139.063  1.00  0.00     0.211 HD
ENDBRANCH  21  26
BRANCH  22  28
ATOM     28  C   UNL     1       6.601   5.195 141.665  1.00  0.00     0.191 C 
BRANCH  28  29
ATOM     29  O   UNL     1       5.357   5.181 141.016  1.00  0.00    -0.394 OA
ATOM     30  H   UNL     1       4.779   4.551 141.517  1.00  0.00     0.210 HD
ENDBRANCH  28  29
ENDBRANCH  22  28
BRANCH  23  31
ATOM     31  O   UNL     1       6.272   2.294 141.732  1.00  0.00    -0.387 OA
ATOM     32  H   UNL     1       6.701   2.617 142.565  1.00  0.00     0.211 HD
ENDBRANCH  23  31
ENDBRANCH   1  18
TORSDOF 11
ENDMDL
MODEL 6
REMARK VINA RESULT:    -5.987     11.930     14.102
REMARK INTER + INTRA:          -9.426
REMARK INTER:                  -8.285
REMARK INTRA:                  -1.141
REMARK UNBOUND:                -0.465
REMARK SMILES COC(=O)C1=CO[C@H](O[C@@H]2O[C@H](CO)[C@H](O)[C@H](O)[C@@H]2O)[C@H]2C(CO)=CC[C@@H]12
REMARK SMILES IDX 9 1 8 2 5 3 6 4 27 5 7 6 21 7 26 8 22 9 25 10 3 11 4 12 2 13
REMARK SMILES IDX 1 14 23 15 24 16 10 18 19 19 11 20 17 21 12 22 15 23 20 24
REMARK SMILES IDX 18 26 13 28 14 29 16 31
REMARK H PARENT 24 17 20 25 18 27 14 30 16 32
REMARK Flexibility Score: inf
ROOT
ATOM      1  O   UNL     1      14.335   1.602 142.403  1.00  0.00    -0.310 OA
ENDROOT
BRANCH   1   2
ATOM      2  C   UNL     1      15.466   1.003 141.792  1.00  0.00     0.316 C 
ATOM      3  C   UNL     1      18.116  -0.108 141.851  1.00  0.00     0.076 C 
ATOM      4  C   UNL     1      17.913   1.206 142.020  1.00  0.00     0.202 C 
ATOM      5  C   UNL     1      16.952  -1.081 141.921  1.00  0.00     0.047 C 
ATOM      6  O   UNL     1      16.628   1.726 142.184  1.00  0.00    -0.471 OA
ATOM      7  C   UNL     1      15.576  -0.459 142.266  1.00  0.00     0.094 C 
ATOM      8  C   UNL     1      16.722  -1.842 140.608  1.00  0.00     0.037 C 
ATOM      9  C   UNL     1      14.624  -1.334 141.505  1.00  0.00    -0.039 C 
ATOM     10  C   UNL     1      15.251  -2.074 140.595  1.00  0.00    -0.024 C 
BRANCH   3  11
ATOM     11  C   UNL     1      19.492  -0.634 141.686  1.00  0.00     0.337 C 
ATOM     12  O   UNL     1      20.159  -0.340 140.658  1.00  0.00    -0.246 OA
BRANCH  11  13
ATOM     13  O   UNL     1      20.053  -1.461 142.667  1.00  0.00    -0.466 OA
ATOM     14  C   UNL     1      20.168  -2.873 142.510  1.00  0.00     0.282 C 
ENDBRANCH  11  13
ENDBRANCH   3  11
BRANCH   9  15
ATOM     15  C   UNL     1      13.130  -1.338 141.684  1.00  0.00     0.187 C 
BRANCH  15  16
ATOM     16  O   UNL     1      12.796  -0.905 142.976  1.00  0.00    -0.392 OA
ATOM     17  H   UNL     1      13.299  -1.482 143.611  1.00  0.00     0.211 HD
ENDBRANCH  15  16
ENDBRANCH   9  15
ENDBRANCH   1   2
BRANCH   1  18
ATOM     18  C   UNL     1      13.903   2.743 141.685  1.00  0.00     0.286 C 
ATOM     19  C   UNL     1      12.395   2.929 141.939  1.00  0.00     0.202 C 
ATOM     20  O   UNL     1      14.621   3.887 142.128  1.00  0.00    -0.341 OA
ATOM     21  C   UNL     1      11.898   4.202 141.223  1.00  0.00     0.179 C 
ATOM     22  C   UNL     1      14.303   5.010 141.321  1.00  0.00     0.178 C 
ATOM     23  C   UNL     1      12.816   5.412 141.508  1.00  0.00     0.177 C 
BRANCH  19  24
ATOM     24  O   UNL     1      12.158   3.004 143.324  1.00  0.00    -0.385 OA
ATOM     25  H   UNL     1      12.008   3.960 143.545  1.00  0.00     0.211 HD
ENDBRANCH  19  24
BRANCH  21  26
ATOM     26  O   UNL     1      10.573   4.486 141.602  1.00  0.00    -0.387 OA
ATOM     27  H   UNL     1      10.037   4.510 140.767  1.00  0.00     0.211 HD
ENDBRANCH  21  26
BRANCH  22  28
ATOM     28  C   UNL     1      15.257   6.159 141.683  1.00  0.00     0.191 C 
BRANCH  28  29
ATOM     29  O   UNL     1      14.723   7.401 141.303  1.00  0.00    -0.394 OA
ATOM     30  H   UNL     1      13.746   7.354 141.467  1.00  0.00     0.210 HD
ENDBRANCH  28  29
ENDBRANCH  22  28
BRANCH  23  31
ATOM     31  O   UNL     1      12.561   5.952 142.785  1.00  0.00    -0.387 OA
ATOM     32  H   UNL     1      12.226   5.229 143.374  1.00  0.00     0.211 HD
ENDBRANCH  23  31
ENDBRANCH   1  18
TORSDOF 11
ENDMDL
