MODEL 1
REMARK VINA RESULT:    -4.609      0.000      0.000
REMARK INTER + INTRA:          -6.901
REMARK INTER:                  -5.822
REMARK INTRA:                  -1.079
REMARK UNBOUND:                -1.079
REMARK SMILES O=C(C=Cc1ccc(O)cc1)c1ccc(O)cc1O
REMARK SMILES IDX 4 1 3 2 5 3 6 4 7 5 8 6 11 7 10 8 9 9 2 11 1 12 12 13 18 14
REMARK SMILES IDX 13 15 17 16 14 17 15 18 19 19 16 21
REMARK H PARENT 9 10 19 20 16 22
REMARK Flexibility Score: inf
ROOT
ATOM      1  C   UNL     1     -18.633  30.243  22.634  1.00  0.00     0.012 C 
ATOM      2  C   UNL     1     -19.332  31.210  23.248  1.00  0.00     0.053 C 
ENDROOT
BRANCH   1   3
ATOM      3  C   UNL     1     -19.202  29.227  21.723  1.00  0.00    -0.025 A 
ATOM      4  C   UNL     1     -19.665  29.623  20.459  1.00  0.00     0.012 A 
ATOM      5  C   UNL     1     -20.246  28.689  19.595  1.00  0.00     0.047 A 
ATOM      6  C   UNL     1     -20.390  27.355  19.994  1.00  0.00     0.115 A 
ATOM      7  C   UNL     1     -19.375  27.892  22.130  1.00  0.00     0.012 A 
ATOM      8  C   UNL     1     -19.956  26.961  21.265  1.00  0.00     0.047 A 
BRANCH   6   9
ATOM      9  O   UNL     1     -20.965  26.415  19.142  1.00  0.00    -0.508 OA
ATOM     10  H   UNL     1     -20.613  25.466  19.086  1.00  0.00     0.293 HD
ENDBRANCH   6   9
ENDBRANCH   1   3
BRANCH   2  11
ATOM     11  C   UNL     1     -20.809  31.309  23.274  1.00  0.00     0.189 C 
ATOM     12  O   UNL     1     -21.464  30.648  24.125  1.00  0.00    -0.289 OA
BRANCH  11  13
ATOM     13  C   UNL     1     -21.528  32.250  22.380  1.00  0.00     0.064 A 
ATOM     14  C   UNL     1     -22.557  31.817  21.514  1.00  0.00     0.130 A 
ATOM     15  C   UNL     1     -21.194  33.616  22.411  1.00  0.00     0.020 A 
ATOM     16  C   UNL     1     -23.203  32.740  20.678  1.00  0.00     0.093 A 
ATOM     17  C   UNL     1     -21.846  34.529  21.578  1.00  0.00     0.047 A 
ATOM     18  C   UNL     1     -22.848  34.094  20.707  1.00  0.00     0.119 A 
BRANCH  14  19
ATOM     19  O   UNL     1     -22.958  30.480  21.498  1.00  0.00    -0.507 OA
ATOM     20  H   UNL     1     -22.363  29.741  21.857  1.00  0.00     0.293 HD
ENDBRANCH  14  19
BRANCH  18  21
ATOM     21  O   UNL     1     -23.487  35.015  19.881  1.00  0.00    -0.508 OA
ATOM     22  H   UNL     1     -23.415  36.013  20.045  1.00  0.00     0.293 HD
ENDBRANCH  18  21
ENDBRANCH  11  13
ENDBRANCH   2  11
TORSDOF 6
ENDMDL
MODEL 2
REMARK VINA RESULT:    -4.511      3.024      6.823
REMARK INTER + INTRA:          -6.777
REMARK INTER:                  -5.799
REMARK INTRA:                  -0.978
REMARK UNBOUND:                -1.079
REMARK SMILES O=C(C=Cc1ccc(O)cc1)c1ccc(O)cc1O
REMARK SMILES IDX 4 1 3 2 5 3 6 4 7 5 8 6 11 7 10 8 9 9 2 11 1 12 12 13 18 14
REMARK SMILES IDX 13 15 17 16 14 17 15 18 19 19 16 21
REMARK H PARENT 9 10 19 20 16 22
REMARK Flexibility Score: inf
ROOT
ATOM      1  C   UNL     1     -18.768  29.314  21.421  1.00  0.00     0.012 C 
ATOM      2  C   UNL     1     -18.289  28.299  22.157  1.00  0.00     0.053 C 
ENDROOT
BRANCH   1   3
ATOM      3  C   UNL     1     -20.122  29.373  20.829  1.00  0.00    -0.025 A 
ATOM      4  C   UNL     1     -21.198  29.803  21.621  1.00  0.00     0.012 A 
ATOM      5  C   UNL     1     -22.495  29.828  21.099  1.00  0.00     0.047 A 
ATOM      6  C   UNL     1     -22.733  29.402  19.786  1.00  0.00     0.115 A 
ATOM      7  C   UNL     1     -20.371  28.919  19.522  1.00  0.00     0.012 A 
ATOM      8  C   UNL     1     -21.668  28.944  19.002  1.00  0.00     0.047 A 
BRANCH   6   9
ATOM      9  O   UNL     1     -24.020  29.423  19.254  1.00  0.00    -0.508 OA
ATOM     10  H   UNL     1     -24.220  29.882  18.372  1.00  0.00     0.293 HD
ENDBRANCH   6   9
ENDBRANCH   1   3
BRANCH   2  11
ATOM     11  C   UNL     1     -18.955  26.990  22.340  1.00  0.00     0.189 C 
ATOM     12  O   UNL     1     -19.731  26.816  23.319  1.00  0.00    -0.289 OA
BRANCH  11  13
ATOM     13  C   UNL     1     -18.804  25.908  21.337  1.00  0.00     0.064 A 
ATOM     14  C   UNL     1     -17.655  25.086  21.295  1.00  0.00     0.130 A 
ATOM     15  C   UNL     1     -19.841  25.676  20.415  1.00  0.00     0.020 A 
ATOM     16  C   UNL     1     -17.549  24.081  20.321  1.00  0.00     0.093 A 
ATOM     17  C   UNL     1     -19.728  24.671  19.453  1.00  0.00     0.047 A 
ATOM     18  C   UNL     1     -18.583  23.874  19.399  1.00  0.00     0.119 A 
BRANCH  14  19
ATOM     19  O   UNL     1     -16.631  25.245  22.229  1.00  0.00    -0.507 OA
ATOM     20  H   UNL     1     -16.480  24.575  22.975  1.00  0.00     0.293 HD
ENDBRANCH  14  19
BRANCH  18  21
ATOM     21  O   UNL     1     -18.484  22.877  18.431  1.00  0.00    -0.508 OA
ATOM     22  H   UNL     1     -18.522  23.094  17.442  1.00  0.00     0.293 HD
ENDBRANCH  18  21
ENDBRANCH  11  13
ENDBRANCH   2  11
TORSDOF 6
ENDMDL
MODEL 3
REMARK VINA RESULT:    -4.406      2.788      6.432
REMARK INTER + INTRA:          -6.644
REMARK INTER:                  -5.356
REMARK INTRA:                  -1.288
REMARK UNBOUND:                -1.079
REMARK SMILES O=C(C=Cc1ccc(O)cc1)c1ccc(O)cc1O
REMARK SMILES IDX 4 1 3 2 5 3 6 4 7 5 8 6 11 7 10 8 9 9 2 11 1 12 12 13 18 14
REMARK SMILES IDX 13 15 17 16 14 17 15 18 19 19 16 21
REMARK H PARENT 9 10 19 20 16 22
REMARK Flexibility Score: inf
ROOT
ATOM      1  C   UNL     1     -18.772  29.549  21.526  1.00  0.00     0.012 C 
ATOM      2  C   UNL     1     -18.320  28.630  22.393  1.00  0.00     0.053 C 
ENDROOT
BRANCH   1   3
ATOM      3  C   UNL     1     -20.102  29.530  20.880  1.00  0.00    -0.025 A 
ATOM      4  C   UNL     1     -21.213  30.016  21.586  1.00  0.00     0.012 A 
ATOM      5  C   UNL     1     -22.488  29.970  21.013  1.00  0.00     0.047 A 
ATOM      6  C   UNL     1     -22.669  29.418  19.739  1.00  0.00     0.115 A 
ATOM      7  C   UNL     1     -20.293  28.950  19.613  1.00  0.00     0.012 A 
ATOM      8  C   UNL     1     -21.568  28.905  19.044  1.00  0.00     0.047 A 
BRANCH   6   9
ATOM      9  O   UNL     1     -23.934  29.368  19.158  1.00  0.00    -0.508 OA
ATOM     10  H   UNL     1     -24.691  28.845  19.584  1.00  0.00     0.293 HD
ENDBRANCH   6   9
ENDBRANCH   1   3
BRANCH   2  11
ATOM     11  C   UNL     1     -18.990  27.348  22.703  1.00  0.00     0.189 C 
ATOM     12  O   UNL     1     -19.739  27.262  23.714  1.00  0.00    -0.289 OA
BRANCH  11  13
ATOM     13  C   UNL     1     -18.875  26.185  21.788  1.00  0.00     0.064 A 
ATOM     14  C   UNL     1     -20.005  25.626  21.148  1.00  0.00     0.130 A 
ATOM     15  C   UNL     1     -17.606  25.636  21.530  1.00  0.00     0.020 A 
ATOM     16  C   UNL     1     -19.852  24.519  20.300  1.00  0.00     0.093 A 
ATOM     17  C   UNL     1     -17.463  24.538  20.680  1.00  0.00     0.047 A 
ATOM     18  C   UNL     1     -18.584  23.973  20.067  1.00  0.00     0.119 A 
BRANCH  14  19
ATOM     19  O   UNL     1     -21.273  26.179  21.332  1.00  0.00    -0.507 OA
ATOM     20  H   UNL     1     -21.894  25.857  22.066  1.00  0.00     0.293 HD
ENDBRANCH  14  19
BRANCH  18  21
ATOM     21  O   UNL     1     -18.426  22.875  19.224  1.00  0.00    -0.508 OA
ATOM     22  H   UNL     1     -19.223  22.408  18.808  1.00  0.00     0.293 HD
ENDBRANCH  18  21
ENDBRANCH  11  13
ENDBRANCH   2  11
TORSDOF 6
ENDMDL
MODEL 4
REMARK VINA RESULT:    -4.349      3.011      6.839
REMARK INTER + INTRA:          -6.573
REMARK INTER:                  -5.555
REMARK INTRA:                  -1.018
REMARK UNBOUND:                -1.079
REMARK SMILES O=C(C=Cc1ccc(O)cc1)c1ccc(O)cc1O
REMARK SMILES IDX 4 1 3 2 5 3 6 4 7 5 8 6 11 7 10 8 9 9 2 11 1 12 12 13 18 14
REMARK SMILES IDX 13 15 17 16 14 17 15 18 19 19 16 21
REMARK H PARENT 9 10 19 20 16 22
REMARK Flexibility Score: inf
ROOT
ATOM      1  C   UNL     1     -18.644  29.621  21.814  1.00  0.00     0.012 C 
ATOM      2  C   UNL     1     -18.092  28.766  22.689  1.00  0.00     0.053 C 
ENDROOT
BRANCH   1   3
ATOM      3  C   UNL     1     -19.964  29.449  21.170  1.00  0.00    -0.025 A 
ATOM      4  C   UNL     1     -20.027  28.944  19.862  1.00  0.00     0.012 A 
ATOM      5  C   UNL     1     -21.259  28.811  19.215  1.00  0.00     0.047 A 
ATOM      6  C   UNL     1     -22.439  29.202  19.860  1.00  0.00     0.115 A 
ATOM      7  C   UNL     1     -21.148  29.868  21.802  1.00  0.00     0.012 A 
ATOM      8  C   UNL     1     -22.378  29.734  21.153  1.00  0.00     0.047 A 
BRANCH   6   9
ATOM      9  O   UNL     1     -23.673  29.074  19.226  1.00  0.00    -0.508 OA
ATOM     10  H   UNL     1     -23.744  28.745  18.270  1.00  0.00     0.293 HD
ENDBRANCH   6   9
ENDBRANCH   1   3
BRANCH   2  11
ATOM     11  C   UNL     1     -18.615  27.420  23.011  1.00  0.00     0.189 C 
ATOM     12  O   UNL     1     -19.493  27.290  23.908  1.00  0.00    -0.289 OA
BRANCH  11  13
ATOM     13  C   UNL     1     -18.200  26.231  22.228  1.00  0.00     0.064 A 
ATOM     14  C   UNL     1     -17.018  25.516  22.529  1.00  0.00     0.130 A 
ATOM     15  C   UNL     1     -19.015  25.785  21.172  1.00  0.00     0.020 A 
ATOM     16  C   UNL     1     -16.657  24.403  21.755  1.00  0.00     0.093 A 
ATOM     17  C   UNL     1     -18.650  24.672  20.411  1.00  0.00     0.047 A 
ATOM     18  C   UNL     1     -17.470  23.982  20.696  1.00  0.00     0.119 A 
BRANCH  14  19
ATOM     19  O   UNL     1     -16.214  25.892  23.606  1.00  0.00    -0.507 OA
ATOM     20  H   UNL     1     -15.203  25.906  23.537  1.00  0.00     0.293 HD
ENDBRANCH  14  19
BRANCH  18  21
ATOM     21  O   UNL     1     -17.118  22.876  19.925  1.00  0.00    -0.508 OA
ATOM     22  H   UNL     1     -16.154  22.576  19.839  1.00  0.00     0.293 HD
ENDBRANCH  18  21
ENDBRANCH  11  13
ENDBRANCH   2  11
TORSDOF 6
ENDMDL
MODEL 5
REMARK VINA RESULT:    -4.330      6.704     10.211
REMARK INTER + INTRA:          -6.548
REMARK INTER:                  -5.400
REMARK INTRA:                  -1.148
REMARK UNBOUND:                -1.079
REMARK SMILES O=C(C=Cc1ccc(O)cc1)c1ccc(O)cc1O
REMARK SMILES IDX 4 1 3 2 5 3 6 4 7 5 8 6 11 7 10 8 9 9 2 11 1 12 12 13 18 14
REMARK SMILES IDX 13 15 17 16 14 17 15 18 19 19 16 21
REMARK H PARENT 9 10 19 20 16 22
REMARK Flexibility Score: inf
ROOT
ATOM      1  C   UNL     1     -23.137  40.210  22.120  1.00  0.00     0.012 C 
ATOM      2  C   UNL     1     -22.402  41.177  21.550  1.00  0.00     0.053 C 
ENDROOT
BRANCH   1   3
ATOM      3  C   UNL     1     -22.661  38.843  22.423  1.00  0.00    -0.025 A 
ATOM      4  C   UNL     1     -22.857  37.825  21.477  1.00  0.00     0.012 A 
ATOM      5  C   UNL     1     -22.454  36.515  21.756  1.00  0.00     0.047 A 
ATOM      6  C   UNL     1     -21.872  36.206  22.992  1.00  0.00     0.115 A 
ATOM      7  C   UNL     1     -22.104  38.521  23.673  1.00  0.00     0.012 A 
ATOM      8  C   UNL     1     -21.703  37.211  23.949  1.00  0.00     0.047 A 
BRANCH   6   9
ATOM      9  O   UNL     1     -21.466  34.905  23.281  1.00  0.00    -0.508 OA
ATOM     10  H   UNL     1     -20.745  34.716  23.968  1.00  0.00     0.293 HD
ENDBRANCH   6   9
ENDBRANCH   1   3
BRANCH   2  11
ATOM     11  C   UNL     1     -21.061  40.988  20.953  1.00  0.00     0.189 C 
ATOM     12  O   UNL     1     -20.956  40.497  19.796  1.00  0.00    -0.289 OA
BRANCH  11  13
ATOM     13  C   UNL     1     -19.840  41.459  21.651  1.00  0.00     0.064 A 
ATOM     14  C   UNL     1     -18.971  42.412  21.073  1.00  0.00     0.130 A 
ATOM     15  C   UNL     1     -19.548  40.964  22.935  1.00  0.00     0.020 A 
ATOM     16  C   UNL     1     -17.820  42.821  21.764  1.00  0.00     0.093 A 
ATOM     17  C   UNL     1     -18.404  41.380  23.618  1.00  0.00     0.047 A 
ATOM     18  C   UNL     1     -17.535  42.305  23.034  1.00  0.00     0.119 A 
BRANCH  14  19
ATOM     19  O   UNL     1     -19.257  42.972  19.827  1.00  0.00    -0.507 OA
ATOM     20  H   UNL     1     -19.005  43.928  19.601  1.00  0.00     0.293 HD
ENDBRANCH  14  19
BRANCH  18  21
ATOM     21  O   UNL     1     -16.395  42.709  23.726  1.00  0.00    -0.508 OA
ATOM     22  H   UNL     1     -15.842  42.051  24.264  1.00  0.00     0.293 HD
ENDBRANCH  18  21
ENDBRANCH  11  13
ENDBRANCH   2  11
TORSDOF 6
ENDMDL
MODEL 6
REMARK VINA RESULT:    -4.278      1.734      3.122
REMARK INTER + INTRA:          -6.483
REMARK INTER:                  -5.289
REMARK INTRA:                  -1.194
REMARK UNBOUND:                -1.079
REMARK SMILES O=C(C=Cc1ccc(O)cc1)c1ccc(O)cc1O
REMARK SMILES IDX 4 1 3 2 5 3 6 4 7 5 8 6 11 7 10 8 9 9 2 11 1 12 12 13 18 14
REMARK SMILES IDX 13 15 17 16 14 17 15 18 19 19 16 21
REMARK H PARENT 9 10 19 20 16 22
REMARK Flexibility Score: inf
ROOT
ATOM      1  C   UNL     1     -22.265  28.884  19.242  1.00  0.00     0.012 C 
ATOM      2  C   UNL     1     -23.383  29.513  19.638  1.00  0.00     0.053 C 
ENDROOT
BRANCH   1   3
ATOM      3  C   UNL     1     -21.080  28.636  20.090  1.00  0.00    -0.025 A 
ATOM      4  C   UNL     1     -21.074  27.528  20.951  1.00  0.00     0.012 A 
ATOM      5  C   UNL     1     -19.983  27.295  21.795  1.00  0.00     0.047 A 
ATOM      6  C   UNL     1     -18.897  28.179  21.803  1.00  0.00     0.115 A 
ATOM      7  C   UNL     1     -20.000  29.537  20.124  1.00  0.00     0.012 A 
ATOM      8  C   UNL     1     -18.912  29.302  20.968  1.00  0.00     0.047 A 
BRANCH   6   9
ATOM      9  O   UNL     1     -17.805  27.957  22.638  1.00  0.00    -0.508 OA
ATOM     10  H   UNL     1     -17.527  28.636  23.337  1.00  0.00     0.293 HD
ENDBRANCH   6   9
ENDBRANCH   1   3
BRANCH   2  11
ATOM     11  C   UNL     1     -23.548  30.230  20.921  1.00  0.00     0.189 C 
ATOM     12  O   UNL     1     -23.972  29.609  21.935  1.00  0.00    -0.289 OA
BRANCH  11  13
ATOM     13  C   UNL     1     -23.129  31.646  21.065  1.00  0.00     0.064 A 
ATOM     14  C   UNL     1     -22.102  32.033  21.957  1.00  0.00     0.130 A 
ATOM     15  C   UNL     1     -23.753  32.630  20.278  1.00  0.00     0.020 A 
ATOM     16  C   UNL     1     -21.747  33.386  22.069  1.00  0.00     0.093 A 
ATOM     17  C   UNL     1     -23.388  33.973  20.393  1.00  0.00     0.047 A 
ATOM     18  C   UNL     1     -22.389  34.356  21.290  1.00  0.00     0.119 A 
BRANCH  14  19
ATOM     19  O   UNL     1     -21.419  31.079  22.712  1.00  0.00    -0.507 OA
ATOM     20  H   UNL     1     -20.967  30.281  22.280  1.00  0.00     0.293 HD
ENDBRANCH  14  19
BRANCH  18  21
ATOM     21  O   UNL     1     -22.038  35.700  21.396  1.00  0.00    -0.508 OA
ATOM     22  H   UNL     1     -21.087  36.013  21.239  1.00  0.00     0.293 HD
ENDBRANCH  18  21
ENDBRANCH  11  13
ENDBRANCH   2  11
TORSDOF 6
ENDMDL
MODEL 7
REMARK VINA RESULT:    -4.252      1.912      2.935
REMARK INTER + INTRA:          -6.450
REMARK INTER:                  -5.585
REMARK INTRA:                  -0.865
REMARK UNBOUND:                -1.079
REMARK SMILES O=C(C=Cc1ccc(O)cc1)c1ccc(O)cc1O
REMARK SMILES IDX 4 1 3 2 5 3 6 4 7 5 8 6 11 7 10 8 9 9 2 11 1 12 12 13 18 14
REMARK SMILES IDX 13 15 17 16 14 17 15 18 19 19 16 21
REMARK H PARENT 9 10 19 20 16 22
REMARK Flexibility Score: inf
ROOT
ATOM      1  C   UNL     1     -20.572  28.651  19.559  1.00  0.00     0.012 C 
ATOM      2  C   UNL     1     -21.788  29.204  19.689  1.00  0.00     0.053 C 
ENDROOT
BRANCH   1   3
ATOM      3  C   UNL     1     -19.677  28.286  20.677  1.00  0.00    -0.025 A 
ATOM      4  C   UNL     1     -18.819  29.258  21.214  1.00  0.00     0.012 A 
ATOM      5  C   UNL     1     -17.933  28.927  22.244  1.00  0.00     0.047 A 
ATOM      6  C   UNL     1     -17.879  27.615  22.733  1.00  0.00     0.115 A 
ATOM      7  C   UNL     1     -19.598  26.964  21.151  1.00  0.00     0.012 A 
ATOM      8  C   UNL     1     -18.712  26.636  22.181  1.00  0.00     0.047 A 
BRANCH   6   9
ATOM      9  O   UNL     1     -17.002  27.273  23.759  1.00  0.00    -0.508 OA
ATOM     10  H   UNL     1     -16.007  27.170  23.592  1.00  0.00     0.293 HD
ENDBRANCH   6   9
ENDBRANCH   1   3
BRANCH   2  11
ATOM     11  C   UNL     1     -22.360  29.717  20.954  1.00  0.00     0.189 C 
ATOM     12  O   UNL     1     -22.908  28.917  21.761  1.00  0.00    -0.289 OA
BRANCH  11  13
ATOM     13  C   UNL     1     -22.212  31.142  21.337  1.00  0.00     0.064 A 
ATOM     14  C   UNL     1     -23.074  32.143  20.833  1.00  0.00     0.130 A 
ATOM     15  C   UNL     1     -21.203  31.508  22.246  1.00  0.00     0.020 A 
ATOM     16  C   UNL     1     -22.891  33.481  21.213  1.00  0.00     0.093 A 
ATOM     17  C   UNL     1     -21.032  32.842  22.623  1.00  0.00     0.047 A 
ATOM     18  C   UNL     1     -21.871  33.832  22.106  1.00  0.00     0.119 A 
BRANCH  14  19
ATOM     19  O   UNL     1     -24.124  31.811  19.976  1.00  0.00    -0.507 OA
ATOM     20  H   UNL     1     -24.122  30.952  19.438  1.00  0.00     0.293 HD
ENDBRANCH  14  19
BRANCH  18  21
ATOM     21  O   UNL     1     -21.686  35.158  22.489  1.00  0.00    -0.508 OA
ATOM     22  H   UNL     1     -21.004  35.415  23.194  1.00  0.00     0.293 HD
ENDBRANCH  18  21
ENDBRANCH  11  13
ENDBRANCH   2  11
TORSDOF 6
ENDMDL
MODEL 8
REMARK VINA RESULT:    -4.201      1.442      2.248
REMARK INTER + INTRA:          -6.386
REMARK INTER:                  -5.437
REMARK INTRA:                  -0.949
REMARK UNBOUND:                -1.079
REMARK SMILES O=C(C=Cc1ccc(O)cc1)c1ccc(O)cc1O
REMARK SMILES IDX 4 1 3 2 5 3 6 4 7 5 8 6 11 7 10 8 9 9 2 11 1 12 12 13 18 14
REMARK SMILES IDX 13 15 17 16 14 17 15 18 19 19 16 21
REMARK H PARENT 9 10 19 20 16 22
REMARK Flexibility Score: inf
ROOT
ATOM      1  C   UNL     1     -18.588  28.940  21.643  1.00  0.00     0.012 C 
ATOM      2  C   UNL     1     -18.678  29.860  22.615  1.00  0.00     0.053 C 
ENDROOT
BRANCH   1   3
ATOM      3  C   UNL     1     -19.725  28.416  20.856  1.00  0.00    -0.025 A 
ATOM      4  C   UNL     1     -20.237  29.183  19.798  1.00  0.00     0.012 A 
ATOM      5  C   UNL     1     -21.339  28.730  19.066  1.00  0.00     0.047 A 
ATOM      6  C   UNL     1     -21.954  27.517  19.398  1.00  0.00     0.115 A 
ATOM      7  C   UNL     1     -20.365  27.213  21.204  1.00  0.00     0.012 A 
ATOM      8  C   UNL     1     -21.466  26.763  20.471  1.00  0.00     0.047 A 
BRANCH   6   9
ATOM      9  O   UNL     1     -23.052  27.055  18.675  1.00  0.00    -0.508 OA
ATOM     10  H   UNL     1     -23.920  26.803  19.135  1.00  0.00     0.293 HD
ENDBRANCH   6   9
ENDBRANCH   1   3
BRANCH   2  11
ATOM     11  C   UNL     1     -19.941  30.364  23.197  1.00  0.00     0.189 C 
ATOM     12  O   UNL     1     -20.509  29.713  24.117  1.00  0.00    -0.289 OA
BRANCH  11  13
ATOM     13  C   UNL     1     -20.502  31.675  22.788  1.00  0.00     0.064 A 
ATOM     14  C   UNL     1     -19.973  32.895  23.267  1.00  0.00     0.130 A 
ATOM     15  C   UNL     1     -21.576  31.710  21.880  1.00  0.00     0.020 A 
ATOM     16  C   UNL     1     -20.542  34.112  22.862  1.00  0.00     0.093 A 
ATOM     17  C   UNL     1     -22.133  32.926  21.479  1.00  0.00     0.047 A 
ATOM     18  C   UNL     1     -21.622  34.129  21.971  1.00  0.00     0.119 A 
BRANCH  14  19
ATOM     19  O   UNL     1     -18.870  32.905  24.122  1.00  0.00    -0.507 OA
ATOM     20  H   UNL     1     -18.529  33.762  24.542  1.00  0.00     0.293 HD
ENDBRANCH  14  19
BRANCH  18  21
ATOM     21  O   UNL     1     -22.190  35.334  21.564  1.00  0.00    -0.508 OA
ATOM     22  H   UNL     1     -23.117  35.611  21.867  1.00  0.00     0.293 HD
ENDBRANCH  18  21
ENDBRANCH  11  13
ENDBRANCH   2  11
TORSDOF 6
ENDMDL
MODEL 9
REMARK VINA RESULT:    -4.026      3.988      6.618
REMARK INTER + INTRA:          -6.165
REMARK INTER:                  -5.087
REMARK INTRA:                  -1.078
REMARK UNBOUND:                -1.079
REMARK SMILES O=C(C=Cc1ccc(O)cc1)c1ccc(O)cc1O
REMARK SMILES IDX 4 1 3 2 5 3 6 4 7 5 8 6 11 7 10 8 9 9 2 11 1 12 12 13 18 14
REMARK SMILES IDX 13 15 17 16 14 17 15 18 19 19 16 21
REMARK H PARENT 9 10 19 20 16 22
REMARK Flexibility Score: inf
ROOT
ATOM      1  C   UNL     1     -21.994  23.250  19.052  1.00  0.00     0.012 C 
ATOM      2  C   UNL     1     -22.637  24.223  19.716  1.00  0.00     0.053 C 
ENDROOT
BRANCH   1   3
ATOM      3  C   UNL     1     -21.310  23.414  17.751  1.00  0.00    -0.025 A 
ATOM      4  C   UNL     1     -22.038  23.227  16.566  1.00  0.00     0.012 A 
ATOM      5  C   UNL     1     -21.404  23.335  15.324  1.00  0.00     0.047 A 
ATOM      6  C   UNL     1     -20.032  23.607  15.254  1.00  0.00     0.115 A 
ATOM      7  C   UNL     1     -19.927  23.658  17.676  1.00  0.00     0.012 A 
ATOM      8  C   UNL     1     -19.296  23.765  16.434  1.00  0.00     0.047 A 
BRANCH   6   9
ATOM      9  O   UNL     1     -19.391  23.718  14.023  1.00  0.00    -0.508 OA
ATOM     10  H   UNL     1     -19.443  24.568  13.474  1.00  0.00     0.293 HD
ENDBRANCH   6   9
ENDBRANCH   1   3
BRANCH   2  11
ATOM     11  C   UNL     1     -22.937  25.568  19.178  1.00  0.00     0.189 C 
ATOM     12  O   UNL     1     -23.940  25.732  18.430  1.00  0.00    -0.289 OA
BRANCH  11  13
ATOM     13  C   UNL     1     -22.136  26.750  19.581  1.00  0.00     0.064 A 
ATOM     14  C   UNL     1     -22.701  28.043  19.655  1.00  0.00     0.130 A 
ATOM     15  C   UNL     1     -20.783  26.578  19.924  1.00  0.00     0.020 A 
ATOM     16  C   UNL     1     -21.903  29.135  20.030  1.00  0.00     0.093 A 
ATOM     17  C   UNL     1     -19.998  27.670  20.302  1.00  0.00     0.047 A 
ATOM     18  C   UNL     1     -20.553  28.950  20.352  1.00  0.00     0.119 A 
BRANCH  14  19
ATOM     19  O   UNL     1     -24.054  28.246  19.380  1.00  0.00    -0.507 OA
ATOM     20  H   UNL     1     -24.446  29.176  19.288  1.00  0.00     0.293 HD
ENDBRANCH  14  19
BRANCH  18  21
ATOM     21  O   UNL     1     -19.757  30.030  20.728  1.00  0.00    -0.508 OA
ATOM     22  H   UNL     1     -20.154  30.949  20.890  1.00  0.00     0.293 HD
ENDBRANCH  18  21
ENDBRANCH  11  13
ENDBRANCH   2  11
TORSDOF 6
ENDMDL
