MODEL 1
REMARK VINA RESULT:    -4.030      0.000      0.000
REMARK INTER + INTRA:          -5.129
REMARK INTER:                  -4.972
REMARK INTRA:                  -0.157
REMARK UNBOUND:                -0.157
REMARK SMILES CCCCCC(=O)[O-]
REMARK SMILES IDX 4 1 5 2 6 3 7 4 8 5 3 6 2 7 1 8
REMARK H PARENT
REMARK Flexibility Score: inf
ROOT
ATOM      1  C   UNL     1     134.638 133.260 114.233  1.00  0.00     0.006 C 
ENDROOT
BRANCH   1   2
ATOM      2  C   UNL     1     136.052 133.846 114.368  1.00  0.00     0.053 C 
BRANCH   2   3
ATOM      3  C   UNL     1     136.734 133.383 115.619  1.00  0.00     0.041 C 
ATOM      4  O   UNL     1     136.810 134.144 116.620  1.00  0.00    -0.550 OA
ATOM      5  O   UNL     1     137.255 132.097 115.692  1.00  0.00    -0.550 OA
ENDBRANCH   2   3
ENDBRANCH   1   2
BRANCH   1   6
ATOM      6  C   UNL     1     133.580 133.927 115.135  1.00  0.00     0.000 C 
BRANCH   6   7
ATOM      7  C   UNL     1     133.354 135.427 114.868  1.00  0.00    -0.003 C 
ATOM      8  C   UNL     1     132.227 135.692 113.871  1.00  0.00     0.004 C 
ENDBRANCH   6   7
ENDBRANCH   1   6
TORSDOF 4
ENDMDL
MODEL 2
REMARK VINA RESULT:    -4.023      0.961      1.225
REMARK INTER + INTRA:          -5.121
REMARK INTER:                  -4.958
REMARK INTRA:                  -0.163
REMARK UNBOUND:                -0.157
REMARK SMILES CCCCCC(=O)[O-]
REMARK SMILES IDX 4 1 5 2 6 3 7 4 8 5 3 6 2 7 1 8
REMARK H PARENT
REMARK Flexibility Score: inf
ROOT
ATOM      1  C   UNL     1     134.568 133.525 113.968  1.00  0.00     0.006 C 
ENDROOT
BRANCH   1   2
ATOM      2  C   UNL     1     135.882 133.079 114.628  1.00  0.00     0.053 C 
BRANCH   2   3
ATOM      3  C   UNL     1     136.543 134.198 115.373  1.00  0.00     0.041 C 
ATOM      4  O   UNL     1     136.936 135.225 114.758  1.00  0.00    -0.550 OA
ATOM      5  O   UNL     1     136.694 134.122 116.752  1.00  0.00    -0.550 OA
ENDBRANCH   2   3
ENDBRANCH   1   2
BRANCH   1   6
ATOM      6  C   UNL     1     133.528 134.111 114.945  1.00  0.00     0.000 C 
BRANCH   6   7
ATOM      7  C   UNL     1     133.196 135.598 114.722  1.00  0.00    -0.003 C 
ATOM      8  C   UNL     1     131.983 135.809 113.817  1.00  0.00     0.004 C 
ENDBRANCH   6   7
ENDBRANCH   1   6
TORSDOF 4
ENDMDL
MODEL 3
REMARK VINA RESULT:    -4.004      9.892     11.044
REMARK INTER + INTRA:          -5.098
REMARK INTER:                  -4.939
REMARK INTRA:                  -0.159
REMARK UNBOUND:                -0.157
REMARK SMILES CCCCCC(=O)[O-]
REMARK SMILES IDX 4 1 5 2 6 3 7 4 8 5 3 6 2 7 1 8
REMARK H PARENT
REMARK Flexibility Score: inf
ROOT
ATOM      1  C   UNL     1     141.753 142.908 113.911  1.00  0.00     0.006 C 
ENDROOT
BRANCH   1   2
ATOM      2  C   UNL     1     140.496 143.358 114.672  1.00  0.00     0.053 C 
BRANCH   2   3
ATOM      3  C   UNL     1     139.891 142.240 115.465  1.00  0.00     0.041 C 
ATOM      4  O   UNL     1     139.432 141.223 114.882  1.00  0.00    -0.550 OA
ATOM      5  O   UNL     1     139.866 142.306 116.853  1.00  0.00    -0.550 OA
ENDBRANCH   2   3
ENDBRANCH   1   2
BRANCH   1   6
ATOM      6  C   UNL     1     142.893 142.388 114.810  1.00  0.00     0.000 C 
BRANCH   6   7
ATOM      7  C   UNL     1     143.219 140.892 114.642  1.00  0.00    -0.003 C 
ATOM      8  C   UNL     1     144.500 140.646 113.846  1.00  0.00     0.004 C 
ENDBRANCH   6   7
ENDBRANCH   1   6
TORSDOF 4
ENDMDL
MODEL 4
REMARK VINA RESULT:    -3.981     10.080     11.166
REMARK INTER + INTRA:          -5.069
REMARK INTER:                  -4.836
REMARK INTRA:                  -0.233
REMARK UNBOUND:                -0.157
REMARK SMILES CCCCCC(=O)[O-]
REMARK SMILES IDX 4 1 5 2 6 3 7 4 8 5 3 6 2 7 1 8
REMARK H PARENT
REMARK Flexibility Score: inf
ROOT
ATOM      1  C   UNL     1     142.064 143.253 114.241  1.00  0.00     0.006 C 
ENDROOT
BRANCH   1   2
ATOM      2  C   UNL     1     140.581 142.862 114.151  1.00  0.00     0.053 C 
BRANCH   2   3
ATOM      3  C   UNL     1     139.803 143.338 115.339  1.00  0.00     0.041 C 
ATOM      4  O   UNL     1     139.335 144.507 115.365  1.00  0.00    -0.550 OA
ATOM      5  O   UNL     1     139.566 142.479 116.405  1.00  0.00    -0.550 OA
ENDBRANCH   2   3
ENDBRANCH   1   2
BRANCH   1   6
ATOM      6  C   UNL     1     142.887 142.417 115.243  1.00  0.00     0.000 C 
BRANCH   6   7
ATOM      7  C   UNL     1     142.878 140.900 114.981  1.00  0.00    -0.003 C 
ATOM      8  C   UNL     1     142.189 140.107 116.091  1.00  0.00     0.004 C 
ENDBRANCH   6   7
ENDBRANCH   1   6
TORSDOF 4
ENDMDL
MODEL 5
REMARK VINA RESULT:    -3.852      1.717      2.353
REMARK INTER + INTRA:          -4.909
REMARK INTER:                  -4.691
REMARK INTRA:                  -0.218
REMARK UNBOUND:                -0.157
REMARK SMILES CCCCCC(=O)[O-]
REMARK SMILES IDX 4 1 5 2 6 3 7 4 8 5 3 6 2 7 1 8
REMARK H PARENT
REMARK Flexibility Score: inf
ROOT
ATOM      1  C   UNL     1     136.480 133.478 115.337  1.00  0.00     0.006 C 
ENDROOT
BRANCH   1   2
ATOM      2  C   UNL     1     136.704 134.849 115.995  1.00  0.00     0.053 C 
BRANCH   2   3
ATOM      3  C   UNL     1     136.409 134.820 117.463  1.00  0.00     0.041 C 
ATOM      4  O   UNL     1     137.255 135.251 118.290  1.00  0.00    -0.550 OA
ATOM      5  O   UNL     1     135.184 134.346 117.918  1.00  0.00    -0.550 OA
ENDBRANCH   2   3
ENDBRANCH   1   2
BRANCH   1   6
ATOM      6  C   UNL     1     135.422 133.472 114.214  1.00  0.00     0.000 C 
BRANCH   6   7
ATOM      7  C   UNL     1     133.963 133.386 114.699  1.00  0.00    -0.003 C 
ATOM      8  C   UNL     1     133.215 134.713 114.582  1.00  0.00     0.004 C 
ENDBRANCH   6   7
ENDBRANCH   1   6
TORSDOF 4
ENDMDL
MODEL 6
REMARK VINA RESULT:    -3.796      1.713      2.828
REMARK INTER + INTRA:          -4.841
REMARK INTER:                  -4.605
REMARK INTRA:                  -0.236
REMARK UNBOUND:                -0.157
REMARK SMILES CCCCCC(=O)[O-]
REMARK SMILES IDX 4 1 5 2 6 3 7 4 8 5 3 6 2 7 1 8
REMARK H PARENT
REMARK Flexibility Score: inf
ROOT
ATOM      1  C   UNL     1     134.669 136.442 115.670  1.00  0.00     0.006 C 
ENDROOT
BRANCH   1   2
ATOM      2  C   UNL     1     135.018 135.942 117.081  1.00  0.00     0.053 C 
BRANCH   2   3
ATOM      3  C   UNL     1     136.395 135.357 117.143  1.00  0.00     0.041 C 
ATOM      4  O   UNL     1     136.914 134.843 116.117  1.00  0.00    -0.550 OA
ATOM      5  O   UNL     1     137.120 135.408 118.328  1.00  0.00    -0.550 OA
ENDBRANCH   2   3
ENDBRANCH   1   2
BRANCH   1   6
ATOM      6  C   UNL     1     133.462 135.735 115.021  1.00  0.00     0.000 C 
BRANCH   6   7
ATOM      7  C   UNL     1     133.501 134.197 115.084  1.00  0.00    -0.003 C 
ATOM      8  C   UNL     1     134.366 133.575 113.989  1.00  0.00     0.004 C 
ENDBRANCH   6   7
ENDBRANCH   1   6
TORSDOF 4
ENDMDL
MODEL 7
REMARK VINA RESULT:    -3.796      2.552      2.893
REMARK INTER + INTRA:          -4.840
REMARK INTER:                  -4.613
REMARK INTRA:                  -0.227
REMARK UNBOUND:                -0.157
REMARK SMILES CCCCCC(=O)[O-]
REMARK SMILES IDX 4 1 5 2 6 3 7 4 8 5 3 6 2 7 1 8
REMARK H PARENT
REMARK Flexibility Score: inf
ROOT
ATOM      1  C   UNL     1     133.749 134.047 115.458  1.00  0.00     0.006 C 
ENDROOT
BRANCH   1   2
ATOM      2  C   UNL     1     134.959 134.542 116.265  1.00  0.00     0.053 C 
BRANCH   2   3
ATOM      3  C   UNL     1     134.872 136.008 116.562  1.00  0.00     0.041 C 
ATOM      4  O   UNL     1     135.003 136.852 115.637  1.00  0.00    -0.550 OA
ATOM      5  O   UNL     1     134.613 136.441 117.857  1.00  0.00    -0.550 OA
ENDBRANCH   2   3
ENDBRANCH   1   2
BRANCH   1   6
ATOM      6  C   UNL     1     133.995 133.933 113.940  1.00  0.00     0.000 C 
BRANCH   6   7
ATOM      7  C   UNL     1     133.025 134.746 113.063  1.00  0.00    -0.003 C 
ATOM      8  C   UNL     1     132.157 135.711 113.870  1.00  0.00     0.004 C 
ENDBRANCH   6   7
ENDBRANCH   1   6
TORSDOF 4
ENDMDL
MODEL 8
REMARK VINA RESULT:    -3.795      9.542     10.478
REMARK INTER + INTRA:          -4.840
REMARK INTER:                  -4.573
REMARK INTRA:                  -0.267
REMARK UNBOUND:                -0.157
REMARK SMILES CCCCCC(=O)[O-]
REMARK SMILES IDX 4 1 5 2 6 3 7 4 8 5 3 6 2 7 1 8
REMARK H PARENT
REMARK Flexibility Score: inf
ROOT
ATOM      1  C   UNL     1     142.447 140.929 115.310  1.00  0.00     0.006 C 
ENDROOT
BRANCH   1   2
ATOM      2  C   UNL     1     141.748 140.431 116.585  1.00  0.00     0.053 C 
BRANCH   2   3
ATOM      3  C   UNL     1     140.569 141.283 116.946  1.00  0.00     0.041 C 
ATOM      4  O   UNL     1     139.505 141.211 116.277  1.00  0.00    -0.550 OA
ATOM      5  O   UNL     1     140.636 142.132 118.044  1.00  0.00    -0.550 OA
ENDBRANCH   2   3
ENDBRANCH   1   2
BRANCH   1   6
ATOM      6  C   UNL     1     142.816 142.427 115.327  1.00  0.00     0.000 C 
BRANCH   6   7
ATOM      7  C   UNL     1     142.132 143.274 114.238  1.00  0.00    -0.003 C 
ATOM      8  C   UNL     1     141.171 142.466 113.368  1.00  0.00     0.004 C 
ENDBRANCH   6   7
ENDBRANCH   1   6
TORSDOF 4
ENDMDL
MODEL 9
REMARK VINA RESULT:    -3.767      9.504     10.437
REMARK INTER + INTRA:          -4.805
REMARK INTER:                  -4.578
REMARK INTRA:                  -0.227
REMARK UNBOUND:                -0.157
REMARK SMILES CCCCCC(=O)[O-]
REMARK SMILES IDX 4 1 5 2 6 3 7 4 8 5 3 6 2 7 1 8
REMARK H PARENT
REMARK Flexibility Score: inf
ROOT
ATOM      1  C   UNL     1     140.316 142.429 114.646  1.00  0.00     0.006 C 
ENDROOT
BRANCH   1   2
ATOM      2  C   UNL     1     139.736 142.624 116.056  1.00  0.00     0.053 C 
BRANCH   2   3
ATOM      3  C   UNL     1     139.780 141.361 116.860  1.00  0.00     0.041 C 
ATOM      4  O   UNL     1     139.234 141.311 117.994  1.00  0.00    -0.550 OA
ATOM      5  O   UNL     1     140.395 140.228 116.342  1.00  0.00    -0.550 OA
ENDBRANCH   2   3
ENDBRANCH   1   2
BRANCH   1   6
ATOM      6  C   UNL     1     141.568 143.279 114.347  1.00  0.00     0.000 C 
BRANCH   6   7
ATOM      7  C   UNL     1     142.859 142.796 115.035  1.00  0.00    -0.003 C 
ATOM      8  C   UNL     1     143.268 141.386 114.614  1.00  0.00     0.004 C 
ENDBRANCH   6   7
ENDBRANCH   1   6
TORSDOF 4
ENDMDL
