MODEL 1
REMARK VINA RESULT:    -7.436      0.000      0.000
REMARK INTER + INTRA:          -8.836
REMARK INTER:                  -8.523
REMARK INTRA:                  -0.313
REMARK UNBOUND:                -0.313
REMARK SMILES O=C1C[C@@H](c2ccc(O)cc2)Oc2cc(O)cc(O)c21
REMARK SMILES IDX 3 1 4 2 12 3 13 4 14 5 15 6 17 7 18 8 20 9 2 10 1 11 5 12
REMARK SMILES IDX 6 13 11 14 7 15 10 16 8 17 9 18 19 20 16 22
REMARK H PARENT 9 19 19 21 16 23
REMARK Flexibility Score: inf
ROOT
ATOM      1  C   UNL     1       9.105 -13.728 -24.484  1.00  0.00     0.131 C 
ATOM      2  C   UNL     1       8.865 -12.958 -23.178  1.00  0.00     0.211 C 
ATOM      3  O   UNL     1       9.368 -11.623 -23.282  1.00  0.00    -0.484 OA
ATOM      4  C   UNL     1       9.245 -10.857 -24.449  1.00  0.00     0.138 A 
ATOM      5  C   UNL     1       9.503  -9.486 -24.390  1.00  0.00     0.093 A 
ATOM      6  C   UNL     1       9.374  -8.694 -25.535  1.00  0.00     0.123 A 
ATOM      7  C   UNL     1       9.014  -9.282 -26.748  1.00  0.00     0.093 A 
ATOM      8  C   UNL     1       8.789 -10.662 -26.840  1.00  0.00     0.133 A 
ATOM      9  C   UNL     1       8.871 -11.461 -25.669  1.00  0.00     0.102 A 
ATOM     10  C   UNL     1       8.585 -12.918 -25.634  1.00  0.00     0.174 C 
ATOM     11  O   UNL     1       7.875 -13.475 -26.512  1.00  0.00    -0.294 OA
ENDROOT
BRANCH   2  12
ATOM     12  C   UNL     1       9.515 -13.666 -22.014  1.00  0.00    -0.007 A 
ATOM     13  C   UNL     1       9.984 -12.932 -20.911  1.00  0.00     0.011 A 
ATOM     14  C   UNL     1       9.607 -15.069 -21.991  1.00  0.00     0.011 A 
ATOM     15  C   UNL     1      10.559 -13.588 -19.819  1.00  0.00     0.046 A 
ATOM     16  C   UNL     1      10.181 -15.722 -20.897  1.00  0.00     0.046 A 
ATOM     17  C   UNL     1      10.661 -14.983 -19.808  1.00  0.00     0.115 A 
BRANCH  17  18
ATOM     18  O   UNL     1      11.236 -15.622 -18.713  1.00  0.00    -0.508 OA
ATOM     19  H   UNL     1      12.144 -16.066 -18.776  1.00  0.00     0.293 HD
ENDBRANCH  17  18
ENDBRANCH   2  12
BRANCH   8  20
ATOM     20  O   UNL     1       8.524 -11.187 -28.106  1.00  0.00    -0.507 OA
ATOM     21  H   UNL     1       9.158 -11.117 -28.890  1.00  0.00     0.293 HD
ENDBRANCH   8  20
BRANCH   6  22
ATOM     22  O   UNL     1       9.610  -7.322 -25.479  1.00  0.00    -0.508 OA
ATOM     23  H   UNL     1       9.786  -6.780 -26.316  1.00  0.00     0.293 HD
ENDBRANCH   6  22
TORSDOF 4
ENDMDL
MODEL 2
REMARK VINA RESULT:    -7.006      1.521      6.568
REMARK INTER + INTRA:          -8.342
REMARK INTER:                  -8.027
REMARK INTRA:                  -0.316
REMARK UNBOUND:                -0.313
REMARK SMILES O=C1C[C@@H](c2ccc(O)cc2)Oc2cc(O)cc(O)c21
REMARK SMILES IDX 3 1 4 2 12 3 13 4 14 5 15 6 17 7 18 8 20 9 2 10 1 11 5 12
REMARK SMILES IDX 6 13 11 14 7 15 10 16 8 17 9 18 19 20 16 22
REMARK H PARENT 9 19 19 21 16 23
REMARK Flexibility Score: inf
ROOT
ATOM      1  C   UNL     1       8.574 -12.788 -25.082  1.00  0.00     0.131 C 
ATOM      2  C   UNL     1       9.711 -11.795 -24.802  1.00  0.00     0.211 C 
ATOM      3  O   UNL     1       9.931 -11.667 -23.395  1.00  0.00    -0.484 OA
ATOM      4  C   UNL     1       9.872 -12.758 -22.518  1.00  0.00     0.138 A 
ATOM      5  C   UNL     1      10.367 -12.612 -21.220  1.00  0.00     0.093 A 
ATOM      6  C   UNL     1      10.335 -13.687 -20.327  1.00  0.00     0.123 A 
ATOM      7  C   UNL     1       9.779 -14.903 -20.726  1.00  0.00     0.093 A 
ATOM      8  C   UNL     1       9.240 -15.061 -22.009  1.00  0.00     0.133 A 
ATOM      9  C   UNL     1       9.315 -13.987 -22.935  1.00  0.00     0.102 A 
ATOM     10  C   UNL     1       8.842 -14.063 -24.340  1.00  0.00     0.174 C 
ATOM     11  O   UNL     1       8.714 -15.164 -24.937  1.00  0.00    -0.294 OA
ENDROOT
BRANCH   2  12
ATOM     12  C   UNL     1       9.400 -10.445 -25.402  1.00  0.00    -0.007 A 
ATOM     13  C   UNL     1       9.715  -9.270 -24.700  1.00  0.00     0.011 A 
ATOM     14  C   UNL     1       8.848 -10.346 -26.691  1.00  0.00     0.011 A 
ATOM     15  C   UNL     1       9.455  -8.017 -25.266  1.00  0.00     0.046 A 
ATOM     16  C   UNL     1       8.590  -9.093 -27.255  1.00  0.00     0.046 A 
ATOM     17  C   UNL     1       8.892  -7.925 -26.542  1.00  0.00     0.115 A 
BRANCH  17  18
ATOM     18  O   UNL     1       8.640  -6.670 -27.094  1.00  0.00    -0.508 OA
ATOM     19  H   UNL     1       7.881  -6.523 -27.748  1.00  0.00     0.293 HD
ENDBRANCH  17  18
ENDBRANCH   2  12
BRANCH   8  20
ATOM     20  O   UNL     1       8.619 -16.278 -22.300  1.00  0.00    -0.507 OA
ATOM     21  H   UNL     1       7.675 -16.359 -22.651  1.00  0.00     0.293 HD
ENDBRANCH   8  20
BRANCH   6  22
ATOM     22  O   UNL     1      10.846 -13.555 -19.038  1.00  0.00    -0.508 OA
ATOM     23  H   UNL     1      10.965 -12.646 -18.606  1.00  0.00     0.293 HD
ENDBRANCH   6  22
TORSDOF 4
ENDMDL
MODEL 3
REMARK VINA RESULT:    -6.667      2.475      7.084
REMARK INTER + INTRA:          -7.954
REMARK INTER:                  -7.670
REMARK INTRA:                  -0.284
REMARK UNBOUND:                -0.313
REMARK SMILES O=C1C[C@@H](c2ccc(O)cc2)Oc2cc(O)cc(O)c21
REMARK SMILES IDX 3 1 4 2 12 3 13 4 14 5 15 6 17 7 18 8 20 9 2 10 1 11 5 12
REMARK SMILES IDX 6 13 11 14 7 15 10 16 8 17 9 18 19 20 16 22
REMARK H PARENT 9 19 19 21 16 23
REMARK Flexibility Score: inf
ROOT
ATOM      1  C   UNL     1       9.629 -13.284 -22.453  1.00  0.00     0.131 C 
ATOM      2  C   UNL     1       9.127 -13.383 -23.900  1.00  0.00     0.211 C 
ATOM      3  O   UNL     1       9.899 -14.336 -24.636  1.00  0.00    -0.484 OA
ATOM      4  C   UNL     1      10.337 -15.546 -24.079  1.00  0.00     0.138 A 
ATOM      5  C   UNL     1      10.837 -16.539 -24.924  1.00  0.00     0.093 A 
ATOM      6  C   UNL     1      11.266 -17.761 -24.399  1.00  0.00     0.123 A 
ATOM      7  C   UNL     1      11.223 -17.978 -23.021  1.00  0.00     0.093 A 
ATOM      8  C   UNL     1      10.763 -16.981 -22.151  1.00  0.00     0.133 A 
ATOM      9  C   UNL     1      10.280 -15.757 -22.684  1.00  0.00     0.102 A 
ATOM     10  C   UNL     1       9.705 -14.661 -21.864  1.00  0.00     0.174 C 
ATOM     11  O   UNL     1       9.234 -14.869 -20.716  1.00  0.00    -0.294 OA
ENDROOT
BRANCH   2  12
ATOM     12  C   UNL     1       9.186 -12.036 -24.579  1.00  0.00    -0.007 A 
ATOM     13  C   UNL     1       8.536 -11.834 -25.808  1.00  0.00     0.011 A 
ATOM     14  C   UNL     1       9.842 -10.954 -23.965  1.00  0.00     0.011 A 
ATOM     15  C   UNL     1       8.564 -10.578 -26.424  1.00  0.00     0.046 A 
ATOM     16  C   UNL     1       9.868  -9.700 -24.583  1.00  0.00     0.046 A 
ATOM     17  C   UNL     1       9.230  -9.510 -25.816  1.00  0.00     0.115 A 
BRANCH  17  18
ATOM     18  O   UNL     1       9.249  -8.265 -26.441  1.00  0.00    -0.508 OA
ATOM     19  H   UNL     1       8.812  -8.120 -27.343  1.00  0.00     0.293 HD
ENDBRANCH  17  18
ENDBRANCH   2  12
BRANCH   8  20
ATOM     20  O   UNL     1      10.838 -17.241 -20.780  1.00  0.00    -0.507 OA
ATOM     21  H   UNL     1      11.704 -17.304 -20.265  1.00  0.00     0.293 HD
ENDBRANCH   8  20
BRANCH   6  22
ATOM     22  O   UNL     1      11.747 -18.764 -25.238  1.00  0.00    -0.508 OA
ATOM     23  H   UNL     1      11.134 -19.477 -25.616  1.00  0.00     0.293 HD
ENDBRANCH   6  22
TORSDOF 4
ENDMDL
MODEL 4
REMARK VINA RESULT:    -6.612      3.804      6.863
REMARK INTER + INTRA:          -7.891
REMARK INTER:                  -7.601
REMARK INTRA:                  -0.290
REMARK UNBOUND:                -0.313
REMARK SMILES O=C1C[C@@H](c2ccc(O)cc2)Oc2cc(O)cc(O)c21
REMARK SMILES IDX 3 1 4 2 12 3 13 4 14 5 15 6 17 7 18 8 20 9 2 10 1 11 5 12
REMARK SMILES IDX 6 13 11 14 7 15 10 16 8 17 9 18 19 20 16 22
REMARK H PARENT 9 19 19 21 16 23
REMARK Flexibility Score: inf
ROOT
ATOM      1  C   UNL     1      10.034 -15.093 -24.814  1.00  0.00     0.131 C 
ATOM      2  C   UNL     1       9.891 -16.553 -24.362  1.00  0.00     0.211 C 
ATOM      3  O   UNL     1      10.540 -16.755 -23.104  1.00  0.00    -0.484 OA
ATOM      4  C   UNL     1      10.495 -15.811 -22.069  1.00  0.00     0.138 A 
ATOM      5  C   UNL     1      10.907 -16.188 -20.789  1.00  0.00     0.093 A 
ATOM      6  C   UNL     1      10.859 -15.271 -19.735  1.00  0.00     0.123 A 
ATOM      7  C   UNL     1      10.427 -13.965 -19.969  1.00  0.00     0.093 A 
ATOM      8  C   UNL     1      10.048 -13.553 -21.253  1.00  0.00     0.133 A 
ATOM      9  C   UNL     1      10.048 -14.495 -22.317  1.00  0.00     0.102 A 
ATOM     10  C   UNL     1       9.600 -14.189 -23.699  1.00  0.00     0.174 C 
ATOM     11  O   UNL     1       8.827 -13.228 -23.947  1.00  0.00    -0.294 OA
ENDROOT
BRANCH   2  12
ATOM     12  C   UNL     1      10.465 -17.490 -25.396  1.00  0.00    -0.007 A 
ATOM     13  C   UNL     1      11.269 -16.991 -26.435  1.00  0.00     0.011 A 
ATOM     14  C   UNL     1      10.253 -18.878 -25.301  1.00  0.00     0.011 A 
ATOM     15  C   UNL     1      11.826 -17.861 -27.378  1.00  0.00     0.046 A 
ATOM     16  C   UNL     1      10.812 -19.744 -26.244  1.00  0.00     0.046 A 
ATOM     17  C   UNL     1      11.599 -19.238 -27.286  1.00  0.00     0.115 A 
BRANCH  17  18
ATOM     18  O   UNL     1      12.162 -20.092 -28.232  1.00  0.00    -0.508 OA
ATOM     19  H   UNL     1      13.099 -20.461 -28.120  1.00  0.00     0.293 HD
ENDBRANCH  17  18
ENDBRANCH   2  12
BRANCH   8  20
ATOM     20  O   UNL     1       9.717 -12.207 -21.424  1.00  0.00    -0.507 OA
ATOM     21  H   UNL     1       8.796 -11.827 -21.258  1.00  0.00     0.293 HD
ENDBRANCH   8  20
BRANCH   6  22
ATOM     22  O   UNL     1      11.248 -15.647 -18.450  1.00  0.00    -0.508 OA
ATOM     23  H   UNL     1      12.138 -16.099 -18.277  1.00  0.00     0.293 HD
ENDBRANCH   6  22
TORSDOF 4
ENDMDL
MODEL 5
REMARK VINA RESULT:    -6.272      4.201      7.645
REMARK INTER + INTRA:          -7.501
REMARK INTER:                  -7.216
REMARK INTRA:                  -0.285
REMARK UNBOUND:                -0.313
REMARK SMILES O=C1C[C@@H](c2ccc(O)cc2)Oc2cc(O)cc(O)c21
REMARK SMILES IDX 3 1 4 2 12 3 13 4 14 5 15 6 17 7 18 8 20 9 2 10 1 11 5 12
REMARK SMILES IDX 6 13 11 14 7 15 10 16 8 17 9 18 19 20 16 22
REMARK H PARENT 9 19 19 21 16 23
REMARK Flexibility Score: inf
ROOT
ATOM      1  C   UNL     1      10.920 -16.429 -25.202  1.00  0.00     0.131 C 
ATOM      2  C   UNL     1      10.743 -15.883 -23.778  1.00  0.00     0.211 C 
ATOM      3  O   UNL     1       9.754 -16.636 -23.071  1.00  0.00    -0.484 OA
ATOM      4  C   UNL     1       9.636 -18.027 -23.188  1.00  0.00     0.138 A 
ATOM      5  C   UNL     1       8.845 -18.720 -22.268  1.00  0.00     0.093 A 
ATOM      6  C   UNL     1       8.720 -20.110 -22.351  1.00  0.00     0.123 A 
ATOM      7  C   UNL     1       9.366 -20.804 -23.375  1.00  0.00     0.093 A 
ATOM      8  C   UNL     1      10.132 -20.126 -24.332  1.00  0.00     0.133 A 
ATOM      9  C   UNL     1      10.301 -18.720 -24.222  1.00  0.00     0.102 A 
ATOM     10  C   UNL     1      11.145 -17.910 -25.136  1.00  0.00     0.174 C 
ATOM     11  O   UNL     1      12.075 -18.425 -25.810  1.00  0.00    -0.294 OA
ENDROOT
BRANCH   2  12
ATOM     12  C   UNL     1      10.357 -14.424 -23.810  1.00  0.00    -0.007 A 
ATOM     13  C   UNL     1       9.346 -13.979 -24.678  1.00  0.00     0.011 A 
ATOM     14  C   UNL     1      10.962 -13.504 -22.934  1.00  0.00     0.011 A 
ATOM     15  C   UNL     1       8.966 -12.632 -24.688  1.00  0.00     0.046 A 
ATOM     16  C   UNL     1      10.580 -12.160 -22.946  1.00  0.00     0.046 A 
ATOM     17  C   UNL     1       9.581 -11.720 -23.825  1.00  0.00     0.115 A 
BRANCH  17  18
ATOM     18  O   UNL     1       9.191 -10.383 -23.847  1.00  0.00    -0.508 OA
ATOM     19  H   UNL     1       8.214 -10.117 -23.881  1.00  0.00     0.293 HD
ENDBRANCH  17  18
ENDBRANCH   2  12
BRANCH   8  20
ATOM     20  O   UNL     1      10.669 -20.881 -25.377  1.00  0.00    -0.507 OA
ATOM     21  H   UNL     1      10.675 -21.891 -25.399  1.00  0.00     0.293 HD
ENDBRANCH   8  20
BRANCH   6  22
ATOM     22  O   UNL     1       7.950 -20.809 -21.425  1.00  0.00    -0.508 OA
ATOM     23  H   UNL     1       7.514 -21.693 -21.658  1.00  0.00     0.293 HD
ENDBRANCH   6  22
TORSDOF 4
ENDMDL
MODEL 6
REMARK VINA RESULT:    -6.247      4.336      6.333
REMARK INTER + INTRA:          -7.473
REMARK INTER:                  -7.152
REMARK INTRA:                  -0.321
REMARK UNBOUND:                -0.313
REMARK SMILES O=C1C[C@@H](c2ccc(O)cc2)Oc2cc(O)cc(O)c21
REMARK SMILES IDX 3 1 4 2 12 3 13 4 14 5 15 6 17 7 18 8 20 9 2 10 1 11 5 12
REMARK SMILES IDX 6 13 11 14 7 15 10 16 8 17 9 18 19 20 16 22
REMARK H PARENT 9 19 19 21 16 23
REMARK Flexibility Score: inf
ROOT
ATOM      1  C   UNL     1      11.214 -17.958 -22.918  1.00  0.00     0.131 C 
ATOM      2  C   UNL     1      10.026 -16.985 -22.951  1.00  0.00     0.211 C 
ATOM      3  O   UNL     1       9.882 -16.415 -24.255  1.00  0.00    -0.484 OA
ATOM      4  C   UNL     1      10.072 -17.154 -25.430  1.00  0.00     0.138 A 
ATOM      5  C   UNL     1       9.647 -16.616 -26.646  1.00  0.00     0.093 A 
ATOM      6  C   UNL     1       9.810 -17.337 -27.832  1.00  0.00     0.123 A 
ATOM      7  C   UNL     1      10.428 -18.588 -27.804  1.00  0.00     0.093 A 
ATOM      8  C   UNL     1      10.899 -19.130 -26.602  1.00  0.00     0.133 A 
ATOM      9  C   UNL     1      10.691 -18.423 -25.388  1.00  0.00     0.102 A 
ATOM     10  C   UNL     1      11.084 -18.932 -24.050  1.00  0.00     0.174 C 
ATOM     11  O   UNL     1      11.255 -20.160 -23.833  1.00  0.00    -0.294 OA
ENDROOT
BRANCH   2  12
ATOM     12  C   UNL     1      10.202 -15.893 -21.925  1.00  0.00    -0.007 A 
ATOM     13  C   UNL     1      10.693 -16.198 -20.644  1.00  0.00     0.011 A 
ATOM     14  C   UNL     1       9.932 -14.552 -22.254  1.00  0.00     0.011 A 
ATOM     15  C   UNL     1      10.885 -15.183 -19.701  1.00  0.00     0.046 A 
ATOM     16  C   UNL     1      10.126 -13.540 -21.309  1.00  0.00     0.046 A 
ATOM     17  C   UNL     1      10.601 -13.854 -20.029  1.00  0.00     0.115 A 
BRANCH  17  18
ATOM     18  O   UNL     1      10.798 -12.854 -19.079  1.00  0.00    -0.508 OA
ATOM     19  H   UNL     1      11.554 -12.905 -18.407  1.00  0.00     0.293 HD
ENDBRANCH  17  18
ENDBRANCH   2  12
BRANCH   8  20
ATOM     20  O   UNL     1      11.588 -20.343 -26.671  1.00  0.00    -0.507 OA
ATOM     21  H   UNL     1      11.507 -21.078 -25.983  1.00  0.00     0.293 HD
ENDBRANCH   8  20
BRANCH   6  22
ATOM     22  O   UNL     1       9.369 -16.814 -29.046  1.00  0.00    -0.508 OA
ATOM     23  H   UNL     1       9.116 -15.838 -29.143  1.00  0.00     0.293 HD
ENDBRANCH   6  22
TORSDOF 4
ENDMDL
MODEL 7
REMARK VINA RESULT:    -6.125      3.707      6.655
REMARK INTER + INTRA:          -7.333
REMARK INTER:                  -7.046
REMARK INTRA:                  -0.287
REMARK UNBOUND:                -0.313
REMARK SMILES O=C1C[C@@H](c2ccc(O)cc2)Oc2cc(O)cc(O)c21
REMARK SMILES IDX 3 1 4 2 12 3 13 4 14 5 15 6 17 7 18 8 20 9 2 10 1 11 5 12
REMARK SMILES IDX 6 13 11 14 7 15 10 16 8 17 9 18 19 20 16 22
REMARK H PARENT 9 19 19 21 16 23
REMARK Flexibility Score: inf
ROOT
ATOM      1  C   UNL     1       9.498 -17.065 -23.909  1.00  0.00     0.131 C 
ATOM      2  C   UNL     1      10.729 -16.600 -24.702  1.00  0.00     0.211 C 
ATOM      3  O   UNL     1      10.878 -15.181 -24.611  1.00  0.00    -0.484 OA
ATOM      4  C   UNL     1      10.634 -14.469 -23.428  1.00  0.00     0.138 A 
ATOM      5  C   UNL     1      11.063 -13.144 -23.335  1.00  0.00     0.093 A 
ATOM      6  C   UNL     1      10.847 -12.413 -22.162  1.00  0.00     0.123 A 
ATOM      7  C   UNL     1      10.172 -13.003 -21.092  1.00  0.00     0.093 A 
ATOM      8  C   UNL     1       9.697 -14.318 -21.178  1.00  0.00     0.133 A 
ATOM      9  C   UNL     1       9.958 -15.079 -22.349  1.00  0.00     0.102 A 
ATOM     10  C   UNL     1       9.564 -16.500 -22.523  1.00  0.00     0.174 C 
ATOM     11  O   UNL     1       9.340 -17.250 -21.537  1.00  0.00    -0.294 OA
ENDROOT
BRANCH   2  12
ATOM     12  C   UNL     1      10.621 -17.017 -26.148  1.00  0.00    -0.007 A 
ATOM     13  C   UNL     1       9.380 -16.976 -26.806  1.00  0.00     0.011 A 
ATOM     14  C   UNL     1      11.767 -17.396 -26.871  1.00  0.00     0.011 A 
ATOM     15  C   UNL     1       9.283 -17.334 -28.155  1.00  0.00     0.046 A 
ATOM     16  C   UNL     1      11.667 -17.751 -28.219  1.00  0.00     0.046 A 
ATOM     17  C   UNL     1      10.424 -17.723 -28.864  1.00  0.00     0.115 A 
BRANCH  17  18
ATOM     18  O   UNL     1      10.311 -18.075 -30.207  1.00  0.00    -0.508 OA
ATOM     19  H   UNL     1       9.901 -18.957 -30.490  1.00  0.00     0.293 HD
ENDBRANCH  17  18
ENDBRANCH   2  12
BRANCH   8  20
ATOM     20  O   UNL     1       8.951 -14.803 -20.102  1.00  0.00    -0.507 OA
ATOM     21  H   UNL     1       8.359 -15.619 -20.149  1.00  0.00     0.293 HD
ENDBRANCH   8  20
BRANCH   6  22
ATOM     22  O   UNL     1      11.291 -11.097 -22.054  1.00  0.00    -0.508 OA
ATOM     23  H   UNL     1      10.682 -10.357 -21.726  1.00  0.00     0.293 HD
ENDBRANCH   6  22
TORSDOF 4
ENDMDL
MODEL 8
REMARK VINA RESULT:    -5.989      2.038      7.076
REMARK INTER + INTRA:          -7.177
REMARK INTER:                  -6.861
REMARK INTRA:                  -0.316
REMARK UNBOUND:                -0.313
REMARK SMILES O=C1C[C@@H](c2ccc(O)cc2)Oc2cc(O)cc(O)c21
REMARK SMILES IDX 3 1 4 2 12 3 13 4 14 5 15 6 17 7 18 8 20 9 2 10 1 11 5 12
REMARK SMILES IDX 6 13 11 14 7 15 10 16 8 17 9 18 19 20 16 22
REMARK H PARENT 9 19 19 21 16 23
REMARK Flexibility Score: inf
ROOT
ATOM      1  C   UNL     1       9.879 -11.376 -23.540  1.00  0.00     0.131 C 
ATOM      2  C   UNL     1       8.828 -11.834 -24.561  1.00  0.00     0.211 C 
ATOM      3  O   UNL     1       9.189 -13.101 -25.119  1.00  0.00    -0.484 OA
ATOM      4  C   UNL     1       9.758 -14.129 -24.356  1.00  0.00     0.138 A 
ATOM      5  C   UNL     1       9.824 -15.416 -24.895  1.00  0.00     0.093 A 
ATOM      6  C   UNL     1      10.372 -16.465 -24.151  1.00  0.00     0.123 A 
ATOM      7  C   UNL     1      10.883 -16.218 -22.876  1.00  0.00     0.093 A 
ATOM      8  C   UNL     1      10.863 -14.928 -22.331  1.00  0.00     0.133 A 
ATOM      9  C   UNL     1      10.263 -13.870 -23.063  1.00  0.00     0.102 A 
ATOM     10  C   UNL     1      10.123 -12.481 -22.557  1.00  0.00     0.174 C 
ATOM     11  O   UNL     1      10.150 -12.219 -21.326  1.00  0.00    -0.294 OA
ENDROOT
BRANCH   2  12
ATOM     12  C   UNL     1       8.669 -10.812 -25.660  1.00  0.00    -0.007 A 
ATOM     13  C   UNL     1       8.963  -9.459 -25.415  1.00  0.00     0.011 A 
ATOM     14  C   UNL     1       8.283 -11.205 -26.954  1.00  0.00     0.011 A 
ATOM     15  C   UNL     1       8.845  -8.514 -26.439  1.00  0.00     0.046 A 
ATOM     16  C   UNL     1       8.167 -10.259 -27.975  1.00  0.00     0.046 A 
ATOM     17  C   UNL     1       8.447  -8.909 -27.720  1.00  0.00     0.115 A 
BRANCH  17  18
ATOM     18  O   UNL     1       8.335  -7.957 -28.730  1.00  0.00    -0.508 OA
ATOM     19  H   UNL     1       8.777  -8.088 -29.632  1.00  0.00     0.293 HD
ENDBRANCH  17  18
ENDBRANCH   2  12
BRANCH   8  20
ATOM     20  O   UNL     1      11.477 -14.746 -21.089  1.00  0.00    -0.507 OA
ATOM     21  H   UNL     1      12.464 -14.573 -20.968  1.00  0.00     0.293 HD
ENDBRANCH   8  20
BRANCH   6  22
ATOM     22  O   UNL     1      10.423 -17.755 -24.674  1.00  0.00    -0.508 OA
ATOM     23  H   UNL     1      11.294 -18.269 -24.735  1.00  0.00     0.293 HD
ENDBRANCH   6  22
TORSDOF 4
ENDMDL
MODEL 9
REMARK VINA RESULT:    -5.763      4.594      7.641
REMARK INTER + INTRA:          -6.918
REMARK INTER:                  -6.627
REMARK INTRA:                  -0.290
REMARK UNBOUND:                -0.313
REMARK SMILES O=C1C[C@@H](c2ccc(O)cc2)Oc2cc(O)cc(O)c21
REMARK SMILES IDX 3 1 4 2 12 3 13 4 14 5 15 6 17 7 18 8 20 9 2 10 1 11 5 12
REMARK SMILES IDX 6 13 11 14 7 15 10 16 8 17 9 18 19 20 16 22
REMARK H PARENT 9 19 19 21 16 23
REMARK Flexibility Score: inf
ROOT
ATOM      1  C   UNL     1      10.948 -18.274 -25.093  1.00  0.00     0.131 C 
ATOM      2  C   UNL     1      11.633 -17.086 -25.783  1.00  0.00     0.211 C 
ATOM      3  O   UNL     1      10.968 -15.863 -25.456  1.00  0.00    -0.484 OA
ATOM      4  C   UNL     1      10.469 -15.593 -24.174  1.00  0.00     0.138 A 
ATOM      5  C   UNL     1      10.088 -14.287 -23.857  1.00  0.00     0.093 A 
ATOM      6  C   UNL     1       9.600 -13.985 -22.582  1.00  0.00     0.123 A 
ATOM      7  C   UNL     1       9.467 -14.999 -21.632  1.00  0.00     0.093 A 
ATOM      8  C   UNL     1       9.805 -16.323 -21.941  1.00  0.00     0.133 A 
ATOM      9  C   UNL     1      10.346 -16.625 -23.219  1.00  0.00     0.102 A 
ATOM     10  C   UNL     1      10.804 -17.976 -23.631  1.00  0.00     0.174 C 
ATOM     11  O   UNL     1      11.124 -18.853 -22.786  1.00  0.00    -0.294 OA
ENDROOT
BRANCH   2  12
ATOM     12  C   UNL     1      11.655 -17.278 -27.280  1.00  0.00    -0.007 A 
ATOM     13  C   UNL     1      12.878 -17.385 -27.962  1.00  0.00     0.011 A 
ATOM     14  C   UNL     1      10.454 -17.410 -28.002  1.00  0.00     0.011 A 
ATOM     15  C   UNL     1      12.901 -17.593 -29.345  1.00  0.00     0.046 A 
ATOM     16  C   UNL     1      10.480 -17.619 -29.383  1.00  0.00     0.046 A 
ATOM     17  C   UNL     1      11.704 -17.709 -30.059  1.00  0.00     0.115 A 
BRANCH  17  18
ATOM     18  O   UNL     1      11.742 -17.917 -31.436  1.00  0.00    -0.508 OA
ATOM     19  H   UNL     1      11.468 -17.192 -32.088  1.00  0.00     0.293 HD
ENDBRANCH  17  18
ENDBRANCH   2  12
BRANCH   8  20
ATOM     20  O   UNL     1       9.555 -17.293 -20.968  1.00  0.00    -0.507 OA
ATOM     21  H   UNL     1      10.250 -17.635 -20.321  1.00  0.00     0.293 HD
ENDBRANCH   8  20
BRANCH   6  22
ATOM     22  O   UNL     1       9.238 -12.681 -22.252  1.00  0.00    -0.508 OA
ATOM     23  H   UNL     1       8.280 -12.438 -22.027  1.00  0.00     0.293 HD
ENDBRANCH   6  22
TORSDOF 4
ENDMDL
