MODEL 1
REMARK VINA RESULT:    -4.739      0.000      0.000
REMARK INTER + INTRA:          -6.404
REMARK INTER:                  -6.678
REMARK INTRA:                   0.274
REMARK UNBOUND:                 0.274
REMARK SMILES CC1=CCC(=C(C)C)C(=O)CC(C)=CCC1
REMARK SMILES IDX 12 1 14 2 13 3 15 4 16 5 2 6 1 7 3 8 11 10 9 11 10 12 5 13
REMARK SMILES IDX 6 14 7 15 8 16 4 17
REMARK H PARENT
REMARK Flexibility Score: 60.00
ROOT
ATOM      1  C   UNL     1      18.939  27.997 -14.190  1.00  0.00    -0.070 C 
ATOM      2  C   UNL     1      19.402  28.342 -12.965  1.00  0.00    -0.027 C 
ATOM      3  C   UNL     1      17.801  27.011 -14.265  1.00  0.00     0.039 C 
ENDROOT
BRANCH   2   4
ATOM      4  C   UNL     1      20.571  29.264 -12.705  1.00  0.00     0.032 C 
BRANCH   4   5
ATOM      5  C   UNL     1      21.909  28.511 -12.753  1.00  0.00     0.034 C 
BRANCH   5   6
ATOM      6  C   UNL     1      22.991  29.243 -13.535  1.00  0.00    -0.077 C 
ATOM      7  C   UNL     1      23.643  30.453 -12.917  1.00  0.00     0.039 C 
ATOM      8  C   UNL     1      23.390  28.875 -14.774  1.00  0.00    -0.023 CG0
ATOM      9  G   UNL     1      22.907  27.657 -15.525  1.00  0.00     0.000 G0
ENDBRANCH   5   6
ENDBRANCH   4   5
ENDBRANCH   2   4
BRANCH   1  10
ATOM     10  C   UNL     1      19.511  28.559 -15.477  1.00  0.00     0.111 C 
BRANCH  10  11
ATOM     11  C   UNL     1      20.398  27.556 -16.159  1.00  0.00     0.163 C 
ATOM     12  O   UNL     1      19.958  26.399 -16.394  1.00  0.00    -0.294 OA
BRANCH  11  13
ATOM     13  C   UNL     1      21.794  27.895 -16.538  1.00  0.00    -0.002 C 
ATOM     14  C   UNL     1      22.064  28.426 -17.762  1.00  0.00    -0.069 C 
ATOM     15  C   UNL     1      23.470  28.824 -18.147  1.00  0.00     0.039 C 
ATOM     16  C   UNL     1      20.973  28.599 -18.796  1.00  0.00     0.039 C 
BRANCH  13  17
ATOM     17  C   UNL     1      22.919  27.636 -15.540  1.00  0.00     0.066 CG0
ATOM     18  G   UNL     1      23.364  28.870 -14.792  1.00  0.00     0.000 G0
ENDBRANCH  13  17
ENDBRANCH  11  13
ENDBRANCH  10  11
ENDBRANCH   1  10
TORSDOF 0
ENDMDL
MODEL 2
REMARK VINA RESULT:    -4.559      9.775     12.112
REMARK INTER + INTRA:          -6.151
REMARK INTER:                  -6.462
REMARK INTRA:                   0.311
REMARK UNBOUND:                 0.274
REMARK SMILES CC1=CCC(=C(C)C)C(=O)CC(C)=CCC1
REMARK SMILES IDX 12 1 14 2 13 3 15 4 16 5 2 6 1 7 3 8 11 10 9 11 10 12 5 13
REMARK SMILES IDX 6 14 7 15 8 16 4 17
REMARK H PARENT
REMARK Flexibility Score: 60.00
ROOT
ATOM      1  C   UNL     1      35.026  31.217 -13.865  1.00  0.00    -0.070 C 
ATOM      2  C   UNL     1      34.566  30.553 -12.778  1.00  0.00    -0.027 C 
ATOM      3  C   UNL     1      36.167  32.184 -13.674  1.00  0.00     0.039 C 
ENDROOT
BRANCH   2   4
ATOM      4  C   UNL     1      33.395  29.597 -12.773  1.00  0.00     0.032 C 
BRANCH   4   5
ATOM      5  C   UNL     1      32.056  30.342 -12.672  1.00  0.00     0.034 C 
BRANCH   5   6
ATOM      6  C   UNL     1      30.989  29.805 -13.615  1.00  0.00    -0.077 C 
ATOM      7  C   UNL     1      30.383  28.453 -13.334  1.00  0.00     0.039 C 
ATOM      8  C   UNL     1      30.562  30.471 -14.712  1.00  0.00    -0.023 CG0
ATOM      9  G   UNL     1      30.997  31.860 -15.118  1.00  0.00     0.000 G0
ENDBRANCH   5   6
ENDBRANCH   4   5
ENDBRANCH   2   4
BRANCH   1  10
ATOM     10  C   UNL     1      34.446  31.029 -15.253  1.00  0.00     0.111 C 
BRANCH  10  11
ATOM     11  C   UNL     1      33.527  32.162 -15.615  1.00  0.00     0.163 C 
ATOM     12  O   UNL     1      33.923  33.350 -15.473  1.00  0.00    -0.294 OA
BRANCH  11  13
ATOM     13  C   UNL     1      32.150  31.908 -16.112  1.00  0.00    -0.002 C 
ATOM     14  C   UNL     1      31.924  31.716 -17.440  1.00  0.00    -0.069 C 
ATOM     15  C   UNL     1      30.540  31.406 -17.960  1.00  0.00     0.039 C 
ATOM     16  C   UNL     1      33.043  31.848 -18.451  1.00  0.00     0.039 C 
BRANCH  13  17
ATOM     17  C   UNL     1      30.996  31.868 -15.116  1.00  0.00     0.066 CG0
ATOM     18  G   UNL     1      30.570  30.470 -14.733  1.00  0.00     0.000 G0
ENDBRANCH  13  17
ENDBRANCH  11  13
ENDBRANCH  10  11
ENDBRANCH   1  10
TORSDOF 0
ENDMDL
MODEL 3
REMARK VINA RESULT:    -4.460      1.544      3.899
REMARK INTER + INTRA:          -6.012
REMARK INTER:                  -6.285
REMARK INTRA:                   0.273
REMARK UNBOUND:                 0.274
REMARK SMILES CC1=CCC(=C(C)C)C(=O)CC(C)=CCC1
REMARK SMILES IDX 12 1 14 2 13 3 15 4 16 5 2 6 1 7 3 8 11 10 9 11 10 12 5 13
REMARK SMILES IDX 6 14 7 15 8 16 4 17
REMARK H PARENT
REMARK Flexibility Score: 60.00
ROOT
ATOM      1  C   UNL     1      18.654  27.452 -14.603  1.00  0.00    -0.070 C 
ATOM      2  C   UNL     1      19.129  26.879 -15.734  1.00  0.00    -0.027 C 
ATOM      3  C   UNL     1      17.498  26.785 -13.902  1.00  0.00     0.039 C 
ENDROOT
BRANCH   2   4
ATOM      4  C   UNL     1      20.237  27.440 -16.596  1.00  0.00     0.032 C 
BRANCH   4   5
ATOM      5  C   UNL     1      21.618  27.197 -15.972  1.00  0.00     0.034 C 
BRANCH   5   6
ATOM      6  C   UNL     1      22.485  28.446 -15.908  1.00  0.00    -0.077 C 
ATOM      7  C   UNL     1      22.837  29.155 -17.192  1.00  0.00     0.039 C 
ATOM      8  C   UNL     1      22.978  28.952 -14.754  1.00  0.00    -0.023 CG0
ATOM      9  G   UNL     1      22.680  28.425 -13.369  1.00  0.00     0.000 G0
ENDBRANCH   5   6
ENDBRANCH   4   5
ENDBRANCH   2   4
BRANCH   1  10
ATOM     10  C   UNL     1      19.234  28.724 -14.016  1.00  0.00     0.111 C 
BRANCH  10  11
ATOM     11  C   UNL     1      20.123  28.423 -12.842  1.00  0.00     0.163 C 
ATOM     12  O   UNL     1      19.726  27.620 -11.956  1.00  0.00    -0.294 OA
BRANCH  11  13
ATOM     13  C   UNL     1      21.449  29.075 -12.693  1.00  0.00    -0.002 C 
ATOM     14  C   UNL     1      21.570  30.232 -11.986  1.00  0.00    -0.069 C 
ATOM     15  C   UNL     1      22.918  30.883 -11.779  1.00  0.00     0.039 C 
ATOM     16  C   UNL     1      20.355  30.930 -11.415  1.00  0.00     0.039 C 
BRANCH  13  17
ATOM     17  C   UNL     1      22.670  28.434 -13.345  1.00  0.00     0.066 CG0
ATOM     18  G   UNL     1      22.967  28.959 -14.730  1.00  0.00     0.000 G0
ENDBRANCH  13  17
ENDBRANCH  11  13
ENDBRANCH  10  11
ENDBRANCH   1  10
TORSDOF 0
ENDMDL
MODEL 4
REMARK VINA RESULT:    -4.425      9.569     12.311
REMARK INTER + INTRA:          -5.963
REMARK INTER:                  -6.330
REMARK INTRA:                   0.368
REMARK UNBOUND:                 0.274
REMARK SMILES CC1=CCC(=C(C)C)C(=O)CC(C)=CCC1
REMARK SMILES IDX 12 1 14 2 13 3 15 4 16 5 2 6 1 7 3 8 11 10 9 11 10 12 5 13
REMARK SMILES IDX 6 14 7 15 8 16 4 17
REMARK H PARENT
REMARK Flexibility Score: 60.00
ROOT
ATOM      1  C   UNL     1      34.939  31.212 -13.031  1.00  0.00    -0.070 C 
ATOM      2  C   UNL     1      35.003  31.832 -14.233  1.00  0.00    -0.027 C 
ATOM      3  C   UNL     1      35.741  31.789 -11.893  1.00  0.00     0.039 C 
ENDROOT
BRANCH   2   4
ATOM      4  C   UNL     1      34.316  31.359 -15.494  1.00  0.00     0.032 C 
BRANCH   4   5
ATOM      5  C   UNL     1      33.077  32.207 -15.817  1.00  0.00     0.034 C 
BRANCH   5   6
ATOM      6  C   UNL     1      31.835  31.380 -16.118  1.00  0.00    -0.077 C 
ATOM      7  C   UNL     1      31.593  30.920 -17.533  1.00  0.00     0.039 C 
ATOM      8  C   UNL     1      30.919  31.046 -15.181  1.00  0.00    -0.023 CG0
ATOM      9  G   UNL     1      31.023  31.354 -13.705  1.00  0.00     0.000 G0
ENDBRANCH   5   6
ENDBRANCH   4   5
ENDBRANCH   2   4
BRANCH   1  10
ATOM     10  C   UNL     1      34.100  29.973 -12.785  1.00  0.00     0.111 C 
BRANCH  10  11
ATOM     11  C   UNL     1      32.800  30.324 -12.117  1.00  0.00     0.163 C 
ATOM     12  O   UNL     1      32.806  30.720 -10.921  1.00  0.00    -0.294 OA
BRANCH  11  13
ATOM     13  C   UNL     1      31.505  30.186 -12.832  1.00  0.00    -0.002 C 
ATOM     14  C   UNL     1      30.783  29.036 -12.731  1.00  0.00    -0.069 C 
ATOM     15  C   UNL     1      29.440  28.896 -13.408  1.00  0.00     0.039 C 
ATOM     16  C   UNL     1      31.319  27.842 -11.972  1.00  0.00     0.039 C 
BRANCH  13  17
ATOM     17  C   UNL     1      30.997  31.348 -13.680  1.00  0.00     0.066 CG0
ATOM     18  G   UNL     1      30.921  31.035 -15.156  1.00  0.00     0.000 G0
ENDBRANCH  13  17
ENDBRANCH  11  13
ENDBRANCH  10  11
ENDBRANCH   1  10
TORSDOF 0
ENDMDL
MODEL 5
REMARK VINA RESULT:    -4.325      2.145      4.976
REMARK INTER + INTRA:          -5.821
REMARK INTER:                  -6.091
REMARK INTRA:                   0.271
REMARK UNBOUND:                 0.274
REMARK SMILES CC1=CCC(=C(C)C)C(=O)CC(C)=CCC1
REMARK SMILES IDX 12 1 14 2 13 3 15 4 16 5 2 6 1 7 3 8 11 10 9 11 10 12 5 13
REMARK SMILES IDX 6 14 7 15 8 16 4 17
REMARK H PARENT
REMARK Flexibility Score: 60.00
ROOT
ATOM      1  C   UNL     1      21.685  28.183 -16.342  1.00  0.00    -0.070 C 
ATOM      2  C   UNL     1      20.350  28.124 -16.561  1.00  0.00    -0.027 C 
ATOM      3  C   UNL     1      22.548  28.822 -17.400  1.00  0.00     0.039 C 
ENDROOT
BRANCH   2   4
ATOM      4  C   UNL     1      19.345  27.467 -15.641  1.00  0.00     0.032 C 
BRANCH   4   5
ATOM      5  C   UNL     1      18.889  28.421 -14.527  1.00  0.00     0.034 C 
BRANCH   5   6
ATOM      6  C   UNL     1      18.921  27.794 -13.140  1.00  0.00    -0.077 C 
ATOM      7  C   UNL     1      17.954  26.681 -12.822  1.00  0.00     0.039 C 
ATOM      8  C   UNL     1      19.764  28.196 -12.161  1.00  0.00    -0.023 CG0
ATOM      9  G   UNL     1      20.844  29.241 -12.311  1.00  0.00     0.000 G0
ENDBRANCH   5   6
ENDBRANCH   4   5
ENDBRANCH   2   4
BRANCH   1  10
ATOM     10  C   UNL     1      22.340  27.640 -15.087  1.00  0.00     0.111 C 
BRANCH  10  11
ATOM     11  C   UNL     1      22.657  28.746 -14.120  1.00  0.00     0.163 C 
ATOM     12  O   UNL     1      23.326  29.739 -14.513  1.00  0.00    -0.294 OA
BRANCH  11  13
ATOM     13  C   UNL     1      22.218  28.678 -12.702  1.00  0.00    -0.002 C 
ATOM     14  C   UNL     1      23.022  28.111 -11.761  1.00  0.00    -0.069 C 
ATOM     15  C   UNL     1      22.617  28.078 -10.306  1.00  0.00     0.039 C 
ATOM     16  C   UNL     1      24.332  27.456 -12.143  1.00  0.00     0.039 C 
BRANCH  13  17
ATOM     17  C   UNL     1      20.857  29.248 -12.317  1.00  0.00     0.066 CG0
ATOM     18  G   UNL     1      19.785  28.198 -12.145  1.00  0.00     0.000 G0
ENDBRANCH  13  17
ENDBRANCH  11  13
ENDBRANCH  10  11
ENDBRANCH   1  10
TORSDOF 0
ENDMDL
MODEL 6
REMARK VINA RESULT:    -4.180      9.885     12.179
REMARK INTER + INTRA:          -5.616
REMARK INTER:                  -6.064
REMARK INTRA:                   0.448
REMARK UNBOUND:                 0.274
REMARK SMILES CC1=CCC(=C(C)C)C(=O)CC(C)=CCC1
REMARK SMILES IDX 12 1 14 2 13 3 15 4 16 5 2 6 1 7 3 8 11 10 9 11 10 12 5 13
REMARK SMILES IDX 6 14 7 15 8 16 4 17
REMARK H PARENT
REMARK Flexibility Score: 60.00
ROOT
ATOM      1  C   UNL     1      31.937  31.574 -15.959  1.00  0.00    -0.070 C 
ATOM      2  C   UNL     1      33.275  31.675 -16.137  1.00  0.00    -0.027 C 
ATOM      3  C   UNL     1      31.105  31.066 -17.108  1.00  0.00     0.039 C 
ENDROOT
BRANCH   2   4
ATOM      4  C   UNL     1      34.251  32.220 -15.119  1.00  0.00     0.032 C 
BRANCH   4   5
ATOM      5  C   UNL     1      35.034  31.095 -14.426  1.00  0.00     0.034 C 
BRANCH   5   6
ATOM      6  C   UNL     1      34.992  31.173 -12.906  1.00  0.00    -0.077 C 
ATOM      7  C   UNL     1      36.020  32.015 -12.192  1.00  0.00     0.039 C 
ATOM      8  C   UNL     1      34.088  30.508 -12.151  1.00  0.00    -0.023 CG0
ATOM      9  G   UNL     1      32.945  29.676 -12.684  1.00  0.00     0.000 G0
ENDBRANCH   5   6
ENDBRANCH   4   5
ENDBRANCH   2   4
BRANCH   1  10
ATOM     10  C   UNL     1      31.248  31.946 -14.660  1.00  0.00     0.111 C 
BRANCH  10  11
ATOM     11  C   UNL     1      30.872  30.721 -13.876  1.00  0.00     0.163 C 
ATOM     12  O   UNL     1      29.929  29.991 -14.283  1.00  0.00    -0.294 OA
BRANCH  11  13
ATOM     13  C   UNL     1      31.573  30.368 -12.615  1.00  0.00    -0.002 C 
ATOM     14  C   UNL     1      31.011  30.663 -11.411  1.00  0.00    -0.069 C 
ATOM     15  C   UNL     1      31.683  30.266 -10.117  1.00  0.00     0.039 C 
ATOM     16  C   UNL     1      29.712  31.434 -11.322  1.00  0.00     0.039 C 
BRANCH  13  17
ATOM     17  C   UNL     1      32.930  29.676 -12.688  1.00  0.00     0.066 CG0
ATOM     18  G   UNL     1      34.069  30.512 -12.154  1.00  0.00     0.000 G0
ENDBRANCH  13  17
ENDBRANCH  11  13
ENDBRANCH  10  11
ENDBRANCH   1  10
TORSDOF 0
ENDMDL
MODEL 7
REMARK VINA RESULT:    -4.157      1.832      4.314
REMARK INTER + INTRA:          -5.585
REMARK INTER:                  -5.975
REMARK INTRA:                   0.390
REMARK UNBOUND:                 0.274
REMARK SMILES CC1=CCC(=C(C)C)C(=O)CC(C)=CCC1
REMARK SMILES IDX 12 1 14 2 13 3 15 4 16 5 2 6 1 7 3 8 11 10 9 11 10 12 5 13
REMARK SMILES IDX 6 14 7 15 8 16 4 17
REMARK H PARENT
REMARK Flexibility Score: 60.00
ROOT
ATOM      1  C   UNL     1      21.988  28.354 -16.166  1.00  0.00    -0.070 C 
ATOM      2  C   UNL     1      23.042  28.839 -15.469  1.00  0.00    -0.027 C 
ATOM      3  C   UNL     1      21.843  28.768 -17.609  1.00  0.00     0.039 C 
ENDROOT
BRANCH   2   4
ATOM      4  C   UNL     1      23.310  28.580 -14.003  1.00  0.00     0.032 C 
BRANCH   4   5
ATOM      5  C   UNL     1      22.319  29.334 -13.105  1.00  0.00     0.034 C 
BRANCH   5   6
ATOM      6  C   UNL     1      21.727  28.473 -11.997  1.00  0.00    -0.077 C 
ATOM      7  C   UNL     1      22.655  27.860 -10.977  1.00  0.00     0.039 C 
ATOM      8  C   UNL     1      20.405  28.210 -11.884  1.00  0.00    -0.023 CG0
ATOM      9  G   UNL     1      19.320  28.787 -12.763  1.00  0.00     0.000 G0
ENDBRANCH   5   6
ENDBRANCH   4   5
ENDBRANCH   2   4
BRANCH   1  10
ATOM     10  C   UNL     1      20.959  27.419 -15.563  1.00  0.00     0.111 C 
BRANCH  10  11
ATOM     11  C   UNL     1      19.678  28.145 -15.262  1.00  0.00     0.163 C 
ATOM     12  O   UNL     1      19.218  28.963 -16.103  1.00  0.00    -0.294 OA
BRANCH  11  13
ATOM     13  C   UNL     1      18.956  27.935 -13.981  1.00  0.00    -0.002 C 
ATOM     14  C   UNL     1      17.980  26.991 -13.889  1.00  0.00    -0.069 C 
ATOM     15  C   UNL     1      17.269  26.727 -12.582  1.00  0.00     0.039 C 
ATOM     16  C   UNL     1      17.541  26.199 -15.102  1.00  0.00     0.039 C 
BRANCH  13  17
ATOM     17  C   UNL     1      19.320  28.792 -12.773  1.00  0.00     0.066 CG0
ATOM     18  G   UNL     1      20.394  28.188 -11.899  1.00  0.00     0.000 G0
ENDBRANCH  13  17
ENDBRANCH  11  13
ENDBRANCH  10  11
ENDBRANCH   1  10
TORSDOF 0
ENDMDL
MODEL 8
REMARK VINA RESULT:    -4.157      7.184     10.487
REMARK INTER + INTRA:          -5.584
REMARK INTER:                  -5.909
REMARK INTRA:                   0.325
REMARK UNBOUND:                 0.274
REMARK SMILES CC1=CCC(=C(C)C)C(=O)CC(C)=CCC1
REMARK SMILES IDX 12 1 14 2 13 3 15 4 16 5 2 6 1 7 3 8 11 10 9 11 10 12 5 13
REMARK SMILES IDX 6 14 7 15 8 16 4 17
REMARK H PARENT
REMARK Flexibility Score: 60.00
ROOT
ATOM      1  C   UNL     1      22.164  23.198 -23.590  1.00  0.00    -0.070 C 
ATOM      2  C   UNL     1      21.638  22.686 -24.729  1.00  0.00    -0.027 C 
ATOM      3  C   UNL     1      23.618  22.931 -23.299  1.00  0.00     0.039 C 
ENDROOT
BRANCH   2   4
ATOM      4  C   UNL     1      20.191  22.802 -25.149  1.00  0.00     0.032 C 
BRANCH   4   5
ATOM      5  C   UNL     1      19.961  24.014 -26.063  1.00  0.00     0.034 C 
BRANCH   5   6
ATOM      6  C   UNL     1      18.817  24.910 -25.610  1.00  0.00    -0.077 C 
ATOM      7  C   UNL     1      17.399  24.466 -25.869  1.00  0.00     0.039 C 
ATOM      8  C   UNL     1      19.002  26.102 -24.997  1.00  0.00    -0.023 CG0
ATOM      9  G   UNL     1      20.338  26.680 -24.592  1.00  0.00     0.000 G0
ENDBRANCH   5   6
ENDBRANCH   4   5
ENDBRANCH   2   4
BRANCH   1  10
ATOM     10  C   UNL     1      21.356  24.023 -22.607  1.00  0.00     0.111 C 
BRANCH  10  11
ATOM     11  C   UNL     1      21.691  25.483 -22.722  1.00  0.00     0.163 C 
ATOM     12  O   UNL     1      22.865  25.870 -22.474  1.00  0.00    -0.294 OA
BRANCH  11  13
ATOM     13  C   UNL     1      20.659  26.484 -23.097  1.00  0.00    -0.002 C 
ATOM     14  C   UNL     1      20.020  27.205 -22.136  1.00  0.00    -0.069 C 
ATOM     15  C   UNL     1      19.005  28.263 -22.500  1.00  0.00     0.039 C 
ATOM     16  C   UNL     1      20.273  26.946 -20.667  1.00  0.00     0.039 C 
BRANCH  13  17
ATOM     17  C   UNL     1      20.323  26.688 -24.571  1.00  0.00     0.066 CG0
ATOM     18  G   UNL     1      18.999  26.088 -24.982  1.00  0.00     0.000 G0
ENDBRANCH  13  17
ENDBRANCH  11  13
ENDBRANCH  10  11
ENDBRANCH   1  10
TORSDOF 0
ENDMDL
MODEL 9
REMARK VINA RESULT:    -4.150     10.762     13.114
REMARK INTER + INTRA:          -5.574
REMARK INTER:                  -5.975
REMARK INTRA:                   0.401
REMARK UNBOUND:                 0.274
REMARK SMILES CC1=CCC(=C(C)C)C(=O)CC(C)=CCC1
REMARK SMILES IDX 12 1 14 2 13 3 15 4 16 5 2 6 1 7 3 8 11 10 9 11 10 12 5 13
REMARK SMILES IDX 6 14 7 15 8 16 4 17
REMARK H PARENT
REMARK Flexibility Score: 60.00
ROOT
ATOM      1  C   UNL     1      32.101  31.444 -15.785  1.00  0.00    -0.070 C 
ATOM      2  C   UNL     1      31.051  30.816 -15.205  1.00  0.00    -0.027 C 
ATOM      3  C   UNL     1      32.263  31.323 -17.279  1.00  0.00     0.039 C 
ENDROOT
BRANCH   2   4
ATOM      4  C   UNL     1      30.769  30.779 -13.721  1.00  0.00     0.032 C 
BRANCH   4   5
ATOM      5  C   UNL     1      31.745  29.852 -12.982  1.00  0.00     0.034 C 
BRANCH   5   6
ATOM      6  C   UNL     1      32.372  30.488 -11.748  1.00  0.00    -0.077 C 
ATOM      7  C   UNL     1      31.475  30.908 -10.611  1.00  0.00     0.039 C 
ATOM      8  C   UNL     1      33.700  30.715 -11.622  1.00  0.00    -0.023 CG0
ATOM      9  G   UNL     1      34.758  30.303 -12.618  1.00  0.00     0.000 G0
ENDBRANCH   5   6
ENDBRANCH   4   5
ENDBRANCH   2   4
BRANCH   1  10
ATOM     10  C   UNL     1      33.111  32.259 -15.000  1.00  0.00     0.111 C 
BRANCH  10  11
ATOM     11  C   UNL     1      34.426  31.540 -14.900  1.00  0.00     0.163 C 
ATOM     12  O   UNL     1      34.917  31.000 -15.928  1.00  0.00    -0.294 OA
BRANCH  11  13
ATOM     13  C   UNL     1      35.148  31.431 -13.606  1.00  0.00    -0.002 C 
ATOM     14  C   UNL     1      36.137  32.313 -13.295  1.00  0.00    -0.069 C 
ATOM     15  C   UNL     1      36.848  32.250 -11.963  1.00  0.00     0.039 C 
ATOM     16  C   UNL     1      36.590  33.361 -14.288  1.00  0.00     0.039 C 
BRANCH  13  17
ATOM     17  C   UNL     1      34.768  30.318 -12.634  1.00  0.00     0.066 CG0
ATOM     18  G   UNL     1      33.713  30.720 -11.631  1.00  0.00     0.000 G0
ENDBRANCH  13  17
ENDBRANCH  11  13
ENDBRANCH  10  11
ENDBRANCH   1  10
TORSDOF 0
ENDMDL
