MODEL 1
REMARK VINA RESULT:    -3.546      0.000      0.000
REMARK INTER + INTRA:          -4.282
REMARK INTER:                  -4.167
REMARK INTRA:                  -0.114
REMARK UNBOUND:                -0.114
REMARK SMILES O=C([O-])CCC(=O)[O-]
REMARK SMILES IDX 4 1 2 2 1 3 3 4 5 5 6 6 7 7 8 8
REMARK H PARENT
REMARK Flexibility Score: inf
ROOT
ATOM      1  C   UNL     1      13.654 -29.020  23.246  1.00  0.00     0.059 C 
ENDROOT
BRANCH   1   2
ATOM      2  C   UNL     1      12.764 -28.063  23.980  1.00  0.00     0.042 C 
ATOM      3  O   UNL     1      11.562 -28.362  24.206  1.00  0.00    -0.550 OA
ATOM      4  O   UNL     1      13.252 -26.825  24.378  1.00  0.00    -0.550 OA
ENDBRANCH   1   2
BRANCH   1   5
ATOM      5  C   UNL     1      13.136 -30.459  23.340  1.00  0.00     0.059 C 
BRANCH   5   6
ATOM      6  C   UNL     1      12.569 -30.928  22.035  1.00  0.00     0.042 C 
ATOM      7  O   UNL     1      11.397 -30.611  21.705  1.00  0.00    -0.550 OA
ATOM      8  O   UNL     1      13.349 -31.682  21.167  1.00  0.00    -0.550 OA
ENDBRANCH   5   6
ENDBRANCH   1   5
TORSDOF 3
ENDMDL
MODEL 2
REMARK VINA RESULT:    -3.512      0.134      3.901
REMARK INTER + INTRA:          -4.242
REMARK INTER:                  -4.127
REMARK INTRA:                  -0.115
REMARK UNBOUND:                -0.114
REMARK SMILES O=C([O-])CCC(=O)[O-]
REMARK SMILES IDX 4 1 2 2 1 3 3 4 5 5 6 6 7 7 8 8
REMARK H PARENT
REMARK Flexibility Score: inf
ROOT
ATOM      1  C   UNL     1      13.273 -30.409  23.403  1.00  0.00     0.059 C 
ENDROOT
BRANCH   1   2
ATOM      2  C   UNL     1      12.708 -30.937  22.120  1.00  0.00     0.042 C 
ATOM      3  O   UNL     1      13.387 -31.714  21.399  1.00  0.00    -0.550 OA
ATOM      4  O   UNL     1      11.445 -30.539  21.701  1.00  0.00    -0.550 OA
ENDBRANCH   1   2
BRANCH   1   5
ATOM      5  C   UNL     1      13.728 -28.952  23.262  1.00  0.00     0.059 C 
BRANCH   5   6
ATOM      6  C   UNL     1      12.818 -28.015  23.995  1.00  0.00     0.042 C 
ATOM      7  O   UNL     1      11.631 -28.353  24.245  1.00  0.00    -0.550 OA
ATOM      8  O   UNL     1      13.292 -26.788  24.439  1.00  0.00    -0.550 OA
ENDBRANCH   5   6
ENDBRANCH   1   5
TORSDOF 3
ENDMDL
MODEL 3
REMARK VINA RESULT:    -3.481      1.254      1.882
REMARK INTER + INTRA:          -4.206
REMARK INTER:                  -4.144
REMARK INTRA:                  -0.062
REMARK UNBOUND:                -0.114
REMARK SMILES O=C([O-])CCC(=O)[O-]
REMARK SMILES IDX 4 1 2 2 1 3 3 4 5 5 6 6 7 7 8 8
REMARK H PARENT
REMARK Flexibility Score: inf
ROOT
ATOM      1  C   UNL     1      13.116 -30.111  23.590  1.00  0.00     0.059 C 
ENDROOT
BRANCH   1   2
ATOM      2  C   UNL     1      12.304 -28.882  23.862  1.00  0.00     0.042 C 
ATOM      3  O   UNL     1      12.715 -28.019  24.682  1.00  0.00    -0.550 OA
ATOM      4  O   UNL     1      11.074 -28.709  23.240  1.00  0.00    -0.550 OA
ENDBRANCH   1   2
BRANCH   1   5
ATOM      5  C   UNL     1      12.561 -30.902  22.400  1.00  0.00     0.059 C 
BRANCH   5   6
ATOM      6  C   UNL     1      13.633 -31.229  21.406  1.00  0.00     0.042 C 
ATOM      7  O   UNL     1      13.464 -32.161  20.577  1.00  0.00    -0.550 OA
ATOM      8  O   UNL     1      14.802 -30.478  21.370  1.00  0.00    -0.550 OA
ENDBRANCH   5   6
ENDBRANCH   1   5
TORSDOF 3
ENDMDL
MODEL 4
REMARK VINA RESULT:    -3.433      1.224      1.579
REMARK INTER + INTRA:          -4.149
REMARK INTER:                  -4.086
REMARK INTRA:                  -0.063
REMARK UNBOUND:                -0.114
REMARK SMILES O=C([O-])CCC(=O)[O-]
REMARK SMILES IDX 4 1 2 2 1 3 3 4 5 5 6 6 7 7 8 8
REMARK H PARENT
REMARK Flexibility Score: inf
ROOT
ATOM      1  C   UNL     1      13.104 -30.064  23.629  1.00  0.00     0.059 C 
ENDROOT
BRANCH   1   2
ATOM      2  C   UNL     1      12.290 -28.818  23.808  1.00  0.00     0.042 C 
ATOM      3  O   UNL     1      11.125 -28.749  23.337  1.00  0.00    -0.550 OA
ATOM      4  O   UNL     1      12.834 -27.720  24.462  1.00  0.00    -0.550 OA
ENDBRANCH   1   2
BRANCH   1   5
ATOM      5  C   UNL     1      12.644 -30.868  22.408  1.00  0.00     0.059 C 
BRANCH   5   6
ATOM      6  C   UNL     1      13.796 -31.240  21.526  1.00  0.00     0.042 C 
ATOM      7  O   UNL     1      14.756 -30.440  21.368  1.00  0.00    -0.550 OA
ATOM      8  O   UNL     1      13.830 -32.484  20.911  1.00  0.00    -0.550 OA
ENDBRANCH   5   6
ENDBRANCH   1   5
TORSDOF 3
ENDMDL
MODEL 5
REMARK VINA RESULT:    -3.420      1.224      3.864
REMARK INTER + INTRA:          -4.134
REMARK INTER:                  -4.071
REMARK INTRA:                  -0.063
REMARK UNBOUND:                -0.114
REMARK SMILES O=C([O-])CCC(=O)[O-]
REMARK SMILES IDX 4 1 2 2 1 3 3 4 5 5 6 6 7 7 8 8
REMARK H PARENT
REMARK Flexibility Score: inf
ROOT
ATOM      1  C   UNL     1      12.624 -30.910  22.503  1.00  0.00     0.059 C 
ENDROOT
BRANCH   1   2
ATOM      2  C   UNL     1      13.758 -31.296  21.601  1.00  0.00     0.042 C 
ATOM      3  O   UNL     1      13.782 -32.434  21.065  1.00  0.00    -0.550 OA
ATOM      4  O   UNL     1      14.807 -30.412  21.387  1.00  0.00    -0.550 OA
ENDBRANCH   1   2
BRANCH   1   5
ATOM      5  C   UNL     1      13.109 -30.074  23.693  1.00  0.00     0.059 C 
BRANCH   5   6
ATOM      6  C   UNL     1      12.321 -28.809  23.836  1.00  0.00     0.042 C 
ATOM      7  O   UNL     1      11.156 -28.732  23.365  1.00  0.00    -0.550 OA
ATOM      8  O   UNL     1      12.857 -27.728  24.525  1.00  0.00    -0.550 OA
ENDBRANCH   5   6
ENDBRANCH   1   5
TORSDOF 3
ENDMDL
MODEL 6
REMARK VINA RESULT:    -3.371      1.229      4.077
REMARK INTER + INTRA:          -4.076
REMARK INTER:                  -4.008
REMARK INTRA:                  -0.069
REMARK UNBOUND:                -0.114
REMARK SMILES O=C([O-])CCC(=O)[O-]
REMARK SMILES IDX 4 1 2 2 1 3 3 4 5 5 6 6 7 7 8 8
REMARK H PARENT
REMARK Flexibility Score: inf
ROOT
ATOM      1  C   UNL     1      12.678 -30.981  22.407  1.00  0.00     0.059 C 
ENDROOT
BRANCH   1   2
ATOM      2  C   UNL     1      13.796 -31.283  21.456  1.00  0.00     0.042 C 
ATOM      3  O   UNL     1      14.743 -30.466  21.310  1.00  0.00    -0.550 OA
ATOM      4  O   UNL     1      13.771 -32.448  20.700  1.00  0.00    -0.550 OA
ENDBRANCH   1   2
BRANCH   1   5
ATOM      5  C   UNL     1      13.150 -30.110  23.576  1.00  0.00     0.059 C 
BRANCH   5   6
ATOM      6  C   UNL     1      12.398 -28.817  23.640  1.00  0.00     0.042 C 
ATOM      7  O   UNL     1      12.993 -27.753  23.957  1.00  0.00    -0.550 OA
ATOM      8  O   UNL     1      11.049 -28.778  23.312  1.00  0.00    -0.550 OA
ENDBRANCH   5   6
ENDBRANCH   1   5
TORSDOF 3
ENDMDL
MODEL 7
REMARK VINA RESULT:    -3.320      2.052      4.726
REMARK INTER + INTRA:          -4.016
REMARK INTER:                  -3.973
REMARK INTRA:                  -0.043
REMARK UNBOUND:                -0.114
REMARK SMILES O=C([O-])CCC(=O)[O-]
REMARK SMILES IDX 4 1 2 2 1 3 3 4 5 5 6 6 7 7 8 8
REMARK H PARENT
REMARK Flexibility Score: inf
ROOT
ATOM      1  C   UNL     1      13.866 -31.898  21.182  1.00  0.00     0.059 C 
ENDROOT
BRANCH   1   2
ATOM      2  C   UNL     1      14.555 -33.228  21.231  1.00  0.00     0.042 C 
ATOM      3  O   UNL     1      14.945 -33.701  22.330  1.00  0.00    -0.550 OA
ATOM      4  O   UNL     1      14.804 -33.926  20.056  1.00  0.00    -0.550 OA
ENDBRANCH   1   2
BRANCH   1   5
ATOM      5  C   UNL     1      13.478 -31.412  22.582  1.00  0.00     0.059 C 
BRANCH   5   6
ATOM      6  C   UNL     1      12.341 -30.438  22.533  1.00  0.00     0.042 C 
ATOM      7  O   UNL     1      11.401 -30.603  21.711  1.00  0.00    -0.550 OA
ATOM      8  O   UNL     1      12.299 -29.370  23.420  1.00  0.00    -0.550 OA
ENDBRANCH   5   6
ENDBRANCH   1   5
TORSDOF 3
ENDMDL
MODEL 8
REMARK VINA RESULT:    -3.309      2.347      3.340
REMARK INTER + INTRA:          -4.003
REMARK INTER:                  -3.896
REMARK INTRA:                  -0.107
REMARK UNBOUND:                -0.114
REMARK SMILES O=C([O-])CCC(=O)[O-]
REMARK SMILES IDX 4 1 2 2 1 3 3 4 5 5 6 6 7 7 8 8
REMARK H PARENT
REMARK Flexibility Score: inf
ROOT
ATOM      1  C   UNL     1      14.174 -30.884  21.711  1.00  0.00     0.059 C 
ENDROOT
BRANCH   1   2
ATOM      2  C   UNL     1      13.258 -30.601  22.863  1.00  0.00     0.042 C 
ATOM      3  O   UNL     1      13.550 -31.002  24.020  1.00  0.00    -0.550 OA
ATOM      4  O   UNL     1      12.061 -29.928  22.650  1.00  0.00    -0.550 OA
ENDBRANCH   1   2
BRANCH   1   5
ATOM      5  C   UNL     1      13.661 -32.046  20.854  1.00  0.00     0.059 C 
BRANCH   5   6
ATOM      6  C   UNL     1      14.515 -33.267  21.012  1.00  0.00     0.042 C 
ATOM      7  O   UNL     1      14.894 -33.630  22.156  1.00  0.00    -0.550 OA
ATOM      8  O   UNL     1      14.857 -34.026  19.900  1.00  0.00    -0.550 OA
ENDBRANCH   5   6
ENDBRANCH   1   5
TORSDOF 3
ENDMDL
MODEL 9
REMARK VINA RESULT:    -3.275     10.073     10.905
REMARK INTER + INTRA:          -3.963
REMARK INTER:                  -3.847
REMARK INTRA:                  -0.117
REMARK UNBOUND:                -0.114
REMARK SMILES O=C([O-])CCC(=O)[O-]
REMARK SMILES IDX 4 1 2 2 1 3 3 4 5 5 6 6 7 7 8 8
REMARK H PARENT
REMARK Flexibility Score: inf
ROOT
ATOM      1  C   UNL     1      22.468 -24.981  20.720  1.00  0.00     0.059 C 
ENDROOT
BRANCH   1   2
ATOM      2  C   UNL     1      23.473 -24.643  19.661  1.00  0.00     0.042 C 
ATOM      3  O   UNL     1      23.579 -25.364  18.634  1.00  0.00    -0.550 OA
ATOM      4  O   UNL     1      24.320 -23.555  19.828  1.00  0.00    -0.550 OA
ENDBRANCH   1   2
BRANCH   1   5
ATOM      5  C   UNL     1      21.222 -25.645  20.125  1.00  0.00     0.059 C 
BRANCH   5   6
ATOM      6  C   UNL     1      21.022 -27.027  20.666  1.00  0.00     0.042 C 
ATOM      7  O   UNL     1      22.010 -27.788  20.840  1.00  0.00    -0.550 OA
ATOM      8  O   UNL     1      19.749 -27.461  21.015  1.00  0.00    -0.550 OA
ENDBRANCH   5   6
ENDBRANCH   1   5
TORSDOF 3
ENDMDL
