MODEL 1
REMARK VINA RESULT:    -5.938      0.000      0.000
REMARK INTER + INTRA:          -7.087
REMARK INTER:                  -6.806
REMARK INTRA:                  -0.281
REMARK UNBOUND:                -0.281
REMARK SMILES O=C1C[C@H](c2ccc(O)cc2)Oc2cc(O)cc(O)c21
REMARK SMILES IDX 3 1 4 2 12 3 13 4 14 5 15 6 17 7 18 8 20 9 2 10 1 11 5 12
REMARK SMILES IDX 6 13 11 14 7 15 10 16 8 17 9 18 19 20 16 22
REMARK H PARENT 9 19 19 21 16 23
REMARK Flexibility Score: inf
ROOT
ATOM      1  C   UNL     1      18.685   0.431 -14.525  1.00  0.00     0.131 C 
ATOM      2  C   UNL     1      17.400   0.317 -15.353  1.00  0.00     0.211 C 
ATOM      3  O   UNL     1      17.631  -0.485 -16.510  1.00  0.00    -0.484 OA
ATOM      4  C   UNL     1      18.766  -0.314 -17.309  1.00  0.00     0.138 A 
ATOM      5  C   UNL     1      18.787  -0.886 -18.582  1.00  0.00     0.093 A 
ATOM      6  C   UNL     1      19.892  -0.714 -19.414  1.00  0.00     0.123 A 
ATOM      7  C   UNL     1      20.977   0.050 -18.976  1.00  0.00     0.093 A 
ATOM      8  C   UNL     1      20.977   0.640 -17.707  1.00  0.00     0.133 A 
ATOM      9  C   UNL     1      19.876   0.419 -16.830  1.00  0.00     0.102 A 
ATOM     10  C   UNL     1      19.841   0.836 -15.397  1.00  0.00     0.174 C 
ATOM     11  O   UNL     1      20.809   1.431 -14.857  1.00  0.00    -0.294 OA
ENDROOT
BRANCH   2  12
ATOM     12  C   UNL     1      16.281  -0.273 -14.528  1.00  0.00    -0.007 A 
ATOM     13  C   UNL     1      15.046   0.391 -14.435  1.00  0.00     0.011 A 
ATOM     14  C   UNL     1      16.478  -1.459 -13.799  1.00  0.00     0.011 A 
ATOM     15  C   UNL     1      14.018  -0.136 -13.648  1.00  0.00     0.046 A 
ATOM     16  C   UNL     1      15.448  -1.984 -13.012  1.00  0.00     0.046 A 
ATOM     17  C   UNL     1      14.215  -1.326 -12.935  1.00  0.00     0.115 A 
BRANCH  17  18
ATOM     18  O   UNL     1      13.199  -1.860 -12.148  1.00  0.00    -0.508 OA
ATOM     19  H   UNL     1      13.393  -2.280 -11.246  1.00  0.00     0.293 HD
ENDBRANCH  17  18
ENDBRANCH   2  12
BRANCH   8  20
ATOM     20  O   UNL     1      22.076   1.439 -17.382  1.00  0.00    -0.507 OA
ATOM     21  H   UNL     1      22.368   2.250 -17.908  1.00  0.00     0.293 HD
ENDBRANCH   8  20
BRANCH   6  22
ATOM     22  O   UNL     1      19.896  -1.298 -20.680  1.00  0.00    -0.508 OA
ATOM     23  H   UNL     1      20.754  -1.412 -21.207  1.00  0.00     0.293 HD
ENDBRANCH   6  22
TORSDOF 4
ENDMDL
MODEL 2
REMARK VINA RESULT:    -5.893      2.177      6.816
REMARK INTER + INTRA:          -7.036
REMARK INTER:                  -6.746
REMARK INTRA:                  -0.290
REMARK UNBOUND:                -0.281
REMARK SMILES O=C1C[C@H](c2ccc(O)cc2)Oc2cc(O)cc(O)c21
REMARK SMILES IDX 3 1 4 2 12 3 13 4 14 5 15 6 17 7 18 8 20 9 2 10 1 11 5 12
REMARK SMILES IDX 6 13 11 14 7 15 10 16 8 17 9 18 19 20 16 22
REMARK H PARENT 9 19 19 21 16 23
REMARK Flexibility Score: inf
ROOT
ATOM      1  C   UNL     1      17.322  -0.120 -16.022  1.00  0.00     0.131 C 
ATOM      2  C   UNL     1      18.611  -0.924 -16.226  1.00  0.00     0.211 C 
ATOM      3  O   UNL     1      18.326  -2.322 -16.201  1.00  0.00    -0.484 OA
ATOM      4  C   UNL     1      17.495  -2.888 -15.230  1.00  0.00     0.138 A 
ATOM      5  C   UNL     1      17.507  -4.272 -15.055  1.00  0.00     0.093 A 
ATOM      6  C   UNL     1      16.710  -4.866 -14.078  1.00  0.00     0.123 A 
ATOM      7  C   UNL     1      15.907  -4.068 -13.259  1.00  0.00     0.093 A 
ATOM      8  C   UNL     1      15.882  -2.676 -13.411  1.00  0.00     0.133 A 
ATOM      9  C   UNL     1      16.650  -2.069 -14.445  1.00  0.00     0.102 A 
ATOM     10  C   UNL     1      16.567  -0.627 -14.824  1.00  0.00     0.174 C 
ATOM     11  O   UNL     1      15.792   0.168 -14.233  1.00  0.00    -0.294 OA
ENDROOT
BRANCH   2  12
ATOM     12  C   UNL     1      19.274  -0.551 -17.531  1.00  0.00    -0.007 A 
ATOM     13  C   UNL     1      18.722  -0.977 -18.751  1.00  0.00     0.011 A 
ATOM     14  C   UNL     1      20.478   0.175 -17.538  1.00  0.00     0.011 A 
ATOM     15  C   UNL     1      19.350  -0.659 -19.959  1.00  0.00     0.046 A 
ATOM     16  C   UNL     1      21.104   0.491 -18.748  1.00  0.00     0.046 A 
ATOM     17  C   UNL     1      20.542   0.078 -19.961  1.00  0.00     0.115 A 
BRANCH  17  18
ATOM     18  O   UNL     1      21.176   0.400 -21.158  1.00  0.00    -0.508 OA
ATOM     19  H   UNL     1      20.705   0.934 -21.879  1.00  0.00     0.293 HD
ENDBRANCH  17  18
ENDBRANCH   2  12
BRANCH   8  20
ATOM     20  O   UNL     1      15.100  -1.957 -12.503  1.00  0.00    -0.507 OA
ATOM     21  H   UNL     1      14.222  -2.279 -12.125  1.00  0.00     0.293 HD
ENDBRANCH   8  20
BRANCH   6  22
ATOM     22  O   UNL     1      16.731  -6.251 -13.922  1.00  0.00    -0.508 OA
ATOM     23  H   UNL     1      16.793  -6.680 -13.006  1.00  0.00     0.293 HD
ENDBRANCH   6  22
TORSDOF 4
ENDMDL
MODEL 3
REMARK VINA RESULT:    -5.754      7.049     12.252
REMARK INTER + INTRA:          -6.876
REMARK INTER:                  -6.559
REMARK INTRA:                  -0.317
REMARK UNBOUND:                -0.281
REMARK SMILES O=C1C[C@H](c2ccc(O)cc2)Oc2cc(O)cc(O)c21
REMARK SMILES IDX 3 1 4 2 12 3 13 4 14 5 15 6 17 7 18 8 20 9 2 10 1 11 5 12
REMARK SMILES IDX 6 13 11 14 7 15 10 16 8 17 9 18 19 20 16 22
REMARK H PARENT 9 19 19 21 16 23
REMARK Flexibility Score: inf
ROOT
ATOM      1  C   UNL     1      12.653  -7.436 -11.493  1.00  0.00     0.131 C 
ATOM      2  C   UNL     1      12.768  -5.955 -11.112  1.00  0.00     0.211 C 
ATOM      3  O   UNL     1      12.333  -5.759  -9.768  1.00  0.00    -0.484 OA
ATOM      4  C   UNL     1      11.160  -6.344  -9.281  1.00  0.00     0.138 A 
ATOM      5  C   UNL     1      10.616  -5.870  -8.086  1.00  0.00     0.093 A 
ATOM      6  C   UNL     1       9.434  -6.413  -7.586  1.00  0.00     0.123 A 
ATOM      7  C   UNL     1       8.782  -7.426  -8.294  1.00  0.00     0.093 A 
ATOM      8  C   UNL     1       9.304  -7.913  -9.499  1.00  0.00     0.133 A 
ATOM      9  C   UNL     1      10.541  -7.403  -9.985  1.00  0.00     0.102 A 
ATOM     10  C   UNL     1      11.288  -7.965 -11.150  1.00  0.00     0.174 C 
ATOM     11  O   UNL     1      10.856  -8.953 -11.798  1.00  0.00    -0.294 OA
ENDROOT
BRANCH   2  12
ATOM     12  C   UNL     1      14.189  -5.469 -11.275  1.00  0.00    -0.007 A 
ATOM     13  C   UNL     1      14.987  -5.958 -12.323  1.00  0.00     0.011 A 
ATOM     14  C   UNL     1      14.747  -4.568 -10.350  1.00  0.00     0.011 A 
ATOM     15  C   UNL     1      16.312  -5.533 -12.459  1.00  0.00     0.046 A 
ATOM     16  C   UNL     1      16.072  -4.145 -10.489  1.00  0.00     0.046 A 
ATOM     17  C   UNL     1      16.858  -4.623 -11.543  1.00  0.00     0.115 A 
BRANCH  17  18
ATOM     18  O   UNL     1      18.176  -4.193 -11.668  1.00  0.00    -0.508 OA
ATOM     19  H   UNL     1      18.692  -3.830 -10.875  1.00  0.00     0.293 HD
ENDBRANCH  17  18
ENDBRANCH   2  12
BRANCH   8  20
ATOM     20  O   UNL     1       8.548  -8.879 -10.169  1.00  0.00    -0.507 OA
ATOM     21  H   UNL     1       7.795  -9.406  -9.752  1.00  0.00     0.293 HD
ENDBRANCH   8  20
BRANCH   6  22
ATOM     22  O   UNL     1       8.909  -5.931  -6.388  1.00  0.00    -0.508 OA
ATOM     23  H   UNL     1       9.194  -5.035  -6.008  1.00  0.00     0.293 HD
ENDBRANCH   6  22
TORSDOF 4
ENDMDL
MODEL 4
REMARK VINA RESULT:    -5.717      7.097     12.411
REMARK INTER + INTRA:          -6.834
REMARK INTER:                  -6.546
REMARK INTRA:                  -0.288
REMARK UNBOUND:                -0.281
REMARK SMILES O=C1C[C@H](c2ccc(O)cc2)Oc2cc(O)cc(O)c21
REMARK SMILES IDX 3 1 4 2 12 3 13 4 14 5 15 6 17 7 18 8 20 9 2 10 1 11 5 12
REMARK SMILES IDX 6 13 11 14 7 15 10 16 8 17 9 18 19 20 16 22
REMARK H PARENT 9 19 19 21 16 23
REMARK Flexibility Score: inf
ROOT
ATOM      1  C   UNL     1      11.626  -6.096  -9.335  1.00  0.00     0.131 C 
ATOM      2  C   UNL     1      12.151  -6.833 -10.572  1.00  0.00     0.211 C 
ATOM      3  O   UNL     1      11.134  -6.905 -11.569  1.00  0.00    -0.484 OA
ATOM      4  C   UNL     1       9.818  -7.262 -11.255  1.00  0.00     0.138 A 
ATOM      5  C   UNL     1       8.954  -7.628 -12.288  1.00  0.00     0.093 A 
ATOM      6  C   UNL     1       7.644  -8.014 -12.007  1.00  0.00     0.123 A 
ATOM      7  C   UNL     1       7.202  -8.051 -10.682  1.00  0.00     0.093 A 
ATOM      8  C   UNL     1       8.052  -7.695  -9.628  1.00  0.00     0.133 A 
ATOM      9  C   UNL     1       9.372  -7.245  -9.913  1.00  0.00     0.102 A 
ATOM     10  C   UNL     1      10.305  -6.668  -8.900  1.00  0.00     0.174 C 
ATOM     11  O   UNL     1       9.975  -6.542  -7.693  1.00  0.00    -0.294 OA
ENDROOT
BRANCH   2  12
ATOM     12  C   UNL     1      13.375  -6.144 -11.127  1.00  0.00    -0.007 A 
ATOM     13  C   UNL     1      14.130  -6.756 -12.142  1.00  0.00     0.011 A 
ATOM     14  C   UNL     1      13.806  -4.914 -10.598  1.00  0.00     0.011 A 
ATOM     15  C   UNL     1      15.281  -6.135 -12.637  1.00  0.00     0.046 A 
ATOM     16  C   UNL     1      14.958  -4.297 -11.095  1.00  0.00     0.046 A 
ATOM     17  C   UNL     1      15.697  -4.903 -12.116  1.00  0.00     0.115 A 
BRANCH  17  18
ATOM     18  O   UNL     1      16.842  -4.275 -12.602  1.00  0.00    -0.508 OA
ATOM     19  H   UNL     1      16.785  -3.518 -13.272  1.00  0.00     0.293 HD
ENDBRANCH  17  18
ENDBRANCH   2  12
BRANCH   8  20
ATOM     20  O   UNL     1       7.541  -7.827  -8.334  1.00  0.00    -0.507 OA
ATOM     21  H   UNL     1       7.158  -8.680  -7.955  1.00  0.00     0.293 HD
ENDBRANCH   8  20
BRANCH   6  22
ATOM     22  O   UNL     1       6.794  -8.369 -13.053  1.00  0.00    -0.508 OA
ATOM     23  H   UNL     1       6.144  -7.705 -13.456  1.00  0.00     0.293 HD
ENDBRANCH   6  22
TORSDOF 4
ENDMDL
MODEL 5
REMARK VINA RESULT:    -5.682      7.491     10.001
REMARK INTER + INTRA:          -6.793
REMARK INTER:                  -6.512
REMARK INTRA:                  -0.281
REMARK UNBOUND:                -0.281
REMARK SMILES O=C1C[C@H](c2ccc(O)cc2)Oc2cc(O)cc(O)c21
REMARK SMILES IDX 3 1 4 2 12 3 13 4 14 5 15 6 17 7 18 8 20 9 2 10 1 11 5 12
REMARK SMILES IDX 6 13 11 14 7 15 10 16 8 17 9 18 19 20 16 22
REMARK H PARENT 9 19 19 21 16 23
REMARK Flexibility Score: inf
ROOT
ATOM      1  C   UNL     1      20.486  -0.213  -7.355  1.00  0.00     0.131 C 
ATOM      2  C   UNL     1      20.232  -1.677  -6.979  1.00  0.00     0.211 C 
ATOM      3  O   UNL     1      19.456  -2.317  -7.990  1.00  0.00    -0.484 OA
ATOM      4  C   UNL     1      18.328  -1.707  -8.550  1.00  0.00     0.138 A 
ATOM      5  C   UNL     1      17.434  -2.488  -9.284  1.00  0.00     0.093 A 
ATOM      6  C   UNL     1      16.287  -1.918  -9.833  1.00  0.00     0.123 A 
ATOM      7  C   UNL     1      16.023  -0.560  -9.631  1.00  0.00     0.093 A 
ATOM      8  C   UNL     1      16.901   0.242  -8.893  1.00  0.00     0.133 A 
ATOM      9  C   UNL     1      18.104  -0.322  -8.379  1.00  0.00     0.102 A 
ATOM     10  C   UNL     1      19.200   0.465  -7.739  1.00  0.00     0.174 C 
ATOM     11  O   UNL     1      19.127   1.714  -7.606  1.00  0.00    -0.294 OA
ENDROOT
BRANCH   2  12
ATOM     12  C   UNL     1      21.535  -2.414  -6.779  1.00  0.00    -0.007 A 
ATOM     13  C   UNL     1      22.557  -2.314  -7.738  1.00  0.00     0.011 A 
ATOM     14  C   UNL     1      21.720  -3.250  -5.664  1.00  0.00     0.011 A 
ATOM     15  C   UNL     1      23.753  -3.018  -7.572  1.00  0.00     0.046 A 
ATOM     16  C   UNL     1      22.918  -3.954  -5.500  1.00  0.00     0.046 A 
ATOM     17  C   UNL     1      23.938  -3.839  -6.451  1.00  0.00     0.115 A 
BRANCH  17  18
ATOM     18  O   UNL     1      25.125  -4.545  -6.275  1.00  0.00    -0.508 OA
ATOM     19  H   UNL     1      25.949  -4.104  -5.884  1.00  0.00     0.293 HD
ENDBRANCH  17  18
ENDBRANCH   2  12
BRANCH   8  20
ATOM     20  O   UNL     1      16.521   1.571  -8.689  1.00  0.00    -0.507 OA
ATOM     21  H   UNL     1      15.715   1.860  -8.154  1.00  0.00     0.293 HD
ENDBRANCH   8  20
BRANCH   6  22
ATOM     22  O   UNL     1      15.409  -2.712 -10.568  1.00  0.00    -0.508 OA
ATOM     23  H   UNL     1      15.438  -3.724 -10.513  1.00  0.00     0.293 HD
ENDBRANCH   6  22
TORSDOF 4
ENDMDL
MODEL 6
REMARK VINA RESULT:    -5.639      9.664     11.611
REMARK INTER + INTRA:          -6.745
REMARK INTER:                  -6.458
REMARK INTRA:                  -0.287
REMARK UNBOUND:                -0.281
REMARK SMILES O=C1C[C@H](c2ccc(O)cc2)Oc2cc(O)cc(O)c21
REMARK SMILES IDX 3 1 4 2 12 3 13 4 14 5 15 6 17 7 18 8 20 9 2 10 1 11 5 12
REMARK SMILES IDX 6 13 11 14 7 15 10 16 8 17 9 18 19 20 16 22
REMARK H PARENT 9 19 19 21 16 23
REMARK Flexibility Score: inf
ROOT
ATOM      1  C   UNL     1      23.817   9.039 -17.261  1.00  0.00     0.131 C 
ATOM      2  C   UNL     1      24.610   7.800 -17.692  1.00  0.00     0.211 C 
ATOM      3  O   UNL     1      24.481   6.770 -16.714  1.00  0.00    -0.484 OA
ATOM      4  C   UNL     1      24.606   7.032 -15.346  1.00  0.00     0.138 A 
ATOM      5  C   UNL     1      24.792   5.963 -14.468  1.00  0.00     0.093 A 
ATOM      6  C   UNL     1      24.946   6.191 -13.102  1.00  0.00     0.123 A 
ATOM      7  C   UNL     1      24.931   7.500 -12.612  1.00  0.00     0.093 A 
ATOM      8  C   UNL     1      24.753   8.590 -13.473  1.00  0.00     0.133 A 
ATOM      9  C   UNL     1      24.537   8.359 -14.862  1.00  0.00     0.102 A 
ATOM     10  C   UNL     1      24.155   9.416 -15.844  1.00  0.00     0.174 C 
ATOM     11  O   UNL     1      23.998  10.615 -15.498  1.00  0.00    -0.294 OA
ENDROOT
BRANCH   2  12
ATOM     12  C   UNL     1      24.138   7.302 -19.037  1.00  0.00    -0.007 A 
ATOM     13  C   UNL     1      24.874   6.325 -19.727  1.00  0.00     0.011 A 
ATOM     14  C   UNL     1      22.990   7.849 -19.639  1.00  0.00     0.011 A 
ATOM     15  C   UNL     1      24.457   5.884 -20.986  1.00  0.00     0.046 A 
ATOM     16  C   UNL     1      22.575   7.406 -20.899  1.00  0.00     0.046 A 
ATOM     17  C   UNL     1      23.304   6.422 -21.575  1.00  0.00     0.115 A 
BRANCH  17  18
ATOM     18  O   UNL     1      22.878   5.991 -22.829  1.00  0.00    -0.508 OA
ATOM     19  H   UNL     1      22.434   6.624 -23.483  1.00  0.00     0.293 HD
ENDBRANCH  17  18
ENDBRANCH   2  12
BRANCH   8  20
ATOM     20  O   UNL     1      24.818   9.863 -12.901  1.00  0.00    -0.507 OA
ATOM     21  H   UNL     1      24.558  10.076 -11.950  1.00  0.00     0.293 HD
ENDBRANCH   8  20
BRANCH   6  22
ATOM     22  O   UNL     1      25.125   5.110 -12.241  1.00  0.00    -0.508 OA
ATOM     23  H   UNL     1      24.346   4.529 -11.951  1.00  0.00     0.293 HD
ENDBRANCH   6  22
TORSDOF 4
ENDMDL
MODEL 7
REMARK VINA RESULT:    -5.601      1.600      6.987
REMARK INTER + INTRA:          -6.701
REMARK INTER:                  -6.419
REMARK INTRA:                  -0.281
REMARK UNBOUND:                -0.281
REMARK SMILES O=C1C[C@H](c2ccc(O)cc2)Oc2cc(O)cc(O)c21
REMARK SMILES IDX 3 1 4 2 12 3 13 4 14 5 15 6 17 7 18 8 20 9 2 10 1 11 5 12
REMARK SMILES IDX 6 13 11 14 7 15 10 16 8 17 9 18 19 20 16 22
REMARK H PARENT 9 19 19 21 16 23
REMARK Flexibility Score: inf
ROOT
ATOM      1  C   UNL     1      17.811  -1.248 -14.211  1.00  0.00     0.131 C 
ATOM      2  C   UNL     1      17.419  -0.838 -15.635  1.00  0.00     0.211 C 
ATOM      3  O   UNL     1      16.425   0.185 -15.596  1.00  0.00    -0.484 OA
ATOM      4  C   UNL     1      15.321   0.107 -14.741  1.00  0.00     0.138 A 
ATOM      5  C   UNL     1      14.233   0.951 -14.967  1.00  0.00     0.093 A 
ATOM      6  C   UNL     1      13.106   0.881 -14.150  1.00  0.00     0.123 A 
ATOM      7  C   UNL     1      13.060  -0.052 -13.111  1.00  0.00     0.093 A 
ATOM      8  C   UNL     1      14.136  -0.915 -12.869  1.00  0.00     0.133 A 
ATOM      9  C   UNL     1      15.313  -0.808 -13.663  1.00  0.00     0.102 A 
ATOM     10  C   UNL     1      16.586  -1.538 -13.389  1.00  0.00     0.174 C 
ATOM     11  O   UNL     1      16.703  -2.321 -12.410  1.00  0.00    -0.294 OA
ENDROOT
BRANCH   2  12
ATOM     12  C   UNL     1      18.626  -0.361 -16.407  1.00  0.00    -0.007 A 
ATOM     13  C   UNL     1      18.921  -0.909 -17.667  1.00  0.00     0.011 A 
ATOM     14  C   UNL     1      19.498   0.594 -15.853  1.00  0.00     0.011 A 
ATOM     15  C   UNL     1      20.055  -0.492 -18.371  1.00  0.00     0.046 A 
ATOM     16  C   UNL     1      20.631   1.009 -16.560  1.00  0.00     0.046 A 
ATOM     17  C   UNL     1      20.912   0.470 -17.820  1.00  0.00     0.115 A 
BRANCH  17  18
ATOM     18  O   UNL     1      22.044   0.894 -18.512  1.00  0.00    -0.508 OA
ATOM     19  H   UNL     1      22.514   0.290 -19.177  1.00  0.00     0.293 HD
ENDBRANCH  17  18
ENDBRANCH   2  12
BRANCH   8  20
ATOM     20  O   UNL     1      13.972  -1.857 -11.851  1.00  0.00    -0.507 OA
ATOM     21  H   UNL     1      13.709  -2.820 -12.000  1.00  0.00     0.293 HD
ENDBRANCH   8  20
BRANCH   6  22
ATOM     22  O   UNL     1      12.032   1.737 -14.387  1.00  0.00    -0.508 OA
ATOM     23  H   UNL     1      12.109   2.737 -14.240  1.00  0.00     0.293 HD
ENDBRANCH   6  22
TORSDOF 4
ENDMDL
MODEL 8
REMARK VINA RESULT:    -5.521      9.506      9.718
REMARK INTER + INTRA:          -6.609
REMARK INTER:                  -6.296
REMARK INTRA:                  -0.313
REMARK UNBOUND:                -0.281
REMARK SMILES O=C1C[C@H](c2ccc(O)cc2)Oc2cc(O)cc(O)c21
REMARK SMILES IDX 3 1 4 2 12 3 13 4 14 5 15 6 17 7 18 8 20 9 2 10 1 11 5 12
REMARK SMILES IDX 6 13 11 14 7 15 10 16 8 17 9 18 19 20 16 22
REMARK H PARENT 9 19 19 21 16 23
REMARK Flexibility Score: inf
ROOT
ATOM      1  C   UNL     1      20.877   8.339 -17.301  1.00  0.00     0.131 C 
ATOM      2  C   UNL     1      20.517   8.951 -18.659  1.00  0.00     0.211 C 
ATOM      3  O   UNL     1      20.881   8.061 -19.712  1.00  0.00    -0.484 OA
ATOM      4  C   UNL     1      22.120   7.411 -19.733  1.00  0.00     0.138 A 
ATOM      5  C   UNL     1      22.550   6.817 -20.920  1.00  0.00     0.093 A 
ATOM      6  C   UNL     1      23.790   6.184 -20.983  1.00  0.00     0.123 A 
ATOM      7  C   UNL     1      24.613   6.161 -19.854  1.00  0.00     0.093 A 
ATOM      8  C   UNL     1      24.207   6.755 -18.653  1.00  0.00     0.133 A 
ATOM      9  C   UNL     1      22.917   7.352 -18.567  1.00  0.00     0.102 A 
ATOM     10  C   UNL     1      22.300   7.852 -17.302  1.00  0.00     0.174 C 
ATOM     11  O   UNL     1      22.901   7.778 -16.199  1.00  0.00    -0.294 OA
ENDROOT
BRANCH   2  12
ATOM     12  C   UNL     1      19.042   9.267 -18.731  1.00  0.00    -0.007 A 
ATOM     13  C   UNL     1      18.428  10.009 -17.708  1.00  0.00     0.011 A 
ATOM     14  C   UNL     1      18.257   8.776 -19.789  1.00  0.00     0.011 A 
ATOM     15  C   UNL     1      17.056  10.276 -17.756  1.00  0.00     0.046 A 
ATOM     16  C   UNL     1      16.885   9.045 -19.834  1.00  0.00     0.046 A 
ATOM     17  C   UNL     1      16.281   9.797 -18.820  1.00  0.00     0.115 A 
BRANCH  17  18
ATOM     18  O   UNL     1      14.915  10.057 -18.879  1.00  0.00    -0.508 OA
ATOM     19  H   UNL     1      14.492  10.482 -19.696  1.00  0.00     0.293 HD
ENDBRANCH  17  18
ENDBRANCH   2  12
BRANCH   8  20
ATOM     20  O   UNL     1      25.124   6.738 -17.599  1.00  0.00    -0.507 OA
ATOM     21  H   UNL     1      25.135   6.049 -16.862  1.00  0.00     0.293 HD
ENDBRANCH   8  20
BRANCH   6  22
ATOM     22  O   UNL     1      24.200   5.592 -22.176  1.00  0.00    -0.508 OA
ATOM     23  H   UNL     1      24.794   4.771 -22.182  1.00  0.00     0.293 HD
ENDBRANCH   6  22
TORSDOF 4
ENDMDL
MODEL 9
REMARK VINA RESULT:    -5.473      5.781      8.520
REMARK INTER + INTRA:          -6.554
REMARK INTER:                  -6.268
REMARK INTRA:                  -0.286
REMARK UNBOUND:                -0.281
REMARK SMILES O=C1C[C@H](c2ccc(O)cc2)Oc2cc(O)cc(O)c21
REMARK SMILES IDX 3 1 4 2 12 3 13 4 14 5 15 6 17 7 18 8 20 9 2 10 1 11 5 12
REMARK SMILES IDX 6 13 11 14 7 15 10 16 8 17 9 18 19 20 16 22
REMARK H PARENT 9 19 19 21 16 23
REMARK Flexibility Score: inf
ROOT
ATOM      1  C   UNL     1      18.144  -1.028  -9.999  1.00  0.00     0.131 C 
ATOM      2  C   UNL     1      17.726  -1.909  -8.817  1.00  0.00     0.211 C 
ATOM      3  O   UNL     1      17.158  -3.129  -9.290  1.00  0.00    -0.484 OA
ATOM      4  C   UNL     1      16.222  -3.152 -10.329  1.00  0.00     0.138 A 
ATOM      5  C   UNL     1      15.470  -4.310 -10.533  1.00  0.00     0.093 A 
ATOM      6  C   UNL     1      14.510  -4.358 -11.542  1.00  0.00     0.123 A 
ATOM      7  C   UNL     1      14.289  -3.234 -12.342  1.00  0.00     0.093 A 
ATOM      8  C   UNL     1      15.026  -2.058 -12.152  1.00  0.00     0.133 A 
ATOM      9  C   UNL     1      16.048  -2.023 -11.161  1.00  0.00     0.102 A 
ATOM     10  C   UNL     1      17.018  -0.901 -10.988  1.00  0.00     0.174 C 
ATOM     11  O   UNL     1      16.991   0.117 -11.727  1.00  0.00    -0.294 OA
ENDROOT
BRANCH   2  12
ATOM     12  C   UNL     1      18.906  -2.198  -7.919  1.00  0.00    -0.007 A 
ATOM     13  C   UNL     1      20.215  -1.982  -8.383  1.00  0.00     0.011 A 
ATOM     14  C   UNL     1      18.712  -2.737  -6.635  1.00  0.00     0.011 A 
ATOM     15  C   UNL     1      21.310  -2.277  -7.566  1.00  0.00     0.046 A 
ATOM     16  C   UNL     1      19.811  -3.031  -5.820  1.00  0.00     0.046 A 
ATOM     17  C   UNL     1      21.111  -2.801  -6.281  1.00  0.00     0.115 A 
BRANCH  17  18
ATOM     18  O   UNL     1      22.195  -3.098  -5.459  1.00  0.00    -0.508 OA
ATOM     19  H   UNL     1      22.960  -2.445  -5.335  1.00  0.00     0.293 HD
ENDBRANCH  17  18
ENDBRANCH   2  12
BRANCH   8  20
ATOM     20  O   UNL     1      14.689  -0.966 -12.956  1.00  0.00    -0.507 OA
ATOM     21  H   UNL     1      14.704  -0.005 -12.650  1.00  0.00     0.293 HD
ENDBRANCH   8  20
BRANCH   6  22
ATOM     22  O   UNL     1      13.773  -5.525 -11.734  1.00  0.00    -0.508 OA
ATOM     23  H   UNL     1      12.760  -5.509 -11.786  1.00  0.00     0.293 HD
ENDBRANCH   6  22
TORSDOF 4
ENDMDL
