MODEL 1
REMARK VINA RESULT:    -5.108      0.000      0.000
REMARK INTER + INTRA:          -8.196
REMARK INTER:                  -7.795
REMARK INTRA:                  -0.401
REMARK UNBOUND:                -0.401
REMARK SMILES CC1=CCC[C@H](C)C(=O)C[C@H](C(C)C)C(=O)C1
REMARK SMILES IDX 8 1 9 2 6 3 7 4 5 5 4 6 3 7 2 8 1 9 10 11 11 12 15 13 16 14
REMARK SMILES IDX 17 15 12 17 13 18 14 19
REMARK H PARENT
REMARK Flexibility Score: 70.00
ROOT
ATOM      1  C   UNL     1     -13.593 -14.479  30.129  1.00  0.00     0.136 C 
ATOM      2  O   UNL     1     -14.113 -14.258  31.212  1.00  0.00    -0.299 OA
ENDROOT
BRANCH   1   3
ATOM      3  C   UNL     1     -14.259 -13.904  28.871  1.00  0.00     0.053 C 
ATOM      4  C   UNL     1     -14.369 -12.380  28.964  1.00  0.00     0.016 C 
BRANCH   3   5
ATOM      5  C   UNL     1     -13.409 -14.342  27.696  1.00  0.00     0.015 C 
BRANCH   5   6
ATOM      6  C   UNL     1     -13.741 -15.446  26.728  1.00  0.00     0.028 C 
BRANCH   6   7
ATOM      7  C   UNL     1     -12.436 -16.112  26.286  1.00  0.00    -0.028 C 
ATOM      8  C   UNL     1     -11.777 -17.187  26.841  1.00  0.00    -0.070 CG0
ATOM      9  C   UNL     1     -10.432 -17.526  26.240  1.00  0.00     0.039 C 
ATOM     10  G   UNL     1     -12.276 -18.095  27.989  1.00  0.00     0.000 G0
ENDBRANCH   6   7
ENDBRANCH   5   6
ENDBRANCH   3   5
ENDBRANCH   1   3
BRANCH   1  11
ATOM     11  C   UNL     1     -12.306 -15.326  30.089  1.00  0.00     0.087 C 
BRANCH  11  12
ATOM     12  C   UNL     1     -12.497 -16.873  30.371  1.00  0.00     0.066 C 
BRANCH  12  13
ATOM     13  C   UNL     1     -11.724 -17.775  29.380  1.00  0.00     0.140 C 
ATOM     14  O   UNL     1     -10.642 -18.236  29.711  1.00  0.00    -0.299 OA
BRANCH  13  15
ATOM     15  C   UNL     1     -12.266 -18.123  27.988  1.00  0.00     0.106 CG0
ATOM     16  G   UNL     1     -11.788 -17.182  26.858  1.00  0.00     0.000 G0
ENDBRANCH  13  15
ENDBRANCH  12  13
BRANCH  12  17
ATOM     17  C   UNL     1     -12.162 -17.284  31.841  1.00  0.00    -0.006 C 
ATOM     18  C   UNL     1     -13.392 -17.178  32.758  1.00  0.00     0.008 C 
ATOM     19  C   UNL     1     -10.972 -16.522  32.455  1.00  0.00     0.008 C 
ENDBRANCH  12  17
ENDBRANCH  11  12
ENDBRANCH   1  11
TORSDOF 1
ENDMDL
MODEL 2
REMARK VINA RESULT:    -4.917      2.027      4.165
REMARK INTER + INTRA:          -7.906
REMARK INTER:                  -7.627
REMARK INTRA:                  -0.279
REMARK UNBOUND:                -0.401
REMARK SMILES CC1=CCC[C@H](C)C(=O)C[C@H](C(C)C)C(=O)C1
REMARK SMILES IDX 8 1 9 2 6 3 7 4 5 5 4 6 3 7 2 8 1 9 10 11 11 12 15 13 16 14
REMARK SMILES IDX 17 15 12 17 13 18 14 19
REMARK H PARENT
REMARK Flexibility Score: 70.00
ROOT
ATOM      1  C   UNL     1     -12.633 -15.941  27.143  1.00  0.00     0.136 C 
ATOM      2  O   UNL     1     -13.627 -15.471  26.610  1.00  0.00    -0.299 OA
ENDROOT
BRANCH   1   3
ATOM      3  C   UNL     1     -11.999 -17.196  26.526  1.00  0.00     0.053 C 
ATOM      4  C   UNL     1     -10.828 -16.820  25.615  1.00  0.00     0.016 C 
BRANCH   3   5
ATOM      5  C   UNL     1     -11.562 -18.071  27.682  1.00  0.00     0.015 C 
BRANCH   5   6
ATOM      6  C   UNL     1     -12.454 -18.966  28.500  1.00  0.00     0.028 C 
BRANCH   6   7
ATOM      7  C   UNL     1     -11.686 -19.407  29.748  1.00  0.00    -0.028 C 
ATOM      8  C   UNL     1     -11.614 -18.802  30.984  1.00  0.00    -0.070 CG0
ATOM      9  C   UNL     1     -10.661 -19.426  31.976  1.00  0.00     0.039 C 
ATOM     10  G   UNL     1     -12.421 -17.576  31.469  1.00  0.00     0.000 G0
ENDBRANCH   6   7
ENDBRANCH   5   6
ENDBRANCH   3   5
ENDBRANCH   1   3
BRANCH   1  11
ATOM     11  C   UNL     1     -12.078 -15.251  28.405  1.00  0.00     0.087 C 
BRANCH  11  12
ATOM     12  C   UNL     1     -12.865 -15.546  29.747  1.00  0.00     0.066 C 
BRANCH  12  13
ATOM     13  C   UNL     1     -12.000 -16.247  30.821  1.00  0.00     0.140 C 
ATOM     14  O   UNL     1     -10.947 -15.734  31.168  1.00  0.00    -0.299 OA
BRANCH  13  15
ATOM     15  C   UNL     1     -12.415 -17.568  31.480  1.00  0.00     0.106 CG0
ATOM     16  G   UNL     1     -11.630 -18.806  30.989  1.00  0.00     0.000 G0
ENDBRANCH  13  15
ENDBRANCH  12  13
BRANCH  12  17
ATOM     17  C   UNL     1     -13.555 -14.284  30.357  1.00  0.00    -0.006 C 
ATOM     18  C   UNL     1     -14.447 -14.644  31.556  1.00  0.00     0.008 C 
ATOM     19  C   UNL     1     -14.347 -13.442  29.338  1.00  0.00     0.008 C 
ENDBRANCH  12  17
ENDBRANCH  11  12
ENDBRANCH   1  11
TORSDOF 1
ENDMDL
MODEL 3
REMARK VINA RESULT:    -4.851      2.197      5.493
REMARK INTER + INTRA:          -7.804
REMARK INTER:                  -7.941
REMARK INTRA:                   0.137
REMARK UNBOUND:                -0.401
REMARK SMILES CC1=CCC[C@H](C)C(=O)C[C@H](C(C)C)C(=O)C1
REMARK SMILES IDX 8 1 9 2 6 3 7 4 5 5 4 6 3 7 2 8 1 9 10 11 11 12 15 13 16 14
REMARK SMILES IDX 17 15 12 17 13 18 14 19
REMARK H PARENT
REMARK Flexibility Score: 70.00
ROOT
ATOM      1  C   UNL     1     -12.003 -19.182  29.407  1.00  0.00     0.136 C 
ATOM      2  O   UNL     1     -12.617 -20.092  28.871  1.00  0.00    -0.299 OA
ENDROOT
BRANCH   1   3
ATOM      3  C   UNL     1     -11.960 -19.138  30.941  1.00  0.00     0.053 C 
ATOM      4  C   UNL     1     -11.928 -20.553  31.524  1.00  0.00     0.016 C 
BRANCH   3   5
ATOM      5  C   UNL     1     -10.727 -18.342  31.315  1.00  0.00     0.015 C 
BRANCH   5   6
ATOM      6  C   UNL     1     -10.714 -16.944  31.874  1.00  0.00     0.028 C 
BRANCH   6   7
ATOM      7  C   UNL     1     -12.148 -16.552  32.235  1.00  0.00    -0.028 C 
ATOM      8  C   UNL     1     -13.011 -15.707  31.571  1.00  0.00    -0.070 CG0
ATOM      9  C   UNL     1     -14.327 -15.426  32.258  1.00  0.00     0.039 C 
ATOM     10  G   UNL     1     -12.788 -15.043  30.193  1.00  0.00     0.000 G0
ENDBRANCH   6   7
ENDBRANCH   5   6
ENDBRANCH   3   5
ENDBRANCH   1   3
BRANCH   1  11
ATOM     11  C   UNL     1     -11.314 -18.131  28.515  1.00  0.00     0.087 C 
BRANCH  11  12
ATOM     12  C   UNL     1     -12.135 -16.800  28.269  1.00  0.00     0.066 C 
BRANCH  12  13
ATOM     13  C   UNL     1     -11.773 -15.667  29.258  1.00  0.00     0.140 C 
ATOM     14  O   UNL     1     -10.620 -15.265  29.311  1.00  0.00    -0.299 OA
BRANCH  13  15
ATOM     15  C   UNL     1     -12.810 -15.016  30.181  1.00  0.00     0.106 CG0
ATOM     16  G   UNL     1     -12.989 -15.720  31.545  1.00  0.00     0.000 G0
ENDBRANCH  13  15
ENDBRANCH  12  13
BRANCH  12  17
ATOM     17  C   UNL     1     -12.047 -16.274  26.800  1.00  0.00    -0.006 C 
ATOM     18  C   UNL     1     -13.409 -16.335  26.089  1.00  0.00     0.008 C 
ATOM     19  C   UNL     1     -10.969 -16.967  25.944  1.00  0.00     0.008 C 
ENDBRANCH  12  17
ENDBRANCH  11  12
ENDBRANCH   1  11
TORSDOF 1
ENDMDL
MODEL 4
REMARK VINA RESULT:    -4.787      2.233      5.130
REMARK INTER + INTRA:          -7.706
REMARK INTER:                  -7.439
REMARK INTRA:                  -0.267
REMARK UNBOUND:                -0.401
REMARK SMILES CC1=CCC[C@H](C)C(=O)C[C@H](C(C)C)C(=O)C1
REMARK SMILES IDX 8 1 9 2 6 3 7 4 5 5 4 6 3 7 2 8 1 9 10 11 11 12 15 13 16 14
REMARK SMILES IDX 17 15 12 17 13 18 14 19
REMARK H PARENT
REMARK Flexibility Score: 70.00
ROOT
ATOM      1  C   UNL     1     -11.954 -17.865  27.952  1.00  0.00     0.136 C 
ATOM      2  O   UNL     1     -11.148 -18.239  27.114  1.00  0.00    -0.299 OA
ENDROOT
BRANCH   1   3
ATOM      3  C   UNL     1     -12.470 -18.888  28.974  1.00  0.00     0.053 C 
ATOM      4  C   UNL     1     -13.143 -20.068  28.269  1.00  0.00     0.016 C 
BRANCH   3   5
ATOM      5  C   UNL     1     -11.270 -19.324  29.790  1.00  0.00     0.015 C 
BRANCH   5   6
ATOM      6  C   UNL     1     -11.190 -19.362  31.293  1.00  0.00     0.028 C 
BRANCH   6   7
ATOM      7  C   UNL     1     -12.348 -18.541  31.861  1.00  0.00    -0.028 C 
ATOM      8  C   UNL     1     -12.418 -17.185  32.102  1.00  0.00    -0.070 CG0
ATOM      9  C   UNL     1     -13.669 -16.695  32.793  1.00  0.00     0.039 C 
ATOM     10  G   UNL     1     -11.369 -16.116  31.717  1.00  0.00     0.000 G0
ENDBRANCH   6   7
ENDBRANCH   5   6
ENDBRANCH   3   5
ENDBRANCH   1   3
BRANCH   1  11
ATOM     11  C   UNL     1     -12.410 -16.393  27.930  1.00  0.00     0.087 C 
BRANCH  11  12
ATOM     12  C   UNL     1     -12.610 -15.718  29.349  1.00  0.00     0.066 C 
BRANCH  12  13
ATOM     13  C   UNL     1     -11.335 -15.751  30.225  1.00  0.00     0.140 C 
ATOM     14  O   UNL     1     -10.255 -15.483  29.720  1.00  0.00    -0.299 OA
BRANCH  13  15
ATOM     15  C   UNL     1     -11.370 -16.102  31.718  1.00  0.00     0.106 CG0
ATOM     16  G   UNL     1     -12.409 -17.181  32.100  1.00  0.00     0.000 G0
ENDBRANCH  13  15
ENDBRANCH  12  13
BRANCH  12  17
ATOM     17  C   UNL     1     -13.169 -14.261  29.274  1.00  0.00    -0.006 C 
ATOM     18  C   UNL     1     -14.223 -13.998  30.362  1.00  0.00     0.008 C 
ATOM     19  C   UNL     1     -13.722 -13.867  27.891  1.00  0.00     0.008 C 
ENDBRANCH  12  17
ENDBRANCH  11  12
ENDBRANCH   1  11
TORSDOF 1
ENDMDL
MODEL 5
REMARK VINA RESULT:    -4.560      1.910      3.247
REMARK INTER + INTRA:          -7.361
REMARK INTER:                  -7.325
REMARK INTRA:                  -0.035
REMARK UNBOUND:                -0.401
REMARK SMILES CC1=CCC[C@H](C)C(=O)C[C@H](C(C)C)C(=O)C1
REMARK SMILES IDX 8 1 9 2 6 3 7 4 5 5 4 6 3 7 2 8 1 9 10 11 11 12 15 13 16 14
REMARK SMILES IDX 17 15 12 17 13 18 14 19
REMARK H PARENT
REMARK Flexibility Score: 70.00
ROOT
ATOM      1  C   UNL     1     -12.656 -15.091  28.369  1.00  0.00     0.136 C 
ATOM      2  O   UNL     1     -13.353 -14.133  28.073  1.00  0.00    -0.299 OA
ENDROOT
BRANCH   1   3
ATOM      3  C   UNL     1     -12.647 -16.304  27.428  1.00  0.00     0.053 C 
ATOM      4  C   UNL     1     -13.400 -15.992  26.133  1.00  0.00     0.016 C 
BRANCH   3   5
ATOM      5  C   UNL     1     -11.192 -16.640  27.172  1.00  0.00     0.015 C 
BRANCH   5   6
ATOM      6  C   UNL     1     -10.447 -17.824  27.728  1.00  0.00     0.028 C 
BRANCH   6   7
ATOM      7  C   UNL     1     -11.420 -18.664  28.557  1.00  0.00    -0.028 C 
ATOM      8  C   UNL     1     -11.432 -18.894  29.916  1.00  0.00    -0.070 CG0
ATOM      9  C   UNL     1     -12.461 -19.882  30.415  1.00  0.00     0.039 C 
ATOM     10  G   UNL     1     -10.528 -18.231  30.980  1.00  0.00     0.000 G0
ENDBRANCH   6   7
ENDBRANCH   5   6
ENDBRANCH   3   5
ENDBRANCH   1   3
BRANCH   1  11
ATOM     11  C   UNL     1     -11.832 -15.029  29.671  1.00  0.00     0.087 C 
BRANCH  11  12
ATOM     12  C   UNL     1     -12.187 -16.126  30.756  1.00  0.00     0.066 C 
BRANCH  12  13
ATOM     13  C   UNL     1     -10.939 -16.815  31.358  1.00  0.00     0.140 C 
ATOM     14  O   UNL     1     -10.254 -16.208  32.168  1.00  0.00    -0.299 OA
BRANCH  13  15
ATOM     15  C   UNL     1     -10.525 -18.243  30.983  1.00  0.00     0.106 CG0
ATOM     16  G   UNL     1     -11.421 -18.913  29.917  1.00  0.00     0.000 G0
ENDBRANCH  13  15
ENDBRANCH  12  13
BRANCH  12  17
ATOM     17  C   UNL     1     -13.109 -15.596  31.901  1.00  0.00    -0.006 C 
ATOM     18  C   UNL     1     -13.703 -16.744  32.734  1.00  0.00     0.008 C 
ATOM     19  C   UNL     1     -14.228 -14.650  31.425  1.00  0.00     0.008 C 
ENDBRANCH  12  17
ENDBRANCH  11  12
ENDBRANCH   1  11
TORSDOF 1
ENDMDL
MODEL 6
REMARK VINA RESULT:    -4.550      1.544      4.188
REMARK INTER + INTRA:          -7.345
REMARK INTER:                  -8.027
REMARK INTRA:                   0.682
REMARK UNBOUND:                -0.401
REMARK SMILES CC1=CCC[C@H](C)C(=O)C[C@H](C(C)C)C(=O)C1
REMARK SMILES IDX 8 1 9 2 6 3 7 4 5 5 4 6 3 7 2 8 1 9 10 11 11 12 15 13 16 14
REMARK SMILES IDX 17 15 12 17 13 18 14 19
REMARK H PARENT
REMARK Flexibility Score: 70.00
ROOT
ATOM      1  C   UNL     1     -11.938 -16.174  31.744  1.00  0.00     0.136 C 
ATOM      2  O   UNL     1     -12.622 -15.979  32.738  1.00  0.00    -0.299 OA
ENDROOT
BRANCH   1   3
ATOM      3  C   UNL     1     -10.424 -16.352  31.926  1.00  0.00     0.053 C 
ATOM      4  C   UNL     1      -9.975 -15.824  33.290  1.00  0.00     0.016 C 
BRANCH   3   5
ATOM      5  C   UNL     1     -10.142 -17.832  31.769  1.00  0.00     0.015 C 
BRANCH   5   6
ATOM      6  C   UNL     1      -9.884 -18.550  30.471  1.00  0.00     0.028 C 
BRANCH   6   7
ATOM      7  C   UNL     1     -11.144 -19.327  30.087  1.00  0.00    -0.028 C 
ATOM      8  C   UNL     1     -12.024 -19.099  29.051  1.00  0.00    -0.070 CG0
ATOM      9  C   UNL     1     -13.252 -19.978  29.016  1.00  0.00     0.039 C 
ATOM     10  G   UNL     1     -11.875 -18.064  27.913  1.00  0.00     0.000 G0
ENDBRANCH   6   7
ENDBRANCH   5   6
ENDBRANCH   3   5
ENDBRANCH   1   3
BRANCH   1  11
ATOM     11  C   UNL     1     -12.634 -16.223  30.369  1.00  0.00     0.087 C 
BRANCH  11  12
ATOM     12  C   UNL     1     -11.788 -15.660  29.155  1.00  0.00     0.066 C 
BRANCH  12  13
ATOM     13  C   UNL     1     -11.153 -16.771  28.286  1.00  0.00     0.140 C 
ATOM     14  O   UNL     1     -10.009 -16.631  27.879  1.00  0.00    -0.299 OA
BRANCH  13  15
ATOM     15  C   UNL     1     -11.904 -18.056  27.913  1.00  0.00     0.106 CG0
ATOM     16  G   UNL     1     -12.034 -19.081  29.063  1.00  0.00     0.000 G0
ENDBRANCH  13  15
ENDBRANCH  12  13
BRANCH  12  17
ATOM     17  C   UNL     1     -12.581 -14.662  28.252  1.00  0.00    -0.006 C 
ATOM     18  C   UNL     1     -13.594 -13.838  29.064  1.00  0.00     0.008 C 
ATOM     19  C   UNL     1     -13.275 -15.318  27.043  1.00  0.00     0.008 C 
ENDBRANCH  12  17
ENDBRANCH  11  12
ENDBRANCH   1  11
TORSDOF 1
ENDMDL
MODEL 7
REMARK VINA RESULT:    -4.252      1.891      3.950
REMARK INTER + INTRA:          -6.891
REMARK INTER:                  -7.826
REMARK INTRA:                   0.936
REMARK UNBOUND:                -0.401
REMARK SMILES CC1=CCC[C@H](C)C(=O)C[C@H](C(C)C)C(=O)C1
REMARK SMILES IDX 8 1 9 2 6 3 7 4 5 5 4 6 3 7 2 8 1 9 10 11 11 12 15 13 16 14
REMARK SMILES IDX 17 15 12 17 13 18 14 19
REMARK H PARENT
REMARK Flexibility Score: 70.00
ROOT
ATOM      1  C   UNL     1     -12.782 -14.511  28.624  1.00  0.00     0.136 C 
ATOM      2  O   UNL     1     -13.342 -14.933  27.623  1.00  0.00    -0.299 OA
ENDROOT
BRANCH   1   3
ATOM      3  C   UNL     1     -13.627 -13.777  29.675  1.00  0.00     0.053 C 
ATOM      4  C   UNL     1     -14.768 -13.004  29.010  1.00  0.00     0.016 C 
BRANCH   3   5
ATOM      5  C   UNL     1     -14.139 -14.833  30.632  1.00  0.00     0.015 C 
BRANCH   5   6
ATOM      6  C   UNL     1     -13.556 -15.161  31.981  1.00  0.00     0.028 C 
BRANCH   6   7
ATOM      7  C   UNL     1     -13.243 -16.657  32.024  1.00  0.00    -0.028 C 
ATOM      8  C   UNL     1     -12.128 -17.326  31.565  1.00  0.00    -0.070 CG0
ATOM      9  C   UNL     1     -12.178 -18.834  31.643  1.00  0.00     0.039 C 
ATOM     10  G   UNL     1     -10.830 -16.699  31.007  1.00  0.00     0.000 G0
ENDBRANCH   6   7
ENDBRANCH   5   6
ENDBRANCH   3   5
ENDBRANCH   1   3
BRANCH   1  11
ATOM     11  C   UNL     1     -11.264 -14.735  28.769  1.00  0.00     0.087 C 
BRANCH  11  12
ATOM     12  C   UNL     1     -10.743 -16.171  28.354  1.00  0.00     0.066 C 
BRANCH  12  13
ATOM     13  C   UNL     1     -10.480 -17.099  29.564  1.00  0.00     0.140 C 
ATOM     14  O   UNL     1      -9.967 -18.193  29.378  1.00  0.00    -0.299 OA
BRANCH  13  15
ATOM     15  C   UNL     1     -10.833 -16.699  31.002  1.00  0.00     0.106 CG0
ATOM     16  G   UNL     1     -12.127 -17.343  31.549  1.00  0.00     0.000 G0
ENDBRANCH  13  15
ENDBRANCH  12  13
BRANCH  12  17
ATOM     17  C   UNL     1     -11.661 -16.893  27.317  1.00  0.00    -0.006 C 
ATOM     18  C   UNL     1     -12.320 -18.148  27.914  1.00  0.00     0.008 C 
ATOM     19  C   UNL     1     -10.964 -17.240  25.988  1.00  0.00     0.008 C 
ENDBRANCH  12  17
ENDBRANCH  11  12
ENDBRANCH   1  11
TORSDOF 1
ENDMDL
MODEL 8
REMARK VINA RESULT:    -4.037      2.184      4.894
REMARK INTER + INTRA:          -6.562
REMARK INTER:                  -6.428
REMARK INTRA:                  -0.135
REMARK UNBOUND:                -0.401
REMARK SMILES CC1=CCC[C@H](C)C(=O)C[C@H](C(C)C)C(=O)C1
REMARK SMILES IDX 8 1 9 2 6 3 7 4 5 5 4 6 3 7 2 8 1 9 10 11 11 12 15 13 16 14
REMARK SMILES IDX 17 15 12 17 13 18 14 19
REMARK H PARENT
REMARK Flexibility Score: 70.00
ROOT
ATOM      1  C   UNL     1     -10.880 -16.841  30.663  1.00  0.00     0.136 C 
ATOM      2  O   UNL     1     -10.001 -17.687  30.589  1.00  0.00    -0.299 OA
ENDROOT
BRANCH   1   3
ATOM      3  C   UNL     1     -11.683 -16.737  31.967  1.00  0.00     0.053 C 
ATOM      4  C   UNL     1     -10.914 -15.929  33.015  1.00  0.00     0.016 C 
BRANCH   3   5
ATOM      5  C   UNL     1     -13.005 -16.091  31.609  1.00  0.00     0.015 C 
BRANCH   5   6
ATOM      6  C   UNL     1     -13.412 -14.676  31.923  1.00  0.00     0.028 C 
BRANCH   6   7
ATOM      7  C   UNL     1     -14.589 -14.298  31.024  1.00  0.00    -0.028 C 
ATOM      8  C   UNL     1     -14.579 -13.835  29.725  1.00  0.00    -0.070 CG0
ATOM      9  C   UNL     1     -15.916 -13.428  29.153  1.00  0.00     0.039 C 
ATOM     10  G   UNL     1     -13.354 -13.714  28.790  1.00  0.00     0.000 G0
ENDBRANCH   6   7
ENDBRANCH   5   6
ENDBRANCH   3   5
ENDBRANCH   1   3
BRANCH   1  11
ATOM     11  C   UNL     1     -11.134 -15.934  29.442  1.00  0.00     0.087 C 
BRANCH  11  12
ATOM     12  C   UNL     1     -12.442 -16.257  28.611  1.00  0.00     0.066 C 
BRANCH  12  13
ATOM     13  C   UNL     1     -13.083 -15.005  27.969  1.00  0.00     0.140 C 
ATOM     14  O   UNL     1     -13.378 -15.025  26.783  1.00  0.00    -0.299 OA
BRANCH  13  15
ATOM     15  C   UNL     1     -13.374 -13.727  28.766  1.00  0.00     0.106 CG0
ATOM     16  G   UNL     1     -14.576 -13.831  29.733  1.00  0.00     0.000 G0
ENDBRANCH  13  15
ENDBRANCH  12  13
BRANCH  12  17
ATOM     17  C   UNL     1     -12.236 -17.366  27.530  1.00  0.00    -0.006 C 
ATOM     18  C   UNL     1     -12.591 -18.762  28.068  1.00  0.00     0.008 C 
ATOM     19  C   UNL     1     -10.830 -17.380  26.899  1.00  0.00     0.008 C 
ENDBRANCH  12  17
ENDBRANCH  11  12
ENDBRANCH   1  11
TORSDOF 1
ENDMDL
MODEL 9
REMARK VINA RESULT:    -3.797      1.927      3.084
REMARK INTER + INTRA:          -6.196
REMARK INTER:                  -5.856
REMARK INTRA:                  -0.340
REMARK UNBOUND:                -0.401
REMARK SMILES CC1=CCC[C@H](C)C(=O)C[C@H](C(C)C)C(=O)C1
REMARK SMILES IDX 8 1 9 2 6 3 7 4 5 5 4 6 3 7 2 8 1 9 10 11 11 12 15 13 16 14
REMARK SMILES IDX 17 15 12 17 13 18 14 19
REMARK H PARENT
REMARK Flexibility Score: 70.00
ROOT
ATOM      1  C   UNL     1     -13.301 -16.569  32.314  1.00  0.00     0.136 C 
ATOM      2  O   UNL     1     -13.640 -17.617  32.842  1.00  0.00    -0.299 OA
ENDROOT
BRANCH   1   3
ATOM      3  C   UNL     1     -14.140 -15.312  32.587  1.00  0.00     0.053 C 
ATOM      4  C   UNL     1     -13.351 -14.304  33.424  1.00  0.00     0.016 C 
BRANCH   3   5
ATOM      5  C   UNL     1     -14.525 -14.749  31.234  1.00  0.00     0.015 C 
BRANCH   5   6
ATOM      6  C   UNL     1     -13.662 -13.876  30.362  1.00  0.00     0.028 C 
BRANCH   6   7
ATOM      7  C   UNL     1     -13.797 -14.351  28.915  1.00  0.00    -0.028 C 
ATOM      8  C   UNL     1     -12.890 -15.038  28.137  1.00  0.00    -0.070 CG0
ATOM      9  C   UNL     1     -13.279 -15.251  26.692  1.00  0.00     0.039 C 
ATOM     10  G   UNL     1     -11.536 -15.633  28.590  1.00  0.00     0.000 G0
ENDBRANCH   6   7
ENDBRANCH   5   6
ENDBRANCH   3   5
ENDBRANCH   1   3
BRANCH   1  11
ATOM     11  C   UNL     1     -12.058 -16.571  31.402  1.00  0.00     0.087 C 
BRANCH  11  12
ATOM     12  C   UNL     1     -12.043 -17.678  30.271  1.00  0.00     0.066 C 
BRANCH  12  13
ATOM     13  C   UNL     1     -11.592 -17.139  28.893  1.00  0.00     0.140 C 
ATOM     14  O   UNL     1     -11.268 -17.928  28.018  1.00  0.00    -0.299 OA
BRANCH  13  15
ATOM     15  C   UNL     1     -11.537 -15.640  28.572  1.00  0.00     0.106 CG0
ATOM     16  G   UNL     1     -12.884 -15.030  28.120  1.00  0.00     0.000 G0
ENDBRANCH  13  15
ENDBRANCH  12  13
BRANCH  12  17
ATOM     17  C   UNL     1     -11.209 -18.944  30.648  1.00  0.00    -0.006 C 
ATOM     18  C   UNL     1     -12.110 -20.155  30.943  1.00  0.00     0.008 C 
ATOM     19  C   UNL     1     -10.216 -18.725  31.805  1.00  0.00     0.008 C 
ENDBRANCH  12  17
ENDBRANCH  11  12
ENDBRANCH   1  11
TORSDOF 1
ENDMDL
