MODEL 1
REMARK VINA RESULT:    -3.859      0.000      0.000
REMARK INTER + INTRA:          -6.568
REMARK INTER:                  -5.212
REMARK INTRA:                  -1.356
REMARK UNBOUND:                -1.356
REMARK SMILES CC(=O)CCC=C(C)CCC=C(C)C
REMARK SMILES IDX 7 1 6 2 8 3 9 4 10 5 11 6 13 7 12 8 14 9 5 10 4 11 2 12 3 13
REMARK SMILES IDX 1 14
REMARK H PARENT
REMARK Flexibility Score: inf
ROOT
ATOM      1  C   UNL     1       7.344   0.872  -6.733  1.00  0.00    -0.077 C 
ATOM      2  C   UNL     1       6.921   1.693  -7.720  1.00  0.00    -0.028 C 
ATOM      3  C   UNL     1       8.815   0.849  -6.404  1.00  0.00     0.039 C 
ENDROOT
BRANCH   1   4
ATOM      4  C   UNL     1       6.400   0.032  -5.896  1.00  0.00     0.034 C 
BRANCH   4   5
ATOM      5  C   UNL     1       6.428  -1.431  -6.354  1.00  0.00     0.032 C 
BRANCH   5   6
ATOM      6  C   UNL     1       5.249  -1.751  -7.239  1.00  0.00    -0.028 C 
ATOM      7  C   UNL     1       4.110  -2.232  -9.365  1.00  0.00     0.039 C 
ATOM      8  C   UNL     1       5.353  -1.914  -8.575  1.00  0.00    -0.080 C 
ATOM      9  C   UNL     1       6.680  -1.786  -9.285  1.00  0.00     0.039 C 
ENDBRANCH   5   6
ENDBRANCH   4   5
ENDBRANCH   1   4
BRANCH   2  10
ATOM     10  C   UNL     1       5.489   1.823  -8.182  1.00  0.00     0.035 C 
BRANCH  10  11
ATOM     11  C   UNL     1       4.972   3.263  -8.056  1.00  0.00     0.079 C 
BRANCH  11  12
ATOM     12  C   UNL     1       4.990   3.740  -6.626  1.00  0.00     0.130 C 
ATOM     13  O   UNL     1       5.667   4.710  -6.323  1.00  0.00    -0.300 OA
ATOM     14  C   UNL     1       4.179   3.056  -5.566  1.00  0.00     0.087 C 
ENDBRANCH  11  12
ENDBRANCH  10  11
ENDBRANCH   2  10
TORSDOF 6
ENDMDL
MODEL 2
REMARK VINA RESULT:    -3.500      2.317      5.009
REMARK INTER + INTRA:          -6.083
REMARK INTER:                  -4.780
REMARK INTRA:                  -1.303
REMARK UNBOUND:                -1.356
REMARK SMILES CC(=O)CCC=C(C)CCC=C(C)C
REMARK SMILES IDX 7 1 6 2 8 3 9 4 10 5 11 6 13 7 12 8 14 9 5 10 4 11 2 12 3 13
REMARK SMILES IDX 1 14
REMARK H PARENT
REMARK Flexibility Score: inf
ROOT
ATOM      1  C   UNL     1       8.791   2.385  -7.339  1.00  0.00    -0.077 C 
ATOM      2  C   UNL     1       9.133   1.463  -6.411  1.00  0.00    -0.028 C 
ATOM      3  C   UNL     1       9.393   3.763  -7.231  1.00  0.00     0.039 C 
ENDROOT
BRANCH   1   4
ATOM      4  C   UNL     1       7.891   2.076  -8.519  1.00  0.00     0.034 C 
BRANCH   4   5
ATOM      5  C   UNL     1       6.701   3.042  -8.558  1.00  0.00     0.032 C 
BRANCH   5   6
ATOM      6  C   UNL     1       5.663   2.674  -7.527  1.00  0.00    -0.028 C 
ATOM      7  C   UNL     1       4.246   3.033  -5.549  1.00  0.00     0.039 C 
ATOM      8  C   UNL     1       5.294   3.500  -6.525  1.00  0.00    -0.080 C 
ATOM      9  C   UNL     1       5.908   4.872  -6.367  1.00  0.00     0.039 C 
ENDBRANCH   5   6
ENDBRANCH   4   5
ENDBRANCH   1   4
BRANCH   2  10
ATOM     10  C   UNL     1       8.610   0.046  -6.367  1.00  0.00     0.035 C 
BRANCH  10  11
ATOM     11  C   UNL     1       7.268  -0.050  -5.627  1.00  0.00     0.079 C 
BRANCH  11  12
ATOM     12  C   UNL     1       6.539  -1.327  -5.956  1.00  0.00     0.130 C 
ATOM     13  O   UNL     1       6.660  -2.296  -5.223  1.00  0.00    -0.300 OA
ATOM     14  C   UNL     1       5.653  -1.431  -7.162  1.00  0.00     0.087 C 
ENDBRANCH  11  12
ENDBRANCH  10  11
ENDBRANCH   2  10
TORSDOF 6
ENDMDL
MODEL 3
REMARK VINA RESULT:    -3.460      2.166      4.225
REMARK INTER + INTRA:          -6.029
REMARK INTER:                  -4.377
REMARK INTRA:                  -1.652
REMARK UNBOUND:                -1.356
REMARK SMILES CC(=O)CCC=C(C)CCC=C(C)C
REMARK SMILES IDX 7 1 6 2 8 3 9 4 10 5 11 6 13 7 12 8 14 9 5 10 4 11 2 12 3 13
REMARK SMILES IDX 1 14
REMARK H PARENT
REMARK Flexibility Score: inf
ROOT
ATOM      1  C   UNL     1       8.330  -0.753  -7.037  1.00  0.00    -0.077 C 
ATOM      2  C   UNL     1       8.385  -1.148  -8.329  1.00  0.00    -0.028 C 
ATOM      3  C   UNL     1       9.491   0.030  -6.480  1.00  0.00     0.039 C 
ENDROOT
BRANCH   1   4
ATOM      4  C   UNL     1       7.126  -0.999  -6.148  1.00  0.00     0.034 C 
BRANCH   4   5
ATOM      5  C   UNL     1       6.541   0.329  -5.652  1.00  0.00     0.032 C 
BRANCH   5   6
ATOM      6  C   UNL     1       5.607   0.931  -6.672  1.00  0.00    -0.028 C 
ATOM      7  C   UNL     1       4.906   2.549  -8.388  1.00  0.00     0.039 C 
ATOM      8  C   UNL     1       5.913   2.031  -7.393  1.00  0.00    -0.080 C 
ATOM      9  C   UNL     1       7.234   2.744  -7.223  1.00  0.00     0.039 C 
ENDBRANCH   5   6
ENDBRANCH   4   5
ENDBRANCH   1   4
BRANCH   2  10
ATOM     10  C   UNL     1       7.316  -1.950  -9.033  1.00  0.00     0.035 C 
BRANCH  10  11
ATOM     11  C   UNL     1       6.423  -1.068  -9.918  1.00  0.00     0.079 C 
BRANCH  11  12
ATOM     12  C   UNL     1       4.969  -1.186  -9.536  1.00  0.00     0.130 C 
ATOM     13  O   UNL     1       4.153  -0.424 -10.031  1.00  0.00    -0.300 OA
ATOM     14  C   UNL     1       4.498  -2.231  -8.569  1.00  0.00     0.087 C 
ENDBRANCH  11  12
ENDBRANCH  10  11
ENDBRANCH   2  10
TORSDOF 6
ENDMDL
MODEL 4
REMARK VINA RESULT:    -3.366      1.177      3.226
REMARK INTER + INTRA:          -5.902
REMARK INTER:                  -4.189
REMARK INTRA:                  -1.713
REMARK UNBOUND:                -1.356
REMARK SMILES CC(=O)CCC=C(C)CCC=C(C)C
REMARK SMILES IDX 7 1 6 2 8 3 9 4 10 5 11 6 13 7 12 8 14 9 5 10 4 11 2 12 3 13
REMARK SMILES IDX 1 14
REMARK H PARENT
REMARK Flexibility Score: inf
ROOT
ATOM      1  C   UNL     1       5.896  -0.865  -8.644  1.00  0.00    -0.077 C 
ATOM      2  C   UNL     1       5.714   0.264  -9.367  1.00  0.00    -0.028 C 
ATOM      3  C   UNL     1       6.415  -2.090  -9.351  1.00  0.00     0.039 C 
ENDROOT
BRANCH   1   4
ATOM      4  C   UNL     1       5.670  -0.931  -7.146  1.00  0.00     0.034 C 
BRANCH   4   5
ATOM      5  C   UNL     1       6.974  -1.279  -6.418  1.00  0.00     0.032 C 
BRANCH   5   6
ATOM      6  C   UNL     1       7.733  -0.034  -6.031  1.00  0.00    -0.028 C 
ATOM      7  C   UNL     1       9.529   1.638  -6.204  1.00  0.00     0.039 C 
ATOM      8  C   UNL     1       8.847   0.379  -6.672  1.00  0.00    -0.080 C 
ATOM      9  C   UNL     1       9.416  -0.391  -7.841  1.00  0.00     0.039 C 
ENDBRANCH   5   6
ENDBRANCH   4   5
ENDBRANCH   1   4
BRANCH   2  10
ATOM     10  C   UNL     1       5.188   1.568  -8.816  1.00  0.00     0.035 C 
BRANCH  10  11
ATOM     11  C   UNL     1       6.321   2.496  -8.353  1.00  0.00     0.079 C 
BRANCH  11  12
ATOM     12  C   UNL     1       5.980   3.188  -7.057  1.00  0.00     0.130 C 
ATOM     13  O   UNL     1       6.517   4.250  -6.783  1.00  0.00    -0.300 OA
ATOM     14  C   UNL     1       4.982   2.607  -6.101  1.00  0.00     0.087 C 
ENDBRANCH  11  12
ENDBRANCH  10  11
ENDBRANCH   2  10
TORSDOF 6
ENDMDL
MODEL 5
REMARK VINA RESULT:    -3.350      2.267      4.749
REMARK INTER + INTRA:          -5.881
REMARK INTER:                  -4.609
REMARK INTRA:                  -1.273
REMARK UNBOUND:                -1.356
REMARK SMILES CC(=O)CCC=C(C)CCC=C(C)C
REMARK SMILES IDX 7 1 6 2 8 3 9 4 10 5 11 6 13 7 12 8 14 9 5 10 4 11 2 12 3 13
REMARK SMILES IDX 1 14
REMARK H PARENT
REMARK Flexibility Score: inf
ROOT
ATOM      1  C   UNL     1       8.375   0.764  -6.471  1.00  0.00    -0.077 C 
ATOM      2  C   UNL     1       7.426  -0.037  -5.936  1.00  0.00    -0.028 C 
ATOM      3  C   UNL     1       9.747   0.762  -5.847  1.00  0.00     0.039 C 
ENDROOT
BRANCH   1   4
ATOM      4  C   UNL     1       8.143   1.604  -7.712  1.00  0.00     0.034 C 
BRANCH   4   5
ATOM      5  C   UNL     1       7.602   2.988  -7.334  1.00  0.00     0.032 C 
BRANCH   5   6
ATOM      6  C   UNL     1       6.451   3.387  -8.223  1.00  0.00    -0.028 C 
ATOM      7  C   UNL     1       4.118   3.971  -8.741  1.00  0.00     0.039 C 
ATOM      8  C   UNL     1       5.195   3.571  -7.765  1.00  0.00    -0.080 C 
ATOM      9  C   UNL     1       4.852   3.385  -6.305  1.00  0.00     0.039 C 
ENDBRANCH   5   6
ENDBRANCH   4   5
ENDBRANCH   1   4
BRANCH   2  10
ATOM     10  C   UNL     1       6.003  -0.141  -6.431  1.00  0.00     0.035 C 
BRANCH  10  11
ATOM     11  C   UNL     1       5.738  -1.474  -7.144  1.00  0.00     0.079 C 
BRANCH  11  12
ATOM     12  C   UNL     1       5.007  -1.274  -8.448  1.00  0.00     0.130 C 
ATOM     13  O   UNL     1       4.260  -2.147  -8.860  1.00  0.00    -0.300 OA
ATOM     14  C   UNL     1       5.167  -0.014  -9.246  1.00  0.00     0.087 C 
ENDBRANCH  11  12
ENDBRANCH  10  11
ENDBRANCH   2  10
TORSDOF 6
ENDMDL
MODEL 6
REMARK VINA RESULT:    -3.348      1.143      1.896
REMARK INTER + INTRA:          -5.878
REMARK INTER:                  -4.428
REMARK INTRA:                  -1.451
REMARK UNBOUND:                -1.356
REMARK SMILES CC(=O)CCC=C(C)CCC=C(C)C
REMARK SMILES IDX 7 1 6 2 8 3 9 4 10 5 11 6 13 7 12 8 14 9 5 10 4 11 2 12 3 13
REMARK SMILES IDX 1 14
REMARK H PARENT
REMARK Flexibility Score: inf
ROOT
ATOM      1  C   UNL     1       8.832   1.175  -7.205  1.00  0.00    -0.077 C 
ATOM      2  C   UNL     1       7.813   2.057  -7.098  1.00  0.00    -0.028 C 
ATOM      3  C   UNL     1       9.724   0.965  -6.008  1.00  0.00     0.039 C 
ENDROOT
BRANCH   1   4
ATOM      4  C   UNL     1       9.073   0.336  -8.446  1.00  0.00     0.034 C 
BRANCH   4   5
ATOM      5  C   UNL     1       8.638  -1.115  -8.210  1.00  0.00     0.032 C 
BRANCH   5   6
ATOM      6  C   UNL     1       7.228  -1.349  -8.692  1.00  0.00    -0.028 C 
ATOM      7  C   UNL     1       4.806  -1.704  -8.444  1.00  0.00     0.039 C 
ATOM      8  C   UNL     1       6.175  -1.472  -7.856  1.00  0.00    -0.080 C 
ATOM      9  C   UNL     1       6.341  -1.382  -6.357  1.00  0.00     0.039 C 
ENDBRANCH   5   6
ENDBRANCH   4   5
ENDBRANCH   1   4
BRANCH   2  10
ATOM     10  C   UNL     1       6.841   2.392  -8.205  1.00  0.00     0.035 C 
BRANCH  10  11
ATOM     11  C   UNL     1       5.382   2.184  -7.773  1.00  0.00     0.079 C 
BRANCH  11  12
ATOM     12  C   UNL     1       4.887   3.321  -6.915  1.00  0.00     0.130 C 
ATOM     13  O   UNL     1       5.016   4.471  -7.304  1.00  0.00    -0.300 OA
ATOM     14  C   UNL     1       4.223   3.069  -5.594  1.00  0.00     0.087 C 
ENDBRANCH  11  12
ENDBRANCH  10  11
ENDBRANCH   2  10
TORSDOF 6
ENDMDL
MODEL 7
REMARK VINA RESULT:    -3.311     18.653     20.210
REMARK INTER + INTRA:          -5.829
REMARK INTER:                  -4.708
REMARK INTRA:                  -1.121
REMARK UNBOUND:                -1.356
REMARK SMILES CC(=O)CCC=C(C)CCC=C(C)C
REMARK SMILES IDX 7 1 6 2 8 3 9 4 10 5 11 6 13 7 12 8 14 9 5 10 4 11 2 12 3 13
REMARK SMILES IDX 1 14
REMARK H PARENT
REMARK Flexibility Score: inf
ROOT
ATOM      1  C   UNL     1      -5.216  -4.139   8.650  1.00  0.00    -0.077 C 
ATOM      2  C   UNL     1      -4.430  -5.226   8.481  1.00  0.00    -0.028 C 
ATOM      3  C   UNL     1      -5.232  -3.471  10.001  1.00  0.00     0.039 C 
ENDROOT
BRANCH   1   4
ATOM      4  C   UNL     1      -6.024  -3.521   7.525  1.00  0.00     0.034 C 
BRANCH   4   5
ATOM      5  C   UNL     1      -7.507  -3.881   7.664  1.00  0.00     0.032 C 
BRANCH   5   6
ATOM      6  C   UNL     1      -7.892  -4.992   6.718  1.00  0.00    -0.028 C 
ATOM      7  C   UNL     1      -8.440  -7.304   6.083  1.00  0.00     0.039 C 
ATOM      8  C   UNL     1      -8.053  -6.273   7.112  1.00  0.00    -0.080 C 
ATOM      9  C   UNL     1      -7.857  -6.687   8.552  1.00  0.00     0.039 C 
ENDBRANCH   5   6
ENDBRANCH   4   5
ENDBRANCH   1   4
BRANCH   2  10
ATOM     10  C   UNL     1      -4.312  -6.016   7.199  1.00  0.00     0.035 C 
BRANCH  10  11
ATOM     11  C   UNL     1      -3.566  -7.342   7.407  1.00  0.00     0.079 C 
BRANCH  11  12
ATOM     12  C   UNL     1      -2.714  -7.696   6.215  1.00  0.00     0.130 C 
ATOM     13  O   UNL     1      -2.746  -6.988   5.220  1.00  0.00    -0.300 OA
ATOM     14  C   UNL     1      -1.812  -8.894   6.229  1.00  0.00     0.087 C 
ENDBRANCH  11  12
ENDBRANCH  10  11
ENDBRANCH   2  10
TORSDOF 6
ENDMDL
MODEL 8
REMARK VINA RESULT:    -3.247     18.576     20.315
REMARK INTER + INTRA:          -5.742
REMARK INTER:                  -4.593
REMARK INTRA:                  -1.148
REMARK UNBOUND:                -1.356
REMARK SMILES CC(=O)CCC=C(C)CCC=C(C)C
REMARK SMILES IDX 7 1 6 2 8 3 9 4 10 5 11 6 13 7 12 8 14 9 5 10 4 11 2 12 3 13
REMARK SMILES IDX 1 14
REMARK H PARENT
REMARK Flexibility Score: inf
ROOT
ATOM      1  C   UNL     1      -6.077  -7.663   7.900  1.00  0.00    -0.077 C 
ATOM      2  C   UNL     1      -5.854  -8.746   7.122  1.00  0.00    -0.028 C 
ATOM      3  C   UNL     1      -7.454  -7.049   7.892  1.00  0.00     0.039 C 
ENDROOT
BRANCH   1   4
ATOM      4  C   UNL     1      -5.030  -7.084   8.831  1.00  0.00     0.034 C 
BRANCH   4   5
ATOM      5  C   UNL     1      -4.396  -5.830   8.218  1.00  0.00     0.032 C 
BRANCH   5   6
ATOM      6  C   UNL     1      -4.918  -4.575   8.873  1.00  0.00    -0.028 C 
ATOM      7  C   UNL     1      -6.134  -2.439   8.970  1.00  0.00     0.039 C 
ATOM      8  C   UNL     1      -5.662  -3.658   8.220  1.00  0.00    -0.080 C 
ATOM      9  C   UNL     1      -6.027  -3.829   6.764  1.00  0.00     0.039 C 
ENDBRANCH   5   6
ENDBRANCH   4   5
ENDBRANCH   1   4
BRANCH   2  10
ATOM     10  C   UNL     1      -4.532  -9.468   7.005  1.00  0.00     0.035 C 
BRANCH  10  11
ATOM     11  C   UNL     1      -3.787  -9.099   5.715  1.00  0.00     0.079 C 
BRANCH  11  12
ATOM     12  C   UNL     1      -2.734  -8.048   5.959  1.00  0.00     0.130 C 
ATOM     13  O   UNL     1      -2.688  -7.062   5.240  1.00  0.00    -0.300 OA
ATOM     14  C   UNL     1      -1.747  -8.178   7.081  1.00  0.00     0.087 C 
ENDBRANCH  11  12
ENDBRANCH  10  11
ENDBRANCH   2  10
TORSDOF 6
ENDMDL
MODEL 9
REMARK VINA RESULT:    -3.230      2.512      5.447
REMARK INTER + INTRA:          -5.719
REMARK INTER:                  -4.148
REMARK INTRA:                  -1.572
REMARK UNBOUND:                -1.356
REMARK SMILES CC(=O)CCC=C(C)CCC=C(C)C
REMARK SMILES IDX 7 1 6 2 8 3 9 4 10 5 11 6 13 7 12 8 14 9 5 10 4 11 2 12 3 13
REMARK SMILES IDX 1 14
REMARK H PARENT
REMARK Flexibility Score: inf
ROOT
ATOM      1  C   UNL     1       5.272   2.071  -6.671  1.00  0.00    -0.077 C 
ATOM      2  C   UNL     1       5.660   1.115  -5.797  1.00  0.00    -0.028 C 
ATOM      3  C   UNL     1       4.589   3.300  -6.129  1.00  0.00     0.039 C 
ENDROOT
BRANCH   1   4
ATOM      4  C   UNL     1       5.557   1.995  -8.159  1.00  0.00     0.034 C 
BRANCH   4   5
ATOM      5  C   UNL     1       6.524   3.107  -8.581  1.00  0.00     0.032 C 
BRANCH   5   6
ATOM      6  C   UNL     1       7.922   2.834  -8.085  1.00  0.00    -0.028 C 
ATOM      7  C   UNL     1       9.970   3.285  -6.800  1.00  0.00     0.039 C 
ATOM      8  C   UNL     1       8.574   3.653  -7.233  1.00  0.00    -0.080 C 
ATOM      9  C   UNL     1       7.936   4.919  -6.710  1.00  0.00     0.039 C 
ENDBRANCH   5   6
ENDBRANCH   4   5
ENDBRANCH   1   4
BRANCH   2  10
ATOM     10  C   UNL     1       6.341  -0.179  -6.177  1.00  0.00     0.035 C 
BRANCH  10  11
ATOM     11  C   UNL     1       7.845  -0.150  -5.870  1.00  0.00     0.079 C 
BRANCH  11  12
ATOM     12  C   UNL     1       8.669  -0.501  -7.083  1.00  0.00     0.130 C 
ATOM     13  O   UNL     1       9.871  -0.286  -7.077  1.00  0.00    -0.300 OA
ATOM     14  C   UNL     1       8.046  -1.124  -8.296  1.00  0.00     0.087 C 
ENDBRANCH  11  12
ENDBRANCH  10  11
ENDBRANCH   2  10
TORSDOF 6
ENDMDL
