MODEL 1
REMARK VINA RESULT:    -4.173      0.000      0.000
REMARK INTER + INTRA:         -16.658
REMARK INTER:                 -11.003
REMARK INTRA:                  -5.655
REMARK UNBOUND:                -5.655
REMARK SMILES CCCCCCCCCCCCCCCCCCCCCCCCCCCCCC(=O)[O-]
REMARK SMILES IDX 16 1 17 2 18 3 19 4 20 5 21 6 22 7 23 8 24 9 25 10 26 11
REMARK SMILES IDX 27 12 28 13 29 14 30 15 31 16 32 17 15 18 14 19 13 20 12 21
REMARK SMILES IDX 11 22 10 23 9 24 8 25 7 26 6 27 5 28 4 29 3 30 2 31 1 32
REMARK H PARENT
REMARK Flexibility Score: inf
ROOT
ATOM      1  C   UNL     1      41.758  15.906  21.319  1.00  0.00     0.000 C 
ENDROOT
BRANCH   1   2
ATOM      2  C   UNL     1      42.014  15.288  22.701  1.00  0.00     0.000 C 
BRANCH   2   3
ATOM      3  C   UNL     1      41.752  13.773  22.683  1.00  0.00     0.000 C 
BRANCH   3   4
ATOM      4  C   UNL     1      42.932  12.964  23.245  1.00  0.00     0.000 C 
BRANCH   4   5
ATOM      5  C   UNL     1      43.367  11.829  22.302  1.00  0.00     0.000 C 
BRANCH   5   6
ATOM      6  C   UNL     1      44.847  11.932  21.901  1.00  0.00     0.000 C 
BRANCH   6   7
ATOM      7  C   UNL     1      45.441  10.574  21.485  1.00  0.00     0.000 C 
BRANCH   7   8
ATOM      8  C   UNL     1      44.356   9.530  21.174  1.00  0.00     0.000 C 
BRANCH   8   9
ATOM      9  C   UNL     1      44.400   8.329  22.129  1.00  0.00     0.000 C 
BRANCH   9  10
ATOM     10  C   UNL     1      45.636   8.401  23.040  1.00  0.00     0.000 C 
BRANCH  10  11
ATOM     11  C   UNL     1      45.284   8.818  24.478  1.00  0.00     0.000 C 
BRANCH  11  12
ATOM     12  C   UNL     1      43.810   8.549  24.819  1.00  0.00     0.000 C 
BRANCH  12  13
ATOM     13  C   UNL     1      43.053   9.825  25.222  1.00  0.00     0.006 C 
BRANCH  13  14
ATOM     14  C   UNL     1      43.844  10.703  26.201  1.00  0.00     0.053 C 
BRANCH  14  15
ATOM     15  C   UNL     1      43.684  10.206  27.604  1.00  0.00     0.041 C 
ATOM     16  O   UNL     1      44.660  10.227  28.401  1.00  0.00    -0.550 OA
ATOM     17  O   UNL     1      42.454   9.718  28.035  1.00  0.00    -0.550 OA
ENDBRANCH  14  15
ENDBRANCH  13  14
ENDBRANCH  12  13
ENDBRANCH  11  12
ENDBRANCH  10  11
ENDBRANCH   9  10
ENDBRANCH   8   9
ENDBRANCH   7   8
ENDBRANCH   6   7
ENDBRANCH   5   6
ENDBRANCH   4   5
ENDBRANCH   3   4
ENDBRANCH   2   3
ENDBRANCH   1   2
BRANCH   1  18
ATOM     18  C   UNL     1      42.925  16.781  20.825  1.00  0.00     0.000 C 
BRANCH  18  19
ATOM     19  C   UNL     1      44.076  16.016  20.143  1.00  0.00     0.000 C 
BRANCH  19  20
ATOM     20  C   UNL     1      45.291  15.819  21.065  1.00  0.00     0.000 C 
BRANCH  20  21
ATOM     21  C   UNL     1      45.641  17.080  21.875  1.00  0.00     0.000 C 
BRANCH  21  22
ATOM     22  C   UNL     1      45.548  16.925  23.403  1.00  0.00     0.000 C 
BRANCH  22  23
ATOM     23  C   UNL     1      45.593  15.460  23.864  1.00  0.00     0.000 C 
BRANCH  23  24
ATOM     24  C   UNL     1      45.019  15.312  25.277  1.00  0.00    -0.000 C 
BRANCH  24  25
ATOM     25  C   UNL     1      44.105  16.493  25.629  1.00  0.00    -0.000 C 
BRANCH  25  26
ATOM     26  C   UNL     1      42.909  16.074  26.512  1.00  0.00    -0.000 C 
BRANCH  26  27
ATOM     27  C   UNL     1      42.607  14.564  26.479  1.00  0.00    -0.000 C 
BRANCH  27  28
ATOM     28  C   UNL     1      41.140  14.195  26.196  1.00  0.00    -0.000 C 
BRANCH  28  29
ATOM     29  C   UNL     1      40.741  12.763  26.599  1.00  0.00    -0.000 C 
BRANCH  29  30
ATOM     30  C   UNL     1      39.824  12.085  25.566  1.00  0.00    -0.000 C 
BRANCH  30  31
ATOM     31  C   UNL     1      38.736  11.222  26.223  1.00  0.00    -0.003 C 
ATOM     32  C   UNL     1      39.190   9.781  26.459  1.00  0.00     0.004 C 
ENDBRANCH  30  31
ENDBRANCH  29  30
ENDBRANCH  28  29
ENDBRANCH  27  28
ENDBRANCH  26  27
ENDBRANCH  25  26
ENDBRANCH  24  25
ENDBRANCH  23  24
ENDBRANCH  22  23
ENDBRANCH  21  22
ENDBRANCH  20  21
ENDBRANCH  19  20
ENDBRANCH  18  19
ENDBRANCH   1  18
TORSDOF 28
ENDMDL
MODEL 2
REMARK VINA RESULT:    -3.923      0.873      2.044
REMARK INTER + INTRA:         -15.999
REMARK INTER:                 -10.448
REMARK INTRA:                  -5.551
REMARK UNBOUND:                -5.655
REMARK SMILES CCCCCCCCCCCCCCCCCCCCCCCCCCCCCC(=O)[O-]
REMARK SMILES IDX 16 1 17 2 18 3 19 4 20 5 21 6 22 7 23 8 24 9 25 10 26 11
REMARK SMILES IDX 27 12 28 13 29 14 30 15 31 16 32 17 15 18 14 19 13 20 12 21
REMARK SMILES IDX 11 22 10 23 9 24 8 25 7 26 6 27 5 28 4 29 3 30 2 31 1 32
REMARK H PARENT
REMARK Flexibility Score: inf
ROOT
ATOM      1  C   UNL     1      41.535  13.784  22.622  1.00  0.00     0.000 C 
ENDROOT
BRANCH   1   2
ATOM      2  C   UNL     1      42.570  12.705  22.973  1.00  0.00     0.000 C 
BRANCH   2   3
ATOM      3  C   UNL     1      43.791  13.322  23.673  1.00  0.00     0.000 C 
BRANCH   3   4
ATOM      4  C   UNL     1      45.113  12.664  23.241  1.00  0.00     0.000 C 
BRANCH   4   5
ATOM      5  C   UNL     1      45.148  12.353  21.735  1.00  0.00     0.000 C 
BRANCH   5   6
ATOM      6  C   UNL     1      45.506  10.887  21.445  1.00  0.00     0.000 C 
BRANCH   6   7
ATOM      7  C   UNL     1      44.290   9.949  21.557  1.00  0.00     0.000 C 
BRANCH   7   8
ATOM      8  C   UNL     1      44.696   8.469  21.643  1.00  0.00     0.000 C 
BRANCH   8   9
ATOM      9  C   UNL     1      45.706   8.197  22.766  1.00  0.00     0.000 C 
BRANCH   9  10
ATOM     10  C   UNL     1      45.359   9.011  24.022  1.00  0.00     0.000 C 
BRANCH  10  11
ATOM     11  C   UNL     1      44.093   8.496  24.726  1.00  0.00     0.000 C 
BRANCH  11  12
ATOM     12  C   UNL     1      43.117   9.631  25.075  1.00  0.00     0.000 C 
BRANCH  12  13
ATOM     13  C   UNL     1      43.691  10.607  26.114  1.00  0.00     0.006 C 
BRANCH  13  14
ATOM     14  C   UNL     1      43.159  10.351  27.531  1.00  0.00     0.053 C 
BRANCH  14  15
ATOM     15  C   UNL     1      43.903   9.227  28.180  1.00  0.00     0.041 C 
ATOM     16  O   UNL     1      43.276   8.264  28.698  1.00  0.00    -0.550 OA
ATOM     17  O   UNL     1      45.294   9.237  28.211  1.00  0.00    -0.550 OA
ENDBRANCH  14  15
ENDBRANCH  13  14
ENDBRANCH  12  13
ENDBRANCH  11  12
ENDBRANCH  10  11
ENDBRANCH   9  10
ENDBRANCH   8   9
ENDBRANCH   7   8
ENDBRANCH   6   7
ENDBRANCH   5   6
ENDBRANCH   4   5
ENDBRANCH   3   4
ENDBRANCH   2   3
ENDBRANCH   1   2
BRANCH   1  18
ATOM     18  C   UNL     1      42.115  15.211  22.665  1.00  0.00     0.000 C 
BRANCH  18  19
ATOM     19  C   UNL     1      41.719  16.115  21.482  1.00  0.00     0.000 C 
BRANCH  19  20
ATOM     20  C   UNL     1      42.935  16.740  20.777  1.00  0.00     0.000 C 
BRANCH  20  21
ATOM     21  C   UNL     1      44.233  15.943  20.997  1.00  0.00     0.000 C 
BRANCH  21  22
ATOM     22  C   UNL     1      45.414  16.754  21.560  1.00  0.00     0.000 C 
BRANCH  22  23
ATOM     23  C   UNL     1      45.694  16.460  23.042  1.00  0.00     0.000 C 
BRANCH  23  24
ATOM     24  C   UNL     1      45.842  17.760  23.840  1.00  0.00    -0.000 C 
BRANCH  24  25
ATOM     25  C   UNL     1      45.181  17.639  25.220  1.00  0.00    -0.000 C 
BRANCH  25  26
ATOM     26  C   UNL     1      44.470  16.283  25.420  1.00  0.00    -0.000 C 
BRANCH  26  27
ATOM     27  C   UNL     1      43.115  16.390  26.145  1.00  0.00    -0.000 C 
BRANCH  27  28
ATOM     28  C   UNL     1      42.919  15.407  27.314  1.00  0.00    -0.000 C 
BRANCH  28  29
ATOM     29  C   UNL     1      42.356  14.029  26.915  1.00  0.00    -0.000 C 
BRANCH  29  30
ATOM     30  C   UNL     1      41.006  14.124  26.184  1.00  0.00    -0.000 C 
BRANCH  30  31
ATOM     31  C   UNL     1      40.048  12.988  26.570  1.00  0.00    -0.003 C 
ATOM     32  C   UNL     1      40.150  11.784  25.632  1.00  0.00     0.004 C 
ENDBRANCH  30  31
ENDBRANCH  29  30
ENDBRANCH  28  29
ENDBRANCH  27  28
ENDBRANCH  26  27
ENDBRANCH  25  26
ENDBRANCH  24  25
ENDBRANCH  23  24
ENDBRANCH  22  23
ENDBRANCH  21  22
ENDBRANCH  20  21
ENDBRANCH  19  20
ENDBRANCH  18  19
ENDBRANCH   1  18
TORSDOF 28
ENDMDL
MODEL 3
REMARK VINA RESULT:    -3.893      2.267      6.009
REMARK INTER + INTRA:         -15.922
REMARK INTER:                 -10.385
REMARK INTRA:                  -5.537
REMARK UNBOUND:                -5.655
REMARK SMILES CCCCCCCCCCCCCCCCCCCCCCCCCCCCCC(=O)[O-]
REMARK SMILES IDX 16 1 17 2 18 3 19 4 20 5 21 6 22 7 23 8 24 9 25 10 26 11
REMARK SMILES IDX 27 12 28 13 29 14 30 15 31 16 32 17 15 18 14 19 13 20 12 21
REMARK SMILES IDX 11 22 10 23 9 24 8 25 7 26 6 27 5 28 4 29 3 30 2 31 1 32
REMARK H PARENT
REMARK Flexibility Score: inf
ROOT
ATOM      1  C   UNL     1      44.294  11.396  21.868  1.00  0.00     0.000 C 
ENDROOT
BRANCH   1   2
ATOM      2  C   UNL     1      45.762  11.780  21.636  1.00  0.00     0.000 C 
BRANCH   2   3
ATOM      3  C   UNL     1      46.049  13.198  22.154  1.00  0.00     0.000 C 
BRANCH   3   4
ATOM      4  C   UNL     1      45.370  14.285  21.303  1.00  0.00     0.000 C 
BRANCH   4   5
ATOM      5  C   UNL     1      45.921  15.690  21.599  1.00  0.00     0.000 C 
BRANCH   5   6
ATOM      6  C   UNL     1      44.861  16.788  21.418  1.00  0.00     0.000 C 
BRANCH   6   7
ATOM      7  C   UNL     1      43.739  16.371  20.451  1.00  0.00     0.000 C 
BRANCH   7   8
ATOM      8  C   UNL     1      42.339  16.630  21.029  1.00  0.00     0.000 C 
BRANCH   8   9
ATOM      9  C   UNL     1      41.698  15.364  21.617  1.00  0.00     0.000 C 
BRANCH   9  10
ATOM     10  C   UNL     1      41.870  15.324  23.144  1.00  0.00     0.000 C 
BRANCH  10  11
ATOM     11  C   UNL     1      42.249  13.925  23.658  1.00  0.00     0.000 C 
BRANCH  11  12
ATOM     12  C   UNL     1      43.522  13.945  24.520  1.00  0.00     0.000 C 
BRANCH  12  13
ATOM     13  C   UNL     1      44.048  15.368  24.766  1.00  0.00     0.006 C 
BRANCH  13  14
ATOM     14  C   UNL     1      44.492  15.597  26.217  1.00  0.00     0.053 C 
BRANCH  14  15
ATOM     15  C   UNL     1      44.368  17.043  26.585  1.00  0.00     0.041 C 
ATOM     16  O   UNL     1      43.646  17.391  27.558  1.00  0.00    -0.550 OA
ATOM     17  O   UNL     1      45.052  18.009  25.855  1.00  0.00    -0.550 OA
ENDBRANCH  14  15
ENDBRANCH  13  14
ENDBRANCH  12  13
ENDBRANCH  11  12
ENDBRANCH  10  11
ENDBRANCH   9  10
ENDBRANCH   8   9
ENDBRANCH   7   8
ENDBRANCH   6   7
ENDBRANCH   5   6
ENDBRANCH   4   5
ENDBRANCH   3   4
ENDBRANCH   2   3
ENDBRANCH   1   2
BRANCH   1  18
ATOM     18  C   UNL     1      44.037   9.884  21.729  1.00  0.00     0.000 C 
BRANCH  18  19
ATOM     19  C   UNL     1      45.289   9.030  21.449  1.00  0.00     0.000 C 
BRANCH  19  20
ATOM     20  C   UNL     1      45.689   8.148  22.644  1.00  0.00     0.000 C 
BRANCH  20  21
ATOM     21  C   UNL     1      44.907   8.484  23.926  1.00  0.00     0.000 C 
BRANCH  21  22
ATOM     22  C   UNL     1      45.663   9.354  24.947  1.00  0.00     0.000 C 
BRANCH  22  23
ATOM     23  C   UNL     1      44.820  10.520  25.485  1.00  0.00     0.000 C 
BRANCH  23  24
ATOM     24  C   UNL     1      43.325  10.261  25.268  1.00  0.00    -0.000 C 
BRANCH  24  25
ATOM     25  C   UNL     1      42.513  10.633  26.516  1.00  0.00    -0.000 C 
BRANCH  25  26
ATOM     26  C   UNL     1      40.997  10.406  26.327  1.00  0.00    -0.000 C 
BRANCH  26  27
ATOM     27  C   UNL     1      40.276  11.566  25.614  1.00  0.00    -0.000 C 
BRANCH  27  28
ATOM     28  C   UNL     1      38.992  12.061  26.305  1.00  0.00    -0.000 C 
BRANCH  28  29
ATOM     29  C   UNL     1      39.221  13.005  27.500  1.00  0.00    -0.000 C 
BRANCH  29  30
ATOM     30  C   UNL     1      40.061  14.241  27.133  1.00  0.00    -0.000 C 
BRANCH  30  31
ATOM     31  C   UNL     1      41.516  14.126  27.614  1.00  0.00    -0.003 C 
ATOM     32  C   UNL     1      41.627  13.539  29.022  1.00  0.00     0.004 C 
ENDBRANCH  30  31
ENDBRANCH  29  30
ENDBRANCH  28  29
ENDBRANCH  27  28
ENDBRANCH  26  27
ENDBRANCH  25  26
ENDBRANCH  24  25
ENDBRANCH  23  24
ENDBRANCH  22  23
ENDBRANCH  21  22
ENDBRANCH  20  21
ENDBRANCH  19  20
ENDBRANCH  18  19
ENDBRANCH   1  18
TORSDOF 28
ENDMDL
MODEL 4
REMARK VINA RESULT:    -3.846      3.328      8.755
REMARK INTER + INTRA:         -15.795
REMARK INTER:                 -10.658
REMARK INTRA:                  -5.138
REMARK UNBOUND:                -5.655
REMARK SMILES CCCCCCCCCCCCCCCCCCCCCCCCCCCCCC(=O)[O-]
REMARK SMILES IDX 16 1 17 2 18 3 19 4 20 5 21 6 22 7 23 8 24 9 25 10 26 11
REMARK SMILES IDX 27 12 28 13 29 14 30 15 31 16 32 17 15 18 14 19 13 20 12 21
REMARK SMILES IDX 11 22 10 23 9 24 8 25 7 26 6 27 5 28 4 29 3 30 2 31 1 32
REMARK H PARENT
REMARK Flexibility Score: inf
ROOT
ATOM      1  C   UNL     1      34.341   9.998  29.191  1.00  0.00     0.000 C 
ENDROOT
BRANCH   1   2
ATOM      2  C   UNL     1      35.203  11.261  29.330  1.00  0.00     0.000 C 
BRANCH   2   3
ATOM      3  C   UNL     1      36.652  10.901  29.692  1.00  0.00     0.000 C 
BRANCH   3   4
ATOM      4  C   UNL     1      37.615  12.087  29.519  1.00  0.00     0.000 C 
BRANCH   4   5
ATOM      5  C   UNL     1      36.882  13.389  29.157  1.00  0.00     0.000 C 
BRANCH   5   6
ATOM      6  C   UNL     1      37.709  14.291  28.225  1.00  0.00     0.000 C 
BRANCH   6   7
ATOM      7  C   UNL     1      39.217  13.991  28.302  1.00  0.00     0.000 C 
BRANCH   7   8
ATOM      8  C   UNL     1      40.025  14.776  27.256  1.00  0.00     0.000 C 
BRANCH   8   9
ATOM      9  C   UNL     1      41.127  13.931  26.602  1.00  0.00     0.000 C 
BRANCH   9  10
ATOM     10  C   UNL     1      41.360  14.367  25.147  1.00  0.00     0.000 C 
BRANCH  10  11
ATOM     11  C   UNL     1      40.896  13.307  24.133  1.00  0.00     0.000 C 
BRANCH  11  12
ATOM     12  C   UNL     1      42.076  12.610  23.438  1.00  0.00     0.000 C 
BRANCH  12  13
ATOM     13  C   UNL     1      43.424  13.286  23.738  1.00  0.00     0.006 C 
BRANCH  13  14
ATOM     14  C   UNL     1      44.306  13.437  22.491  1.00  0.00     0.053 C 
BRANCH  14  15
ATOM     15  C   UNL     1      44.472  14.881  22.133  1.00  0.00     0.041 C 
ATOM     16  O   UNL     1      45.622  15.358  21.933  1.00  0.00    -0.550 OA
ATOM     17  O   UNL     1      43.357  15.703  22.017  1.00  0.00    -0.550 OA
ENDBRANCH  14  15
ENDBRANCH  13  14
ENDBRANCH  12  13
ENDBRANCH  11  12
ENDBRANCH  10  11
ENDBRANCH   9  10
ENDBRANCH   8   9
ENDBRANCH   7   8
ENDBRANCH   6   7
ENDBRANCH   5   6
ENDBRANCH   4   5
ENDBRANCH   3   4
ENDBRANCH   2   3
ENDBRANCH   1   2
BRANCH   1  18
ATOM     18  C   UNL     1      35.046   8.871  28.414  1.00  0.00     0.000 C 
BRANCH  18  19
ATOM     19  C   UNL     1      34.460   8.568  27.022  1.00  0.00     0.000 C 
BRANCH  19  20
ATOM     20  C   UNL     1      35.438   8.887  25.879  1.00  0.00     0.000 C 
BRANCH  20  21
ATOM     21  C   UNL     1      36.787   9.434  26.380  1.00  0.00     0.000 C 
BRANCH  21  22
ATOM     22  C   UNL     1      37.098  10.886  25.973  1.00  0.00     0.000 C 
BRANCH  22  23
ATOM     23  C   UNL     1      38.583  11.250  26.127  1.00  0.00     0.000 C 
BRANCH  23  24
ATOM     24  C   UNL     1      39.418  10.011  26.470  1.00  0.00    -0.000 C 
BRANCH  24  25
ATOM     25  C   UNL     1      40.816  10.407  26.965  1.00  0.00    -0.000 C 
BRANCH  25  26
ATOM     26  C   UNL     1      41.931  10.009  25.974  1.00  0.00    -0.000 C 
BRANCH  26  27
ATOM     27  C   UNL     1      43.309  10.611  26.309  1.00  0.00    -0.000 C 
BRANCH  27  28
ATOM     28  C   UNL     1      44.452  10.194  25.366  1.00  0.00    -0.000 C 
BRANCH  28  29
ATOM     29  C   UNL     1      44.330   8.772  24.788  1.00  0.00    -0.000 C 
BRANCH  29  30
ATOM     30  C   UNL     1      44.842   8.669  23.341  1.00  0.00    -0.000 C 
BRANCH  30  31
ATOM     31  C   UNL     1      44.112   9.629  22.390  1.00  0.00    -0.003 C 
ATOM     32  C   UNL     1      44.935   9.966  21.146  1.00  0.00     0.004 C 
ENDBRANCH  30  31
ENDBRANCH  29  30
ENDBRANCH  28  29
ENDBRANCH  27  28
ENDBRANCH  26  27
ENDBRANCH  25  26
ENDBRANCH  24  25
ENDBRANCH  23  24
ENDBRANCH  22  23
ENDBRANCH  21  22
ENDBRANCH  20  21
ENDBRANCH  19  20
ENDBRANCH  18  19
ENDBRANCH   1  18
TORSDOF 28
ENDMDL
MODEL 5
REMARK VINA RESULT:    -3.826      4.096      8.454
REMARK INTER + INTRA:         -15.743
REMARK INTER:                 -10.620
REMARK INTRA:                  -5.123
REMARK UNBOUND:                -5.655
REMARK SMILES CCCCCCCCCCCCCCCCCCCCCCCCCCCCCC(=O)[O-]
REMARK SMILES IDX 16 1 17 2 18 3 19 4 20 5 21 6 22 7 23 8 24 9 25 10 26 11
REMARK SMILES IDX 27 12 28 13 29 14 30 15 31 16 32 17 15 18 14 19 13 20 12 21
REMARK SMILES IDX 11 22 10 23 9 24 8 25 7 26 6 27 5 28 4 29 3 30 2 31 1 32
REMARK H PARENT
REMARK Flexibility Score: inf
ROOT
ATOM      1  C   UNL     1      36.014  17.293  27.897  1.00  0.00     0.000 C 
ENDROOT
BRANCH   1   2
ATOM      2  C   UNL     1      36.328  17.389  29.397  1.00  0.00     0.000 C 
BRANCH   2   3
ATOM      3  C   UNL     1      37.821  17.144  29.664  1.00  0.00     0.000 C 
BRANCH   3   4
ATOM      4  C   UNL     1      38.114  15.697  30.096  1.00  0.00     0.000 C 
BRANCH   4   5
ATOM      5  C   UNL     1      39.360  15.119  29.404  1.00  0.00     0.000 C 
BRANCH   5   6
ATOM      6  C   UNL     1      39.104  14.764  27.930  1.00  0.00     0.000 C 
BRANCH   6   7
ATOM      7  C   UNL     1      40.168  15.355  26.988  1.00  0.00     0.000 C 
BRANCH   7   8
ATOM      8  C   UNL     1      41.006  14.268  26.294  1.00  0.00     0.000 C 
BRANCH   8   9
ATOM      9  C   UNL     1      41.180  14.526  24.790  1.00  0.00     0.000 C 
BRANCH   9  10
ATOM     10  C   UNL     1      41.079  13.214  23.997  1.00  0.00     0.000 C 
BRANCH  10  11
ATOM     11  C   UNL     1      42.355  12.361  24.104  1.00  0.00     0.000 C 
BRANCH  11  12
ATOM     12  C   UNL     1      42.961  12.044  22.727  1.00  0.00     0.000 C 
BRANCH  12  13
ATOM     13  C   UNL     1      44.248  12.837  22.451  1.00  0.00     0.006 C 
BRANCH  13  14
ATOM     14  C   UNL     1      44.596  13.821  23.576  1.00  0.00     0.053 C 
BRANCH  14  15
ATOM     15  C   UNL     1      44.519  15.233  23.084  1.00  0.00     0.041 C 
ATOM     16  O   UNL     1      44.609  16.194  23.895  1.00  0.00    -0.550 OA
ATOM     17  O   UNL     1      44.349  15.491  21.728  1.00  0.00    -0.550 OA
ENDBRANCH  14  15
ENDBRANCH  13  14
ENDBRANCH  12  13
ENDBRANCH  11  12
ENDBRANCH  10  11
ENDBRANCH   9  10
ENDBRANCH   8   9
ENDBRANCH   7   8
ENDBRANCH   6   7
ENDBRANCH   5   6
ENDBRANCH   4   5
ENDBRANCH   3   4
ENDBRANCH   2   3
ENDBRANCH   1   2
BRANCH   1  18
ATOM     18  C   UNL     1      34.977  16.202  27.568  1.00  0.00     0.000 C 
BRANCH  18  19
ATOM     19  C   UNL     1      35.393  14.767  27.945  1.00  0.00     0.000 C 
BRANCH  19  20
ATOM     20  C   UNL     1      34.520  14.166  29.059  1.00  0.00     0.000 C 
BRANCH  20  21
ATOM     21  C   UNL     1      35.217  13.021  29.816  1.00  0.00     0.000 C 
BRANCH  21  22
ATOM     22  C   UNL     1      34.391  11.730  29.959  1.00  0.00     0.000 C 
BRANCH  22  23
ATOM     23  C   UNL     1      35.151  10.476  29.502  1.00  0.00     0.000 C 
BRANCH  23  24
ATOM     24  C   UNL     1      36.534  10.842  28.952  1.00  0.00    -0.000 C 
BRANCH  24  25
ATOM     25  C   UNL     1      36.625  10.554  27.447  1.00  0.00    -0.000 C 
BRANCH  25  26
ATOM     26  C   UNL     1      37.088  11.783  26.636  1.00  0.00    -0.000 C 
BRANCH  26  27
ATOM     27  C   UNL     1      38.472  11.613  25.979  1.00  0.00    -0.000 C 
BRANCH  27  28
ATOM     28  C   UNL     1      39.209  10.310  26.337  1.00  0.00    -0.000 C 
BRANCH  28  29
ATOM     29  C   UNL     1      40.492  10.498  27.168  1.00  0.00    -0.000 C 
BRANCH  29  30
ATOM     30  C   UNL     1      40.236  11.210  28.508  1.00  0.00    -0.000 C 
BRANCH  30  31
ATOM     31  C   UNL     1      41.485  11.933  29.036  1.00  0.00    -0.003 C 
ATOM     32  C   UNL     1      42.733  11.639  28.204  1.00  0.00     0.004 C 
ENDBRANCH  30  31
ENDBRANCH  29  30
ENDBRANCH  28  29
ENDBRANCH  27  28
ENDBRANCH  26  27
ENDBRANCH  25  26
ENDBRANCH  24  25
ENDBRANCH  23  24
ENDBRANCH  22  23
ENDBRANCH  21  22
ENDBRANCH  20  21
ENDBRANCH  19  20
ENDBRANCH  18  19
ENDBRANCH   1  18
TORSDOF 28
ENDMDL
MODEL 6
REMARK VINA RESULT:    -3.825      4.083      8.684
REMARK INTER + INTRA:         -15.742
REMARK INTER:                 -11.284
REMARK INTRA:                  -4.458
REMARK UNBOUND:                -5.655
REMARK SMILES CCCCCCCCCCCCCCCCCCCCCCCCCCCCCC(=O)[O-]
REMARK SMILES IDX 16 1 17 2 18 3 19 4 20 5 21 6 22 7 23 8 24 9 25 10 26 11
REMARK SMILES IDX 27 12 28 13 29 14 30 15 31 16 32 17 15 18 14 19 13 20 12 21
REMARK SMILES IDX 11 22 10 23 9 24 8 25 7 26 6 27 5 28 4 29 3 30 2 31 1 32
REMARK H PARENT
REMARK Flexibility Score: inf
ROOT
ATOM      1  C   UNL     1      34.283   8.864  26.701  1.00  0.00     0.000 C 
ENDROOT
BRANCH   1   2
ATOM      2  C   UNL     1      35.489   8.413  25.865  1.00  0.00     0.000 C 
BRANCH   2   3
ATOM      3  C   UNL     1      36.773   9.121  26.325  1.00  0.00     0.000 C 
BRANCH   3   4
ATOM      4  C   UNL     1      36.776  10.619  25.979  1.00  0.00     0.000 C 
BRANCH   4   5
ATOM      5  C   UNL     1      37.987  11.356  26.578  1.00  0.00     0.000 C 
BRANCH   5   6
ATOM      6  C   UNL     1      39.308  10.608  26.341  1.00  0.00     0.000 C 
BRANCH   6   7
ATOM      7  C   UNL     1      40.410  11.523  25.778  1.00  0.00     0.000 C 
BRANCH   7   8
ATOM      8  C   UNL     1      41.765  11.305  26.471  1.00  0.00     0.000 C 
BRANCH   8   9
ATOM      9  C   UNL     1      42.931  11.950  25.707  1.00  0.00     0.000 C 
BRANCH   9  10
ATOM     10  C   UNL     1      42.456  12.510  24.357  1.00  0.00     0.000 C 
BRANCH  10  11
ATOM     11  C   UNL     1      43.625  12.865  23.423  1.00  0.00     0.000 C 
BRANCH  11  12
ATOM     12  C   UNL     1      44.622  13.834  24.078  1.00  0.00     0.000 C 
BRANCH  12  13
ATOM     13  C   UNL     1      45.061  14.962  23.131  1.00  0.00     0.006 C 
BRANCH  13  14
ATOM     14  C   UNL     1      44.262  14.985  21.821  1.00  0.00     0.053 C 
BRANCH  14  15
ATOM     15  C   UNL     1      44.079  16.391  21.339  1.00  0.00     0.041 C 
ATOM     16  O   UNL     1      45.019  17.225  21.442  1.00  0.00    -0.550 OA
ATOM     17  O   UNL     1      42.870  16.782  20.773  1.00  0.00    -0.550 OA
ENDBRANCH  14  15
ENDBRANCH  13  14
ENDBRANCH  12  13
ENDBRANCH  11  12
ENDBRANCH  10  11
ENDBRANCH   9  10
ENDBRANCH   8   9
ENDBRANCH   7   8
ENDBRANCH   6   7
ENDBRANCH   5   6
ENDBRANCH   4   5
ENDBRANCH   3   4
ENDBRANCH   2   3
ENDBRANCH   1   2
BRANCH   1  18
ATOM     18  C   UNL     1      34.521   8.738  28.218  1.00  0.00     0.000 C 
BRANCH  18  19
ATOM     19  C   UNL     1      34.318  10.035  29.023  1.00  0.00     0.000 C 
BRANCH  19  20
ATOM     20  C   UNL     1      35.601  10.507  29.728  1.00  0.00     0.000 C 
BRANCH  20  21
ATOM     21  C   UNL     1      35.860  12.015  29.556  1.00  0.00     0.000 C 
BRANCH  21  22
ATOM     22  C   UNL     1      34.675  12.930  29.916  1.00  0.00     0.000 C 
BRANCH  22  23
ATOM     23  C   UNL     1      34.536  14.134  28.972  1.00  0.00     0.000 C 
BRANCH  23  24
ATOM     24  C   UNL     1      35.819  14.346  28.161  1.00  0.00    -0.000 C 
BRANCH  24  25
ATOM     25  C   UNL     1      36.364  15.769  28.351  1.00  0.00    -0.000 C 
BRANCH  25  26
ATOM     26  C   UNL     1      37.893  15.795  28.561  1.00  0.00    -0.000 C 
BRANCH  26  27
ATOM     27  C   UNL     1      38.504  14.415  28.874  1.00  0.00    -0.000 C 
BRANCH  27  28
ATOM     28  C   UNL     1      39.840  14.117  28.169  1.00  0.00    -0.000 C 
BRANCH  28  29
ATOM     29  C   UNL     1      40.301  15.194  27.168  1.00  0.00    -0.000 C 
BRANCH  29  30
ATOM     30  C   UNL     1      41.802  15.512  27.282  1.00  0.00    -0.000 C 
BRANCH  30  31
ATOM     31  C   UNL     1      42.406  15.978  25.949  1.00  0.00    -0.003 C 
ATOM     32  C   UNL     1      41.417  15.878  24.786  1.00  0.00     0.004 C 
ENDBRANCH  30  31
ENDBRANCH  29  30
ENDBRANCH  28  29
ENDBRANCH  27  28
ENDBRANCH  26  27
ENDBRANCH  25  26
ENDBRANCH  24  25
ENDBRANCH  23  24
ENDBRANCH  22  23
ENDBRANCH  21  22
ENDBRANCH  20  21
ENDBRANCH  19  20
ENDBRANCH  18  19
ENDBRANCH   1  18
TORSDOF 28
ENDMDL
MODEL 7
REMARK VINA RESULT:    -3.814      1.801      6.020
REMARK INTER + INTRA:         -15.712
REMARK INTER:                 -11.469
REMARK INTRA:                  -4.243
REMARK UNBOUND:                -5.655
REMARK SMILES CCCCCCCCCCCCCCCCCCCCCCCCCCCCCC(=O)[O-]
REMARK SMILES IDX 16 1 17 2 18 3 19 4 20 5 21 6 22 7 23 8 24 9 25 10 26 11
REMARK SMILES IDX 27 12 28 13 29 14 30 15 31 16 32 17 15 18 14 19 13 20 12 21
REMARK SMILES IDX 11 22 10 23 9 24 8 25 7 26 6 27 5 28 4 29 3 30 2 31 1 32
REMARK H PARENT
REMARK Flexibility Score: inf
ROOT
ATOM      1  C   UNL     1      44.064   9.620  21.481  1.00  0.00     0.000 C 
ENDROOT
BRANCH   1   2
ATOM      2  C   UNL     1      45.374  10.359  21.172  1.00  0.00     0.000 C 
BRANCH   2   3
ATOM      3  C   UNL     1      45.651  11.448  22.221  1.00  0.00     0.000 C 
BRANCH   3   4
ATOM      4  C   UNL     1      44.769  12.693  22.026  1.00  0.00     0.000 C 
BRANCH   4   5
ATOM      5  C   UNL     1      45.525  14.000  22.319  1.00  0.00     0.000 C 
BRANCH   5   6
ATOM      6  C   UNL     1      46.125  14.630  21.052  1.00  0.00     0.000 C 
BRANCH   6   7
ATOM      7  C   UNL     1      45.166  15.630  20.381  1.00  0.00     0.000 C 
BRANCH   7   8
ATOM      8  C   UNL     1      44.139  16.210  21.366  1.00  0.00     0.000 C 
BRANCH   8   9
ATOM      9  C   UNL     1      42.773  16.466  20.713  1.00  0.00     0.000 C 
BRANCH   9  10
ATOM     10  C   UNL     1      41.632  16.015  21.640  1.00  0.00     0.000 C 
BRANCH  10  11
ATOM     11  C   UNL     1      42.130  15.141  22.803  1.00  0.00     0.000 C 
BRANCH  11  12
ATOM     12  C   UNL     1      41.959  15.831  24.166  1.00  0.00     0.000 C 
BRANCH  12  13
ATOM     13  C   UNL     1      43.204  15.700  25.057  1.00  0.00     0.006 C 
BRANCH  13  14
ATOM     14  C   UNL     1      43.018  16.336  26.441  1.00  0.00     0.053 C 
BRANCH  14  15
ATOM     15  C   UNL     1      42.510  15.327  27.422  1.00  0.00     0.041 C 
ATOM     16  O   UNL     1      41.282  15.277  27.705  1.00  0.00    -0.550 OA
ATOM     17  O   UNL     1      43.391  14.436  28.026  1.00  0.00    -0.550 OA
ENDBRANCH  14  15
ENDBRANCH  13  14
ENDBRANCH  12  13
ENDBRANCH  11  12
ENDBRANCH  10  11
ENDBRANCH   9  10
ENDBRANCH   8   9
ENDBRANCH   7   8
ENDBRANCH   6   7
ENDBRANCH   5   6
ENDBRANCH   4   5
ENDBRANCH   3   4
ENDBRANCH   2   3
ENDBRANCH   1   2
BRANCH   1  18
ATOM     18  C   UNL     1      44.286   8.164  21.930  1.00  0.00     0.000 C 
BRANCH  18  19
ATOM     19  C   UNL     1      45.738   7.807  22.303  1.00  0.00     0.000 C 
BRANCH  19  20
ATOM     20  C   UNL     1      46.046   8.035  23.792  1.00  0.00     0.000 C 
BRANCH  20  21
ATOM     21  C   UNL     1      44.777   8.144  24.657  1.00  0.00     0.000 C 
BRANCH  21  22
ATOM     22  C   UNL     1      44.457   9.557  25.178  1.00  0.00     0.000 C 
BRANCH  22  23
ATOM     23  C   UNL     1      42.950   9.851  25.232  1.00  0.00     0.000 C 
BRANCH  23  24
ATOM     24  C   UNL     1      42.630  11.198  24.576  1.00  0.00    -0.000 C 
BRANCH  24  25
ATOM     25  C   UNL     1      42.091  12.201  25.605  1.00  0.00    -0.000 C 
BRANCH  25  26
ATOM     26  C   UNL     1      40.654  12.666  25.284  1.00  0.00    -0.000 C 
BRANCH  26  27
ATOM     27  C   UNL     1      39.644  12.401  26.416  1.00  0.00    -0.000 C 
BRANCH  27  28
ATOM     28  C   UNL     1      38.631  11.275  26.139  1.00  0.00    -0.000 C 
BRANCH  28  29
ATOM     29  C   UNL     1      39.166   9.850  26.374  1.00  0.00    -0.000 C 
BRANCH  29  30
ATOM     30  C   UNL     1      38.077   8.876  26.858  1.00  0.00    -0.000 C 
BRANCH  30  31
ATOM     31  C   UNL     1      36.677   9.267  26.363  1.00  0.00    -0.003 C 
ATOM     32  C   UNL     1      35.573   8.880  27.348  1.00  0.00     0.004 C 
ENDBRANCH  30  31
ENDBRANCH  29  30
ENDBRANCH  28  29
ENDBRANCH  27  28
ENDBRANCH  26  27
ENDBRANCH  25  26
ENDBRANCH  24  25
ENDBRANCH  23  24
ENDBRANCH  22  23
ENDBRANCH  21  22
ENDBRANCH  20  21
ENDBRANCH  19  20
ENDBRANCH  18  19
ENDBRANCH   1  18
TORSDOF 28
ENDMDL
MODEL 8
REMARK VINA RESULT:    -3.807      3.892      8.451
REMARK INTER + INTRA:         -15.695
REMARK INTER:                 -11.545
REMARK INTRA:                  -4.150
REMARK UNBOUND:                -5.655
REMARK SMILES CCCCCCCCCCCCCCCCCCCCCCCCCCCCCC(=O)[O-]
REMARK SMILES IDX 16 1 17 2 18 3 19 4 20 5 21 6 22 7 23 8 24 9 25 10 26 11
REMARK SMILES IDX 27 12 28 13 29 14 30 15 31 16 32 17 15 18 14 19 13 20 12 21
REMARK SMILES IDX 11 22 10 23 9 24 8 25 7 26 6 27 5 28 4 29 3 30 2 31 1 32
REMARK H PARENT
REMARK Flexibility Score: inf
ROOT
ATOM      1  C   UNL     1      34.510   9.234  28.229  1.00  0.00     0.000 C 
ENDROOT
BRANCH   1   2
ATOM      2  C   UNL     1      35.158   8.258  27.237  1.00  0.00     0.000 C 
BRANCH   2   3
ATOM      3  C   UNL     1      35.708   9.005  26.011  1.00  0.00     0.000 C 
BRANCH   3   4
ATOM      4  C   UNL     1      37.079   9.648  26.278  1.00  0.00     0.000 C 
BRANCH   4   5
ATOM      5  C   UNL     1      37.015  11.185  26.283  1.00  0.00     0.000 C 
BRANCH   5   6
ATOM      6  C   UNL     1      38.388  11.831  26.531  1.00  0.00     0.000 C 
BRANCH   6   7
ATOM      7  C   UNL     1      39.547  10.830  26.373  1.00  0.00     0.000 C 
BRANCH   7   8
ATOM      8  C   UNL     1      40.729  11.421  25.588  1.00  0.00     0.000 C 
BRANCH   8   9
ATOM      9  C   UNL     1      40.361  12.714  24.847  1.00  0.00     0.000 C 
BRANCH   9  10
ATOM     10  C   UNL     1      41.528  13.191  23.968  1.00  0.00     0.000 C 
BRANCH  10  11
ATOM     11  C   UNL     1      42.844  12.466  24.293  1.00  0.00     0.000 C 
BRANCH  11  12
ATOM     12  C   UNL     1      44.010  12.951  23.416  1.00  0.00     0.000 C 
BRANCH  12  13
ATOM     13  C   UNL     1      44.278  12.021  22.222  1.00  0.00     0.006 C 
BRANCH  13  14
ATOM     14  C   UNL     1      43.519  10.690  22.319  1.00  0.00     0.053 C 
BRANCH  14  15
ATOM     15  C   UNL     1      44.328   9.577  21.730  1.00  0.00     0.041 C 
ATOM     16  O   UNL     1      45.039   9.779  20.709  1.00  0.00    -0.550 OA
ATOM     17  O   UNL     1      44.300   8.313  22.309  1.00  0.00    -0.550 OA
ENDBRANCH  14  15
ENDBRANCH  13  14
ENDBRANCH  12  13
ENDBRANCH  11  12
ENDBRANCH  10  11
ENDBRANCH   9  10
ENDBRANCH   8   9
ENDBRANCH   7   8
ENDBRANCH   6   7
ENDBRANCH   5   6
ENDBRANCH   4   5
ENDBRANCH   3   4
ENDBRANCH   2   3
ENDBRANCH   1   2
BRANCH   1  18
ATOM     18  C   UNL     1      35.374   9.483  29.480  1.00  0.00     0.000 C 
BRANCH  18  19
ATOM     19  C   UNL     1      35.539  10.962  29.879  1.00  0.00     0.000 C 
BRANCH  19  20
ATOM     20  C   UNL     1      34.244  11.774  29.710  1.00  0.00     0.000 C 
BRANCH  20  21
ATOM     21  C   UNL     1      34.499  13.282  29.536  1.00  0.00     0.000 C 
BRANCH  21  22
ATOM     22  C   UNL     1      35.912  13.657  29.055  1.00  0.00     0.000 C 
BRANCH  22  23
ATOM     23  C   UNL     1      35.909  14.451  27.740  1.00  0.00     0.000 C 
BRANCH  23  24
ATOM     24  C   UNL     1      35.133  15.764  27.893  1.00  0.00    -0.000 C 
BRANCH  24  25
ATOM     25  C   UNL     1      35.914  16.771  28.749  1.00  0.00    -0.000 C 
BRANCH  25  26
ATOM     26  C   UNL     1      37.294  17.117  28.147  1.00  0.00    -0.000 C 
BRANCH  26  27
ATOM     27  C   UNL     1      38.452  17.049  29.160  1.00  0.00    -0.000 C 
BRANCH  27  28
ATOM     28  C   UNL     1      39.164  15.687  29.250  1.00  0.00    -0.000 C 
BRANCH  28  29
ATOM     29  C   UNL     1      39.491  15.035  27.893  1.00  0.00    -0.000 C 
BRANCH  29  30
ATOM     30  C   UNL     1      40.915  14.456  27.836  1.00  0.00    -0.000 C 
BRANCH  30  31
ATOM     31  C   UNL     1      41.987  15.546  27.695  1.00  0.00    -0.003 C 
ATOM     32  C   UNL     1      42.222  15.958  26.241  1.00  0.00     0.004 C 
ENDBRANCH  30  31
ENDBRANCH  29  30
ENDBRANCH  28  29
ENDBRANCH  27  28
ENDBRANCH  26  27
ENDBRANCH  25  26
ENDBRANCH  24  25
ENDBRANCH  23  24
ENDBRANCH  22  23
ENDBRANCH  21  22
ENDBRANCH  20  21
ENDBRANCH  19  20
ENDBRANCH  18  19
ENDBRANCH   1  18
TORSDOF 28
ENDMDL
MODEL 9
REMARK VINA RESULT:    -3.775      3.413      6.903
REMARK INTER + INTRA:         -15.608
REMARK INTER:                 -10.576
REMARK INTRA:                  -5.032
REMARK UNBOUND:                -5.655
REMARK SMILES CCCCCCCCCCCCCCCCCCCCCCCCCCCCCC(=O)[O-]
REMARK SMILES IDX 16 1 17 2 18 3 19 4 20 5 21 6 22 7 23 8 24 9 25 10 26 11
REMARK SMILES IDX 27 12 28 13 29 14 30 15 31 16 32 17 15 18 14 19 13 20 12 21
REMARK SMILES IDX 11 22 10 23 9 24 8 25 7 26 6 27 5 28 4 29 3 30 2 31 1 32
REMARK H PARENT
REMARK Flexibility Score: inf
ROOT
ATOM      1  C   UNL     1      35.229  14.772  28.559  1.00  0.00     0.000 C 
ENDROOT
BRANCH   1   2
ATOM      2  C   UNL     1      35.991  13.653  27.834  1.00  0.00     0.000 C 
BRANCH   2   3
ATOM      3  C   UNL     1      36.476  12.585  28.827  1.00  0.00     0.000 C 
BRANCH   3   4
ATOM      4  C   UNL     1      37.371  11.525  28.163  1.00  0.00     0.000 C 
BRANCH   4   5
ATOM      5  C   UNL     1      37.298  11.576  26.627  1.00  0.00     0.000 C 
BRANCH   5   6
ATOM      6  C   UNL     1      38.688  11.546  25.971  1.00  0.00     0.000 C 
BRANCH   6   7
ATOM      7  C   UNL     1      39.509  10.312  26.386  1.00  0.00     0.000 C 
BRANCH   7   8
ATOM      8  C   UNL     1      41.008  10.478  26.089  1.00  0.00     0.000 C 
BRANCH   8   9
ATOM      9  C   UNL     1      41.868  10.471  27.361  1.00  0.00     0.000 C 
BRANCH   9  10
ATOM     10  C   UNL     1      43.200   9.744  27.116  1.00  0.00     0.000 C 
BRANCH  10  11
ATOM     11  C   UNL     1      43.519   9.590  25.619  1.00  0.00     0.000 C 
BRANCH  11  12
ATOM     12  C   UNL     1      44.568   8.496  25.356  1.00  0.00     0.000 C 
BRANCH  12  13
ATOM     13  C   UNL     1      44.955   8.393  23.872  1.00  0.00     0.006 C 
BRANCH  13  14
ATOM     14  C   UNL     1      44.095   9.286  22.967  1.00  0.00     0.053 C 
BRANCH  14  15
ATOM     15  C   UNL     1      44.149   8.808  21.550  1.00  0.00     0.041 C 
ATOM     16  O   UNL     1      44.821   9.441  20.691  1.00  0.00    -0.550 OA
ATOM     17  O   UNL     1      43.458   7.661  21.174  1.00  0.00    -0.550 OA
ENDBRANCH  14  15
ENDBRANCH  13  14
ENDBRANCH  12  13
ENDBRANCH  11  12
ENDBRANCH  10  11
ENDBRANCH   9  10
ENDBRANCH   8   9
ENDBRANCH   7   8
ENDBRANCH   6   7
ENDBRANCH   5   6
ENDBRANCH   4   5
ENDBRANCH   3   4
ENDBRANCH   2   3
ENDBRANCH   1   2
BRANCH   1  18
ATOM     18  C   UNL     1      34.899  15.966  27.644  1.00  0.00     0.000 C 
BRANCH  18  19
ATOM     19  C   UNL     1      35.754  17.227  27.878  1.00  0.00     0.000 C 
BRANCH  19  20
ATOM     20  C   UNL     1      36.757  17.062  29.032  1.00  0.00     0.000 C 
BRANCH  20  21
ATOM     21  C   UNL     1      38.221  17.040  28.557  1.00  0.00     0.000 C 
BRANCH  21  22
ATOM     22  C   UNL     1      39.017  15.780  28.939  1.00  0.00     0.000 C 
BRANCH  22  23
ATOM     23  C   UNL     1      39.242  14.827  27.755  1.00  0.00     0.000 C 
BRANCH  23  24
ATOM     24  C   UNL     1      40.503  13.981  27.964  1.00  0.00    -0.000 C 
BRANCH  24  25
ATOM     25  C   UNL     1      41.466  14.121  26.777  1.00  0.00    -0.000 C 
BRANCH  25  26
ATOM     26  C   UNL     1      41.070  15.270  25.825  1.00  0.00    -0.000 C 
BRANCH  26  27
ATOM     27  C   UNL     1      41.228  14.926  24.331  1.00  0.00    -0.000 C 
BRANCH  27  28
ATOM     28  C   UNL     1      41.168  13.425  23.996  1.00  0.00    -0.000 C 
BRANCH  28  29
ATOM     29  C   UNL     1      42.260  12.932  23.028  1.00  0.00    -0.000 C 
BRANCH  29  30
ATOM     30  C   UNL     1      43.577  13.715  23.164  1.00  0.00    -0.000 C 
BRANCH  30  31
ATOM     31  C   UNL     1      44.676  12.898  23.860  1.00  0.00    -0.003 C 
ATOM     32  C   UNL     1      44.662  13.064  25.380  1.00  0.00     0.004 C 
ENDBRANCH  30  31
ENDBRANCH  29  30
ENDBRANCH  28  29
ENDBRANCH  27  28
ENDBRANCH  26  27
ENDBRANCH  25  26
ENDBRANCH  24  25
ENDBRANCH  23  24
ENDBRANCH  22  23
ENDBRANCH  21  22
ENDBRANCH  20  21
ENDBRANCH  19  20
ENDBRANCH  18  19
ENDBRANCH   1  18
TORSDOF 28
ENDMDL
