MODEL 1
REMARK VINA RESULT:    -5.691      0.000      0.000
REMARK INTER + INTRA:          -6.190
REMARK INTER:                  -6.190
REMARK INTRA:                   0.000
REMARK UNBOUND:                 0.000
REMARK SMILES Cc1cc(O)c2c(c1)C(=O)c1cc(O)cc(O)c1C2=O
REMARK SMILES IDX 1 1 2 2 8 3 7 4 6 5 4 6 3 7 19 8 20 9 18 10 11 11 9 12 10 13
REMARK SMILES IDX 12 14 13 15 15 16 16 17 5 18 17 20 14 22
REMARK H PARENT 5 19 17 21 14 23
REMARK Flexibility Score: inf
ROOT
ATOM      1  C   UNL     1      21.776   9.357  24.468  1.00  0.00     0.044 C 
ATOM      2  C   UNL     1      21.858   7.885  24.191  1.00  0.00    -0.047 A 
ATOM      3  C   UNL     1      23.104   7.258  24.084  1.00  0.00     0.016 A 
ATOM      4  C   UNL     1      23.193   5.889  23.780  1.00  0.00     0.038 A 
ATOM      5  C   UNL     1      22.016   5.141  23.552  1.00  0.00     0.076 A 
ATOM      6  C   UNL     1      20.755   5.772  23.706  1.00  0.00     0.127 A 
ATOM      7  C   UNL     1      20.692   7.139  23.989  1.00  0.00     0.050 A 
ATOM      8  C   UNL     1      22.156   3.735  23.090  1.00  0.00     0.201 C 
ATOM      9  O   UNL     1      21.270   3.227  22.353  1.00  0.00    -0.288 OA
ATOM     10  C   UNL     1      23.423   3.000  23.337  1.00  0.00     0.076 A 
ATOM     11  C   UNL     1      24.598   3.751  23.564  1.00  0.00     0.041 A 
ATOM     12  C   UNL     1      24.516   5.225  23.701  1.00  0.00     0.194 C 
ATOM     13  O   UNL     1      25.573   5.911  23.775  1.00  0.00    -0.289 OA
ATOM     14  C   UNL     1      25.837   3.098  23.665  1.00  0.00     0.059 A 
ATOM     15  C   UNL     1      25.917   1.707  23.558  1.00  0.00     0.120 A 
ATOM     16  C   UNL     1      24.755   0.958  23.374  1.00  0.00     0.093 A 
ATOM     17  C   UNL     1      23.506   1.583  23.291  1.00  0.00     0.131 A 
ENDROOT
BRANCH   6  18
ATOM     18  O   UNL     1      19.547   5.076  23.620  1.00  0.00    -0.507 OA
ATOM     19  H   UNL     1      18.641   5.515  23.708  1.00  0.00     0.293 HD
ENDBRANCH   6  18
BRANCH  17  20
ATOM     20  O   UNL     1      22.380   0.763  23.198  1.00  0.00    -0.507 OA
ATOM     21  H   UNL     1      22.278  -0.106  23.704  1.00  0.00     0.293 HD
ENDBRANCH  17  20
BRANCH  15  22
ATOM     22  O   UNL     1      27.146   1.056  23.645  1.00  0.00    -0.508 OA
ATOM     23  H   UNL     1      28.000   1.561  23.850  1.00  0.00     0.293 HD
ENDBRANCH  15  22
TORSDOF 3
ENDMDL
MODEL 2
REMARK VINA RESULT:    -5.599     11.316     13.987
REMARK INTER + INTRA:          -6.090
REMARK INTER:                  -6.090
REMARK INTRA:                   0.000
REMARK UNBOUND:                 0.000
REMARK SMILES Cc1cc(O)c2c(c1)C(=O)c1cc(O)cc(O)c1C2=O
REMARK SMILES IDX 1 1 2 2 8 3 7 4 6 5 4 6 3 7 19 8 20 9 18 10 11 11 9 12 10 13
REMARK SMILES IDX 12 14 13 15 15 16 16 17 5 18 17 20 14 22
REMARK H PARENT 5 19 17 21 14 23
REMARK Flexibility Score: inf
ROOT
ATOM      1  C   UNL     1      22.444 -10.125  24.748  1.00  0.00     0.044 C 
ATOM      2  C   UNL     1      21.413  -9.048  24.575  1.00  0.00    -0.047 A 
ATOM      3  C   UNL     1      20.083  -9.385  24.301  1.00  0.00     0.016 A 
ATOM      4  C   UNL     1      19.120  -8.383  24.094  1.00  0.00     0.038 A 
ATOM      5  C   UNL     1      19.498  -7.023  24.134  1.00  0.00     0.076 A 
ATOM      6  C   UNL     1      20.839  -6.687  24.456  1.00  0.00     0.127 A 
ATOM      7  C   UNL     1      21.784  -7.701  24.639  1.00  0.00     0.050 A 
ATOM      8  C   UNL     1      18.485  -6.001  23.764  1.00  0.00     0.201 C 
ATOM      9  O   UNL     1      18.851  -4.918  23.235  1.00  0.00    -0.288 OA
ATOM     10  C   UNL     1      17.039  -6.334  23.842  1.00  0.00     0.076 A 
ATOM     11  C   UNL     1      16.664  -7.695  23.802  1.00  0.00     0.041 A 
ATOM     12  C   UNL     1      17.706  -8.748  23.836  1.00  0.00     0.194 C 
ATOM     13  O   UNL     1      17.386  -9.958  23.671  1.00  0.00    -0.289 OA
ATOM     14  C   UNL     1      15.305  -8.044  23.735  1.00  0.00     0.059 A 
ATOM     15  C   UNL     1      14.318  -7.055  23.724  1.00  0.00     0.120 A 
ATOM     16  C   UNL     1      14.682  -5.712  23.805  1.00  0.00     0.093 A 
ATOM     17  C   UNL     1      16.028  -5.338  23.892  1.00  0.00     0.131 A 
ENDROOT
BRANCH   6  18
ATOM     18  O   UNL     1      21.265  -5.370  24.636  1.00  0.00    -0.507 OA
ATOM     19  H   UNL     1      22.066  -4.971  24.167  1.00  0.00     0.293 HD
ENDBRANCH   6  18
BRANCH  17  20
ATOM     20  O   UNL     1      16.310  -3.982  24.062  1.00  0.00    -0.507 OA
ATOM     21  H   UNL     1      16.495  -3.557  24.960  1.00  0.00     0.293 HD
ENDBRANCH  17  20
BRANCH  15  22
ATOM     22  O   UNL     1      12.969  -7.397  23.645  1.00  0.00    -0.508 OA
ATOM     23  H   UNL     1      12.603  -8.219  24.111  1.00  0.00     0.293 HD
ENDBRANCH  15  22
TORSDOF 3
ENDMDL
MODEL 3
REMARK VINA RESULT:    -5.414     10.922     12.874
REMARK INTER + INTRA:          -5.888
REMARK INTER:                  -5.888
REMARK INTRA:                   0.000
REMARK UNBOUND:                 0.000
REMARK SMILES Cc1cc(O)c2c(c1)C(=O)c1cc(O)cc(O)c1C2=O
REMARK SMILES IDX 1 1 2 2 8 3 7 4 6 5 4 6 3 7 19 8 20 9 18 10 11 11 9 12 10 13
REMARK SMILES IDX 12 14 13 15 15 16 16 17 5 18 17 20 14 22
REMARK H PARENT 5 19 17 21 14 23
REMARK Flexibility Score: inf
ROOT
ATOM      1  C   UNL     1      12.471  -7.126  23.263  1.00  0.00     0.044 C 
ATOM      2  C   UNL     1      13.911  -6.706  23.275  1.00  0.00    -0.047 A 
ATOM      3  C   UNL     1      14.876  -7.519  23.877  1.00  0.00     0.016 A 
ATOM      4  C   UNL     1      16.221  -7.114  23.933  1.00  0.00     0.038 A 
ATOM      5  C   UNL     1      16.601  -5.861  23.402  1.00  0.00     0.076 A 
ATOM      6  C   UNL     1      15.626  -5.060  22.753  1.00  0.00     0.127 A 
ATOM      7  C   UNL     1      14.291  -5.476  22.727  1.00  0.00     0.050 A 
ATOM      8  C   UNL     1      18.000  -5.405  23.611  1.00  0.00     0.201 C 
ATOM      9  O   UNL     1      18.251  -4.174  23.700  1.00  0.00    -0.288 OA
ATOM     10  C   UNL     1      19.064  -6.400  23.905  1.00  0.00     0.076 A 
ATOM     11  C   UNL     1      18.680  -7.651  24.436  1.00  0.00     0.041 A 
ATOM     12  C   UNL     1      17.243  -7.997  24.544  1.00  0.00     0.194 C 
ATOM     13  O   UNL     1      16.891  -9.056  25.134  1.00  0.00    -0.289 OA
ATOM     14  C   UNL     1      19.663  -8.564  24.854  1.00  0.00     0.059 A 
ATOM     15  C   UNL     1      21.019  -8.251  24.735  1.00  0.00     0.120 A 
ATOM     16  C   UNL     1      21.402  -7.033  24.174  1.00  0.00     0.093 A 
ATOM     17  C   UNL     1      20.444  -6.115  23.732  1.00  0.00     0.131 A 
ENDROOT
BRANCH   6  18
ATOM     18  O   UNL     1      15.942  -3.870  22.096  1.00  0.00    -0.507 OA
ATOM     19  H   UNL     1      16.473  -3.121  22.519  1.00  0.00     0.293 HD
ENDBRANCH   6  18
BRANCH  17  20
ATOM     20  O   UNL     1      20.903  -4.958  23.098  1.00  0.00    -0.507 OA
ATOM     21  H   UNL     1      20.397  -4.084  23.096  1.00  0.00     0.293 HD
ENDBRANCH  17  20
BRANCH  15  22
ATOM     22  O   UNL     1      21.996  -9.148  25.161  1.00  0.00    -0.508 OA
ATOM     23  H   UNL     1      21.963 -10.128  24.905  1.00  0.00     0.293 HD
ENDBRANCH  15  22
TORSDOF 3
ENDMDL
MODEL 4
REMARK VINA RESULT:    -5.397     10.510     12.367
REMARK INTER + INTRA:          -5.870
REMARK INTER:                  -5.870
REMARK INTRA:                   0.000
REMARK UNBOUND:                 0.000
REMARK SMILES Cc1cc(O)c2c(c1)C(=O)c1cc(O)cc(O)c1C2=O
REMARK SMILES IDX 1 1 2 2 8 3 7 4 6 5 4 6 3 7 19 8 20 9 18 10 11 11 9 12 10 13
REMARK SMILES IDX 12 14 13 15 15 16 16 17 5 18 17 20 14 22
REMARK H PARENT 5 19 17 21 14 23
REMARK Flexibility Score: inf
ROOT
ATOM      1  C   UNL     1      14.716  -0.850  23.714  1.00  0.00     0.044 C 
ATOM      2  C   UNL     1      14.844  -2.340  23.829  1.00  0.00    -0.047 A 
ATOM      3  C   UNL     1      16.097  -2.951  23.708  1.00  0.00     0.016 A 
ATOM      4  C   UNL     1      16.221  -4.349  23.771  1.00  0.00     0.038 A 
ATOM      5  C   UNL     1      15.069  -5.151  23.927  1.00  0.00     0.076 A 
ATOM      6  C   UNL     1      13.807  -4.525  24.093  1.00  0.00     0.127 A 
ATOM      7  C   UNL     1      13.706  -3.133  24.009  1.00  0.00     0.050 A 
ATOM      8  C   UNL     1      15.224  -6.627  23.840  1.00  0.00     0.201 C 
ATOM      9  O   UNL     1      14.275  -7.332  23.404  1.00  0.00    -0.288 OA
ATOM     10  C   UNL     1      16.553  -7.245  24.082  1.00  0.00     0.076 A 
ATOM     11  C   UNL     1      17.702  -6.440  23.924  1.00  0.00     0.041 A 
ATOM     12  C   UNL     1      17.556  -4.986  23.675  1.00  0.00     0.194 C 
ATOM     13  O   UNL     1      18.572  -4.286  23.406  1.00  0.00    -0.289 OA
ATOM     14  C   UNL     1      18.980  -7.019  24.010  1.00  0.00     0.059 A 
ATOM     15  C   UNL     1      19.123  -8.386  24.266  1.00  0.00     0.120 A 
ATOM     16  C   UNL     1      17.991  -9.176  24.462  1.00  0.00     0.093 A 
ATOM     17  C   UNL     1      16.709  -8.620  24.402  1.00  0.00     0.131 A 
ENDROOT
BRANCH   6  18
ATOM     18  O   UNL     1      12.640  -5.239  24.376  1.00  0.00    -0.507 OA
ATOM     19  H   UNL     1      12.451  -6.166  24.019  1.00  0.00     0.293 HD
ENDBRANCH   6  18
BRANCH  17  20
ATOM     20  O   UNL     1      15.630  -9.454  24.699  1.00  0.00    -0.507 OA
ATOM     21  H   UNL     1      15.611 -10.082  25.491  1.00  0.00     0.293 HD
ENDBRANCH  17  20
BRANCH  15  22
ATOM     22  O   UNL     1      20.388  -8.966  24.339  1.00  0.00    -0.508 OA
ATOM     23  H   UNL     1      20.646  -9.749  23.750  1.00  0.00     0.293 HD
ENDBRANCH  15  22
TORSDOF 3
ENDMDL
MODEL 5
REMARK VINA RESULT:    -5.367     10.118     12.444
REMARK INTER + INTRA:          -5.838
REMARK INTER:                  -5.838
REMARK INTRA:                   0.000
REMARK UNBOUND:                 0.000
REMARK SMILES Cc1cc(O)c2c(c1)C(=O)c1cc(O)cc(O)c1C2=O
REMARK SMILES IDX 1 1 2 2 8 3 7 4 6 5 4 6 3 7 19 8 20 9 18 10 11 11 9 12 10 13
REMARK SMILES IDX 12 14 13 15 15 16 16 17 5 18 17 20 14 22
REMARK H PARENT 5 19 17 21 14 23
REMARK Flexibility Score: inf
ROOT
ATOM      1  C   UNL     1      11.413  -6.771  23.645  1.00  0.00     0.044 C 
ATOM      2  C   UNL     1      12.740  -6.074  23.695  1.00  0.00    -0.047 A 
ATOM      3  C   UNL     1      13.922  -6.795  23.492  1.00  0.00     0.016 A 
ATOM      4  C   UNL     1      15.172  -6.160  23.580  1.00  0.00     0.038 A 
ATOM      5  C   UNL     1      15.243  -4.787  23.904  1.00  0.00     0.076 A 
ATOM      6  C   UNL     1      14.040  -4.051  24.064  1.00  0.00     0.127 A 
ATOM      7  C   UNL     1      12.809  -4.709  23.991  1.00  0.00     0.050 A 
ATOM      8  C   UNL     1      16.583  -4.187  24.132  1.00  0.00     0.201 C 
ATOM      9  O   UNL     1      16.711  -3.224  24.935  1.00  0.00    -0.288 OA
ATOM     10  C   UNL     1      17.791  -4.842  23.566  1.00  0.00     0.076 A 
ATOM     11  C   UNL     1      17.716  -6.215  23.244  1.00  0.00     0.041 A 
ATOM     12  C   UNL     1      16.418  -6.925  23.332  1.00  0.00     0.194 C 
ATOM     13  O   UNL     1      16.370  -8.176  23.171  1.00  0.00    -0.289 OA
ATOM     14  C   UNL     1      18.873  -6.902  22.836  1.00  0.00     0.059 A 
ATOM     15  C   UNL     1      20.095  -6.232  22.731  1.00  0.00     0.120 A 
ATOM     16  C   UNL     1      20.164  -4.868  23.009  1.00  0.00     0.093 A 
ATOM     17  C   UNL     1      19.023  -4.157  23.398  1.00  0.00     0.131 A 
ENDROOT
BRANCH   6  18
ATOM     18  O   UNL     1      14.021  -2.669  24.262  1.00  0.00    -0.507 OA
ATOM     19  H   UNL     1      13.930  -2.235  25.170  1.00  0.00     0.293 HD
ENDBRANCH   6  18
BRANCH  17  20
ATOM     20  O   UNL     1      19.151  -2.778  23.570  1.00  0.00    -0.507 OA
ATOM     21  H   UNL     1      19.289  -2.338  24.469  1.00  0.00     0.293 HD
ENDBRANCH  17  20
BRANCH  15  22
ATOM     22  O   UNL     1      21.247  -6.913  22.339  1.00  0.00    -0.508 OA
ATOM     23  H   UNL     1      21.413  -7.158  21.371  1.00  0.00     0.293 HD
ENDBRANCH  15  22
TORSDOF 3
ENDMDL
MODEL 6
REMARK VINA RESULT:    -5.266     10.545     13.319
REMARK INTER + INTRA:          -5.728
REMARK INTER:                  -5.728
REMARK INTRA:                   0.000
REMARK UNBOUND:                 0.000
REMARK SMILES Cc1cc(O)c2c(c1)C(=O)c1cc(O)cc(O)c1C2=O
REMARK SMILES IDX 1 1 2 2 8 3 7 4 6 5 4 6 3 7 19 8 20 9 18 10 11 11 9 12 10 13
REMARK SMILES IDX 12 14 13 15 15 16 16 17 5 18 17 20 14 22
REMARK H PARENT 5 19 17 21 14 23
REMARK Flexibility Score: inf
ROOT
ATOM      1  C   UNL     1      20.860  -4.463  23.310  1.00  0.00     0.044 C 
ATOM      2  C   UNL     1      19.470  -5.026  23.359  1.00  0.00    -0.047 A 
ATOM      3  C   UNL     1      18.375  -4.180  23.570  1.00  0.00     0.016 A 
ATOM      4  C   UNL     1      17.074  -4.703  23.661  1.00  0.00     0.038 A 
ATOM      5  C   UNL     1      16.868  -6.098  23.569  1.00  0.00     0.076 A 
ATOM      6  C   UNL     1      17.976  -6.945  23.311  1.00  0.00     0.127 A 
ATOM      7  C   UNL     1      19.263  -6.404  23.243  1.00  0.00     0.050 A 
ATOM      8  C   UNL     1      15.500  -6.623  23.818  1.00  0.00     0.201 C 
ATOM      9  O   UNL     1      15.350  -7.774  24.308  1.00  0.00    -0.288 OA
ATOM     10  C   UNL     1      14.326  -5.724  23.670  1.00  0.00     0.076 A 
ATOM     11  C   UNL     1      14.537  -4.331  23.763  1.00  0.00     0.041 A 
ATOM     12  C   UNL     1      15.916  -3.797  23.852  1.00  0.00     0.194 C 
ATOM     13  O   UNL     1      16.105  -2.567  24.064  1.00  0.00    -0.289 OA
ATOM     14  C   UNL     1      13.437  -3.456  23.766  1.00  0.00     0.059 A 
ATOM     15  C   UNL     1      12.135  -3.954  23.662  1.00  0.00     0.120 A 
ATOM     16  C   UNL     1      11.926  -5.326  23.529  1.00  0.00     0.093 A 
ATOM     17  C   UNL     1      13.004  -6.216  23.504  1.00  0.00     0.131 A 
ENDROOT
BRANCH   6  18
ATOM     18  O   UNL     1      17.841  -8.317  23.084  1.00  0.00    -0.507 OA
ATOM     19  H   UNL     1      18.072  -9.023  23.769  1.00  0.00     0.293 HD
ENDBRANCH   6  18
BRANCH  17  20
ATOM     20  O   UNL     1      12.722  -7.564  23.277  1.00  0.00    -0.507 OA
ATOM     21  H   UNL     1      12.794  -8.278  23.989  1.00  0.00     0.293 HD
ENDBRANCH  17  20
BRANCH  15  22
ATOM     22  O   UNL     1      11.041  -3.090  23.677  1.00  0.00    -0.508 OA
ATOM     23  H   UNL     1      10.813  -2.538  24.495  1.00  0.00     0.293 HD
ENDBRANCH  15  22
TORSDOF 3
ENDMDL
MODEL 7
REMARK VINA RESULT:    -5.204     11.310     14.158
REMARK INTER + INTRA:          -5.660
REMARK INTER:                  -5.660
REMARK INTRA:                   0.000
REMARK UNBOUND:                 0.000
REMARK SMILES Cc1cc(O)c2c(c1)C(=O)c1cc(O)cc(O)c1C2=O
REMARK SMILES IDX 1 1 2 2 8 3 7 4 6 5 4 6 3 7 19 8 20 9 18 10 11 11 9 12 10 13
REMARK SMILES IDX 12 14 13 15 15 16 16 17 5 18 17 20 14 22
REMARK H PARENT 5 19 17 21 14 23
REMARK Flexibility Score: inf
ROOT
ATOM      1  C   UNL     1      17.246 -10.108  25.271  1.00  0.00     0.044 C 
ATOM      2  C   UNL     1      17.009  -8.737  24.707  1.00  0.00    -0.047 A 
ATOM      3  C   UNL     1      15.712  -8.322  24.388  1.00  0.00     0.016 A 
ATOM      4  C   UNL     1      15.485  -7.057  23.820  1.00  0.00     0.038 A 
ATOM      5  C   UNL     1      16.577  -6.206  23.539  1.00  0.00     0.076 A 
ATOM      6  C   UNL     1      17.885  -6.614  23.905  1.00  0.00     0.127 A 
ATOM      7  C   UNL     1      18.088  -7.885  24.452  1.00  0.00     0.050 A 
ATOM      8  C   UNL     1      16.311  -4.942  22.803  1.00  0.00     0.201 C 
ATOM      9  O   UNL     1      17.196  -4.457  22.049  1.00  0.00    -0.288 OA
ATOM     10  C   UNL     1      14.944  -4.359  22.809  1.00  0.00     0.076 A 
ATOM     11  C   UNL     1      13.855  -5.214  23.090  1.00  0.00     0.041 A 
ATOM     12  C   UNL     1      14.104  -6.611  23.515  1.00  0.00     0.194 C 
ATOM     13  O   UNL     1      13.139  -7.415  23.642  1.00  0.00    -0.289 OA
ATOM     14  C   UNL     1      12.540  -4.733  22.970  1.00  0.00     0.059 A 
ATOM     15  C   UNL     1      12.300  -3.410  22.589  1.00  0.00     0.120 A 
ATOM     16  C   UNL     1      13.373  -2.553  22.350  1.00  0.00     0.093 A 
ATOM     17  C   UNL     1      14.691  -3.000  22.482  1.00  0.00     0.131 A 
ENDROOT
BRANCH   6  18
ATOM     18  O   UNL     1      19.000  -5.783  23.775  1.00  0.00    -0.507 OA
ATOM     19  H   UNL     1      19.940  -6.126  23.634  1.00  0.00     0.293 HD
ENDBRANCH   6  18
BRANCH  17  20
ATOM     20  O   UNL     1      15.711  -2.061  22.316  1.00  0.00    -0.507 OA
ATOM     21  H   UNL     1      16.260  -1.976  21.472  1.00  0.00     0.293 HD
ENDBRANCH  17  20
BRANCH  15  22
ATOM     22  O   UNL     1      10.997  -2.934  22.457  1.00  0.00    -0.508 OA
ATOM     23  H   UNL     1      10.563  -2.371  23.178  1.00  0.00     0.293 HD
ENDBRANCH  15  22
TORSDOF 3
ENDMDL
MODEL 8
REMARK VINA RESULT:    -5.134      9.856     12.728
REMARK INTER + INTRA:          -5.584
REMARK INTER:                  -5.584
REMARK INTRA:                   0.000
REMARK UNBOUND:                 0.000
REMARK SMILES Cc1cc(O)c2c(c1)C(=O)c1cc(O)cc(O)c1C2=O
REMARK SMILES IDX 1 1 2 2 8 3 7 4 6 5 4 6 3 7 19 8 20 9 18 10 11 11 9 12 10 13
REMARK SMILES IDX 12 14 13 15 15 16 16 17 5 18 17 20 14 22
REMARK H PARENT 5 19 17 21 14 23
REMARK Flexibility Score: inf
ROOT
ATOM      1  C   UNL     1      20.770  -9.161  24.577  1.00  0.00     0.044 C 
ATOM      2  C   UNL     1      20.092  -7.853  24.291  1.00  0.00    -0.047 A 
ATOM      3  C   UNL     1      18.697  -7.762  24.325  1.00  0.00     0.016 A 
ATOM      4  C   UNL     1      18.051  -6.552  24.016  1.00  0.00     0.038 A 
ATOM      5  C   UNL     1      18.813  -5.424  23.639  1.00  0.00     0.076 A 
ATOM      6  C   UNL     1      20.229  -5.511  23.649  1.00  0.00     0.127 A 
ATOM      7  C   UNL     1      20.848  -6.730  23.941  1.00  0.00     0.050 A 
ATOM      8  C   UNL     1      18.089  -4.211  23.178  1.00  0.00     0.201 C 
ATOM      9  O   UNL     1      18.625  -3.444  22.333  1.00  0.00    -0.288 OA
ATOM     10  C   UNL     1      16.669  -4.007  23.565  1.00  0.00     0.076 A 
ATOM     11  C   UNL     1      15.911  -5.137  23.941  1.00  0.00     0.041 A 
ATOM     12  C   UNL     1      16.573  -6.455  24.087  1.00  0.00     0.194 C 
ATOM     13  O   UNL     1      15.881  -7.490  24.296  1.00  0.00    -0.289 OA
ATOM     14  C   UNL     1      14.532  -5.006  24.181  1.00  0.00     0.059 A 
ATOM     15  C   UNL     1      13.907  -3.762  24.066  1.00  0.00     0.120 A 
ATOM     16  C   UNL     1      14.660  -2.636  23.734  1.00  0.00     0.093 A 
ATOM     17  C   UNL     1      16.037  -2.736  23.510  1.00  0.00     0.131 A 
ENDROOT
BRANCH   6  18
ATOM     18  O   UNL     1      21.054  -4.410  23.410  1.00  0.00    -0.507 OA
ATOM     19  H   UNL     1      21.600  -3.953  24.127  1.00  0.00     0.293 HD
ENDBRANCH   6  18
BRANCH  17  20
ATOM     20  O   UNL     1      16.739  -1.553  23.272  1.00  0.00    -0.507 OA
ATOM     21  H   UNL     1      16.862  -0.827  23.964  1.00  0.00     0.293 HD
ENDBRANCH  17  20
BRANCH  15  22
ATOM     22  O   UNL     1      12.538  -3.631  24.290  1.00  0.00    -0.508 OA
ATOM     23  H   UNL     1      11.886  -4.362  24.032  1.00  0.00     0.293 HD
ENDBRANCH  15  22
TORSDOF 3
ENDMDL
