MODEL 1
REMARK VINA RESULT:    -3.643      0.000      0.000
REMARK INTER + INTRA:          -4.228
REMARK INTER:                  -4.175
REMARK INTRA:                  -0.053
REMARK UNBOUND:                -0.053
REMARK SMILES CC(C)[C@H]([NH3+])C(=O)[O-]
REMARK SMILES IDX 4 1 5 2 6 6 7 7 8 8 2 9 1 10 3 11
REMARK H PARENT 5 3 5 4 5 5
REMARK Flexibility Score: inf
ROOT
ATOM      1  C   UNL     1     -15.473 -23.995   7.334  1.00  0.00     0.230 C 
ENDROOT
BRANCH   1   2
ATOM      2  N   UNL     1     -14.555 -23.460   8.353  1.00  0.00    -0.350 N 
ATOM      3  H   UNL     1     -15.047 -22.815   9.011  1.00  0.00     0.345 HD
ATOM      4  H   UNL     1     -13.785 -22.930   7.882  1.00  0.00     0.345 HD
ATOM      5  H   UNL     1     -14.116 -24.239   8.893  1.00  0.00     0.345 HD
ENDBRANCH   1   2
BRANCH   1   6
ATOM      6  C   UNL     1     -15.417 -23.172   6.071  1.00  0.00     0.099 C 
ATOM      7  O   UNL     1     -14.481 -22.350   5.874  1.00  0.00    -0.544 OA
ATOM      8  O   UNL     1     -16.434 -23.283   5.131  1.00  0.00    -0.544 OA
ENDBRANCH   1   6
BRANCH   1   9
ATOM      9  C   UNL     1     -16.940 -24.130   7.844  1.00  0.00     0.047 C 
ATOM     10  C   UNL     1     -17.353 -25.600   8.017  1.00  0.00     0.014 C 
ATOM     11  C   UNL     1     -17.216 -23.347   9.139  1.00  0.00     0.014 C 
ENDBRANCH   1   9
TORSDOF 3
ENDMDL
MODEL 2
REMARK VINA RESULT:    -3.634      2.522      3.344
REMARK INTER + INTRA:          -4.218
REMARK INTER:                  -4.169
REMARK INTRA:                  -0.048
REMARK UNBOUND:                -0.053
REMARK SMILES CC(C)[C@H]([NH3+])C(=O)[O-]
REMARK SMILES IDX 4 1 5 2 6 6 7 7 8 8 2 9 1 10 3 11
REMARK H PARENT 5 3 5 4 5 5
REMARK Flexibility Score: inf
ROOT
ATOM      1  C   UNL     1     -16.787 -23.075   9.117  1.00  0.00     0.230 C 
ENDROOT
BRANCH   1   2
ATOM      2  N   UNL     1     -17.333 -23.733  10.316  1.00  0.00    -0.350 N 
ATOM      3  H   UNL     1     -18.358 -23.911  10.222  1.00  0.00     0.345 HD
ATOM      4  H   UNL     1     -17.178 -23.119  11.149  1.00  0.00     0.345 HD
ATOM      5  H   UNL     1     -16.839 -24.636  10.494  1.00  0.00     0.345 HD
ENDBRANCH   1   2
BRANCH   1   6
ATOM      6  C   UNL     1     -17.595 -21.854   8.756  1.00  0.00     0.099 C 
ATOM      7  O   UNL     1     -18.778 -21.961   8.333  1.00  0.00    -0.544 OA
ATOM      8  O   UNL     1     -17.015 -20.595   8.843  1.00  0.00    -0.544 OA
ENDBRANCH   1   6
BRANCH   1   9
ATOM      9  C   UNL     1     -16.659 -24.038   7.897  1.00  0.00     0.047 C 
ATOM     10  C   UNL     1     -15.202 -24.180   7.431  1.00  0.00     0.014 C 
ATOM     11  C   UNL     1     -17.275 -25.425   8.140  1.00  0.00     0.014 C 
ENDBRANCH   1   9
TORSDOF 3
ENDMDL
MODEL 3
REMARK VINA RESULT:    -3.628      2.031      2.529
REMARK INTER + INTRA:          -4.211
REMARK INTER:                  -4.142
REMARK INTRA:                  -0.069
REMARK UNBOUND:                -0.053
REMARK SMILES CC(C)[C@H]([NH3+])C(=O)[O-]
REMARK SMILES IDX 4 1 5 2 6 6 7 7 8 8 2 9 1 10 3 11
REMARK H PARENT 5 3 5 4 5 5
REMARK Flexibility Score: inf
ROOT
ATOM      1  C   UNL     1     -16.368 -23.307   5.527  1.00  0.00     0.230 C 
ENDROOT
BRANCH   1   2
ATOM      2  N   UNL     1     -16.508 -24.395   4.547  1.00  0.00    -0.350 N 
ATOM      3  H   UNL     1     -17.462 -24.821   4.581  1.00  0.00     0.345 HD
ATOM      4  H   UNL     1     -15.804 -25.141   4.753  1.00  0.00     0.345 HD
ATOM      5  H   UNL     1     -16.321 -24.043   3.581  1.00  0.00     0.345 HD
ENDBRANCH   1   2
BRANCH   1   6
ATOM      6  C   UNL     1     -15.408 -22.254   5.033  1.00  0.00     0.099 C 
ATOM      7  O   UNL     1     -14.227 -22.555   4.710  1.00  0.00    -0.544 OA
ATOM      8  O   UNL     1     -15.812 -20.926   4.977  1.00  0.00    -0.544 OA
ENDBRANCH   1   6
BRANCH   1   9
ATOM      9  C   UNL     1     -15.959 -23.810   6.945  1.00  0.00     0.047 C 
ATOM     10  C   UNL     1     -16.144 -22.722   8.014  1.00  0.00     0.014 C 
ATOM     11  C   UNL     1     -16.679 -25.100   7.372  1.00  0.00     0.014 C 
ENDBRANCH   1   9
TORSDOF 3
ENDMDL
MODEL 4
REMARK VINA RESULT:    -3.589      6.829      7.835
REMARK INTER + INTRA:          -4.167
REMARK INTER:                  -4.106
REMARK INTRA:                  -0.060
REMARK UNBOUND:                -0.053
REMARK SMILES CC(C)[C@H]([NH3+])C(=O)[O-]
REMARK SMILES IDX 4 1 5 2 6 6 7 7 8 8 2 9 1 10 3 11
REMARK H PARENT 5 3 5 4 5 5
REMARK Flexibility Score: inf
ROOT
ATOM      1  C   UNL     1     -19.576 -20.392  12.911  1.00  0.00     0.230 C 
ENDROOT
BRANCH   1   2
ATOM      2  N   UNL     1     -19.178 -19.396  11.903  1.00  0.00    -0.350 N 
ATOM      3  H   UNL     1     -18.452 -18.742  12.275  1.00  0.00     0.345 HD
ATOM      4  H   UNL     1     -20.014 -18.836  11.618  1.00  0.00     0.345 HD
ATOM      5  H   UNL     1     -18.811 -19.870  11.047  1.00  0.00     0.345 HD
ENDBRANCH   1   2
BRANCH   1   6
ATOM      6  C   UNL     1     -18.843 -20.167  14.211  1.00  0.00     0.099 C 
ATOM      7  O   UNL     1     -18.582 -21.129  14.981  1.00  0.00    -0.544 OA
ATOM      8  O   UNL     1     -18.493 -18.877  14.589  1.00  0.00    -0.544 OA
ENDBRANCH   1   6
BRANCH   1   9
ATOM      9  C   UNL     1     -19.401 -21.862  12.422  1.00  0.00     0.047 C 
ATOM     10  C   UNL     1     -20.754 -22.566  12.234  1.00  0.00     0.014 C 
ATOM     11  C   UNL     1     -18.557 -21.989  11.143  1.00  0.00     0.014 C 
ENDBRANCH   1   9
TORSDOF 3
ENDMDL
MODEL 5
REMARK VINA RESULT:    -3.565      2.651      3.105
REMARK INTER + INTRA:          -4.139
REMARK INTER:                  -4.090
REMARK INTRA:                  -0.049
REMARK UNBOUND:                -0.053
REMARK SMILES CC(C)[C@H]([NH3+])C(=O)[O-]
REMARK SMILES IDX 4 1 5 2 6 6 7 7 8 8 2 9 1 10 3 11
REMARK H PARENT 5 3 5 4 5 5
REMARK Flexibility Score: inf
ROOT
ATOM      1  C   UNL     1     -17.548 -23.068   7.608  1.00  0.00     0.230 C 
ENDROOT
BRANCH   1   2
ATOM      2  N   UNL     1     -17.171 -22.624   6.257  1.00  0.00    -0.350 N 
ATOM      3  H   UNL     1     -16.708 -21.688   6.276  1.00  0.00     0.345 HD
ATOM      4  H   UNL     1     -18.029 -22.557   5.661  1.00  0.00     0.345 HD
ATOM      5  H   UNL     1     -16.531 -23.318   5.809  1.00  0.00     0.345 HD
ENDBRANCH   1   2
BRANCH   1   6
ATOM      6  C   UNL     1     -17.544 -21.912   8.577  1.00  0.00     0.099 C 
ATOM      7  O   UNL     1     -16.734 -20.956   8.441  1.00  0.00    -0.544 OA
ATOM      8  O   UNL     1     -18.409 -21.921   9.664  1.00  0.00    -0.544 OA
ENDBRANCH   1   6
BRANCH   1   9
ATOM      9  C   UNL     1     -16.664 -24.239   8.136  1.00  0.00     0.047 C 
ATOM     10  C   UNL     1     -17.386 -25.592   8.032  1.00  0.00     0.014 C 
ATOM     11  C   UNL     1     -15.285 -24.321   7.462  1.00  0.00     0.014 C 
ENDBRANCH   1   9
TORSDOF 3
ENDMDL
MODEL 6
REMARK VINA RESULT:    -3.559      4.846      5.526
REMARK INTER + INTRA:          -4.132
REMARK INTER:                  -4.069
REMARK INTRA:                  -0.063
REMARK UNBOUND:                -0.053
REMARK SMILES CC(C)[C@H]([NH3+])C(=O)[O-]
REMARK SMILES IDX 4 1 5 2 6 6 7 7 8 8 2 9 1 10 3 11
REMARK H PARENT 5 3 5 4 5 5
REMARK Flexibility Score: inf
ROOT
ATOM      1  C   UNL     1     -18.219 -22.631  11.513  1.00  0.00     0.230 C 
ENDROOT
BRANCH   1   2
ATOM      2  N   UNL     1     -17.623 -23.709  12.320  1.00  0.00    -0.350 N 
ATOM      3  H   UNL     1     -17.426 -23.392  13.296  1.00  0.00     0.345 HD
ATOM      4  H   UNL     1     -16.722 -24.012  11.882  1.00  0.00     0.345 HD
ATOM      5  H   UNL     1     -18.256 -24.539  12.345  1.00  0.00     0.345 HD
ENDBRANCH   1   2
BRANCH   1   6
ATOM      6  C   UNL     1     -17.160 -21.679  11.016  1.00  0.00     0.099 C 
ATOM      7  O   UNL     1     -15.941 -21.879  11.266  1.00  0.00    -0.544 OA
ATOM      8  O   UNL     1     -17.534 -20.540  10.314  1.00  0.00    -0.544 OA
ENDBRANCH   1   6
BRANCH   1   9
ATOM      9  C   UNL     1     -19.351 -21.863  12.261  1.00  0.00     0.047 C 
ATOM     10  C   UNL     1     -20.694 -22.605  12.185  1.00  0.00     0.014 C 
ATOM     11  C   UNL     1     -19.009 -21.535  13.724  1.00  0.00     0.014 C 
ENDBRANCH   1   9
TORSDOF 3
ENDMDL
MODEL 7
REMARK VINA RESULT:    -3.504      5.085      6.159
REMARK INTER + INTRA:          -4.069
REMARK INTER:                  -4.020
REMARK INTRA:                  -0.049
REMARK UNBOUND:                -0.053
REMARK SMILES CC(C)[C@H]([NH3+])C(=O)[O-]
REMARK SMILES IDX 4 1 5 2 6 6 7 7 8 8 2 9 1 10 3 11
REMARK H PARENT 5 3 5 4 5 5
REMARK Flexibility Score: inf
ROOT
ATOM      1  C   UNL     1     -17.615 -22.633  12.037  1.00  0.00     0.230 C 
ENDROOT
BRANCH   1   2
ATOM      2  N   UNL     1     -17.174 -24.033  12.149  1.00  0.00    -0.350 N 
ATOM      3  H   UNL     1     -16.137 -24.099  12.267  1.00  0.00     0.345 HD
ATOM      4  H   UNL     1     -17.442 -24.552  11.281  1.00  0.00     0.345 HD
ATOM      5  H   UNL     1     -17.646 -24.502  12.954  1.00  0.00     0.345 HD
ENDBRANCH   1   2
BRANCH   1   6
ATOM      6  C   UNL     1     -18.945 -22.430  12.719  1.00  0.00     0.099 C 
ATOM      7  O   UNL     1     -20.010 -22.869  12.206  1.00  0.00    -0.544 OA
ATOM      8  O   UNL     1     -19.007 -21.709  13.904  1.00  0.00    -0.544 OA
ENDBRANCH   1   6
BRANCH   1   9
ATOM      9  C   UNL     1     -17.663 -22.123  10.564  1.00  0.00     0.047 C 
ATOM     10  C   UNL     1     -16.647 -20.997  10.316  1.00  0.00     0.014 C 
ATOM     11  C   UNL     1     -17.482 -23.238   9.520  1.00  0.00     0.014 C 
ENDBRANCH   1   9
TORSDOF 3
ENDMDL
MODEL 8
REMARK VINA RESULT:    -3.475      6.175      7.108
REMARK INTER + INTRA:          -4.035
REMARK INTER:                  -4.045
REMARK INTRA:                   0.010
REMARK UNBOUND:                -0.053
REMARK SMILES CC(C)[C@H]([NH3+])C(=O)[O-]
REMARK SMILES IDX 4 1 5 2 6 6 7 7 8 8 2 9 1 10 3 11
REMARK H PARENT 5 3 5 4 5 5
REMARK Flexibility Score: inf
ROOT
ATOM      1  C   UNL     1     -18.746 -21.374  13.466  1.00  0.00     0.230 C 
ENDROOT
BRANCH   1   2
ATOM      2  N   UNL     1     -19.679 -21.229  14.595  1.00  0.00    -0.350 N 
ATOM      3  H   UNL     1     -19.921 -20.227  14.766  1.00  0.00     0.345 HD
ATOM      4  H   UNL     1     -19.239 -21.617  15.462  1.00  0.00     0.345 HD
ATOM      5  H   UNL     1     -20.554 -21.771  14.418  1.00  0.00     0.345 HD
ENDBRANCH   1   2
BRANCH   1   6
ATOM      6  C   UNL     1     -18.517 -20.050  12.782  1.00  0.00     0.099 C 
ATOM      7  O   UNL     1     -17.350 -19.629  12.560  1.00  0.00    -0.544 OA
ATOM      8  O   UNL     1     -19.604 -19.258  12.433  1.00  0.00    -0.544 OA
ENDBRANCH   1   6
BRANCH   1   9
ATOM      9  C   UNL     1     -19.192 -22.461  12.441  1.00  0.00     0.047 C 
ATOM     10  C   UNL     1     -20.719 -22.498  12.275  1.00  0.00     0.014 C 
ATOM     11  C   UNL     1     -18.513 -22.326  11.068  1.00  0.00     0.014 C 
ENDBRANCH   1   9
TORSDOF 3
ENDMDL
MODEL 9
REMARK VINA RESULT:    -3.473      1.949      1.991
REMARK INTER + INTRA:          -4.034
REMARK INTER:                  -4.073
REMARK INTRA:                   0.040
REMARK UNBOUND:                -0.053
REMARK SMILES CC(C)[C@H]([NH3+])C(=O)[O-]
REMARK SMILES IDX 4 1 5 2 6 6 7 7 8 8 2 9 1 10 3 11
REMARK H PARENT 5 3 5 4 5 5
REMARK Flexibility Score: inf
ROOT
ATOM      1  C   UNL     1     -16.804 -23.373   6.758  1.00  0.00     0.230 C 
ENDROOT
BRANCH   1   2
ATOM      2  N   UNL     1     -16.495 -24.268   5.632  1.00  0.00    -0.350 N 
ATOM      3  H   UNL     1     -16.485 -23.751   4.723  1.00  0.00     0.345 HD
ATOM      4  H   UNL     1     -17.219 -25.021   5.577  1.00  0.00     0.345 HD
ATOM      5  H   UNL     1     -15.570 -24.732   5.776  1.00  0.00     0.345 HD
ENDBRANCH   1   2
BRANCH   1   6
ATOM      6  C   UNL     1     -15.543 -22.782   7.341  1.00  0.00     0.099 C 
ATOM      7  O   UNL     1     -14.582 -23.521   7.685  1.00  0.00    -0.544 OA
ATOM      8  O   UNL     1     -15.457 -21.411   7.547  1.00  0.00    -0.544 OA
ENDBRANCH   1   6
BRANCH   1   9
ATOM      9  C   UNL     1     -17.660 -24.058   7.866  1.00  0.00     0.047 C 
ATOM     10  C   UNL     1     -17.308 -25.545   8.023  1.00  0.00     0.014 C 
ATOM     11  C   UNL     1     -17.585 -23.349   9.229  1.00  0.00     0.014 C 
ENDBRANCH   1   9
TORSDOF 3
ENDMDL
