MODEL 1
REMARK VINA RESULT:    -4.616      0.000      0.000
REMARK INTER + INTRA:         -15.089
REMARK INTER:                 -11.632
REMARK INTRA:                  -3.457
REMARK UNBOUND:                -3.457
REMARK SMILES CCCCCCCCCCCCCCCCCCCCCCCCCCCC(=O)[O-]
REMARK SMILES IDX 15 1 16 2 17 3 18 4 19 5 20 6 21 7 22 8 23 9 24 10 25 11
REMARK SMILES IDX 26 12 27 13 28 14 29 15 30 16 14 17 13 18 12 19 11 20 10 21
REMARK SMILES IDX 9 22 8 23 7 24 6 25 5 26 4 27 3 28 2 29 1 30
REMARK H PARENT
REMARK Flexibility Score: inf
ROOT
ATOM      1  C   UNL     1      20.685   7.341   6.734  1.00  0.00     0.000 C 
ENDROOT
BRANCH   1   2
ATOM      2  C   UNL     1      20.785   8.590   7.622  1.00  0.00     0.000 C 
BRANCH   2   3
ATOM      3  C   UNL     1      21.714   8.397   8.833  1.00  0.00     0.000 C 
BRANCH   3   4
ATOM      4  C   UNL     1      23.161   7.987   8.490  1.00  0.00     0.000 C 
BRANCH   4   5
ATOM      5  C   UNL     1      23.502   6.501   8.730  1.00  0.00     0.000 C 
BRANCH   5   6
ATOM      6  C   UNL     1      24.263   5.810   7.584  1.00  0.00     0.000 C 
BRANCH   6   7
ATOM      7  C   UNL     1      24.180   6.583   6.257  1.00  0.00     0.000 C 
BRANCH   7   8
ATOM      8  C   UNL     1      23.418   5.814   5.161  1.00  0.00     0.000 C 
BRANCH   8   9
ATOM      9  C   UNL     1      24.196   4.655   4.509  1.00  0.00     0.000 C 
BRANCH   9  10
ATOM     10  C   UNL     1      25.068   5.107   3.329  1.00  0.00     0.000 C 
BRANCH  10  11
ATOM     11  C   UNL     1      24.391   4.779   1.994  1.00  0.00     0.000 C 
BRANCH  11  12
ATOM     12  C   UNL     1      25.258   3.835   1.153  1.00  0.00     0.006 C 
BRANCH  12  13
ATOM     13  C   UNL     1      26.388   3.233   1.992  1.00  0.00     0.053 C 
BRANCH  13  14
ATOM     14  C   UNL     1      26.183   1.762   2.176  1.00  0.00     0.041 C 
ATOM     15  O   UNL     1      25.356   1.144   1.454  1.00  0.00    -0.550 OA
ATOM     16  O   UNL     1      26.936   1.066   3.111  1.00  0.00    -0.550 OA
ENDBRANCH  13  14
ENDBRANCH  12  13
ENDBRANCH  11  12
ENDBRANCH  10  11
ENDBRANCH   9  10
ENDBRANCH   8   9
ENDBRANCH   7   8
ENDBRANCH   6   7
ENDBRANCH   5   6
ENDBRANCH   4   5
ENDBRANCH   3   4
ENDBRANCH   2   3
ENDBRANCH   1   2
BRANCH   1  17
ATOM     17  C   UNL     1      19.250   7.150   6.231  1.00  0.00     0.000 C 
BRANCH  17  18
ATOM     18  C   UNL     1      18.355   6.544   7.318  1.00  0.00     0.000 C 
BRANCH  18  19
ATOM     19  C   UNL     1      17.000   7.260   7.369  1.00  0.00     0.000 C 
BRANCH  19  20
ATOM     20  C   UNL     1      16.275   7.173   6.020  1.00  0.00     0.000 C 
BRANCH  20  21
ATOM     21  C   UNL     1      15.987   8.575   5.464  1.00  0.00     0.000 C 
BRANCH  21  22
ATOM     22  C   UNL     1      16.656   9.689   6.284  1.00  0.00    -0.000 C 
BRANCH  22  23
ATOM     23  C   UNL     1      17.303  10.769   5.401  1.00  0.00    -0.000 C 
BRANCH  23  24
ATOM     24  C   UNL     1      18.675  10.328   4.847  1.00  0.00    -0.000 C 
BRANCH  24  25
ATOM     25  C   UNL     1      18.746  10.312   3.308  1.00  0.00    -0.000 C 
BRANCH  25  26
ATOM     26  C   UNL     1      17.384  10.345   2.591  1.00  0.00    -0.000 C 
BRANCH  26  27
ATOM     27  C   UNL     1      17.138   9.096   1.728  1.00  0.00    -0.000 C 
BRANCH  27  28
ATOM     28  C   UNL     1      18.261   8.055   1.867  1.00  0.00    -0.000 C 
BRANCH  28  29
ATOM     29  C   UNL     1      17.849   6.850   2.728  1.00  0.00    -0.003 C 
ATOM     30  C   UNL     1      16.453   6.361   2.354  1.00  0.00     0.004 C 
ENDBRANCH  28  29
ENDBRANCH  27  28
ENDBRANCH  26  27
ENDBRANCH  25  26
ENDBRANCH  24  25
ENDBRANCH  23  24
ENDBRANCH  22  23
ENDBRANCH  21  22
ENDBRANCH  20  21
ENDBRANCH  19  20
ENDBRANCH  18  19
ENDBRANCH  17  18
ENDBRANCH   1  17
TORSDOF 26
ENDMDL
MODEL 2
REMARK VINA RESULT:    -4.588      2.123      3.986
REMARK INTER + INTRA:         -15.020
REMARK INTER:                 -11.257
REMARK INTRA:                  -3.763
REMARK UNBOUND:                -3.457
REMARK SMILES CCCCCCCCCCCCCCCCCCCCCCCCCCCC(=O)[O-]
REMARK SMILES IDX 15 1 16 2 17 3 18 4 19 5 20 6 21 7 22 8 23 9 24 10 25 11
REMARK SMILES IDX 26 12 27 13 28 14 29 15 30 16 14 17 13 18 12 19 11 20 10 21
REMARK SMILES IDX 9 22 8 23 7 24 6 25 5 26 4 27 3 28 2 29 1 30
REMARK H PARENT
REMARK Flexibility Score: inf
ROOT
ATOM      1  C   UNL     1      21.883   6.659   7.920  1.00  0.00     0.000 C 
ENDROOT
BRANCH   1   2
ATOM      2  C   UNL     1      23.371   6.778   7.560  1.00  0.00     0.000 C 
BRANCH   2   3
ATOM      3  C   UNL     1      23.918   5.538   6.832  1.00  0.00     0.000 C 
BRANCH   3   4
ATOM      4  C   UNL     1      24.240   5.744   5.338  1.00  0.00     0.000 C 
BRANCH   4   5
ATOM      5  C   UNL     1      23.486   4.816   4.363  1.00  0.00     0.000 C 
BRANCH   5   6
ATOM      6  C   UNL     1      23.698   5.123   2.869  1.00  0.00     0.000 C 
BRANCH   6   7
ATOM      7  C   UNL     1      23.674   3.861   1.989  1.00  0.00     0.000 C 
BRANCH   7   8
ATOM      8  C   UNL     1      24.878   3.776   1.030  1.00  0.00     0.000 C 
BRANCH   8   9
ATOM      9  C   UNL     1      26.250   3.614   1.711  1.00  0.00     0.000 C 
BRANCH   9  10
ATOM     10  C   UNL     1      26.218   2.644   2.901  1.00  0.00     0.000 C 
BRANCH  10  11
ATOM     11  C   UNL     1      26.982   3.223   4.098  1.00  0.00     0.000 C 
BRANCH  11  12
ATOM     12  C   UNL     1      27.953   4.322   3.653  1.00  0.00     0.006 C 
BRANCH  12  13
ATOM     13  C   UNL     1      27.680   5.632   4.398  1.00  0.00     0.053 C 
BRANCH  13  14
ATOM     14  C   UNL     1      28.329   5.618   5.746  1.00  0.00     0.041 C 
ATOM     15  O   UNL     1      27.641   5.397   6.777  1.00  0.00    -0.550 OA
ATOM     16  O   UNL     1      29.699   5.806   5.860  1.00  0.00    -0.550 OA
ENDBRANCH  13  14
ENDBRANCH  12  13
ENDBRANCH  11  12
ENDBRANCH  10  11
ENDBRANCH   9  10
ENDBRANCH   8   9
ENDBRANCH   7   8
ENDBRANCH   6   7
ENDBRANCH   5   6
ENDBRANCH   4   5
ENDBRANCH   3   4
ENDBRANCH   2   3
ENDBRANCH   1   2
BRANCH   1  17
ATOM     17  C   UNL     1      21.019   7.417   6.907  1.00  0.00     0.000 C 
BRANCH  17  18
ATOM     18  C   UNL     1      19.952   8.264   7.608  1.00  0.00     0.000 C 
BRANCH  18  19
ATOM     19  C   UNL     1      20.341   9.747   7.596  1.00  0.00     0.000 C 
BRANCH  19  20
ATOM     20  C   UNL     1      19.139  10.634   7.247  1.00  0.00     0.000 C 
BRANCH  20  21
ATOM     21  C   UNL     1      18.919  10.683   5.728  1.00  0.00     0.000 C 
BRANCH  21  22
ATOM     22  C   UNL     1      17.434  10.632   5.340  1.00  0.00    -0.000 C 
BRANCH  22  23
ATOM     23  C   UNL     1      16.617   9.692   6.244  1.00  0.00    -0.000 C 
BRANCH  23  24
ATOM     24  C   UNL     1      16.215   8.389   5.521  1.00  0.00    -0.000 C 
BRANCH  24  25
ATOM     25  C   UNL     1      16.674   7.110   6.248  1.00  0.00    -0.000 C 
BRANCH  25  26
ATOM     26  C   UNL     1      17.669   6.236   5.464  1.00  0.00    -0.000 C 
BRANCH  26  27
ATOM     27  C   UNL     1      18.390   7.013   4.348  1.00  0.00    -0.000 C 
BRANCH  27  28
ATOM     28  C   UNL     1      18.090   6.447   2.950  1.00  0.00    -0.000 C 
BRANCH  28  29
ATOM     29  C   UNL     1      18.097   7.529   1.859  1.00  0.00    -0.003 C 
ATOM     30  C   UNL     1      18.501   8.883   2.432  1.00  0.00     0.004 C 
ENDBRANCH  28  29
ENDBRANCH  27  28
ENDBRANCH  26  27
ENDBRANCH  25  26
ENDBRANCH  24  25
ENDBRANCH  23  24
ENDBRANCH  22  23
ENDBRANCH  21  22
ENDBRANCH  20  21
ENDBRANCH  19  20
ENDBRANCH  18  19
ENDBRANCH  17  18
ENDBRANCH   1  17
TORSDOF 26
ENDMDL
MODEL 3
REMARK VINA RESULT:    -4.540      2.172      3.700
REMARK INTER + INTRA:         -14.898
REMARK INTER:                 -11.081
REMARK INTRA:                  -3.818
REMARK UNBOUND:                -3.457
REMARK SMILES CCCCCCCCCCCCCCCCCCCCCCCCCCCC(=O)[O-]
REMARK SMILES IDX 15 1 16 2 17 3 18 4 19 5 20 6 21 7 22 8 23 9 24 10 25 11
REMARK SMILES IDX 26 12 27 13 28 14 29 15 30 16 14 17 13 18 12 19 11 20 10 21
REMARK SMILES IDX 9 22 8 23 7 24 6 25 5 26 4 27 3 28 2 29 1 30
REMARK H PARENT
REMARK Flexibility Score: inf
ROOT
ATOM      1  C   UNL     1      23.658   7.021   7.801  1.00  0.00     0.000 C 
ENDROOT
BRANCH   1   2
ATOM      2  C   UNL     1      24.084   6.568   6.396  1.00  0.00     0.000 C 
BRANCH   2   3
ATOM      3  C   UNL     1      25.450   5.861   6.378  1.00  0.00     0.000 C 
BRANCH   3   4
ATOM      4  C   UNL     1      26.632   6.706   6.894  1.00  0.00     0.000 C 
BRANCH   4   5
ATOM      5  C   UNL     1      27.183   7.751   5.903  1.00  0.00     0.000 C 
BRANCH   5   6
ATOM      6  C   UNL     1      27.743   7.178   4.589  1.00  0.00     0.000 C 
BRANCH   6   7
ATOM      7  C   UNL     1      29.106   6.488   4.768  1.00  0.00     0.000 C 
BRANCH   7   8
ATOM      8  C   UNL     1      29.189   5.127   4.050  1.00  0.00     0.000 C 
BRANCH   8   9
ATOM      9  C   UNL     1      28.532   3.949   4.795  1.00  0.00     0.000 C 
BRANCH   9  10
ATOM     10  C   UNL     1      27.430   3.261   3.976  1.00  0.00     0.000 C 
BRANCH  10  11
ATOM     11  C   UNL     1      27.606   3.545   2.479  1.00  0.00     0.000 C 
BRANCH  11  12
ATOM     12  C   UNL     1      26.263   3.879   1.820  1.00  0.00     0.006 C 
BRANCH  12  13
ATOM     13  C   UNL     1      25.423   4.793   2.717  1.00  0.00     0.053 C 
BRANCH  13  14
ATOM     14  C   UNL     1      24.104   4.158   3.029  1.00  0.00     0.041 C 
ATOM     15  O   UNL     1      23.222   4.059   2.136  1.00  0.00    -0.550 OA
ATOM     16  O   UNL     1      23.866   3.636   4.293  1.00  0.00    -0.550 OA
ENDBRANCH  13  14
ENDBRANCH  12  13
ENDBRANCH  11  12
ENDBRANCH  10  11
ENDBRANCH   9  10
ENDBRANCH   8   9
ENDBRANCH   7   8
ENDBRANCH   6   7
ENDBRANCH   5   6
ENDBRANCH   4   5
ENDBRANCH   3   4
ENDBRANCH   2   3
ENDBRANCH   1   2
BRANCH   1  17
ATOM     17  C   UNL     1      22.169   6.744   8.029  1.00  0.00     0.000 C 
BRANCH  17  18
ATOM     18  C   UNL     1      21.346   7.049   6.773  1.00  0.00     0.000 C 
BRANCH  18  19
ATOM     19  C   UNL     1      19.891   7.366   7.138  1.00  0.00     0.000 C 
BRANCH  19  20
ATOM     20  C   UNL     1      19.802   8.600   8.044  1.00  0.00     0.000 C 
BRANCH  20  21
ATOM     21  C   UNL     1      20.294   9.855   7.307  1.00  0.00     0.000 C 
BRANCH  21  22
ATOM     22  C   UNL     1      19.150  10.652   6.662  1.00  0.00    -0.000 C 
BRANCH  22  23
ATOM     23  C   UNL     1      18.865  10.214   5.215  1.00  0.00    -0.000 C 
BRANCH  23  24
ATOM     24  C   UNL     1      17.353  10.178   4.902  1.00  0.00    -0.000 C 
BRANCH  24  25
ATOM     25  C   UNL     1      16.497   9.599   6.044  1.00  0.00    -0.000 C 
BRANCH  25  26
ATOM     26  C   UNL     1      16.486   8.062   6.136  1.00  0.00    -0.000 C 
BRANCH  26  27
ATOM     27  C   UNL     1      16.229   7.388   4.777  1.00  0.00    -0.000 C 
BRANCH  27  28
ATOM     28  C   UNL     1      17.221   6.249   4.489  1.00  0.00    -0.000 C 
BRANCH  28  29
ATOM     29  C   UNL     1      18.552   6.755   3.911  1.00  0.00    -0.003 C 
ATOM     30  C   UNL     1      18.433   7.023   2.413  1.00  0.00     0.004 C 
ENDBRANCH  28  29
ENDBRANCH  27  28
ENDBRANCH  26  27
ENDBRANCH  25  26
ENDBRANCH  24  25
ENDBRANCH  23  24
ENDBRANCH  22  23
ENDBRANCH  21  22
ENDBRANCH  20  21
ENDBRANCH  19  20
ENDBRANCH  18  19
ENDBRANCH  17  18
ENDBRANCH   1  17
TORSDOF 26
ENDMDL
MODEL 4
REMARK VINA RESULT:    -4.509      1.765      3.182
REMARK INTER + INTRA:         -14.821
REMARK INTER:                 -11.255
REMARK INTRA:                  -3.566
REMARK UNBOUND:                -3.457
REMARK SMILES CCCCCCCCCCCCCCCCCCCCCCCCCCCC(=O)[O-]
REMARK SMILES IDX 15 1 16 2 17 3 18 4 19 5 20 6 21 7 22 8 23 9 24 10 25 11
REMARK SMILES IDX 26 12 27 13 28 14 29 15 30 16 14 17 13 18 12 19 11 20 10 21
REMARK SMILES IDX 9 22 8 23 7 24 6 25 5 26 4 27 3 28 2 29 1 30
REMARK H PARENT
REMARK Flexibility Score: inf
ROOT
ATOM      1  C   UNL     1      22.863   7.112   7.958  1.00  0.00     0.000 C 
ENDROOT
BRANCH   1   2
ATOM      2  C   UNL     1      23.226   6.047   9.003  1.00  0.00     0.000 C 
BRANCH   2   3
ATOM      3  C   UNL     1      22.362   4.778   8.898  1.00  0.00     0.000 C 
BRANCH   3   4
ATOM      4  C   UNL     1      23.032   3.586   8.184  1.00  0.00     0.000 C 
BRANCH   4   5
ATOM      5  C   UNL     1      24.546   3.733   7.929  1.00  0.00     0.000 C 
BRANCH   5   6
ATOM      6  C   UNL     1      24.949   3.902   6.453  1.00  0.00     0.000 C 
BRANCH   6   7
ATOM      7  C   UNL     1      23.742   3.918   5.499  1.00  0.00     0.000 C 
BRANCH   7   8
ATOM      8  C   UNL     1      23.617   5.237   4.713  1.00  0.00     0.000 C 
BRANCH   8   9
ATOM      9  C   UNL     1      23.415   5.080   3.194  1.00  0.00     0.000 C 
BRANCH   9  10
ATOM     10  C   UNL     1      23.921   3.733   2.658  1.00  0.00     0.000 C 
BRANCH  10  11
ATOM     11  C   UNL     1      24.673   3.920   1.335  1.00  0.00     0.000 C 
BRANCH  11  12
ATOM     12  C   UNL     1      26.181   3.722   1.526  1.00  0.00     0.006 C 
BRANCH  12  13
ATOM     13  C   UNL     1      26.511   3.383   2.982  1.00  0.00     0.053 C 
BRANCH  13  14
ATOM     14  C   UNL     1      27.459   4.390   3.556  1.00  0.00     0.041 C 
ATOM     15  O   UNL     1      27.031   5.503   3.961  1.00  0.00    -0.550 OA
ATOM     16  O   UNL     1      28.806   4.082   3.685  1.00  0.00    -0.550 OA
ENDBRANCH  13  14
ENDBRANCH  12  13
ENDBRANCH  11  12
ENDBRANCH  10  11
ENDBRANCH   9  10
ENDBRANCH   8   9
ENDBRANCH   7   8
ENDBRANCH   6   7
ENDBRANCH   5   6
ENDBRANCH   4   5
ENDBRANCH   3   4
ENDBRANCH   2   3
ENDBRANCH   1   2
BRANCH   1  17
ATOM     17  C   UNL     1      21.620   6.691   7.167  1.00  0.00     0.000 C 
BRANCH  17  18
ATOM     18  C   UNL     1      20.482   7.703   7.338  1.00  0.00     0.000 C 
BRANCH  18  19
ATOM     19  C   UNL     1      20.926   8.878   8.217  1.00  0.00     0.000 C 
BRANCH  19  20
ATOM     20  C   UNL     1      19.821   9.935   8.331  1.00  0.00     0.000 C 
BRANCH  20  21
ATOM     21  C   UNL     1      19.944  10.977   7.209  1.00  0.00     0.000 C 
BRANCH  21  22
ATOM     22  C   UNL     1      18.861  10.820   6.131  1.00  0.00    -0.000 C 
BRANCH  22  23
ATOM     23  C   UNL     1      17.437  10.865   6.711  1.00  0.00    -0.000 C 
BRANCH  23  24
ATOM     24  C   UNL     1      16.552   9.717   6.179  1.00  0.00    -0.000 C 
BRANCH  24  25
ATOM     25  C   UNL     1      16.965   8.325   6.694  1.00  0.00    -0.000 C 
BRANCH  25  26
ATOM     26  C   UNL     1      16.359   7.139   5.924  1.00  0.00    -0.000 C 
BRANCH  26  27
ATOM     27  C   UNL     1      16.692   7.174   4.423  1.00  0.00    -0.000 C 
BRANCH  27  28
ATOM     28  C   UNL     1      18.184   7.435   4.157  1.00  0.00    -0.000 C 
BRANCH  28  29
ATOM     29  C   UNL     1      18.515   7.504   2.659  1.00  0.00    -0.003 C 
ATOM     30  C   UNL     1      18.592   8.951   2.180  1.00  0.00     0.004 C 
ENDBRANCH  28  29
ENDBRANCH  27  28
ENDBRANCH  26  27
ENDBRANCH  25  26
ENDBRANCH  24  25
ENDBRANCH  23  24
ENDBRANCH  22  23
ENDBRANCH  21  22
ENDBRANCH  20  21
ENDBRANCH  19  20
ENDBRANCH  18  19
ENDBRANCH  17  18
ENDBRANCH   1  17
TORSDOF 26
ENDMDL
MODEL 5
REMARK VINA RESULT:    -4.356     10.368     14.118
REMARK INTER + INTRA:         -14.436
REMARK INTER:                  -9.323
REMARK INTRA:                  -5.112
REMARK UNBOUND:                -3.457
REMARK SMILES CCCCCCCCCCCCCCCCCCCCCCCCCCCC(=O)[O-]
REMARK SMILES IDX 15 1 16 2 17 3 18 4 19 5 20 6 21 7 22 8 23 9 24 10 25 11
REMARK SMILES IDX 26 12 27 13 28 14 29 15 30 16 14 17 13 18 12 19 11 20 10 21
REMARK SMILES IDX 9 22 8 23 7 24 6 25 5 26 4 27 3 28 2 29 1 30
REMARK H PARENT
REMARK Flexibility Score: inf
ROOT
ATOM      1  C   UNL     1      20.098  -3.742  -0.414  1.00  0.00     0.000 C 
ENDROOT
BRANCH   1   2
ATOM      2  C   UNL     1      18.849  -3.692  -1.306  1.00  0.00     0.000 C 
BRANCH   2   3
ATOM      3  C   UNL     1      18.142  -2.326  -1.281  1.00  0.00     0.000 C 
BRANCH   3   4
ATOM      4  C   UNL     1      18.991  -1.159  -0.735  1.00  0.00     0.000 C 
BRANCH   4   5
ATOM      5  C   UNL     1      19.134   0.054  -1.678  1.00  0.00     0.000 C 
BRANCH   5   6
ATOM      6  C   UNL     1      20.581   0.483  -1.979  1.00  0.00     0.000 C 
BRANCH   6   7
ATOM      7  C   UNL     1      21.382  -0.593  -2.732  1.00  0.00     0.000 C 
BRANCH   7   8
ATOM      8  C   UNL     1      20.777  -0.940  -4.106  1.00  0.00     0.000 C 
BRANCH   8   9
ATOM      9  C   UNL     1      20.413  -2.423  -4.308  1.00  0.00     0.000 C 
BRANCH   9  10
ATOM     10  C   UNL     1      20.343  -2.826  -5.788  1.00  0.00     0.000 C 
BRANCH  10  11
ATOM     11  C   UNL     1      20.460  -4.346  -5.945  1.00  0.00     0.000 C 
BRANCH  11  12
ATOM     12  C   UNL     1      20.590  -5.034  -4.582  1.00  0.00     0.006 C 
BRANCH  12  13
ATOM     13  C   UNL     1      20.356  -6.542  -4.702  1.00  0.00     0.053 C 
BRANCH  13  14
ATOM     14  C   UNL     1      21.459  -7.187  -5.481  1.00  0.00     0.041 C 
ATOM     15  O   UNL     1      22.600  -7.326  -4.966  1.00  0.00    -0.550 OA
ATOM     16  O   UNL     1      21.216  -7.675  -6.758  1.00  0.00    -0.550 OA
ENDBRANCH  13  14
ENDBRANCH  12  13
ENDBRANCH  11  12
ENDBRANCH  10  11
ENDBRANCH   9  10
ENDBRANCH   8   9
ENDBRANCH   7   8
ENDBRANCH   6   7
ENDBRANCH   5   6
ENDBRANCH   4   5
ENDBRANCH   3   4
ENDBRANCH   2   3
ENDBRANCH   1   2
BRANCH   1  17
ATOM     17  C   UNL     1      21.319  -4.202  -1.217  1.00  0.00     0.000 C 
BRANCH  17  18
ATOM     18  C   UNL     1      22.579  -3.436  -0.803  1.00  0.00     0.000 C 
BRANCH  18  19
ATOM     19  C   UNL     1      22.294  -2.528   0.400  1.00  0.00     0.000 C 
BRANCH  19  20
ATOM     20  C   UNL     1      23.528  -2.397   1.301  1.00  0.00     0.000 C 
BRANCH  20  21
ATOM     21  C   UNL     1      23.213  -2.863   2.730  1.00  0.00     0.000 C 
BRANCH  21  22
ATOM     22  C   UNL     1      21.720  -3.158   2.943  1.00  0.00    -0.000 C 
BRANCH  22  23
ATOM     23  C   UNL     1      21.478  -4.468   3.712  1.00  0.00    -0.000 C 
BRANCH  23  24
ATOM     24  C   UNL     1      20.689  -5.499   2.878  1.00  0.00    -0.000 C 
BRANCH  24  25
ATOM     25  C   UNL     1      21.514  -6.739   2.482  1.00  0.00    -0.000 C 
BRANCH  25  26
ATOM     26  C   UNL     1      22.526  -6.512   1.344  1.00  0.00    -0.000 C 
BRANCH  26  27
ATOM     27  C   UNL     1      23.986  -6.585   1.827  1.00  0.00    -0.000 C 
BRANCH  27  28
ATOM     28  C   UNL     1      24.941  -5.779   0.931  1.00  0.00    -0.000 C 
BRANCH  28  29
ATOM     29  C   UNL     1      26.155  -6.601   0.470  1.00  0.00    -0.003 C 
ATOM     30  C   UNL     1      25.727  -7.747  -0.442  1.00  0.00     0.004 C 
ENDBRANCH  28  29
ENDBRANCH  27  28
ENDBRANCH  26  27
ENDBRANCH  25  26
ENDBRANCH  24  25
ENDBRANCH  23  24
ENDBRANCH  22  23
ENDBRANCH  21  22
ENDBRANCH  20  21
ENDBRANCH  19  20
ENDBRANCH  18  19
ENDBRANCH  17  18
ENDBRANCH   1  17
TORSDOF 26
ENDMDL
MODEL 6
REMARK VINA RESULT:    -4.335      9.943     13.084
REMARK INTER + INTRA:         -14.382
REMARK INTER:                  -9.639
REMARK INTRA:                  -4.744
REMARK UNBOUND:                -3.457
REMARK SMILES CCCCCCCCCCCCCCCCCCCCCCCCCCCC(=O)[O-]
REMARK SMILES IDX 15 1 16 2 17 3 18 4 19 5 20 6 21 7 22 8 23 9 24 10 25 11
REMARK SMILES IDX 26 12 27 13 28 14 29 15 30 16 14 17 13 18 12 19 11 20 10 21
REMARK SMILES IDX 9 22 8 23 7 24 6 25 5 26 4 27 3 28 2 29 1 30
REMARK H PARENT
REMARK Flexibility Score: inf
ROOT
ATOM      1  C   UNL     1      21.829  -5.189  -3.074  1.00  0.00     0.000 C 
ENDROOT
BRANCH   1   2
ATOM      2  C   UNL     1      21.703  -4.200  -1.906  1.00  0.00     0.000 C 
BRANCH   2   3
ATOM      3  C   UNL     1      21.943  -4.853  -0.533  1.00  0.00     0.000 C 
BRANCH   3   4
ATOM      4  C   UNL     1      20.991  -4.388   0.588  1.00  0.00     0.000 C 
BRANCH   4   5
ATOM      5  C   UNL     1      21.666  -3.671   1.776  1.00  0.00     0.000 C 
BRANCH   5   6
ATOM      6  C   UNL     1      21.311  -4.228   3.166  1.00  0.00     0.000 C 
BRANCH   6   7
ATOM      7  C   UNL     1      20.502  -5.535   3.100  1.00  0.00     0.000 C 
BRANCH   7   8
ATOM      8  C   UNL     1      21.351  -6.783   3.406  1.00  0.00     0.000 C 
BRANCH   8   9
ATOM      9  C   UNL     1      21.531  -7.760   2.228  1.00  0.00     0.000 C 
BRANCH   9  10
ATOM     10  C   UNL     1      23.001  -7.947   1.824  1.00  0.00     0.000 C 
BRANCH  10  11
ATOM     11  C   UNL     1      23.887  -6.883   2.482  1.00  0.00     0.000 C 
BRANCH  11  12
ATOM     12  C   UNL     1      24.749  -6.162   1.440  1.00  0.00     0.006 C 
BRANCH  12  13
ATOM     13  C   UNL     1      24.874  -6.993   0.159  1.00  0.00     0.053 C 
BRANCH  13  14
ATOM     14  C   UNL     1      26.236  -7.603   0.057  1.00  0.00     0.041 C 
ATOM     15  O   UNL     1      27.018  -7.253  -0.867  1.00  0.00    -0.550 OA
ATOM     16  O   UNL     1      26.659  -8.523   1.005  1.00  0.00    -0.550 OA
ENDBRANCH  13  14
ENDBRANCH  12  13
ENDBRANCH  11  12
ENDBRANCH  10  11
ENDBRANCH   9  10
ENDBRANCH   8   9
ENDBRANCH   7   8
ENDBRANCH   6   7
ENDBRANCH   5   6
ENDBRANCH   4   5
ENDBRANCH   3   4
ENDBRANCH   2   3
ENDBRANCH   1   2
BRANCH   1  17
ATOM     17  C   UNL     1      20.537  -5.221  -3.896  1.00  0.00     0.000 C 
BRANCH  17  18
ATOM     18  C   UNL     1      20.098  -3.809  -4.300  1.00  0.00     0.000 C 
BRANCH  18  19
ATOM     19  C   UNL     1      18.570  -3.720  -4.392  1.00  0.00     0.000 C 
BRANCH  19  20
ATOM     20  C   UNL     1      17.899  -4.879  -3.645  1.00  0.00     0.000 C 
BRANCH  20  21
ATOM     21  C   UNL     1      17.036  -4.356  -2.488  1.00  0.00     0.000 C 
BRANCH  21  22
ATOM     22  C   UNL     1      17.873  -3.801  -1.326  1.00  0.00    -0.000 C 
BRANCH  22  23
ATOM     23  C   UNL     1      17.922  -2.263  -1.311  1.00  0.00    -0.000 C 
BRANCH  23  24
ATOM     24  C   UNL     1      19.281  -1.726  -0.814  1.00  0.00    -0.000 C 
BRANCH  24  25
ATOM     25  C   UNL     1      19.355  -0.188  -0.750  1.00  0.00    -0.000 C 
BRANCH  25  26
ATOM     26  C   UNL     1      20.385   0.455  -1.697  1.00  0.00    -0.000 C 
BRANCH  26  27
ATOM     27  C   UNL     1      21.266  -0.586  -2.409  1.00  0.00    -0.000 C 
BRANCH  27  28
ATOM     28  C   UNL     1      22.731  -0.133  -2.525  1.00  0.00    -0.000 C 
BRANCH  28  29
ATOM     29  C   UNL     1      23.399   0.069  -1.157  1.00  0.00    -0.003 C 
ATOM     30  C   UNL     1      23.478  -1.244  -0.384  1.00  0.00     0.004 C 
ENDBRANCH  28  29
ENDBRANCH  27  28
ENDBRANCH  26  27
ENDBRANCH  25  26
ENDBRANCH  24  25
ENDBRANCH  23  24
ENDBRANCH  22  23
ENDBRANCH  21  22
ENDBRANCH  20  21
ENDBRANCH  19  20
ENDBRANCH  18  19
ENDBRANCH  17  18
ENDBRANCH   1  17
TORSDOF 26
ENDMDL
MODEL 7
REMARK VINA RESULT:    -4.313     11.921     15.674
REMARK INTER + INTRA:         -14.327
REMARK INTER:                 -10.949
REMARK INTRA:                  -3.377
REMARK UNBOUND:                -3.457
REMARK SMILES CCCCCCCCCCCCCCCCCCCCCCCCCCCC(=O)[O-]
REMARK SMILES IDX 15 1 16 2 17 3 18 4 19 5 20 6 21 7 22 8 23 9 24 10 25 11
REMARK SMILES IDX 26 12 27 13 28 14 29 15 30 16 14 17 13 18 12 19 11 20 10 21
REMARK SMILES IDX 9 22 8 23 7 24 6 25 5 26 4 27 3 28 2 29 1 30
REMARK H PARENT
REMARK Flexibility Score: inf
ROOT
ATOM      1  C   UNL     1      20.316  -2.590  -0.358  1.00  0.00     0.000 C 
ENDROOT
BRANCH   1   2
ATOM      2  C   UNL     1      18.902  -2.491  -0.948  1.00  0.00     0.000 C 
BRANCH   2   3
ATOM      3  C   UNL     1      18.330  -3.852  -1.378  1.00  0.00     0.000 C 
BRANCH   3   4
ATOM      4  C   UNL     1      16.794  -3.908  -1.502  1.00  0.00     0.000 C 
BRANCH   4   5
ATOM      5  C   UNL     1      16.239  -3.770  -2.935  1.00  0.00     0.000 C 
BRANCH   5   6
ATOM      6  C   UNL     1      15.909  -2.333  -3.375  1.00  0.00     0.000 C 
BRANCH   6   7
ATOM      7  C   UNL     1      16.139  -2.097  -4.878  1.00  0.00     0.000 C 
BRANCH   7   8
ATOM      8  C   UNL     1      17.616  -2.243  -5.289  1.00  0.00     0.000 C 
BRANCH   8   9
ATOM      9  C   UNL     1      18.609  -1.375  -4.492  1.00  0.00     0.000 C 
BRANCH   9  10
ATOM     10  C   UNL     1      20.016  -1.987  -4.420  1.00  0.00     0.000 C 
BRANCH  10  11
ATOM     11  C   UNL     1      20.047  -3.365  -5.091  1.00  0.00     0.000 C 
BRANCH  11  12
ATOM     12  C   UNL     1      20.771  -4.391  -4.213  1.00  0.00     0.006 C 
BRANCH  12  13
ATOM     13  C   UNL     1      20.175  -5.789  -4.396  1.00  0.00     0.053 C 
BRANCH  13  14
ATOM     14  C   UNL     1      21.096  -6.654  -5.198  1.00  0.00     0.041 C 
ATOM     15  O   UNL     1      20.947  -6.751  -6.446  1.00  0.00    -0.550 OA
ATOM     16  O   UNL     1      22.145  -7.317  -4.577  1.00  0.00    -0.550 OA
ENDBRANCH  13  14
ENDBRANCH  12  13
ENDBRANCH  11  12
ENDBRANCH  10  11
ENDBRANCH   9  10
ENDBRANCH   8   9
ENDBRANCH   7   8
ENDBRANCH   6   7
ENDBRANCH   5   6
ENDBRANCH   4   5
ENDBRANCH   3   4
ENDBRANCH   2   3
ENDBRANCH   1   2
BRANCH   1  17
ATOM     17  C   UNL     1      21.012  -3.870  -0.833  1.00  0.00     0.000 C 
BRANCH  17  18
ATOM     18  C   UNL     1      21.584  -4.664   0.347  1.00  0.00     0.000 C 
BRANCH  18  19
ATOM     19  C   UNL     1      21.070  -4.105   1.679  1.00  0.00     0.000 C 
BRANCH  19  20
ATOM     20  C   UNL     1      20.706  -5.234   2.651  1.00  0.00     0.000 C 
BRANCH  20  21
ATOM     21  C   UNL     1      21.531  -6.495   2.357  1.00  0.00     0.000 C 
BRANCH  21  22
ATOM     22  C   UNL     1      22.723  -6.662   3.312  1.00  0.00    -0.000 C 
BRANCH  22  23
ATOM     23  C   UNL     1      24.065  -6.778   2.570  1.00  0.00    -0.000 C 
BRANCH  23  24
ATOM     24  C   UNL     1      24.496  -8.247   2.367  1.00  0.00    -0.000 C 
BRANCH  24  25
ATOM     25  C   UNL     1      25.534  -8.440   1.245  1.00  0.00    -0.000 C 
BRANCH  25  26
ATOM     26  C   UNL     1      25.520  -7.358   0.150  1.00  0.00    -0.000 C 
BRANCH  26  27
ATOM     27  C   UNL     1      26.026  -7.880  -1.206  1.00  0.00    -0.000 C 
BRANCH  27  28
ATOM     28  C   UNL     1      27.214  -8.845  -1.057  1.00  0.00    -0.000 C 
BRANCH  28  29
ATOM     29  C   UNL     1      28.464  -8.366  -1.812  1.00  0.00    -0.003 C 
ATOM     30  C   UNL     1      28.086  -7.466  -2.984  1.00  0.00     0.004 C 
ENDBRANCH  28  29
ENDBRANCH  27  28
ENDBRANCH  26  27
ENDBRANCH  25  26
ENDBRANCH  24  25
ENDBRANCH  23  24
ENDBRANCH  22  23
ENDBRANCH  21  22
ENDBRANCH  20  21
ENDBRANCH  19  20
ENDBRANCH  18  19
ENDBRANCH  17  18
ENDBRANCH   1  17
TORSDOF 26
ENDMDL
MODEL 8
REMARK VINA RESULT:    -4.305      8.607     12.670
REMARK INTER + INTRA:         -14.306
REMARK INTER:                  -9.581
REMARK INTRA:                  -4.724
REMARK UNBOUND:                -3.457
REMARK SMILES CCCCCCCCCCCCCCCCCCCCCCCCCCCC(=O)[O-]
REMARK SMILES IDX 15 1 16 2 17 3 18 4 19 5 20 6 21 7 22 8 23 9 24 10 25 11
REMARK SMILES IDX 26 12 27 13 28 14 29 15 30 16 14 17 13 18 12 19 11 20 10 21
REMARK SMILES IDX 9 22 8 23 7 24 6 25 5 26 4 27 3 28 2 29 1 30
REMARK H PARENT
REMARK Flexibility Score: inf
ROOT
ATOM      1  C   UNL     1      20.433  -2.090  -0.373  1.00  0.00     0.000 C 
ENDROOT
BRANCH   1   2
ATOM      2  C   UNL     1      19.001  -2.137  -0.926  1.00  0.00     0.000 C 
BRANCH   2   3
ATOM      3  C   UNL     1      18.578  -3.541  -1.390  1.00  0.00     0.000 C 
BRANCH   3   4
ATOM      4  C   UNL     1      17.060  -3.815  -1.350  1.00  0.00     0.000 C 
BRANCH   4   5
ATOM      5  C   UNL     1      16.341  -3.764  -2.714  1.00  0.00     0.000 C 
BRANCH   5   6
ATOM      6  C   UNL     1      16.351  -2.391  -3.410  1.00  0.00     0.000 C 
BRANCH   6   7
ATOM      7  C   UNL     1      16.377  -2.496  -4.944  1.00  0.00     0.000 C 
BRANCH   7   8
ATOM      8  C   UNL     1      17.683  -1.959  -5.561  1.00  0.00     0.000 C 
BRANCH   8   9
ATOM      9  C   UNL     1      18.731  -1.460  -4.548  1.00  0.00     0.000 C 
BRANCH   9  10
ATOM     10  C   UNL     1      20.041  -2.261  -4.597  1.00  0.00     0.000 C 
BRANCH  10  11
ATOM     11  C   UNL     1      19.805  -3.656  -5.187  1.00  0.00     0.000 C 
BRANCH  11  12
ATOM     12  C   UNL     1      20.555  -4.727  -4.388  1.00  0.00     0.006 C 
BRANCH  12  13
ATOM     13  C   UNL     1      21.602  -5.430  -5.258  1.00  0.00     0.053 C 
BRANCH  13  14
ATOM     14  C   UNL     1      22.063  -6.697  -4.608  1.00  0.00     0.041 C 
ATOM     15  O   UNL     1      22.488  -7.651  -5.313  1.00  0.00    -0.550 OA
ATOM     16  O   UNL     1      22.067  -6.808  -3.225  1.00  0.00    -0.550 OA
ENDBRANCH  13  14
ENDBRANCH  12  13
ENDBRANCH  11  12
ENDBRANCH  10  11
ENDBRANCH   9  10
ENDBRANCH   8   9
ENDBRANCH   7   8
ENDBRANCH   6   7
ENDBRANCH   5   6
ENDBRANCH   4   5
ENDBRANCH   3   4
ENDBRANCH   2   3
ENDBRANCH   1   2
BRANCH   1  17
ATOM     17  C   UNL     1      21.382  -2.898  -1.264  1.00  0.00     0.000 C 
BRANCH  17  18
ATOM     18  C   UNL     1      22.715  -3.168  -0.557  1.00  0.00     0.000 C 
BRANCH  18  19
ATOM     19  C   UNL     1      22.613  -2.845   0.938  1.00  0.00     0.000 C 
BRANCH  19  20
ATOM     20  C   UNL     1      23.801  -1.996   1.405  1.00  0.00     0.000 C 
BRANCH  20  21
ATOM     21  C   UNL     1      24.397  -1.200   0.235  1.00  0.00     0.000 C 
BRANCH  21  22
ATOM     22  C   UNL     1      24.159   0.313   0.363  1.00  0.00    -0.000 C 
BRANCH  22  23
ATOM     23  C   UNL     1      23.096   0.831  -0.622  1.00  0.00    -0.000 C 
BRANCH  23  24
ATOM     24  C   UNL     1      23.281   0.251  -2.041  1.00  0.00    -0.000 C 
BRANCH  24  25
ATOM     25  C   UNL     1      22.187   0.684  -3.035  1.00  0.00    -0.000 C 
BRANCH  25  26
ATOM     26  C   UNL     1      21.184   1.718  -2.492  1.00  0.00    -0.000 C 
BRANCH  26  27
ATOM     27  C   UNL     1      19.819   1.097  -2.149  1.00  0.00    -0.000 C 
BRANCH  27  28
ATOM     28  C   UNL     1      18.812   2.140  -1.635  1.00  0.00    -0.000 C 
BRANCH  28  29
ATOM     29  C   UNL     1      19.282   3.584  -1.871  1.00  0.00    -0.003 C 
ATOM     30  C   UNL     1      18.119   4.564  -1.761  1.00  0.00     0.004 C 
ENDBRANCH  28  29
ENDBRANCH  27  28
ENDBRANCH  26  27
ENDBRANCH  25  26
ENDBRANCH  24  25
ENDBRANCH  23  24
ENDBRANCH  22  23
ENDBRANCH  21  22
ENDBRANCH  20  21
ENDBRANCH  19  20
ENDBRANCH  18  19
ENDBRANCH  17  18
ENDBRANCH   1  17
TORSDOF 26
ENDMDL
MODEL 9
REMARK VINA RESULT:    -4.292     10.435     14.780
REMARK INTER + INTRA:         -14.272
REMARK INTER:                  -8.790
REMARK INTRA:                  -5.483
REMARK UNBOUND:                -3.457
REMARK SMILES CCCCCCCCCCCCCCCCCCCCCCCCCCCC(=O)[O-]
REMARK SMILES IDX 15 1 16 2 17 3 18 4 19 5 20 6 21 7 22 8 23 9 24 10 25 11
REMARK SMILES IDX 26 12 27 13 28 14 29 15 30 16 14 17 13 18 12 19 11 20 10 21
REMARK SMILES IDX 9 22 8 23 7 24 6 25 5 26 4 27 3 28 2 29 1 30
REMARK H PARENT
REMARK Flexibility Score: inf
ROOT
ATOM      1  C   UNL     1      16.689  -3.881  -3.560  1.00  0.00     0.000 C 
ENDROOT
BRANCH   1   2
ATOM      2  C   UNL     1      17.014  -4.389  -2.148  1.00  0.00     0.000 C 
BRANCH   2   3
ATOM      3  C   UNL     1      18.155  -3.609  -1.473  1.00  0.00     0.000 C 
BRANCH   3   4
ATOM      4  C   UNL     1      18.014  -2.074  -1.516  1.00  0.00     0.000 C 
BRANCH   4   5
ATOM      5  C   UNL     1      19.333  -1.293  -1.690  1.00  0.00     0.000 C 
BRANCH   5   6
ATOM      6  C   UNL     1      20.546  -1.878  -0.945  1.00  0.00     0.000 C 
BRANCH   6   7
ATOM      7  C   UNL     1      21.885  -1.554  -1.630  1.00  0.00     0.000 C 
BRANCH   7   8
ATOM      8  C   UNL     1      21.734  -0.574  -2.809  1.00  0.00     0.000 C 
BRANCH   8   9
ATOM      9  C   UNL     1      22.682   0.639  -2.781  1.00  0.00     0.000 C 
BRANCH   9  10
ATOM     10  C   UNL     1      21.938   1.979  -2.690  1.00  0.00     0.000 C 
BRANCH  10  11
ATOM     11  C   UNL     1      21.232   2.121  -1.336  1.00  0.00     0.000 C 
BRANCH  11  12
ATOM     12  C   UNL     1      19.786   2.595  -1.515  1.00  0.00     0.006 C 
BRANCH  12  13
ATOM     13  C   UNL     1      19.256   2.229  -2.905  1.00  0.00     0.053 C 
BRANCH  13  14
ATOM     14  C   UNL     1      18.228   3.220  -3.354  1.00  0.00     0.041 C 
ATOM     15  O   UNL     1      17.011   2.896  -3.391  1.00  0.00    -0.550 OA
ATOM     16  O   UNL     1      18.607   4.512  -3.690  1.00  0.00    -0.550 OA
ENDBRANCH  13  14
ENDBRANCH  12  13
ENDBRANCH  11  12
ENDBRANCH  10  11
ENDBRANCH   9  10
ENDBRANCH   8   9
ENDBRANCH   7   8
ENDBRANCH   6   7
ENDBRANCH   5   6
ENDBRANCH   4   5
ENDBRANCH   3   4
ENDBRANCH   2   3
ENDBRANCH   1   2
BRANCH   1  17
ATOM     17  C   UNL     1      17.131  -4.899  -4.617  1.00  0.00     0.000 C 
BRANCH  17  18
ATOM     18  C   UNL     1      17.718  -6.157  -3.966  1.00  0.00     0.000 C 
BRANCH  18  19
ATOM     19  C   UNL     1      18.044  -7.216  -5.026  1.00  0.00     0.000 C 
BRANCH  19  20
ATOM     20  C   UNL     1      18.515  -6.567  -6.333  1.00  0.00     0.000 C 
BRANCH  20  21
ATOM     21  C   UNL     1      19.538  -7.462  -7.049  1.00  0.00     0.000 C 
BRANCH  21  22
ATOM     22  C   UNL     1      20.953  -6.865  -7.048  1.00  0.00    -0.000 C 
BRANCH  22  23
ATOM     23  C   UNL     1      21.787  -7.317  -5.837  1.00  0.00    -0.000 C 
BRANCH  23  24
ATOM     24  C   UNL     1      22.321  -6.123  -5.016  1.00  0.00    -0.000 C 
BRANCH  24  25
ATOM     25  C   UNL     1      21.491  -5.816  -3.755  1.00  0.00    -0.000 C 
BRANCH  25  26
ATOM     26  C   UNL     1      20.806  -4.438  -3.745  1.00  0.00    -0.000 C 
BRANCH  26  27
ATOM     27  C   UNL     1      20.731  -3.802  -5.144  1.00  0.00    -0.000 C 
BRANCH  27  28
ATOM     28  C   UNL     1      19.814  -2.568  -5.181  1.00  0.00    -0.000 C 
BRANCH  28  29
ATOM     29  C   UNL     1      19.066  -2.426  -6.516  1.00  0.00    -0.003 C 
ATOM     30  C   UNL     1      19.680  -3.321  -7.588  1.00  0.00     0.004 C 
ENDBRANCH  28  29
ENDBRANCH  27  28
ENDBRANCH  26  27
ENDBRANCH  25  26
ENDBRANCH  24  25
ENDBRANCH  23  24
ENDBRANCH  22  23
ENDBRANCH  21  22
ENDBRANCH  20  21
ENDBRANCH  19  20
ENDBRANCH  18  19
ENDBRANCH  17  18
ENDBRANCH   1  17
TORSDOF 26
ENDMDL
