MODEL 1
REMARK VINA RESULT:     6.930      0.000      0.000
REMARK INTER + INTRA:           8.256
REMARK INTER:                   7.538
REMARK INTRA:                   0.718
REMARK UNBOUND:                 0.718
REMARK SMILES CC(C)c1cc2c(cc1O)[C@]1(C)CCCC(C)(C)[C@H]1CC2=O
REMARK SMILES IDX 4 1 9 2 8 3 7 4 6 5 5 6 21 7 22 8 20 9 19 10 11 11 13 12
REMARK SMILES IDX 14 13 15 14 16 15 17 16 18 17 12 18 2 19 1 20 3 21 10 22
REMARK H PARENT 10 23
REMARK Flexibility Score: inf
ROOT
ATOM      1  C   UNL     1      27.825  29.759  24.635  1.00  0.00    -0.003 A 
ATOM      2  C   UNL     1      28.347  28.762  23.785  1.00  0.00     0.119 A 
ATOM      3  C   UNL     1      28.091  27.413  24.049  1.00  0.00     0.051 A 
ATOM      4  C   UNL     1      27.293  27.011  25.141  1.00  0.00    -0.027 A 
ATOM      5  C   UNL     1      26.823  28.008  26.029  1.00  0.00     0.022 A 
ATOM      6  C   UNL     1      27.076  29.364  25.755  1.00  0.00     0.020 A 
ATOM      7  C   UNL     1      26.079  27.636  27.254  1.00  0.00     0.163 C 
ATOM      8  O   UNL     1      25.640  28.527  28.032  1.00  0.00    -0.294 OA
ATOM      9  C   UNL     1      25.888  26.201  27.621  1.00  0.00     0.086 C 
ATOM     10  C   UNL     1      25.810  25.319  26.357  1.00  0.00     0.013 C 
ATOM     11  C   UNL     1      27.062  25.509  25.417  1.00  0.00    -0.003 C 
ATOM     12  C   UNL     1      26.799  24.752  24.063  1.00  0.00     0.012 C 
ATOM     13  C   UNL     1      25.790  23.590  24.133  1.00  0.00     0.001 C 
ATOM     14  C   UNL     1      25.821  22.875  25.481  1.00  0.00     0.007 C 
ATOM     15  C   UNL     1      25.405  23.813  26.655  1.00  0.00    -0.031 C 
ATOM     16  C   UNL     1      23.864  23.728  26.820  1.00  0.00     0.011 C 
ATOM     17  C   UNL     1      26.032  23.267  27.963  1.00  0.00     0.011 C 
ATOM     18  C   UNL     1      28.372  24.985  26.062  1.00  0.00     0.017 C 
ENDROOT
BRANCH   1  19
ATOM     19  C   UNL     1      28.064  31.244  24.393  1.00  0.00     0.017 C 
ATOM     20  C   UNL     1      29.103  31.818  25.366  1.00  0.00     0.012 C 
ATOM     21  C   UNL     1      28.436  31.533  22.934  1.00  0.00     0.012 C 
ENDBRANCH   1  19
BRANCH   2  22
ATOM     22  O   UNL     1      29.125  29.106  22.680  1.00  0.00    -0.508 OA
ATOM     23  H   UNL     1      29.943  28.571  22.415  1.00  0.00     0.293 HD
ENDBRANCH   2  22
TORSDOF 2
ENDMDL
