MODEL 1
REMARK VINA RESULT:    -3.417      0.000      0.000
REMARK INTER + INTRA:          -5.136
REMARK INTER:                  -4.516
REMARK INTRA:                  -0.620
REMARK UNBOUND:                -0.620
REMARK SMILES C=CCC[C@H](O)CCC
REMARK SMILES IDX 4 1 5 2 7 3 8 4 9 5 6 6 3 8 2 9 1 10
REMARK H PARENT 6 7
REMARK Flexibility Score: inf
ROOT
ATOM      1  C   UNL     1     143.546 141.975 145.203  1.00  0.00     0.036 C 
ENDROOT
BRANCH   1   2
ATOM      2  C   UNL     1     143.144 143.147 146.119  1.00  0.00     0.114 C 
BRANCH   2   3
ATOM      3  C   UNL     1     141.629 143.104 146.404  1.00  0.00     0.031 C 
BRANCH   3   4
ATOM      4  C   UNL     1     140.819 144.101 145.556  1.00  0.00    -0.001 C 
ATOM      5  C   UNL     1     141.664 145.241 144.991  1.00  0.00     0.004 C 
ENDBRANCH   3   4
ENDBRANCH   2   3
BRANCH   2   6
ATOM      6  O   UNL     1     143.848 143.054 147.332  1.00  0.00    -0.393 OA
ATOM      7  H   UNL     1     143.713 143.910 147.816  1.00  0.00     0.210 HD
ENDBRANCH   2   6
ENDBRANCH   1   2
BRANCH   1   8
ATOM      8  C   UNL     1     143.656 142.407 143.734  1.00  0.00     0.029 C 
BRANCH   8   9
ATOM      9  C   UNL     1     142.726 141.610 142.861  1.00  0.00    -0.035 C 
ATOM     10  C   UNL     1     141.484 142.025 142.594  1.00  0.00     0.004 C 
ENDBRANCH   8   9
ENDBRANCH   1   8
TORSDOF 6
ENDMDL
MODEL 2
REMARK VINA RESULT:    -3.343     10.977     11.769
REMARK INTER + INTRA:          -5.038
REMARK INTER:                  -4.521
REMARK INTRA:                  -0.517
REMARK UNBOUND:                -0.620
REMARK SMILES C=CCC[C@H](O)CCC
REMARK SMILES IDX 4 1 5 2 7 3 8 4 9 5 6 6 3 8 2 9 1 10
REMARK H PARENT 6 7
REMARK Flexibility Score: inf
ROOT
ATOM      1  C   UNL     1     138.347 132.343 151.006  1.00  0.00     0.036 C 
ENDROOT
BRANCH   1   2
ATOM      2  C   UNL     1     139.648 133.044 151.444  1.00  0.00     0.114 C 
BRANCH   2   3
ATOM      3  C   UNL     1     139.822 134.370 150.676  1.00  0.00     0.031 C 
BRANCH   3   4
ATOM      4  C   UNL     1     140.967 134.337 149.648  1.00  0.00    -0.001 C 
ATOM      5  C   UNL     1     141.850 133.096 149.767  1.00  0.00     0.004 C 
ENDBRANCH   3   4
ENDBRANCH   2   3
BRANCH   2   6
ATOM      6  O   UNL     1     139.595 133.308 152.823  1.00  0.00    -0.393 OA
ATOM      7  H   UNL     1     140.477 133.056 153.204  1.00  0.00     0.210 HD
ENDBRANCH   2   6
ENDBRANCH   1   2
BRANCH   1   8
ATOM      8  C   UNL     1     137.464 133.259 150.148  1.00  0.00     0.029 C 
BRANCH   8   9
ATOM      9  C   UNL     1     137.209 132.657 148.794  1.00  0.00    -0.035 C 
ATOM     10  C   UNL     1     137.717 133.192 147.679  1.00  0.00     0.004 C 
ENDBRANCH   8   9
ENDBRANCH   1   8
TORSDOF 6
ENDMDL
MODEL 3
REMARK VINA RESULT:    -3.247     10.802     11.571
REMARK INTER + INTRA:          -4.912
REMARK INTER:                  -4.424
REMARK INTRA:                  -0.487
REMARK UNBOUND:                -0.620
REMARK SMILES C=CCC[C@H](O)CCC
REMARK SMILES IDX 4 1 5 2 7 3 8 4 9 5 6 6 3 8 2 9 1 10
REMARK H PARENT 6 7
REMARK Flexibility Score: inf
ROOT
ATOM      1  C   UNL     1     140.792 132.599 151.034  1.00  0.00     0.036 C 
ENDROOT
BRANCH   1   2
ATOM      2  C   UNL     1     139.492 133.250 151.544  1.00  0.00     0.114 C 
BRANCH   2   3
ATOM      3  C   UNL     1     138.267 132.465 151.033  1.00  0.00     0.031 C 
BRANCH   3   4
ATOM      4  C   UNL     1     137.308 133.314 150.180  1.00  0.00    -0.001 C 
ATOM      5  C   UNL     1     137.465 133.080 148.679  1.00  0.00     0.004 C 
ENDBRANCH   3   4
ENDBRANCH   2   3
BRANCH   2   6
ATOM      6  O   UNL     1     139.491 133.251 152.950  1.00  0.00    -0.393 OA
ATOM      7  H   UNL     1     139.635 134.188 153.243  1.00  0.00     0.210 HD
ENDBRANCH   2   6
ENDBRANCH   1   2
BRANCH   1   8
ATOM      8  C   UNL     1     141.101 132.997 149.584  1.00  0.00     0.029 C 
BRANCH   8   9
ATOM      9  C   UNL     1     140.945 134.479 149.381  1.00  0.00    -0.035 C 
ATOM     10  C   UNL     1     141.969 135.249 149.001  1.00  0.00     0.004 C 
ENDBRANCH   8   9
ENDBRANCH   1   8
TORSDOF 6
ENDMDL
MODEL 4
REMARK VINA RESULT:    -3.222      1.747      3.575
REMARK INTER + INTRA:          -4.877
REMARK INTER:                  -4.247
REMARK INTRA:                  -0.630
REMARK UNBOUND:                -0.620
REMARK SMILES C=CCC[C@H](O)CCC
REMARK SMILES IDX 4 1 5 2 7 3 8 4 9 5 6 6 3 8 2 9 1 10
REMARK H PARENT 6 7
REMARK Flexibility Score: inf
ROOT
ATOM      1  C   UNL     1     143.771 143.211 144.952  1.00  0.00     0.036 C 
ENDROOT
BRANCH   1   2
ATOM      2  C   UNL     1     143.820 143.970 143.612  1.00  0.00     0.114 C 
BRANCH   2   3
ATOM      3  C   UNL     1     142.608 143.586 142.739  1.00  0.00     0.031 C 
BRANCH   3   4
ATOM      4  C   UNL     1     142.489 142.072 142.489  1.00  0.00    -0.001 C 
ATOM      5  C   UNL     1     141.159 141.485 142.959  1.00  0.00     0.004 C 
ENDBRANCH   3   4
ENDBRANCH   2   3
BRANCH   2   6
ATOM      6  O   UNL     1     143.797 145.353 143.858  1.00  0.00    -0.393 OA
ATOM      7  H   UNL     1     144.278 145.793 143.109  1.00  0.00     0.210 HD
ENDBRANCH   2   6
ENDBRANCH   1   2
BRANCH   1   8
ATOM      8  C   UNL     1     142.989 143.986 146.022  1.00  0.00     0.029 C 
BRANCH   8   9
ATOM      9  C   UNL     1     141.688 143.305 146.346  1.00  0.00    -0.035 C 
ATOM     10  C   UNL     1     140.519 143.773 145.898  1.00  0.00     0.004 C 
ENDBRANCH   8   9
ENDBRANCH   1   8
TORSDOF 6
ENDMDL
MODEL 5
REMARK VINA RESULT:    -3.173      1.791      2.228
REMARK INTER + INTRA:          -4.813
REMARK INTER:                  -4.176
REMARK INTRA:                  -0.637
REMARK UNBOUND:                -0.620
REMARK SMILES C=CCC[C@H](O)CCC
REMARK SMILES IDX 4 1 5 2 7 3 8 4 9 5 6 6 3 8 2 9 1 10
REMARK H PARENT 6 7
REMARK Flexibility Score: inf
ROOT
ATOM      1  C   UNL     1     143.716 143.025 143.363  1.00  0.00     0.036 C 
ENDROOT
BRANCH   1   2
ATOM      2  C   UNL     1     143.209 144.220 144.194  1.00  0.00     0.114 C 
BRANCH   2   3
ATOM      3  C   UNL     1     143.424 143.952 145.697  1.00  0.00     0.031 C 
BRANCH   3   4
ATOM      4  C   UNL     1     142.201 143.323 146.388  1.00  0.00    -0.001 C 
ATOM      5  C   UNL     1     140.870 143.891 145.897  1.00  0.00     0.004 C 
ENDBRANCH   3   4
ENDBRANCH   2   3
BRANCH   2   6
ATOM      6  O   UNL     1     143.911 145.379 143.822  1.00  0.00    -0.393 OA
ATOM      7  H   UNL     1     143.843 146.019 144.578  1.00  0.00     0.210 HD
ENDBRANCH   2   6
ENDBRANCH   1   2
BRANCH   1   8
ATOM      8  C   UNL     1     142.566 142.271 142.681  1.00  0.00     0.029 C 
BRANCH   8   9
ATOM      9  C   UNL     1     142.194 141.034 143.450  1.00  0.00    -0.035 C 
ATOM     10  C   UNL     1     140.939 140.802 143.846  1.00  0.00     0.004 C 
ENDBRANCH   8   9
ENDBRANCH   1   8
TORSDOF 6
ENDMDL
MODEL 6
REMARK VINA RESULT:    -3.105      2.214      3.988
REMARK INTER + INTRA:          -4.724
REMARK INTER:                  -4.071
REMARK INTRA:                  -0.653
REMARK UNBOUND:                -0.620
REMARK SMILES C=CCC[C@H](O)CCC
REMARK SMILES IDX 4 1 5 2 7 3 8 4 9 5 6 6 3 8 2 9 1 10
REMARK H PARENT 6 7
REMARK Flexibility Score: inf
ROOT
ATOM      1  C   UNL     1     141.172 142.301 145.066  1.00  0.00     0.036 C 
ENDROOT
BRANCH   1   2
ATOM      2  C   UNL     1     141.489 142.158 143.565  1.00  0.00     0.114 C 
BRANCH   2   3
ATOM      3  C   UNL     1     142.898 141.559 143.374  1.00  0.00     0.031 C 
BRANCH   3   4
ATOM      4  C   UNL     1     143.939 142.587 142.896  1.00  0.00    -0.001 C 
ATOM      5  C   UNL     1     143.323 143.916 142.463  1.00  0.00     0.004 C 
ENDBRANCH   3   4
ENDBRANCH   2   3
BRANCH   2   6
ATOM      6  O   UNL     1     140.539 141.313 142.966  1.00  0.00    -0.393 OA
ATOM      7  H   UNL     1     140.638 141.410 141.983  1.00  0.00     0.210 HD
ENDBRANCH   2   6
ENDBRANCH   1   2
BRANCH   1   8
ATOM      8  C   UNL     1     140.868 143.756 145.451  1.00  0.00     0.029 C 
BRANCH   8   9
ATOM      9  C   UNL     1     142.097 144.451 145.969  1.00  0.00    -0.035 C 
ATOM     10  C   UNL     1     143.170 143.769 146.381  1.00  0.00     0.004 C 
ENDBRANCH   8   9
ENDBRANCH   1   8
TORSDOF 6
ENDMDL
MODEL 7
REMARK VINA RESULT:    -3.053     11.724     12.527
REMARK INTER + INTRA:          -4.655
REMARK INTER:                  -4.368
REMARK INTRA:                  -0.288
REMARK UNBOUND:                -0.620
REMARK SMILES C=CCC[C@H](O)CCC
REMARK SMILES IDX 4 1 5 2 7 3 8 4 9 5 6 6 3 8 2 9 1 10
REMARK H PARENT 6 7
REMARK Flexibility Score: inf
ROOT
ATOM      1  C   UNL     1     137.844 133.378 150.628  1.00  0.00     0.036 C 
ENDROOT
BRANCH   1   2
ATOM      2  C   UNL     1     139.103 132.725 151.231  1.00  0.00     0.114 C 
BRANCH   2   3
ATOM      3  C   UNL     1     140.342 133.076 150.384  1.00  0.00     0.031 C 
BRANCH   3   4
ATOM      4  C   UNL     1     140.417 134.563 149.996  1.00  0.00    -0.001 C 
ATOM      5  C   UNL     1     141.630 134.902 149.130  1.00  0.00     0.004 C 
ENDBRANCH   3   4
ENDBRANCH   2   3
BRANCH   2   6
ATOM      6  O   UNL     1     139.288 133.193 152.543  1.00  0.00    -0.393 OA
ATOM      7  H   UNL     1     138.395 133.455 152.890  1.00  0.00     0.210 HD
ENDBRANCH   2   6
ENDBRANCH   1   2
BRANCH   1   8
ATOM      8  C   UNL     1     136.881 132.335 150.043  1.00  0.00     0.029 C 
BRANCH   8   9
ATOM      9  C   UNL     1     137.164 130.964 150.593  1.00  0.00    -0.035 C 
ATOM     10  C   UNL     1     136.235 130.004 150.602  1.00  0.00     0.004 C 
ENDBRANCH   8   9
ENDBRANCH   1   8
TORSDOF 6
ENDMDL
MODEL 8
REMARK VINA RESULT:    -3.050     12.175     13.099
REMARK INTER + INTRA:          -4.651
REMARK INTER:                  -4.044
REMARK INTRA:                  -0.607
REMARK UNBOUND:                -0.620
REMARK SMILES C=CCC[C@H](O)CCC
REMARK SMILES IDX 4 1 5 2 7 3 8 4 9 5 6 6 3 8 2 9 1 10
REMARK H PARENT 6 7
REMARK Flexibility Score: inf
ROOT
ATOM      1  C   UNL     1     138.875 133.714 150.248  1.00  0.00     0.036 C 
ENDROOT
BRANCH   1   2
ATOM      2  C   UNL     1     139.315 132.686 151.309  1.00  0.00     0.114 C 
BRANCH   2   3
ATOM      3  C   UNL     1     140.701 132.113 150.952  1.00  0.00     0.031 C 
BRANCH   3   4
ATOM      4  C   UNL     1     140.639 130.921 149.980  1.00  0.00    -0.001 C 
ATOM      5  C   UNL     1     139.759 129.777 150.482  1.00  0.00     0.004 C 
ENDBRANCH   3   4
ENDBRANCH   2   3
BRANCH   2   6
ATOM      6  O   UNL     1     139.379 133.312 152.565  1.00  0.00    -0.393 OA
ATOM      7  H   UNL     1     139.910 132.721 153.161  1.00  0.00     0.210 HD
ENDBRANCH   2   6
ENDBRANCH   1   2
BRANCH   1   8
ATOM      8  C   UNL     1     137.514 133.357 149.634  1.00  0.00     0.029 C 
BRANCH   8   9
ATOM      9  C   UNL     1     136.904 132.165 150.317  1.00  0.00    -0.035 C 
ATOM     10  C   UNL     1     136.374 131.152 149.624  1.00  0.00     0.004 C 
ENDBRANCH   8   9
ENDBRANCH   1   8
TORSDOF 6
ENDMDL
MODEL 9
REMARK VINA RESULT:    -2.971     11.375     12.016
REMARK INTER + INTRA:          -4.546
REMARK INTER:                  -3.918
REMARK INTRA:                  -0.627
REMARK UNBOUND:                -0.620
REMARK SMILES C=CCC[C@H](O)CCC
REMARK SMILES IDX 4 1 5 2 7 3 8 4 9 5 6 6 3 8 2 9 1 10
REMARK H PARENT 6 7
REMARK Flexibility Score: inf
ROOT
ATOM      1  C   UNL     1     137.433 131.904 148.709  1.00  0.00     0.036 C 
ENDROOT
BRANCH   1   2
ATOM      2  C   UNL     1     137.266 132.101 150.229  1.00  0.00     0.114 C 
BRANCH   2   3
ATOM      3  C   UNL     1     138.637 132.030 150.929  1.00  0.00     0.031 C 
BRANCH   3   4
ATOM      4  C   UNL     1     139.101 133.380 151.504  1.00  0.00    -0.001 C 
ATOM      5  C   UNL     1     140.081 134.120 150.596  1.00  0.00     0.004 C 
ENDBRANCH   3   4
ENDBRANCH   2   3
BRANCH   2   6
ATOM      6  O   UNL     1     136.681 133.355 150.474  1.00  0.00    -0.393 OA
ATOM      7  H   UNL     1     136.260 133.654 149.627  1.00  0.00     0.210 HD
ENDBRANCH   2   6
ENDBRANCH   1   2
BRANCH   1   8
ATOM      8  C   UNL     1     137.482 133.242 147.960  1.00  0.00     0.029 C 
BRANCH   8   9
ATOM      9  C   UNL     1     138.642 133.289 147.004  1.00  0.00    -0.035 C 
ATOM     10  C   UNL     1     139.751 132.572 147.207  1.00  0.00     0.004 C 
ENDBRANCH   8   9
ENDBRANCH   1   8
TORSDOF 6
ENDMDL
