MODEL 1
REMARK VINA RESULT:    -4.498      0.000      0.000
REMARK INTER + INTRA:          -5.159
REMARK INTER:                  -5.024
REMARK INTRA:                  -0.135
REMARK UNBOUND:                -0.135
REMARK SMILES O=C([O-])C=Cc1ccccc1
REMARK SMILES IDX 4 1 5 2 2 3 1 4 3 5 6 6 7 7 11 8 8 9 10 10 9 11
REMARK H PARENT
REMARK Flexibility Score: inf
ROOT
ATOM      1  C   UNL     1      10.791  -8.547  26.650  1.00  0.00     0.025 C 
ATOM      2  C   UNL     1      10.994  -7.313  27.136  1.00  0.00     0.010 C 
ENDROOT
BRANCH   1   3
ATOM      3  C   UNL     1      11.014  -9.756  27.460  1.00  0.00     0.064 C 
ATOM      4  O   UNL     1      10.291 -10.014  28.461  1.00  0.00    -0.545 OA
ATOM      5  O   UNL     1      12.037 -10.629  27.116  1.00  0.00    -0.545 OA
ENDBRANCH   1   3
BRANCH   2   6
ATOM      6  C   UNL     1      10.787  -6.053  26.370  1.00  0.00    -0.026 A 
ATOM      7  C   UNL     1       9.536  -5.846  25.759  1.00  0.00     0.008 A 
ATOM      8  C   UNL     1      11.780  -5.059  26.227  1.00  0.00     0.008 A 
ATOM      9  C   UNL     1       9.282  -4.683  25.028  1.00  0.00     0.001 A 
ATOM     10  C   UNL     1      11.518  -3.897  25.493  1.00  0.00     0.001 A 
ATOM     11  C   UNL     1      10.273  -3.709  24.894  1.00  0.00     0.000 A 
ENDBRANCH   2   6
TORSDOF 2
ENDMDL
MODEL 2
REMARK VINA RESULT:    -4.486      6.279      7.789
REMARK INTER + INTRA:          -5.146
REMARK INTER:                  -5.001
REMARK INTRA:                  -0.145
REMARK UNBOUND:                -0.135
REMARK SMILES O=C([O-])C=Cc1ccccc1
REMARK SMILES IDX 4 1 5 2 2 3 1 4 3 5 6 6 7 7 11 8 8 9 10 10 9 11
REMARK H PARENT
REMARK Flexibility Score: inf
ROOT
ATOM      1  C   UNL     1      10.583 -10.626  21.737  1.00  0.00     0.025 C 
ATOM      2  C   UNL     1      10.751 -11.877  22.191  1.00  0.00     0.010 C 
ENDROOT
BRANCH   1   3
ATOM      3  C   UNL     1       9.964 -10.341  20.431  1.00  0.00     0.064 C 
ATOM      4  O   UNL     1      10.648 -10.338  19.371  1.00  0.00    -0.545 OA
ATOM      5  O   UNL     1       8.603 -10.074  20.364  1.00  0.00    -0.545 OA
ENDBRANCH   1   3
BRANCH   2   6
ATOM      6  C   UNL     1      11.367 -12.231  23.498  1.00  0.00    -0.026 A 
ATOM      7  C   UNL     1      11.678 -11.186  24.390  1.00  0.00     0.008 A 
ATOM      8  C   UNL     1      11.655 -13.558  23.888  1.00  0.00     0.008 A 
ATOM      9  C   UNL     1      12.258 -11.456  25.632  1.00  0.00     0.001 A 
ATOM     10  C   UNL     1      12.235 -13.820  25.134  1.00  0.00     0.001 A 
ATOM     11  C   UNL     1      12.537 -12.772  26.004  1.00  0.00     0.000 A 
ENDBRANCH   2   6
TORSDOF 2
ENDMDL
MODEL 3
REMARK VINA RESULT:    -4.484      3.158      5.387
REMARK INTER + INTRA:          -5.143
REMARK INTER:                  -5.011
REMARK INTRA:                  -0.132
REMARK UNBOUND:                -0.135
REMARK SMILES O=C([O-])C=Cc1ccccc1
REMARK SMILES IDX 4 1 5 2 2 3 1 4 3 5 6 6 7 7 11 8 8 9 10 10 9 11
REMARK H PARENT
REMARK Flexibility Score: inf
ROOT
ATOM      1  C   UNL     1      10.588  -5.987  25.777  1.00  0.00     0.025 C 
ATOM      2  C   UNL     1      10.171  -7.219  25.448  1.00  0.00     0.010 C 
ENDROOT
BRANCH   1   3
ATOM      3  C   UNL     1       9.992  -4.774  25.193  1.00  0.00     0.064 C 
ATOM      4  O   UNL     1       8.788  -4.754  24.817  1.00  0.00    -0.545 OA
ATOM      5  O   UNL     1      10.768  -3.631  25.054  1.00  0.00    -0.545 OA
ENDBRANCH   1   3
BRANCH   2   6
ATOM      6  C   UNL     1      10.731  -8.482  26.002  1.00  0.00    -0.026 A 
ATOM      7  C   UNL     1      10.410  -8.824  27.329  1.00  0.00     0.008 A 
ATOM      8  C   UNL     1      11.564  -9.351  25.264  1.00  0.00     0.008 A 
ATOM      9  C   UNL     1      10.905  -9.998  27.904  1.00  0.00     0.001 A 
ATOM     10  C   UNL     1      12.056 -10.525  25.846  1.00  0.00     0.001 A 
ATOM     11  C   UNL     1      11.728 -10.847  27.163  1.00  0.00     0.000 A 
ENDBRANCH   2   6
TORSDOF 2
ENDMDL
MODEL 4
REMARK VINA RESULT:    -4.458      3.394      5.439
REMARK INTER + INTRA:          -5.114
REMARK INTER:                  -4.983
REMARK INTRA:                  -0.130
REMARK UNBOUND:                -0.135
REMARK SMILES O=C([O-])C=Cc1ccccc1
REMARK SMILES IDX 4 1 5 2 2 3 1 4 3 5 6 6 7 7 11 8 8 9 10 10 9 11
REMARK H PARENT
REMARK Flexibility Score: inf
ROOT
ATOM      1  C   UNL     1       9.597  -5.876  25.736  1.00  0.00     0.025 C 
ATOM      2  C   UNL     1       9.889  -7.089  25.243  1.00  0.00     0.010 C 
ENDROOT
BRANCH   1   3
ATOM      3  C   UNL     1       9.103  -4.780  24.884  1.00  0.00     0.064 C 
ATOM      4  O   UNL     1       8.111  -4.942  24.122  1.00  0.00    -0.545 OA
ATOM      5  O   UNL     1       9.739  -3.547  24.921  1.00  0.00    -0.545 OA
ENDBRANCH   1   3
BRANCH   2   6
ATOM      6  C   UNL     1      10.391  -8.235  26.048  1.00  0.00    -0.026 A 
ATOM      7  C   UNL     1      11.289  -9.132  25.438  1.00  0.00     0.008 A 
ATOM      8  C   UNL     1      10.012  -8.468  27.389  1.00  0.00     0.008 A 
ATOM      9  C   UNL     1      11.795 -10.227  26.144  1.00  0.00     0.001 A 
ATOM     10  C   UNL     1      10.523  -9.565  28.089  1.00  0.00     0.001 A 
ATOM     11  C   UNL     1      11.412 -10.444  27.469  1.00  0.00     0.000 A 
ENDBRANCH   2   6
TORSDOF 2
ENDMDL
MODEL 5
REMARK VINA RESULT:    -4.444      3.777      4.864
REMARK INTER + INTRA:          -5.098
REMARK INTER:                  -4.958
REMARK INTRA:                  -0.141
REMARK UNBOUND:                -0.135
REMARK SMILES O=C([O-])C=Cc1ccccc1
REMARK SMILES IDX 4 1 5 2 2 3 1 4 3 5 6 6 7 7 11 8 8 9 10 10 9 11
REMARK H PARENT
REMARK Flexibility Score: inf
ROOT
ATOM      1  C   UNL     1       8.080  -5.826  24.047  1.00  0.00     0.025 C 
ATOM      2  C   UNL     1       8.770  -4.778  24.521  1.00  0.00     0.010 C 
ENDROOT
BRANCH   1   3
ATOM      3  C   UNL     1       6.806  -5.666  23.325  1.00  0.00     0.064 C 
ATOM      4  O   UNL     1       5.701  -5.877  23.894  1.00  0.00    -0.545 OA
ATOM      5  O   UNL     1       6.822  -5.273  21.993  1.00  0.00    -0.545 OA
ENDBRANCH   1   3
BRANCH   2   6
ATOM      6  C   UNL     1      10.060  -4.872  25.258  1.00  0.00    -0.026 A 
ATOM      7  C   UNL     1      10.291  -6.016  26.046  1.00  0.00     0.008 A 
ATOM      8  C   UNL     1      11.059  -3.876  25.205  1.00  0.00     0.008 A 
ATOM      9  C   UNL     1      11.483  -6.162  26.760  1.00  0.00     0.001 A 
ATOM     10  C   UNL     1      12.250  -4.029  25.923  1.00  0.00     0.001 A 
ATOM     11  C   UNL     1      12.462  -5.169  26.699  1.00  0.00     0.000 A 
ENDBRANCH   2   6
TORSDOF 2
ENDMDL
MODEL 6
REMARK VINA RESULT:    -4.324      3.387      4.477
REMARK INTER + INTRA:          -4.964
REMARK INTER:                  -4.834
REMARK INTRA:                  -0.130
REMARK UNBOUND:                -0.135
REMARK SMILES O=C([O-])C=Cc1ccccc1
REMARK SMILES IDX 4 1 5 2 2 3 1 4 3 5 6 6 7 7 11 8 8 9 10 10 9 11
REMARK H PARENT
REMARK Flexibility Score: inf
ROOT
ATOM      1  C   UNL     1       9.870  -8.668  29.653  1.00  0.00     0.025 C 
ATOM      2  C   UNL     1      10.248  -9.640  28.810  1.00  0.00     0.010 C 
ENDROOT
BRANCH   1   3
ATOM      3  C   UNL     1       9.411  -8.952  31.023  1.00  0.00     0.064 C 
ATOM      4  O   UNL     1       8.391  -9.662  31.236  1.00  0.00    -0.545 OA
ATOM      5  O   UNL     1      10.115  -8.429  32.101  1.00  0.00    -0.545 OA
ENDBRANCH   1   3
BRANCH   2   6
ATOM      6  C   UNL     1      10.721  -9.420  27.416  1.00  0.00    -0.026 A 
ATOM      7  C   UNL     1      11.718 -10.276  26.911  1.00  0.00     0.008 A 
ATOM      8  C   UNL     1      10.221  -8.400  26.578  1.00  0.00     0.008 A 
ATOM      9  C   UNL     1      12.202 -10.120  25.609  1.00  0.00     0.001 A 
ATOM     10  C   UNL     1      10.709  -8.249  25.275  1.00  0.00     0.001 A 
ATOM     11  C   UNL     1      11.698  -9.107  24.792  1.00  0.00     0.000 A 
ENDBRANCH   2   6
TORSDOF 2
ENDMDL
MODEL 7
REMARK VINA RESULT:    -4.310      4.349      6.776
REMARK INTER + INTRA:          -4.949
REMARK INTER:                  -4.810
REMARK INTRA:                  -0.139
REMARK UNBOUND:                -0.135
REMARK SMILES O=C([O-])C=Cc1ccccc1
REMARK SMILES IDX 4 1 5 2 2 3 1 4 3 5 6 6 7 7 11 8 8 9 10 10 9 11
REMARK H PARENT
REMARK Flexibility Score: inf
ROOT
ATOM      1  C   UNL     1       9.912  -9.105  28.864  1.00  0.00     0.025 C 
ATOM      2  C   UNL     1       9.510  -8.585  30.033  1.00  0.00     0.010 C 
ENDROOT
BRANCH   1   3
ATOM      3  C   UNL     1       9.610  -8.462  27.574  1.00  0.00     0.064 C 
ATOM      4  O   UNL     1       8.705  -7.590  27.475  1.00  0.00    -0.545 OA
ATOM      5  O   UNL     1      10.337  -8.821  26.446  1.00  0.00    -0.545 OA
ENDBRANCH   1   3
BRANCH   2   6
ATOM      6  C   UNL     1       9.782  -9.184  31.368  1.00  0.00    -0.026 A 
ATOM      7  C   UNL     1       9.567 -10.566  31.531  1.00  0.00     0.008 A 
ATOM      8  C   UNL     1      10.243  -8.439  32.476  1.00  0.00     0.008 A 
ATOM      9  C   UNL     1       9.805 -11.186  32.761  1.00  0.00     0.001 A 
ATOM     10  C   UNL     1      10.480  -9.066  33.703  1.00  0.00     0.001 A 
ATOM     11  C   UNL     1      10.260 -10.437  33.846  1.00  0.00     0.000 A 
ENDBRANCH   2   6
TORSDOF 2
ENDMDL
MODEL 8
REMARK VINA RESULT:    -4.224      3.072      4.197
REMARK INTER + INTRA:          -4.853
REMARK INTER:                  -4.714
REMARK INTRA:                  -0.139
REMARK UNBOUND:                -0.135
REMARK SMILES O=C([O-])C=Cc1ccccc1
REMARK SMILES IDX 4 1 5 2 2 3 1 4 3 5 6 6 7 7 11 8 8 9 10 10 9 11
REMARK H PARENT
REMARK Flexibility Score: inf
ROOT
ATOM      1  C   UNL     1      12.159 -11.744  25.736  1.00  0.00     0.025 C 
ATOM      2  C   UNL     1      12.058 -10.913  26.784  1.00  0.00     0.010 C 
ENDROOT
BRANCH   1   3
ATOM      3  C   UNL     1      13.021 -12.938  25.762  1.00  0.00     0.064 C 
ATOM      4  O   UNL     1      14.214 -12.890  25.358  1.00  0.00    -0.545 OA
ATOM      5  O   UNL     1      12.512 -14.138  26.242  1.00  0.00    -0.545 OA
ENDBRANCH   1   3
BRANCH   2   6
ATOM      6  C   UNL     1      11.206  -9.692  26.822  1.00  0.00    -0.026 A 
ATOM      7  C   UNL     1      11.091  -8.927  25.645  1.00  0.00     0.008 A 
ATOM      8  C   UNL     1      10.511  -9.265  27.975  1.00  0.00     0.008 A 
ATOM      9  C   UNL     1      10.306  -7.772  25.619  1.00  0.00     0.001 A 
ATOM     10  C   UNL     1       9.726  -8.108  27.940  1.00  0.00     0.001 A 
ATOM     11  C   UNL     1       9.624  -7.361  26.765  1.00  0.00     0.000 A 
ENDBRANCH   2   6
TORSDOF 2
ENDMDL
MODEL 9
REMARK VINA RESULT:    -4.224      3.026      4.154
REMARK INTER + INTRA:          -4.853
REMARK INTER:                  -4.724
REMARK INTRA:                  -0.128
REMARK UNBOUND:                -0.135
REMARK SMILES O=C([O-])C=Cc1ccccc1
REMARK SMILES IDX 4 1 5 2 2 3 1 4 3 5 6 6 7 7 11 8 8 9 10 10 9 11
REMARK H PARENT
REMARK Flexibility Score: inf
ROOT
ATOM      1  C   UNL     1      12.125 -11.790  25.727  1.00  0.00     0.025 C 
ATOM      2  C   UNL     1      12.088 -10.882  26.713  1.00  0.00     0.010 C 
ENDROOT
BRANCH   1   3
ATOM      3  C   UNL     1      12.963 -12.999  25.805  1.00  0.00     0.064 C 
ATOM      4  O   UNL     1      14.132 -13.016  25.331  1.00  0.00    -0.545 OA
ATOM      5  O   UNL     1      12.459 -14.141  26.415  1.00  0.00    -0.545 OA
ENDBRANCH   1   3
BRANCH   2   6
ATOM      6  C   UNL     1      11.264  -9.642  26.695  1.00  0.00    -0.026 A 
ATOM      7  C   UNL     1      10.619  -9.257  27.885  1.00  0.00     0.008 A 
ATOM      8  C   UNL     1      11.097  -8.836  25.547  1.00  0.00     0.008 A 
ATOM      9  C   UNL     1       9.832  -8.103  27.930  1.00  0.00     0.001 A 
ATOM     10  C   UNL     1      10.309  -7.682  25.599  1.00  0.00     0.001 A 
ATOM     11  C   UNL     1       9.677  -7.316  26.788  1.00  0.00     0.000 A 
ENDBRANCH   2   6
TORSDOF 2
ENDMDL
