MODEL 1
REMARK VINA RESULT:    -2.911      0.000      0.000
REMARK INTER + INTRA:          -5.724
REMARK INTER:                  -4.612
REMARK INTRA:                  -1.111
REMARK UNBOUND:                -1.111
REMARK SMILES CCCCCCCCCCCC(=O)[O-]
REMARK SMILES IDX 7 1 8 2 9 3 10 4 11 5 12 6 13 7 14 8 6 9 5 10 4 11 3 12 2 13
REMARK SMILES IDX 1 14
REMARK H PARENT
REMARK Flexibility Score: inf
ROOT
ATOM      1  C   UNL     1       3.792  19.480   5.864  1.00  0.00     0.000 C 
ENDROOT
BRANCH   1   2
ATOM      2  C   UNL     1       4.545  18.141   5.758  1.00  0.00     0.000 C 
BRANCH   2   3
ATOM      3  C   UNL     1       5.645  17.916   6.816  1.00  0.00     0.000 C 
BRANCH   3   4
ATOM      4  C   UNL     1       5.239  17.018   8.002  1.00  0.00     0.006 C 
BRANCH   4   5
ATOM      5  C   UNL     1       4.050  16.089   7.715  1.00  0.00     0.053 C 
BRANCH   5   6
ATOM      6  C   UNL     1       4.495  14.691   7.411  1.00  0.00     0.041 C 
ATOM      7  O   UNL     1       5.655  14.312   7.721  1.00  0.00    -0.550 OA
ATOM      8  O   UNL     1       3.638  13.816   6.756  1.00  0.00    -0.550 OA
ENDBRANCH   5   6
ENDBRANCH   4   5
ENDBRANCH   3   4
ENDBRANCH   2   3
ENDBRANCH   1   2
BRANCH   1   9
ATOM      9  C   UNL     1       2.422  19.342   6.548  1.00  0.00     0.000 C 
BRANCH   9  10
ATOM     10  C   UNL     1       2.267  20.262   7.773  1.00  0.00    -0.000 C 
BRANCH  10  11
ATOM     11  C   UNL     1       2.842  19.705   9.088  1.00  0.00    -0.000 C 
BRANCH  11  12
ATOM     12  C   UNL     1       1.913  19.926  10.291  1.00  0.00    -0.000 C 
BRANCH  12  13
ATOM     13  C   UNL     1       2.246  18.951  11.428  1.00  0.00    -0.003 C 
ATOM     14  C   UNL     1       3.438  18.069  11.067  1.00  0.00     0.004 C 
ENDBRANCH  12  13
ENDBRANCH  11  12
ENDBRANCH  10  11
ENDBRANCH   9  10
ENDBRANCH   1   9
TORSDOF 10
ENDMDL
MODEL 2
REMARK VINA RESULT:    -2.806      1.250      3.863
REMARK INTER + INTRA:          -5.557
REMARK INTER:                  -4.820
REMARK INTRA:                  -0.737
REMARK UNBOUND:                -1.111
REMARK SMILES CCCCCCCCCCCC(=O)[O-]
REMARK SMILES IDX 7 1 8 2 9 3 10 4 11 5 12 6 13 7 14 8 6 9 5 10 4 11 3 12 2 13
REMARK SMILES IDX 1 14
REMARK H PARENT
REMARK Flexibility Score: inf
ROOT
ATOM      1  C   UNL     1       2.827  18.776  11.217  1.00  0.00     0.000 C 
ENDROOT
BRANCH   1   2
ATOM      2  C   UNL     1       4.023  18.126  10.498  1.00  0.00     0.000 C 
BRANCH   2   3
ATOM      3  C   UNL     1       4.306  16.659  10.881  1.00  0.00     0.000 C 
BRANCH   3   4
ATOM      4  C   UNL     1       4.352  15.670   9.699  1.00  0.00     0.006 C 
BRANCH   4   5
ATOM      5  C   UNL     1       4.269  16.332   8.315  1.00  0.00     0.053 C 
BRANCH   5   6
ATOM      6  C   UNL     1       4.375  15.328   7.208  1.00  0.00     0.041 C 
ATOM      7  O   UNL     1       3.567  14.364   7.146  1.00  0.00    -0.550 OA
ATOM      8  O   UNL     1       5.387  15.440   6.263  1.00  0.00    -0.550 OA
ENDBRANCH   5   6
ENDBRANCH   4   5
ENDBRANCH   3   4
ENDBRANCH   2   3
ENDBRANCH   1   2
BRANCH   1   9
ATOM      9  C   UNL     1       1.979  19.661  10.288  1.00  0.00     0.000 C 
BRANCH   9  10
ATOM     10  C   UNL     1       2.773  20.199   9.083  1.00  0.00    -0.000 C 
BRANCH  10  11
ATOM     11  C   UNL     1       1.965  20.351   7.781  1.00  0.00    -0.000 C 
BRANCH  11  12
ATOM     12  C   UNL     1       2.396  19.362   6.688  1.00  0.00    -0.000 C 
BRANCH  12  13
ATOM     13  C   UNL     1       3.023  20.099   5.497  1.00  0.00    -0.003 C 
ATOM     14  C   UNL     1       2.037  21.084   4.878  1.00  0.00     0.004 C 
ENDBRANCH  12  13
ENDBRANCH  11  12
ENDBRANCH  10  11
ENDBRANCH   9  10
ENDBRANCH   1   9
TORSDOF 10
ENDMDL
MODEL 3
REMARK VINA RESULT:    -2.747      1.407      3.265
REMARK INTER + INTRA:          -5.464
REMARK INTER:                  -4.700
REMARK INTRA:                  -0.764
REMARK UNBOUND:                -1.111
REMARK SMILES CCCCCCCCCCCC(=O)[O-]
REMARK SMILES IDX 7 1 8 2 9 3 10 4 11 5 12 6 13 7 14 8 6 9 5 10 4 11 3 12 2 13
REMARK SMILES IDX 1 14
REMARK H PARENT
REMARK Flexibility Score: inf
ROOT
ATOM      1  C   UNL     1       4.022  18.704  10.202  1.00  0.00     0.000 C 
ENDROOT
BRANCH   1   2
ATOM      2  C   UNL     1       4.295  17.250   9.773  1.00  0.00     0.000 C 
BRANCH   2   3
ATOM      3  C   UNL     1       4.104  16.958   8.271  1.00  0.00     0.000 C 
BRANCH   3   4
ATOM      4  C   UNL     1       4.087  15.464   7.891  1.00  0.00     0.006 C 
BRANCH   4   5
ATOM      5  C   UNL     1       5.186  15.049   6.902  1.00  0.00     0.053 C 
BRANCH   5   6
ATOM      6  C   UNL     1       4.641  14.230   5.772  1.00  0.00     0.041 C 
ATOM      7  O   UNL     1       5.033  14.433   4.593  1.00  0.00    -0.550 OA
ATOM      8  O   UNL     1       3.676  13.262   6.018  1.00  0.00    -0.550 OA
ENDBRANCH   5   6
ENDBRANCH   4   5
ENDBRANCH   3   4
ENDBRANCH   2   3
ENDBRANCH   1   2
BRANCH   1   9
ATOM      9  C   UNL     1       2.633  18.891  10.834  1.00  0.00     0.000 C 
BRANCH   9  10
ATOM     10  C   UNL     1       1.801  19.984  10.141  1.00  0.00    -0.000 C 
BRANCH  10  11
ATOM     11  C   UNL     1       2.302  20.407   8.747  1.00  0.00    -0.000 C 
BRANCH  11  12
ATOM     12  C   UNL     1       1.162  20.741   7.775  1.00  0.00    -0.000 C 
BRANCH  12  13
ATOM     13  C   UNL     1       1.340  19.999   6.444  1.00  0.00    -0.003 C 
ATOM     14  C   UNL     1       2.809  19.682   6.182  1.00  0.00     0.004 C 
ENDBRANCH  12  13
ENDBRANCH  11  12
ENDBRANCH  10  11
ENDBRANCH   9  10
ENDBRANCH   1   9
TORSDOF 10
ENDMDL
MODEL 4
REMARK VINA RESULT:    -2.709      2.054      3.606
REMARK INTER + INTRA:          -5.405
REMARK INTER:                  -4.241
REMARK INTRA:                  -1.164
REMARK UNBOUND:                -1.111
REMARK SMILES CCCCCCCCCCCC(=O)[O-]
REMARK SMILES IDX 7 1 8 2 9 3 10 4 11 5 12 6 13 7 14 8 6 9 5 10 4 11 3 12 2 13
REMARK SMILES IDX 1 14
REMARK H PARENT
REMARK Flexibility Score: inf
ROOT
ATOM      1  C   UNL     1       6.004  18.344   7.736  1.00  0.00     0.000 C 
ENDROOT
BRANCH   1   2
ATOM      2  C   UNL     1       6.320  17.063   8.531  1.00  0.00     0.000 C 
BRANCH   2   3
ATOM      3  C   UNL     1       5.148  16.492   9.355  1.00  0.00     0.000 C 
BRANCH   3   4
ATOM      4  C   UNL     1       4.670  15.089   8.930  1.00  0.00     0.006 C 
BRANCH   4   5
ATOM      5  C   UNL     1       3.822  15.071   7.649  1.00  0.00     0.053 C 
BRANCH   5   6
ATOM      6  C   UNL     1       4.454  14.243   6.573  1.00  0.00     0.041 C 
ATOM      7  O   UNL     1       5.612  14.515   6.160  1.00  0.00    -0.550 OA
ATOM      8  O   UNL     1       3.750  13.189   6.004  1.00  0.00    -0.550 OA
ENDBRANCH   5   6
ENDBRANCH   4   5
ENDBRANCH   3   4
ENDBRANCH   2   3
ENDBRANCH   1   2
BRANCH   1   9
ATOM      9  C   UNL     1       5.798  18.081   6.235  1.00  0.00     0.000 C 
BRANCH   9  10
ATOM     10  C   UNL     1       4.337  18.271   5.788  1.00  0.00    -0.000 C 
BRANCH  10  11
ATOM     11  C   UNL     1       3.350  18.642   6.911  1.00  0.00    -0.000 C 
BRANCH  11  12
ATOM     12  C   UNL     1       2.299  19.671   6.470  1.00  0.00    -0.000 C 
BRANCH  12  13
ATOM     13  C   UNL     1       2.773  20.445   5.232  1.00  0.00    -0.003 C 
ATOM     14  C   UNL     1       1.701  21.414   4.744  1.00  0.00     0.004 C 
ENDBRANCH  12  13
ENDBRANCH  11  12
ENDBRANCH  10  11
ENDBRANCH   9  10
ENDBRANCH   1   9
TORSDOF 10
ENDMDL
MODEL 5
REMARK VINA RESULT:    -2.706      1.517      3.884
REMARK INTER + INTRA:          -5.399
REMARK INTER:                  -4.091
REMARK INTRA:                  -1.308
REMARK UNBOUND:                -1.111
REMARK SMILES CCCCCCCCCCCC(=O)[O-]
REMARK SMILES IDX 7 1 8 2 9 3 10 4 11 5 12 6 13 7 14 8 6 9 5 10 4 11 3 12 2 13
REMARK SMILES IDX 1 14
REMARK H PARENT
REMARK Flexibility Score: inf
ROOT
ATOM      1  C   UNL     1       2.373  20.613   9.515  1.00  0.00     0.000 C 
ENDROOT
BRANCH   1   2
ATOM      2  C   UNL     1       2.479  19.359  10.402  1.00  0.00     0.000 C 
BRANCH   2   3
ATOM      3  C   UNL     1       3.530  18.322   9.956  1.00  0.00     0.000 C 
BRANCH   3   4
ATOM      4  C   UNL     1       4.166  18.585   8.576  1.00  0.00     0.006 C 
BRANCH   4   5
ATOM      5  C   UNL     1       3.821  17.535   7.509  1.00  0.00     0.053 C 
BRANCH   5   6
ATOM      6  C   UNL     1       4.443  16.206   7.812  1.00  0.00     0.041 C 
ATOM      7  O   UNL     1       3.766  15.149   7.708  1.00  0.00    -0.550 OA
ATOM      8  O   UNL     1       5.763  16.138   8.241  1.00  0.00    -0.550 OA
ENDBRANCH   5   6
ENDBRANCH   4   5
ENDBRANCH   3   4
ENDBRANCH   2   3
ENDBRANCH   1   2
BRANCH   1   9
ATOM      9  C   UNL     1       0.927  20.929   9.097  1.00  0.00     0.000 C 
BRANCH   9  10
ATOM     10  C   UNL     1       0.791  21.239   7.595  1.00  0.00    -0.000 C 
BRANCH  10  11
ATOM     11  C   UNL     1       1.325  20.148   6.649  1.00  0.00    -0.000 C 
BRANCH  11  12
ATOM     12  C   UNL     1       1.836  20.710   5.314  1.00  0.00    -0.000 C 
BRANCH  12  13
ATOM     13  C   UNL     1       3.320  20.376   5.110  1.00  0.00    -0.003 C 
ATOM     14  C   UNL     1       4.207  21.245   5.996  1.00  0.00     0.004 C 
ENDBRANCH  12  13
ENDBRANCH  11  12
ENDBRANCH  10  11
ENDBRANCH   9  10
ENDBRANCH   1   9
TORSDOF 10
ENDMDL
MODEL 6
REMARK VINA RESULT:    -2.663      1.081      2.075
REMARK INTER + INTRA:          -5.331
REMARK INTER:                  -4.218
REMARK INTRA:                  -1.113
REMARK UNBOUND:                -1.111
REMARK SMILES CCCCCCCCCCCC(=O)[O-]
REMARK SMILES IDX 7 1 8 2 9 3 10 4 11 5 12 6 13 7 14 8 6 9 5 10 4 11 3 12 2 13
REMARK SMILES IDX 1 14
REMARK H PARENT
REMARK Flexibility Score: inf
ROOT
ATOM      1  C   UNL     1       5.662  19.100   5.708  1.00  0.00     0.000 C 
ENDROOT
BRANCH   1   2
ATOM      2  C   UNL     1       6.195  17.668   5.515  1.00  0.00     0.000 C 
BRANCH   2   3
ATOM      3  C   UNL     1       5.169  16.543   5.760  1.00  0.00     0.000 C 
BRANCH   3   4
ATOM      4  C   UNL     1       4.906  16.208   7.242  1.00  0.00     0.006 C 
BRANCH   4   5
ATOM      5  C   UNL     1       3.856  15.109   7.465  1.00  0.00     0.053 C 
BRANCH   5   6
ATOM      6  C   UNL     1       4.344  13.768   7.010  1.00  0.00     0.041 C 
ATOM      7  O   UNL     1       3.617  13.041   6.283  1.00  0.00    -0.550 OA
ATOM      8  O   UNL     1       5.591  13.309   7.415  1.00  0.00    -0.550 OA
ENDBRANCH   5   6
ENDBRANCH   4   5
ENDBRANCH   3   4
ENDBRANCH   2   3
ENDBRANCH   1   2
BRANCH   1   9
ATOM      9  C   UNL     1       4.477  19.426   4.784  1.00  0.00     0.000 C 
BRANCH   9  10
ATOM     10  C   UNL     1       3.299  20.080   5.529  1.00  0.00    -0.000 C 
BRANCH  10  11
ATOM     11  C   UNL     1       2.662  19.218   6.635  1.00  0.00    -0.000 C 
BRANCH  11  12
ATOM     12  C   UNL     1       2.650  19.912   8.005  1.00  0.00    -0.000 C 
BRANCH  12  13
ATOM     13  C   UNL     1       3.378  19.064   9.056  1.00  0.00    -0.003 C 
ATOM     14  C   UNL     1       2.671  19.134  10.406  1.00  0.00     0.004 C 
ENDBRANCH  12  13
ENDBRANCH  11  12
ENDBRANCH  10  11
ENDBRANCH   9  10
ENDBRANCH   1   9
TORSDOF 10
ENDMDL
MODEL 7
REMARK VINA RESULT:    -2.654      1.001      3.706
REMARK INTER + INTRA:          -5.317
REMARK INTER:                  -4.034
REMARK INTRA:                  -1.283
REMARK UNBOUND:                -1.111
REMARK SMILES CCCCCCCCCCCC(=O)[O-]
REMARK SMILES IDX 7 1 8 2 9 3 10 4 11 5 12 6 13 7 14 8 6 9 5 10 4 11 3 12 2 13
REMARK SMILES IDX 1 14
REMARK H PARENT
REMARK Flexibility Score: inf
ROOT
ATOM      1  C   UNL     1       2.845  19.268   9.780  1.00  0.00     0.000 C 
ENDROOT
BRANCH   1   2
ATOM      2  C   UNL     1       3.623  18.120  10.450  1.00  0.00     0.000 C 
BRANCH   2   3
ATOM      3  C   UNL     1       4.725  17.476   9.584  1.00  0.00     0.000 C 
BRANCH   3   4
ATOM      4  C   UNL     1       4.488  15.998   9.215  1.00  0.00     0.006 C 
BRANCH   4   5
ATOM      5  C   UNL     1       3.952  15.779   7.792  1.00  0.00     0.053 C 
BRANCH   5   6
ATOM      6  C   UNL     1       4.425  14.481   7.211  1.00  0.00     0.041 C 
ATOM      7  O   UNL     1       3.595  13.647   6.763  1.00  0.00    -0.550 OA
ATOM      8  O   UNL     1       5.780  14.180   7.195  1.00  0.00    -0.550 OA
ENDBRANCH   5   6
ENDBRANCH   4   5
ENDBRANCH   3   4
ENDBRANCH   2   3
ENDBRANCH   1   2
BRANCH   1   9
ATOM      9  C   UNL     1       3.477  19.726   8.455  1.00  0.00     0.000 C 
BRANCH   9  10
ATOM     10  C   UNL     1       2.541  19.537   7.247  1.00  0.00    -0.000 C 
BRANCH  10  11
ATOM     11  C   UNL     1       3.236  19.538   5.873  1.00  0.00    -0.000 C 
BRANCH  11  12
ATOM     12  C   UNL     1       4.743  19.259   5.962  1.00  0.00    -0.000 C 
BRANCH  12  13
ATOM     13  C   UNL     1       5.113  17.984   5.193  1.00  0.00    -0.003 C 
ATOM     14  C   UNL     1       6.471  17.448   5.635  1.00  0.00     0.004 C 
ENDBRANCH  12  13
ENDBRANCH  11  12
ENDBRANCH  10  11
ENDBRANCH   9  10
ENDBRANCH   1   9
TORSDOF 10
ENDMDL
MODEL 8
REMARK VINA RESULT:    -2.648      1.445      3.563
REMARK INTER + INTRA:          -5.308
REMARK INTER:                  -4.235
REMARK INTRA:                  -1.073
REMARK UNBOUND:                -1.111
REMARK SMILES CCCCCCCCCCCC(=O)[O-]
REMARK SMILES IDX 7 1 8 2 9 3 10 4 11 5 12 6 13 7 14 8 6 9 5 10 4 11 3 12 2 13
REMARK SMILES IDX 1 14
REMARK H PARENT
REMARK Flexibility Score: inf
ROOT
ATOM      1  C   UNL     1       4.388  18.335   9.111  1.00  0.00     0.000 C 
ENDROOT
BRANCH   1   2
ATOM      2  C   UNL     1       4.266  16.913   9.689  1.00  0.00     0.000 C 
BRANCH   2   3
ATOM      3  C   UNL     1       4.811  15.785   8.788  1.00  0.00     0.000 C 
BRANCH   3   4
ATOM      4  C   UNL     1       4.014  15.539   7.491  1.00  0.00     0.006 C 
BRANCH   4   5
ATOM      5  C   UNL     1       4.879  15.169   6.277  1.00  0.00     0.053 C 
BRANCH   5   6
ATOM      6  C   UNL     1       4.727  13.726   5.902  1.00  0.00     0.041 C 
ATOM      7  O   UNL     1       5.648  13.130   5.285  1.00  0.00    -0.550 OA
ATOM      8  O   UNL     1       3.552  13.050   6.206  1.00  0.00    -0.550 OA
ENDBRANCH   5   6
ENDBRANCH   4   5
ENDBRANCH   3   4
ENDBRANCH   2   3
ENDBRANCH   1   2
BRANCH   1   9
ATOM      9  C   UNL     1       3.157  19.208   9.405  1.00  0.00     0.000 C 
BRANCH   9  10
ATOM     10  C   UNL     1       2.497  19.764   8.130  1.00  0.00    -0.000 C 
BRANCH  10  11
ATOM     11  C   UNL     1       2.915  19.072   6.820  1.00  0.00    -0.000 C 
BRANCH  11  12
ATOM     12  C   UNL     1       3.031  20.045   5.638  1.00  0.00    -0.000 C 
BRANCH  12  13
ATOM     13  C   UNL     1       4.311  19.782   4.834  1.00  0.00    -0.003 C 
ATOM     14  C   UNL     1       5.195  18.748   5.525  1.00  0.00     0.004 C 
ENDBRANCH  12  13
ENDBRANCH  11  12
ENDBRANCH  10  11
ENDBRANCH   9  10
ENDBRANCH   1   9
TORSDOF 10
ENDMDL
MODEL 9
REMARK VINA RESULT:    -2.615      3.080      5.468
REMARK INTER + INTRA:          -5.255
REMARK INTER:                  -4.071
REMARK INTRA:                  -1.184
REMARK UNBOUND:                -1.111
REMARK SMILES CCCCCCCCCCCC(=O)[O-]
REMARK SMILES IDX 7 1 8 2 9 3 10 4 11 5 12 6 13 7 14 8 6 9 5 10 4 11 3 12 2 13
REMARK SMILES IDX 1 14
REMARK H PARENT
REMARK Flexibility Score: inf
ROOT
ATOM      1  C   UNL     1       2.441  19.452  10.343  1.00  0.00     0.000 C 
ENDROOT
BRANCH   1   2
ATOM      2  C   UNL     1       2.909  20.040   8.999  1.00  0.00     0.000 C 
BRANCH   2   3
ATOM      3  C   UNL     1       1.789  20.336   7.982  1.00  0.00     0.000 C 
BRANCH   3   4
ATOM      4  C   UNL     1       1.979  19.696   6.592  1.00  0.00     0.006 C 
BRANCH   4   5
ATOM      5  C   UNL     1       1.793  20.667   5.416  1.00  0.00     0.053 C 
BRANCH   5   6
ATOM      6  C   UNL     1       3.094  20.987   4.745  1.00  0.00     0.041 C 
ATOM      7  O   UNL     1       3.108  21.443   3.572  1.00  0.00    -0.550 OA
ATOM      8  O   UNL     1       4.293  20.751   5.406  1.00  0.00    -0.550 OA
ENDBRANCH   5   6
ENDBRANCH   4   5
ENDBRANCH   3   4
ENDBRANCH   2   3
ENDBRANCH   1   2
BRANCH   1   9
ATOM      9  C   UNL     1       3.295  18.259  10.803  1.00  0.00     0.000 C 
BRANCH   9  10
ATOM     10  C   UNL     1       4.476  17.967   9.860  1.00  0.00    -0.000 C 
BRANCH  10  11
ATOM     11  C   UNL     1       4.439  16.591   9.168  1.00  0.00    -0.000 C 
BRANCH  11  12
ATOM     12  C   UNL     1       4.048  16.676   7.686  1.00  0.00    -0.000 C 
BRANCH  12  13
ATOM     13  C   UNL     1       4.979  17.628   6.925  1.00  0.00    -0.003 C 
ATOM     14  C   UNL     1       5.054  17.263   5.446  1.00  0.00     0.004 C 
ENDBRANCH  12  13
ENDBRANCH  11  12
ENDBRANCH  10  11
ENDBRANCH   9  10
ENDBRANCH   1   9
TORSDOF 10
ENDMDL
