MODEL 1
REMARK VINA RESULT:    -7.624      0.000      0.000
REMARK INTER + INTRA:         -14.462
REMARK INTER:                 -12.527
REMARK INTRA:                  -1.935
REMARK UNBOUND:                -1.935
REMARK SMILES C[C@@H]1O[C@@H](OC[C@H]2O[C@H](Oc3c(-c4ccc(O)c(O)c4)oc4cc(O)cc(O)c4c3=O)[C@@H](O)[C@H](O)[C@H]2O)[C@H](O)[C@@H](O)[C@@H]1O
REMARK SMILES IDX 7 1 36 2 34 3 32 4 9 5 8 6 6 7 5 8 4 9 1 10 2 11 42 12 3 13
REMARK SMILES IDX 40 14 38 15 43 16 41 18 39 20 37 22 35 24 10 26 11 27 12 28
REMARK SMILES IDX 30 29 21 30 29 31 31 32 22 33 27 34 23 35 26 36 24 37 13 38
REMARK SMILES IDX 20 39 14 40 18 41 15 42 16 43 19 44 17 46 28 48 25 50 33 52
REMARK H PARENT 43 17 41 19 39 21 37 23 35 25 19 45 17 47 28 49 25 51 33 53
REMARK Flexibility Score: inf
ROOT
ATOM      1  C   UNL     1      17.885  24.175  42.043  1.00  0.00     0.180 C 
ATOM      2  C   UNL     1      17.472  25.490  41.351  1.00  0.00     0.177 C 
ATOM      3  C   UNL     1      16.443  26.238  42.231  1.00  0.00     0.180 C 
ATOM      4  C   UNL     1      16.943  26.350  43.687  1.00  0.00     0.214 C 
ATOM      5  C   UNL     1      17.482  24.993  44.211  1.00  0.00     0.339 C 
ATOM      6  O   UNL     1      18.442  24.435  43.323  1.00  0.00    -0.332 OA
ENDROOT
BRANCH   1   7
ATOM      7  C   UNL     1      18.907  23.393  41.209  1.00  0.00     0.198 C 
BRANCH   7   8
ATOM      8  O   UNL     1      18.506  23.364  39.850  1.00  0.00    -0.347 OA
BRANCH   8   9
ATOM      9  C   UNL     1      19.613  23.264  38.962  1.00  0.00     0.281 C 
ATOM     10  C   UNL     1      19.045  26.408  37.134  1.00  0.00     0.041 C 
ATOM     11  C   UNL     1      18.792  24.958  37.564  1.00  0.00     0.150 C 
ATOM     12  C   UNL     1      18.613  24.027  36.341  1.00  0.00     0.174 C 
ATOM     13  O   UNL     1      19.878  24.523  38.363  1.00  0.00    -0.344 OA
ATOM     14  C   UNL     1      18.395  22.572  36.802  1.00  0.00     0.179 C 
ATOM     15  C   UNL     1      19.406  22.155  37.895  1.00  0.00     0.202 C 
BRANCH  12  16
ATOM     16  O   UNL     1      19.758  24.075  35.524  1.00  0.00    -0.388 OA
ATOM     17  H   UNL     1      19.600  24.762  34.828  1.00  0.00     0.211 HD
ENDBRANCH  12  16
BRANCH  14  18
ATOM     18  O   UNL     1      17.066  22.359  37.214  1.00  0.00    -0.387 OA
ATOM     19  H   UNL     1      17.062  22.102  38.173  1.00  0.00     0.211 HD
ENDBRANCH  14  18
BRANCH  15  20
ATOM     20  O   UNL     1      20.637  21.862  37.286  1.00  0.00    -0.385 OA
ATOM     21  H   UNL     1      21.341  22.319  37.813  1.00  0.00     0.211 HD
ENDBRANCH  15  20
ENDBRANCH   8   9
ENDBRANCH   7   8
ENDBRANCH   1   7
BRANCH   2  22
ATOM     22  O   UNL     1      18.601  26.301  41.145  1.00  0.00    -0.387 OA
ATOM     23  H   UNL     1      19.300  25.731  40.729  1.00  0.00     0.211 HD
ENDBRANCH   2  22
BRANCH   3  24
ATOM     24  O   UNL     1      15.196  25.581  42.241  1.00  0.00    -0.387 OA
ATOM     25  H   UNL     1      15.178  24.927  41.484  1.00  0.00     0.211 HD
ENDBRANCH   3  24
BRANCH   5  26
ATOM     26  O   UNL     1      16.382  24.106  44.427  1.00  0.00    -0.454 OA
BRANCH  26  27
ATOM     27  C   UNL     1      16.309  23.032  45.332  1.00  0.00     0.214 A 
ATOM     28  C   UNL     1      15.807  23.308  46.613  1.00  0.00     0.180 A 
ATOM     29  C   UNL     1      16.702  21.709  45.037  1.00  0.00     0.239 A 
ATOM     30  O   UNL     1      15.723  22.355  47.531  1.00  0.00    -0.452 OA
ATOM     31  C   UNL     1      16.599  20.717  46.035  1.00  0.00     0.111 A 
ATOM     32  O   UNL     1      17.138  21.415  43.891  1.00  0.00    -0.285 OA
ATOM     33  C   UNL     1      16.103  21.105  47.306  1.00  0.00     0.146 A 
ATOM     34  C   UNL     1      16.962  19.364  45.818  1.00  0.00     0.134 A 
ATOM     35  C   UNL     1      16.014  20.167  48.341  1.00  0.00     0.094 A 
ATOM     36  C   UNL     1      16.861  18.438  46.868  1.00  0.00     0.093 A 
ATOM     37  C   UNL     1      16.410  18.842  48.130  1.00  0.00     0.123 A 
BRANCH  28  38
ATOM     38  C   UNL     1      15.400  24.676  46.957  1.00  0.00     0.025 A 
ATOM     39  C   UNL     1      14.052  25.052  46.858  1.00  0.00     0.062 A 
ATOM     40  C   UNL     1      16.333  25.581  47.471  1.00  0.00     0.016 A 
ATOM     41  C   UNL     1      13.640  26.321  47.280  1.00  0.00     0.158 A 
ATOM     42  C   UNL     1      15.925  26.843  47.906  1.00  0.00     0.051 A 
ATOM     43  C   UNL     1      14.577  27.218  47.816  1.00  0.00     0.157 A 
BRANCH  41  44
ATOM     44  O   UNL     1      12.293  26.661  47.168  1.00  0.00    -0.504 OA
ATOM     45  H   UNL     1      11.568  25.958  47.069  1.00  0.00     0.293 HD
ENDBRANCH  41  44
BRANCH  43  46
ATOM     46  O   UNL     1      14.171  28.474  48.261  1.00  0.00    -0.504 OA
ATOM     47  H   UNL     1      14.107  29.268  47.634  1.00  0.00     0.293 HD
ENDBRANCH  43  46
ENDBRANCH  28  38
BRANCH  34  48
ATOM     48  O   UNL     1      17.426  18.932  44.575  1.00  0.00    -0.507 OA
ATOM     49  H   UNL     1      18.416  18.866  44.370  1.00  0.00     0.293 HD
ENDBRANCH  34  48
BRANCH  37  50
ATOM     50  O   UNL     1      16.349  17.908  49.166  1.00  0.00    -0.508 OA
ATOM     51  H   UNL     1      16.321  18.196  50.141  1.00  0.00     0.293 HD
ENDBRANCH  37  50
ENDBRANCH  26  27
ENDBRANCH   5  26
BRANCH   4  52
ATOM     52  O   UNL     1      17.901  27.378  43.814  1.00  0.00    -0.384 OA
ATOM     53  H   UNL     1      18.783  27.016  43.538  1.00  0.00     0.211 HD
ENDBRANCH   4  52
TORSDOF 16
ENDMDL
MODEL 2
REMARK VINA RESULT:    -7.332      2.878      8.679
REMARK INTER + INTRA:         -13.982
REMARK INTER:                 -11.428
REMARK INTRA:                  -2.554
REMARK UNBOUND:                -1.935
REMARK SMILES C[C@@H]1O[C@@H](OC[C@H]2O[C@H](Oc3c(-c4ccc(O)c(O)c4)oc4cc(O)cc(O)c4c3=O)[C@@H](O)[C@H](O)[C@H]2O)[C@H](O)[C@@H](O)[C@@H]1O
REMARK SMILES IDX 7 1 36 2 34 3 32 4 9 5 8 6 6 7 5 8 4 9 1 10 2 11 42 12 3 13
REMARK SMILES IDX 40 14 38 15 43 16 41 18 39 20 37 22 35 24 10 26 11 27 12 28
REMARK SMILES IDX 30 29 21 30 29 31 31 32 22 33 27 34 23 35 26 36 24 37 13 38
REMARK SMILES IDX 20 39 14 40 18 41 15 42 16 43 19 44 17 46 28 48 25 50 33 52
REMARK H PARENT 43 17 41 19 39 21 37 23 35 25 19 45 17 47 28 49 25 51 33 53
REMARK Flexibility Score: inf
ROOT
ATOM      1  C   UNL     1      13.959  22.789  47.034  1.00  0.00     0.180 C 
ATOM      2  C   UNL     1      13.651  23.602  48.309  1.00  0.00     0.177 C 
ATOM      3  C   UNL     1      14.439  24.932  48.277  1.00  0.00     0.180 C 
ATOM      4  C   UNL     1      14.242  25.658  46.929  1.00  0.00     0.214 C 
ATOM      5  C   UNL     1      14.421  24.691  45.730  1.00  0.00     0.339 C 
ATOM      6  O   UNL     1      13.615  23.528  45.872  1.00  0.00    -0.332 OA
ENDROOT
BRANCH   1   7
ATOM      7  C   UNL     1      13.200  21.457  47.015  1.00  0.00     0.198 C 
BRANCH   7   8
ATOM      8  O   UNL     1      14.116  20.375  46.993  1.00  0.00    -0.347 OA
BRANCH   8   9
ATOM      9  C   UNL     1      15.429  20.772  47.368  1.00  0.00     0.281 C 
ATOM     10  C   UNL     1      17.250  18.055  45.679  1.00  0.00     0.041 C 
ATOM     11  C   UNL     1      16.356  18.712  46.738  1.00  0.00     0.150 C 
ATOM     12  C   UNL     1      16.805  18.339  48.170  1.00  0.00     0.174 C 
ATOM     13  O   UNL     1      16.391  20.116  46.556  1.00  0.00    -0.344 OA
ATOM     14  C   UNL     1      15.911  19.041  49.213  1.00  0.00     0.179 C 
ATOM     15  C   UNL     1      15.700  20.537  48.879  1.00  0.00     0.202 C 
BRANCH  12  16
ATOM     16  O   UNL     1      18.139  18.738  48.379  1.00  0.00    -0.388 OA
ATOM     17  H   UNL     1      18.162  19.728  48.355  1.00  0.00     0.211 HD
ENDBRANCH  12  16
BRANCH  14  18
ATOM     18  O   UNL     1      14.686  18.366  49.374  1.00  0.00    -0.387 OA
ATOM     19  H   UNL     1      14.362  18.067  48.485  1.00  0.00     0.211 HD
ENDBRANCH  14  18
BRANCH  15  20
ATOM     20  O   UNL     1      16.845  21.252  49.262  1.00  0.00    -0.385 OA
ATOM     21  H   UNL     1      17.632  20.726  48.965  1.00  0.00     0.211 HD
ENDBRANCH  15  20
ENDBRANCH   8   9
ENDBRANCH   7   8
ENDBRANCH   1   7
BRANCH   2  22
ATOM     22  O   UNL     1      12.273  23.867  48.389  1.00  0.00    -0.387 OA
ATOM     23  H   UNL     1      11.904  23.288  49.107  1.00  0.00     0.211 HD
ENDBRANCH   2  22
BRANCH   3  24
ATOM     24  O   UNL     1      15.819  24.721  48.468  1.00  0.00    -0.387 OA
ATOM     25  H   UNL     1      16.318  25.241  47.773  1.00  0.00     0.211 HD
ENDBRANCH   3  24
BRANCH   5  26
ATOM     26  O   UNL     1      15.806  24.362  45.599  1.00  0.00    -0.454 OA
BRANCH  26  27
ATOM     27  C   UNL     1      16.700  24.791  44.601  1.00  0.00     0.214 A 
ATOM     28  C   UNL     1      16.549  24.230  43.324  1.00  0.00     0.180 A 
ATOM     29  C   UNL     1      17.725  25.741  44.800  1.00  0.00     0.239 A 
ATOM     30  O   UNL     1      17.363  24.568  42.332  1.00  0.00    -0.452 OA
ATOM     31  C   UNL     1      18.573  26.079  43.724  1.00  0.00     0.111 A 
ATOM     32  O   UNL     1      17.880  26.285  45.927  1.00  0.00    -0.285 OA
ATOM     33  C   UNL     1      18.354  25.436  42.479  1.00  0.00     0.146 A 
ATOM     34  C   UNL     1      19.619  27.030  43.836  1.00  0.00     0.134 A 
ATOM     35  C   UNL     1      19.190  25.710  41.391  1.00  0.00     0.094 A 
ATOM     36  C   UNL     1      20.443  27.294  42.731  1.00  0.00     0.093 A 
ATOM     37  C   UNL     1      20.243  26.621  41.519  1.00  0.00     0.123 A 
BRANCH  28  38
ATOM     38  C   UNL     1      15.500  23.232  43.085  1.00  0.00     0.025 A 
ATOM     39  C   UNL     1      15.631  21.937  43.609  1.00  0.00     0.062 A 
ATOM     40  C   UNL     1      14.327  23.591  42.415  1.00  0.00     0.016 A 
ATOM     41  C   UNL     1      14.590  21.011  43.472  1.00  0.00     0.158 A 
ATOM     42  C   UNL     1      13.280  22.675  42.288  1.00  0.00     0.051 A 
ATOM     43  C   UNL     1      13.405  21.383  42.819  1.00  0.00     0.157 A 
BRANCH  41  44
ATOM     44  O   UNL     1      14.754  19.735  44.006  1.00  0.00    -0.504 OA
ATOM     45  H   UNL     1      15.629  19.435  44.425  1.00  0.00     0.293 HD
ENDBRANCH  41  44
BRANCH  43  46
ATOM     46  O   UNL     1      12.355  20.475  42.699  1.00  0.00    -0.504 OA
ATOM     47  H   UNL     1      11.888  20.311  41.815  1.00  0.00     0.293 HD
ENDBRANCH  43  46
ENDBRANCH  28  38
BRANCH  34  48
ATOM     48  O   UNL     1      19.851  27.708  45.033  1.00  0.00    -0.507 OA
ATOM     49  H   UNL     1      19.438  28.613  45.221  1.00  0.00     0.293 HD
ENDBRANCH  34  48
BRANCH  37  50
ATOM     50  O   UNL     1      21.096  26.878  40.445  1.00  0.00    -0.508 OA
ATOM     51  H   UNL     1      21.826  27.585  40.503  1.00  0.00     0.293 HD
ENDBRANCH  37  50
ENDBRANCH  26  27
ENDBRANCH   5  26
BRANCH   4  52
ATOM     52  O   UNL     1      12.994  26.317  46.888  1.00  0.00    -0.384 OA
ATOM     53  H   UNL     1      12.282  25.643  47.041  1.00  0.00     0.211 HD
ENDBRANCH   4  52
TORSDOF 16
ENDMDL
MODEL 3
REMARK VINA RESULT:    -7.172      2.595      7.942
REMARK INTER + INTRA:         -13.719
REMARK INTER:                 -11.599
REMARK INTRA:                  -2.120
REMARK UNBOUND:                -1.935
REMARK SMILES C[C@@H]1O[C@@H](OC[C@H]2O[C@H](Oc3c(-c4ccc(O)c(O)c4)oc4cc(O)cc(O)c4c3=O)[C@@H](O)[C@H](O)[C@H]2O)[C@H](O)[C@@H](O)[C@@H]1O
REMARK SMILES IDX 7 1 36 2 34 3 32 4 9 5 8 6 6 7 5 8 4 9 1 10 2 11 42 12 3 13
REMARK SMILES IDX 40 14 38 15 43 16 41 18 39 20 37 22 35 24 10 26 11 27 12 28
REMARK SMILES IDX 30 29 21 30 29 31 31 32 22 33 27 34 23 35 26 36 24 37 13 38
REMARK SMILES IDX 20 39 14 40 18 41 15 42 16 43 19 44 17 46 28 48 25 50 33 52
REMARK H PARENT 43 17 41 19 39 21 37 23 35 25 19 45 17 47 28 49 25 51 33 53
REMARK Flexibility Score: inf
ROOT
ATOM      1  C   UNL     1      14.808  22.595  44.249  1.00  0.00     0.180 C 
ATOM      2  C   UNL     1      13.301  22.549  44.573  1.00  0.00     0.177 C 
ATOM      3  C   UNL     1      12.669  23.934  44.292  1.00  0.00     0.180 C 
ATOM      4  C   UNL     1      13.060  24.442  42.889  1.00  0.00     0.214 C 
ATOM      5  C   UNL     1      14.581  24.283  42.628  1.00  0.00     0.339 C 
ATOM      6  O   UNL     1      15.019  22.957  42.892  1.00  0.00    -0.332 OA
ENDROOT
BRANCH   1   7
ATOM      7  C   UNL     1      15.484  21.243  44.510  1.00  0.00     0.198 C 
BRANCH   7   8
ATOM      8  O   UNL     1      16.033  21.218  45.817  1.00  0.00    -0.347 OA
BRANCH   8   9
ATOM      9  C   UNL     1      15.307  20.363  46.691  1.00  0.00     0.281 C 
ATOM     10  C   UNL     1      17.653  20.475  49.525  1.00  0.00     0.041 C 
ATOM     11  C   UNL     1      17.137  20.093  48.133  1.00  0.00     0.150 C 
ATOM     12  C   UNL     1      17.267  18.573  47.877  1.00  0.00     0.174 C 
ATOM     13  O   UNL     1      15.785  20.501  48.020  1.00  0.00    -0.344 OA
ATOM     14  C   UNL     1      16.709  18.213  46.485  1.00  0.00     0.179 C 
ATOM     15  C   UNL     1      15.340  18.884  46.221  1.00  0.00     0.202 C 
BRANCH  12  16
ATOM     16  O   UNL     1      16.549  17.854  48.850  1.00  0.00    -0.388 OA
ATOM     17  H   UNL     1      16.258  18.499  49.544  1.00  0.00     0.211 HD
ENDBRANCH  12  16
BRANCH  14  18
ATOM     18  O   UNL     1      17.638  18.509  45.468  1.00  0.00    -0.387 OA
ATOM     19  H   UNL     1      18.258  17.742  45.364  1.00  0.00     0.211 HD
ENDBRANCH  14  18
BRANCH  15  20
ATOM     20  O   UNL     1      14.345  18.160  46.896  1.00  0.00    -0.385 OA
ATOM     21  H   UNL     1      13.558  18.757  46.986  1.00  0.00     0.211 HD
ENDBRANCH  15  20
ENDBRANCH   8   9
ENDBRANCH   7   8
ENDBRANCH   1   7
BRANCH   2  22
ATOM     22  O   UNL     1      12.669  21.570  43.788  1.00  0.00    -0.387 OA
ATOM     23  H   UNL     1      12.449  21.990  42.915  1.00  0.00     0.211 HD
ENDBRANCH   2  22
BRANCH   3  24
ATOM     24  O   UNL     1      13.080  24.891  45.241  1.00  0.00    -0.387 OA
ATOM     25  H   UNL     1      12.742  24.611  46.140  1.00  0.00     0.211 HD
ENDBRANCH   3  24
BRANCH   5  26
ATOM     26  O   UNL     1      15.292  25.243  43.412  1.00  0.00    -0.454 OA
BRANCH  26  27
ATOM     27  C   UNL     1      16.596  25.727  43.202  1.00  0.00     0.214 A 
ATOM     28  C   UNL     1      17.328  26.103  44.339  1.00  0.00     0.180 A 
ATOM     29  C   UNL     1      17.208  25.855  41.938  1.00  0.00     0.239 A 
ATOM     30  O   UNL     1      18.558  26.587  44.227  1.00  0.00    -0.452 OA
ATOM     31  C   UNL     1      18.518  26.373  41.852  1.00  0.00     0.111 A 
ATOM     32  O   UNL     1      16.593  25.509  40.893  1.00  0.00    -0.285 OA
ATOM     33  C   UNL     1      19.163  26.748  43.058  1.00  0.00     0.146 A 
ATOM     34  C   UNL     1      19.209  26.524  40.623  1.00  0.00     0.134 A 
ATOM     35  C   UNL     1      20.449  27.299  43.025  1.00  0.00     0.094 A 
ATOM     36  C   UNL     1      20.500  27.075  40.612  1.00  0.00     0.093 A 
ATOM     37  C   UNL     1      21.109  27.481  41.805  1.00  0.00     0.123 A 
BRANCH  28  38
ATOM     38  C   UNL     1      16.717  25.993  45.669  1.00  0.00     0.025 A 
ATOM     39  C   UNL     1      16.533  24.731  46.254  1.00  0.00     0.062 A 
ATOM     40  C   UNL     1      16.402  27.144  46.396  1.00  0.00     0.016 A 
ATOM     41  C   UNL     1      16.045  24.623  47.561  1.00  0.00     0.158 A 
ATOM     42  C   UNL     1      15.928  27.043  47.707  1.00  0.00     0.051 A 
ATOM     43  C   UNL     1      15.751  25.782  48.296  1.00  0.00     0.157 A 
BRANCH  41  44
ATOM     44  O   UNL     1      15.875  23.355  48.111  1.00  0.00    -0.504 OA
ATOM     45  H   UNL     1      14.977  23.036  48.460  1.00  0.00     0.293 HD
ENDBRANCH  41  44
BRANCH  43  46
ATOM     46  O   UNL     1      15.289  25.684  49.606  1.00  0.00    -0.504 OA
ATOM     47  H   UNL     1      14.563  25.028  49.869  1.00  0.00     0.293 HD
ENDBRANCH  43  46
ENDBRANCH  28  38
BRANCH  34  48
ATOM     48  O   UNL     1      18.624  26.140  39.415  1.00  0.00    -0.507 OA
ATOM     49  H   UNL     1      19.168  26.046  38.567  1.00  0.00     0.293 HD
ENDBRANCH  34  48
BRANCH  37  50
ATOM     50  O   UNL     1      22.381  28.054  41.763  1.00  0.00    -0.508 OA
ATOM     51  H   UNL     1      22.570  28.960  42.186  1.00  0.00     0.293 HD
ENDBRANCH  37  50
ENDBRANCH  26  27
ENDBRANCH   5  26
BRANCH   4  52
ATOM     52  O   UNL     1      12.288  23.812  41.890  1.00  0.00    -0.384 OA
ATOM     53  H   UNL     1      11.358  23.726  42.224  1.00  0.00     0.211 HD
ENDBRANCH   4  52
TORSDOF 16
ENDMDL
MODEL 4
REMARK VINA RESULT:    -7.154      3.536      8.619
REMARK INTER + INTRA:         -13.689
REMARK INTER:                 -11.067
REMARK INTRA:                  -2.623
REMARK UNBOUND:                -1.935
REMARK SMILES C[C@@H]1O[C@@H](OC[C@H]2O[C@H](Oc3c(-c4ccc(O)c(O)c4)oc4cc(O)cc(O)c4c3=O)[C@@H](O)[C@H](O)[C@H]2O)[C@H](O)[C@@H](O)[C@@H]1O
REMARK SMILES IDX 7 1 36 2 34 3 32 4 9 5 8 6 6 7 5 8 4 9 1 10 2 11 42 12 3 13
REMARK SMILES IDX 40 14 38 15 43 16 41 18 39 20 37 22 35 24 10 26 11 27 12 28
REMARK SMILES IDX 30 29 21 30 29 31 31 32 22 33 27 34 23 35 26 36 24 37 13 38
REMARK SMILES IDX 20 39 14 40 18 41 15 42 16 43 19 44 17 46 28 48 25 50 33 52
REMARK H PARENT 43 17 41 19 39 21 37 23 35 25 19 45 17 47 28 49 25 51 33 53
REMARK Flexibility Score: inf
ROOT
ATOM      1  C   UNL     1      15.227  20.976  45.464  1.00  0.00     0.180 C 
ATOM      2  C   UNL     1      15.547  20.711  43.979  1.00  0.00     0.177 C 
ATOM      3  C   UNL     1      16.111  21.998  43.333  1.00  0.00     0.180 C 
ATOM      4  C   UNL     1      17.250  22.591  44.190  1.00  0.00     0.214 C 
ATOM      5  C   UNL     1      16.859  22.654  45.690  1.00  0.00     0.339 C 
ATOM      6  O   UNL     1      16.391  21.397  46.161  1.00  0.00    -0.332 OA
ENDROOT
BRANCH   1   7
ATOM      7  C   UNL     1      14.664  19.727  46.154  1.00  0.00     0.198 C 
BRANCH   7   8
ATOM      8  O   UNL     1      14.420  19.997  47.524  1.00  0.00    -0.347 OA
BRANCH   8   9
ATOM      9  C   UNL     1      14.811  18.918  48.365  1.00  0.00     0.281 C 
ATOM     10  C   UNL     1      13.420  20.233  51.509  1.00  0.00     0.041 C 
ATOM     11  C   UNL     1      14.387  20.137  50.322  1.00  0.00     0.150 C 
ATOM     12  C   UNL     1      15.861  20.127  50.790  1.00  0.00     0.174 C 
ATOM     13  O   UNL     1      14.092  18.962  49.587  1.00  0.00    -0.344 OA
ATOM     14  C   UNL     1      16.808  19.996  49.580  1.00  0.00     0.179 C 
ATOM     15  C   UNL     1      16.345  18.890  48.603  1.00  0.00     0.202 C 
BRANCH  12  16
ATOM     16  O   UNL     1      16.086  19.043  51.660  1.00  0.00    -0.388 OA
ATOM     17  H   UNL     1      15.514  19.176  52.457  1.00  0.00     0.211 HD
ENDBRANCH  12  16
BRANCH  14  18
ATOM     18  O   UNL     1      16.978  21.231  48.926  1.00  0.00    -0.387 OA
ATOM     19  H   UNL     1      17.947  21.388  48.780  1.00  0.00     0.211 HD
ENDBRANCH  14  18
BRANCH  15  20
ATOM     20  O   UNL     1      16.711  17.640  49.127  1.00  0.00    -0.385 OA
ATOM     21  H   UNL     1      17.462  17.794  49.755  1.00  0.00     0.211 HD
ENDBRANCH  15  20
ENDBRANCH   8   9
ENDBRANCH   7   8
ENDBRANCH   1   7
BRANCH   2  22
ATOM     22  O   UNL     1      16.486  19.671  43.867  1.00  0.00    -0.387 OA
ATOM     23  H   UNL     1      16.161  18.920  44.429  1.00  0.00     0.211 HD
ENDBRANCH   2  22
BRANCH   3  24
ATOM     24  O   UNL     1      15.113  22.981  43.181  1.00  0.00    -0.387 OA
ATOM     25  H   UNL     1      14.330  22.726  43.749  1.00  0.00     0.211 HD
ENDBRANCH   3  24
BRANCH   5  26
ATOM     26  O   UNL     1      15.888  23.685  45.877  1.00  0.00    -0.454 OA
BRANCH  26  27
ATOM     27  C   UNL     1      15.763  24.561  46.970  1.00  0.00     0.214 A 
ATOM     28  C   UNL     1      16.251  25.866  46.803  1.00  0.00     0.180 A 
ATOM     29  C   UNL     1      15.182  24.216  48.209  1.00  0.00     0.239 A 
ATOM     30  O   UNL     1      16.188  26.748  47.792  1.00  0.00    -0.452 OA
ATOM     31  C   UNL     1      15.129  25.177  49.241  1.00  0.00     0.111 A 
ATOM     32  O   UNL     1      14.712  23.060  48.393  1.00  0.00    -0.285 OA
ATOM     33  C   UNL     1      15.674  26.460  48.980  1.00  0.00     0.146 A 
ATOM     34  C   UNL     1      14.554  24.916  50.511  1.00  0.00     0.134 A 
ATOM     35  C   UNL     1      15.678  27.438  49.981  1.00  0.00     0.094 A 
ATOM     36  C   UNL     1      14.564  25.912  51.499  1.00  0.00     0.093 A 
ATOM     37  C   UNL     1      15.143  27.160  51.243  1.00  0.00     0.123 A 
BRANCH  28  38
ATOM     38  C   UNL     1      16.871  26.255  45.531  1.00  0.00     0.025 A 
ATOM     39  C   UNL     1      18.179  26.761  45.513  1.00  0.00     0.062 A 
ATOM     40  C   UNL     1      16.198  26.038  44.325  1.00  0.00     0.016 A 
ATOM     41  C   UNL     1      18.813  27.040  44.297  1.00  0.00     0.158 A 
ATOM     42  C   UNL     1      16.831  26.301  43.108  1.00  0.00     0.051 A 
ATOM     43  C   UNL     1      18.141  26.800  43.088  1.00  0.00     0.157 A 
BRANCH  41  44
ATOM     44  O   UNL     1      20.112  27.541  44.317  1.00  0.00    -0.504 OA
ATOM     45  H   UNL     1      20.569  27.818  45.180  1.00  0.00     0.293 HD
ENDBRANCH  41  44
BRANCH  43  46
ATOM     46  O   UNL     1      18.774  27.051  41.872  1.00  0.00    -0.504 OA
ATOM     47  H   UNL     1      18.435  26.658  41.002  1.00  0.00     0.293 HD
ENDBRANCH  43  46
ENDBRANCH  28  38
BRANCH  34  48
ATOM     48  O   UNL     1      13.980  23.677  50.800  1.00  0.00    -0.507 OA
ATOM     49  H   UNL     1      13.251  23.280  50.221  1.00  0.00     0.293 HD
ENDBRANCH  34  48
BRANCH  37  50
ATOM     50  O   UNL     1      15.168  28.122  52.254  1.00  0.00    -0.508 OA
ATOM     51  H   UNL     1      14.823  29.067  52.098  1.00  0.00     0.293 HD
ENDBRANCH  37  50
ENDBRANCH  26  27
ENDBRANCH   5  26
BRANCH   4  52
ATOM     52  O   UNL     1      18.453  21.882  43.992  1.00  0.00    -0.384 OA
ATOM     53  H   UNL     1      18.228  20.935  43.799  1.00  0.00     0.211 HD
ENDBRANCH   4  52
TORSDOF 16
ENDMDL
MODEL 5
REMARK VINA RESULT:    -7.070      2.592      7.841
REMARK INTER + INTRA:         -13.551
REMARK INTER:                 -12.067
REMARK INTRA:                  -1.484
REMARK UNBOUND:                -1.935
REMARK SMILES C[C@@H]1O[C@@H](OC[C@H]2O[C@H](Oc3c(-c4ccc(O)c(O)c4)oc4cc(O)cc(O)c4c3=O)[C@@H](O)[C@H](O)[C@H]2O)[C@H](O)[C@@H](O)[C@@H]1O
REMARK SMILES IDX 7 1 36 2 34 3 32 4 9 5 8 6 6 7 5 8 4 9 1 10 2 11 42 12 3 13
REMARK SMILES IDX 40 14 38 15 43 16 41 18 39 20 37 22 35 24 10 26 11 27 12 28
REMARK SMILES IDX 30 29 21 30 29 31 31 32 22 33 27 34 23 35 26 36 24 37 13 38
REMARK SMILES IDX 20 39 14 40 18 41 15 42 16 43 19 44 17 46 28 48 25 50 33 52
REMARK H PARENT 43 17 41 19 39 21 37 23 35 25 19 45 17 47 28 49 25 51 33 53
REMARK Flexibility Score: inf
ROOT
ATOM      1  C   UNL     1      14.265  22.710  44.391  1.00  0.00     0.180 C 
ATOM      2  C   UNL     1      12.758  22.947  44.618  1.00  0.00     0.177 C 
ATOM      3  C   UNL     1      12.419  24.429  44.336  1.00  0.00     0.180 C 
ATOM      4  C   UNL     1      12.992  24.875  42.974  1.00  0.00     0.214 C 
ATOM      5  C   UNL     1      14.469  24.434  42.805  1.00  0.00     0.339 C 
ATOM      6  O   UNL     1      14.631  23.045  43.061  1.00  0.00    -0.332 OA
ENDROOT
BRANCH   1   7
ATOM      7  C   UNL     1      14.655  21.250  44.658  1.00  0.00     0.198 C 
BRANCH   7   8
ATOM      8  O   UNL     1      14.816  21.037  46.050  1.00  0.00    -0.347 OA
BRANCH   8   9
ATOM      9  C   UNL     1      16.183  21.046  46.443  1.00  0.00     0.281 C 
ATOM     10  C   UNL     1      17.075  17.717  45.152  1.00  0.00     0.041 C 
ATOM     11  C   UNL     1      16.421  18.741  46.087  1.00  0.00     0.150 C 
ATOM     12  C   UNL     1      16.713  18.420  47.572  1.00  0.00     0.174 C 
ATOM     13  O   UNL     1      16.899  20.032  45.756  1.00  0.00    -0.344 OA
ATOM     14  C   UNL     1      16.073  19.484  48.487  1.00  0.00     0.179 C 
ATOM     15  C   UNL     1      16.348  20.920  47.982  1.00  0.00     0.202 C 
BRANCH  12  16
ATOM     16  O   UNL     1      18.102  18.405  47.801  1.00  0.00    -0.388 OA
ATOM     17  H   UNL     1      18.471  19.257  47.454  1.00  0.00     0.211 HD
ENDBRANCH  12  16
BRANCH  14  18
ATOM     18  O   UNL     1      14.696  19.248  48.661  1.00  0.00    -0.387 OA
ATOM     19  H   UNL     1      14.567  18.328  49.009  1.00  0.00     0.211 HD
ENDBRANCH  14  18
BRANCH  15  20
ATOM     20  O   UNL     1      17.656  21.283  48.340  1.00  0.00    -0.385 OA
ATOM     21  H   UNL     1      18.256  20.557  48.031  1.00  0.00     0.211 HD
ENDBRANCH  15  20
ENDBRANCH   8   9
ENDBRANCH   7   8
ENDBRANCH   1   7
BRANCH   2  22
ATOM     22  O   UNL     1      12.007  22.117  43.769  1.00  0.00    -0.387 OA
ATOM     23  H   UNL     1      11.211  21.815  44.281  1.00  0.00     0.211 HD
ENDBRANCH   2  22
BRANCH   3  24
ATOM     24  O   UNL     1      12.938  25.278  45.334  1.00  0.00    -0.387 OA
ATOM     25  H   UNL     1      13.395  26.049  44.887  1.00  0.00     0.211 HD
ENDBRANCH   3  24
BRANCH   5  26
ATOM     26  O   UNL     1      15.294  25.230  43.658  1.00  0.00    -0.454 OA
BRANCH  26  27
ATOM     27  C   UNL     1      16.595  25.700  43.401  1.00  0.00     0.214 A 
ATOM     28  C   UNL     1      17.374  26.062  44.510  1.00  0.00     0.180 A 
ATOM     29  C   UNL     1      17.160  25.827  42.115  1.00  0.00     0.239 A 
ATOM     30  O   UNL     1      18.605  26.532  44.354  1.00  0.00    -0.452 OA
ATOM     31  C   UNL     1      18.472  26.330  41.981  1.00  0.00     0.111 A 
ATOM     32  O   UNL     1      16.501  25.493  41.093  1.00  0.00    -0.285 OA
ATOM     33  C   UNL     1      19.166  26.691  43.163  1.00  0.00     0.146 A 
ATOM     34  C   UNL     1      19.117  26.479  40.727  1.00  0.00     0.134 A 
ATOM     35  C   UNL     1      20.456  27.228  43.083  1.00  0.00     0.094 A 
ATOM     36  C   UNL     1      20.413  27.015  40.669  1.00  0.00     0.093 A 
ATOM     37  C   UNL     1      21.072  27.408  41.840  1.00  0.00     0.123 A 
BRANCH  28  38
ATOM     38  C   UNL     1      16.813  25.952  45.863  1.00  0.00     0.025 A 
ATOM     39  C   UNL     1      16.479  27.110  46.580  1.00  0.00     0.062 A 
ATOM     40  C   UNL     1      16.525  24.696  46.405  1.00  0.00     0.016 A 
ATOM     41  C   UNL     1      15.852  27.013  47.827  1.00  0.00     0.158 A 
ATOM     42  C   UNL     1      15.886  24.593  47.643  1.00  0.00     0.051 A 
ATOM     43  C   UNL     1      15.544  25.750  48.358  1.00  0.00     0.157 A 
BRANCH  41  44
ATOM     44  O   UNL     1      15.534  28.183  48.512  1.00  0.00    -0.504 OA
ATOM     45  H   UNL     1      14.638  28.309  48.974  1.00  0.00     0.293 HD
ENDBRANCH  41  44
BRANCH  43  46
ATOM     46  O   UNL     1      14.897  25.645  49.587  1.00  0.00    -0.504 OA
ATOM     47  H   UNL     1      15.411  25.609  50.460  1.00  0.00     0.293 HD
ENDBRANCH  43  46
ENDBRANCH  28  38
BRANCH  34  48
ATOM     48  O   UNL     1      18.482  26.108  39.541  1.00  0.00    -0.507 OA
ATOM     49  H   UNL     1      17.482  26.212  39.417  1.00  0.00     0.293 HD
ENDBRANCH  34  48
BRANCH  37  50
ATOM     50  O   UNL     1      22.347  27.966  41.752  1.00  0.00    -0.508 OA
ATOM     51  H   UNL     1      22.693  28.369  40.884  1.00  0.00     0.293 HD
ENDBRANCH  37  50
ENDBRANCH  26  27
ENDBRANCH   5  26
BRANCH   4  52
ATOM     52  O   UNL     1      12.184  24.417  41.912  1.00  0.00    -0.384 OA
ATOM     53  H   UNL     1      12.743  23.852  41.318  1.00  0.00     0.211 HD
ENDBRANCH   4  52
TORSDOF 16
ENDMDL
MODEL 6
REMARK VINA RESULT:    -6.981      2.108      3.477
REMARK INTER + INTRA:         -13.405
REMARK INTER:                 -11.136
REMARK INTRA:                  -2.269
REMARK UNBOUND:                -1.935
REMARK SMILES C[C@@H]1O[C@@H](OC[C@H]2O[C@H](Oc3c(-c4ccc(O)c(O)c4)oc4cc(O)cc(O)c4c3=O)[C@@H](O)[C@H](O)[C@H]2O)[C@H](O)[C@@H](O)[C@@H]1O
REMARK SMILES IDX 7 1 36 2 34 3 32 4 9 5 8 6 6 7 5 8 4 9 1 10 2 11 42 12 3 13
REMARK SMILES IDX 40 14 38 15 43 16 41 18 39 20 37 22 35 24 10 26 11 27 12 28
REMARK SMILES IDX 30 29 21 30 29 31 31 32 22 33 27 34 23 35 26 36 24 37 13 38
REMARK SMILES IDX 20 39 14 40 18 41 15 42 16 43 19 44 17 46 28 48 25 50 33 52
REMARK H PARENT 43 17 41 19 39 21 37 23 35 25 19 45 17 47 28 49 25 51 33 53
REMARK Flexibility Score: inf
ROOT
ATOM      1  C   UNL     1      14.804  24.507  41.144  1.00  0.00     0.180 C 
ATOM      2  C   UNL     1      13.362  24.046  40.847  1.00  0.00     0.177 C 
ATOM      3  C   UNL     1      12.842  23.185  42.022  1.00  0.00     0.180 C 
ATOM      4  C   UNL     1      13.077  23.895  43.372  1.00  0.00     0.214 C 
ATOM      5  C   UNL     1      14.520  24.455  43.477  1.00  0.00     0.339 C 
ATOM      6  O   UNL     1      14.854  25.254  42.350  1.00  0.00    -0.332 OA
ENDROOT
BRANCH   1   7
ATOM      7  C   UNL     1      15.368  25.368  40.006  1.00  0.00     0.198 C 
BRANCH   7   8
ATOM      8  O   UNL     1      16.414  24.676  39.346  1.00  0.00    -0.347 OA
BRANCH   8   9
ATOM      9  C   UNL     1      17.641  25.395  39.376  1.00  0.00     0.281 C 
ATOM     10  C   UNL     1      19.742  22.824  37.787  1.00  0.00     0.041 C 
ATOM     11  C   UNL     1      18.908  23.482  38.893  1.00  0.00     0.150 C 
ATOM     12  C   UNL     1      19.664  23.496  40.242  1.00  0.00     0.174 C 
ATOM     13  O   UNL     1      18.580  24.801  38.494  1.00  0.00    -0.344 OA
ATOM     14  C   UNL     1      18.817  24.193  41.326  1.00  0.00     0.179 C 
ATOM     15  C   UNL     1      18.207  25.521  40.817  1.00  0.00     0.202 C 
BRANCH  12  16
ATOM     16  O   UNL     1      20.883  24.188  40.107  1.00  0.00    -0.388 OA
ATOM     17  H   UNL     1      21.103  24.579  40.990  1.00  0.00     0.211 HD
ENDBRANCH  12  16
BRANCH  14  18
ATOM     18  O   UNL     1      17.830  23.330  41.839  1.00  0.00    -0.387 OA
ATOM     19  H   UNL     1      17.034  23.864  42.093  1.00  0.00     0.211 HD
ENDBRANCH  14  18
BRANCH  15  20
ATOM     20  O   UNL     1      19.200  26.513  40.840  1.00  0.00    -0.385 OA
ATOM     21  H   UNL     1      19.731  26.377  41.666  1.00  0.00     0.211 HD
ENDBRANCH  15  20
ENDBRANCH   8   9
ENDBRANCH   7   8
ENDBRANCH   1   7
BRANCH   2  22
ATOM     22  O   UNL     1      12.527  25.162  40.669  1.00  0.00    -0.387 OA
ATOM     23  H   UNL     1      11.638  24.822  40.382  1.00  0.00     0.211 HD
ENDBRANCH   2  22
BRANCH   3  24
ATOM     24  O   UNL     1      13.480  21.929  42.065  1.00  0.00    -0.387 OA
ATOM     25  H   UNL     1      14.426  22.045  41.758  1.00  0.00     0.211 HD
ENDBRANCH   3  24
BRANCH   5  26
ATOM     26  O   UNL     1      15.431  23.366  43.644  1.00  0.00    -0.454 OA
BRANCH  26  27
ATOM     27  C   UNL     1      15.685  22.629  44.814  1.00  0.00     0.214 A 
ATOM     28  C   UNL     1      16.344  23.295  45.858  1.00  0.00     0.180 A 
ATOM     29  C   UNL     1      15.321  21.279  45.005  1.00  0.00     0.239 A 
ATOM     30  O   UNL     1      16.637  22.667  46.989  1.00  0.00    -0.452 OA
ATOM     31  C   UNL     1      15.647  20.638  46.219  1.00  0.00     0.111 A 
ATOM     32  O   UNL     1      14.708  20.651  44.099  1.00  0.00    -0.285 OA
ATOM     33  C   UNL     1      16.336  21.393  47.202  1.00  0.00     0.146 A 
ATOM     34  C   UNL     1      15.308  19.289  46.495  1.00  0.00     0.134 A 
ATOM     35  C   UNL     1      16.714  20.795  48.409  1.00  0.00     0.094 A 
ATOM     36  C   UNL     1      15.692  18.709  47.714  1.00  0.00     0.093 A 
ATOM     37  C   UNL     1      16.410  19.452  48.659  1.00  0.00     0.123 A 
BRANCH  28  38
ATOM     38  C   UNL     1      16.747  24.697  45.690  1.00  0.00     0.025 A 
ATOM     39  C   UNL     1      16.259  25.677  46.567  1.00  0.00     0.062 A 
ATOM     40  C   UNL     1      17.686  25.047  44.716  1.00  0.00     0.016 A 
ATOM     41  C   UNL     1      16.715  26.997  46.476  1.00  0.00     0.158 A 
ATOM     42  C   UNL     1      18.156  26.360  44.630  1.00  0.00     0.051 A 
ATOM     43  C   UNL     1      17.675  27.339  45.512  1.00  0.00     0.157 A 
BRANCH  41  44
ATOM     44  O   UNL     1      16.210  27.944  47.363  1.00  0.00    -0.504 OA
ATOM     45  H   UNL     1      15.239  28.239  47.340  1.00  0.00     0.293 HD
ENDBRANCH  41  44
BRANCH  43  46
ATOM     46  O   UNL     1      18.154  28.645  45.431  1.00  0.00    -0.504 OA
ATOM     47  H   UNL     1      17.654  29.424  45.843  1.00  0.00     0.293 HD
ENDBRANCH  43  46
ENDBRANCH  28  38
BRANCH  34  48
ATOM     48  O   UNL     1      14.603  18.519  45.569  1.00  0.00    -0.507 OA
ATOM     49  H   UNL     1      14.702  18.663  44.571  1.00  0.00     0.293 HD
ENDBRANCH  34  48
BRANCH  37  50
ATOM     50  O   UNL     1      16.806  18.842  49.850  1.00  0.00    -0.508 OA
ATOM     51  H   UNL     1      17.224  19.377  50.608  1.00  0.00     0.293 HD
ENDBRANCH  37  50
ENDBRANCH  26  27
ENDBRANCH   5  26
BRANCH   4  52
ATOM     52  O   UNL     1      12.110  24.899  43.590  1.00  0.00    -0.384 OA
ATOM     53  H   UNL     1      12.436  25.740  43.176  1.00  0.00     0.211 HD
ENDBRANCH   4  52
TORSDOF 16
ENDMDL
MODEL 7
REMARK VINA RESULT:    -6.862      2.331      8.850
REMARK INTER + INTRA:         -13.210
REMARK INTER:                 -11.699
REMARK INTRA:                  -1.511
REMARK UNBOUND:                -1.935
REMARK SMILES C[C@@H]1O[C@@H](OC[C@H]2O[C@H](Oc3c(-c4ccc(O)c(O)c4)oc4cc(O)cc(O)c4c3=O)[C@@H](O)[C@H](O)[C@H]2O)[C@H](O)[C@@H](O)[C@@H]1O
REMARK SMILES IDX 7 1 36 2 34 3 32 4 9 5 8 6 6 7 5 8 4 9 1 10 2 11 42 12 3 13
REMARK SMILES IDX 40 14 38 15 43 16 41 18 39 20 37 22 35 24 10 26 11 27 12 28
REMARK SMILES IDX 30 29 21 30 29 31 31 32 22 33 27 34 23 35 26 36 24 37 13 38
REMARK SMILES IDX 20 39 14 40 18 41 15 42 16 43 19 44 17 46 28 48 25 50 33 52
REMARK H PARENT 43 17 41 19 39 21 37 23 35 25 19 45 17 47 28 49 25 51 33 53
REMARK Flexibility Score: inf
ROOT
ATOM      1  C   UNL     1      14.767  21.439  46.359  1.00  0.00     0.180 C 
ATOM      2  C   UNL     1      14.475  20.122  45.610  1.00  0.00     0.177 C 
ATOM      3  C   UNL     1      15.168  20.149  44.228  1.00  0.00     0.180 C 
ATOM      4  C   UNL     1      16.651  20.553  44.364  1.00  0.00     0.214 C 
ATOM      5  C   UNL     1      16.822  21.797  45.274  1.00  0.00     0.339 C 
ATOM      6  O   UNL     1      16.165  21.624  46.523  1.00  0.00    -0.332 OA
ENDROOT
BRANCH   1   7
ATOM      7  C   UNL     1      14.100  21.463  47.741  1.00  0.00     0.198 C 
BRANCH   7   8
ATOM      8  O   UNL     1      15.085  21.589  48.753  1.00  0.00    -0.347 OA
BRANCH   8   9
ATOM      9  C   UNL     1      15.154  20.438  49.586  1.00  0.00     0.281 C 
ATOM     10  C   UNL     1      15.982  22.168  52.727  1.00  0.00     0.041 C 
ATOM     11  C   UNL     1      16.214  21.611  51.317  1.00  0.00     0.150 C 
ATOM     12  C   UNL     1      17.518  20.784  51.242  1.00  0.00     0.174 C 
ATOM     13  O   UNL     1      15.100  20.816  50.952  1.00  0.00    -0.344 OA
ATOM     14  C   UNL     1      17.707  20.208  49.824  1.00  0.00     0.179 C 
ATOM     15  C   UNL     1      16.406  19.572  49.281  1.00  0.00     0.202 C 
BRANCH  12  16
ATOM     16  O   UNL     1      17.469  19.717  52.159  1.00  0.00    -0.388 OA
ATOM     17  H   UNL     1      17.328  18.884  51.641  1.00  0.00     0.211 HD
ENDBRANCH  12  16
BRANCH  14  18
ATOM     18  O   UNL     1      18.220  21.178  48.941  1.00  0.00    -0.387 OA
ATOM     19  H   UNL     1      19.137  20.915  48.669  1.00  0.00     0.211 HD
ENDBRANCH  14  18
BRANCH  15  20
ATOM     20  O   UNL     1      16.246  18.304  49.861  1.00  0.00    -0.385 OA
ATOM     21  H   UNL     1      15.425  18.336  50.415  1.00  0.00     0.211 HD
ENDBRANCH  15  20
ENDBRANCH   8   9
ENDBRANCH   7   8
ENDBRANCH   1   7
BRANCH   2  22
ATOM     22  O   UNL     1      14.945  19.029  46.358  1.00  0.00    -0.387 OA
ATOM     23  H   UNL     1      14.348  18.259  46.159  1.00  0.00     0.211 HD
ENDBRANCH   2  22
BRANCH   3  24
ATOM     24  O   UNL     1      14.540  21.056  43.352  1.00  0.00    -0.387 OA
ATOM     25  H   UNL     1      13.658  21.318  43.747  1.00  0.00     0.211 HD
ENDBRANCH   3  24
BRANCH   5  26
ATOM     26  O   UNL     1      16.345  22.952  44.581  1.00  0.00    -0.454 OA
BRANCH  26  27
ATOM     27  C   UNL     1      17.103  23.914  43.889  1.00  0.00     0.214 A 
ATOM     28  C   UNL     1      17.026  25.238  44.346  1.00  0.00     0.180 A 
ATOM     29  C   UNL     1      17.930  23.634  42.780  1.00  0.00     0.239 A 
ATOM     30  O   UNL     1      17.696  26.208  43.738  1.00  0.00    -0.452 OA
ATOM     31  C   UNL     1      18.630  24.688  42.155  1.00  0.00     0.111 A 
ATOM     32  O   UNL     1      18.044  22.454  42.351  1.00  0.00    -0.285 OA
ATOM     33  C   UNL     1      18.465  25.995  42.679  1.00  0.00     0.146 A 
ATOM     34  C   UNL     1      19.489  24.492  41.044  1.00  0.00     0.134 A 
ATOM     35  C   UNL     1      19.109  27.081  42.074  1.00  0.00     0.094 A 
ATOM     36  C   UNL     1      20.130  25.593  40.455  1.00  0.00     0.093 A 
ATOM     37  C   UNL     1      19.924  26.885  40.954  1.00  0.00     0.123 A 
BRANCH  28  38
ATOM     38  C   UNL     1      16.168  25.565  45.491  1.00  0.00     0.025 A 
ATOM     39  C   UNL     1      16.593  26.507  46.440  1.00  0.00     0.062 A 
ATOM     40  C   UNL     1      14.888  25.012  45.592  1.00  0.00     0.016 A 
ATOM     41  C   UNL     1      15.740  26.899  47.478  1.00  0.00     0.158 A 
ATOM     42  C   UNL     1      14.027  25.410  46.618  1.00  0.00     0.051 A 
ATOM     43  C   UNL     1      14.448  26.357  47.563  1.00  0.00     0.157 A 
BRANCH  41  44
ATOM     44  O   UNL     1      16.194  27.837  48.402  1.00  0.00    -0.504 OA
ATOM     45  H   UNL     1      15.800  28.771  48.458  1.00  0.00     0.293 HD
ENDBRANCH  41  44
BRANCH  43  46
ATOM     46  O   UNL     1      13.583  26.760  48.578  1.00  0.00    -0.504 OA
ATOM     47  H   UNL     1      12.718  27.249  48.381  1.00  0.00     0.293 HD
ENDBRANCH  43  46
ENDBRANCH  28  38
BRANCH  34  48
ATOM     48  O   UNL     1      19.705  23.218  40.516  1.00  0.00    -0.507 OA
ATOM     49  H   UNL     1      19.978  23.081  39.551  1.00  0.00     0.293 HD
ENDBRANCH  34  48
BRANCH  37  50
ATOM     50  O   UNL     1      20.549  27.966  40.331  1.00  0.00    -0.508 OA
ATOM     51  H   UNL     1      20.615  28.030  39.318  1.00  0.00     0.293 HD
ENDBRANCH  37  50
ENDBRANCH  26  27
ENDBRANCH   5  26
BRANCH   4  52
ATOM     52  O   UNL     1      17.432  19.467  44.811  1.00  0.00    -0.384 OA
ATOM     53  H   UNL     1      17.930  19.101  44.034  1.00  0.00     0.211 HD
ENDBRANCH   4  52
TORSDOF 16
ENDMDL
MODEL 8
REMARK VINA RESULT:    -6.788      2.640     10.170
REMARK INTER + INTRA:         -13.087
REMARK INTER:                 -10.845
REMARK INTRA:                  -2.242
REMARK UNBOUND:                -1.935
REMARK SMILES C[C@@H]1O[C@@H](OC[C@H]2O[C@H](Oc3c(-c4ccc(O)c(O)c4)oc4cc(O)cc(O)c4c3=O)[C@@H](O)[C@H](O)[C@H]2O)[C@H](O)[C@@H](O)[C@@H]1O
REMARK SMILES IDX 7 1 36 2 34 3 32 4 9 5 8 6 6 7 5 8 4 9 1 10 2 11 42 12 3 13
REMARK SMILES IDX 40 14 38 15 43 16 41 18 39 20 37 22 35 24 10 26 11 27 12 28
REMARK SMILES IDX 30 29 21 30 29 31 31 32 22 33 27 34 23 35 26 36 24 37 13 38
REMARK SMILES IDX 20 39 14 40 18 41 15 42 16 43 19 44 17 46 28 48 25 50 33 52
REMARK H PARENT 43 17 41 19 39 21 37 23 35 25 19 45 17 47 28 49 25 51 33 53
REMARK Flexibility Score: inf
ROOT
ATOM      1  C   UNL     1      15.102  24.474  47.833  1.00  0.00     0.180 C 
ATOM      2  C   UNL     1      14.709  23.269  48.712  1.00  0.00     0.177 C 
ATOM      3  C   UNL     1      15.167  21.958  48.028  1.00  0.00     0.180 C 
ATOM      4  C   UNL     1      16.647  22.049  47.600  1.00  0.00     0.214 C 
ATOM      5  C   UNL     1      16.947  23.382  46.866  1.00  0.00     0.339 C 
ATOM      6  O   UNL     1      16.505  24.504  47.620  1.00  0.00    -0.332 OA
ENDROOT
BRANCH   1   7
ATOM      7  C   UNL     1      14.670  25.802  48.467  1.00  0.00     0.198 C 
BRANCH   7   8
ATOM      8  O   UNL     1      15.470  26.080  49.604  1.00  0.00    -0.347 OA
BRANCH   8   9
ATOM      9  C   UNL     1      15.006  27.213  50.327  1.00  0.00     0.281 C 
ATOM     10  C   UNL     1      17.192  26.835  53.265  1.00  0.00     0.041 C 
ATOM     11  C   UNL     1      16.032  26.510  52.315  1.00  0.00     0.150 C 
ATOM     12  C   UNL     1      14.701  26.340  53.083  1.00  0.00     0.174 C 
ATOM     13  O   UNL     1      15.922  27.548  51.357  1.00  0.00    -0.344 OA
ATOM     14  C   UNL     1      13.548  26.048  52.101  1.00  0.00     0.179 C 
ATOM     15  C   UNL     1      13.571  27.003  50.884  1.00  0.00     0.202 C 
BRANCH  12  16
ATOM     16  O   UNL     1      14.399  27.514  53.798  1.00  0.00    -0.388 OA
ATOM     17  H   UNL     1      14.402  28.266  53.152  1.00  0.00     0.211 HD
ENDBRANCH  12  16
BRANCH  14  18
ATOM     18  O   UNL     1      13.542  24.698  51.704  1.00  0.00    -0.387 OA
ATOM     19  H   UNL     1      14.475  24.409  51.527  1.00  0.00     0.211 HD
ENDBRANCH  14  18
BRANCH  15  20
ATOM     20  O   UNL     1      13.037  28.242  51.270  1.00  0.00    -0.385 OA
ATOM     21  H   UNL     1      13.710  28.684  51.848  1.00  0.00     0.211 HD
ENDBRANCH  15  20
ENDBRANCH   8   9
ENDBRANCH   7   8
ENDBRANCH   1   7
BRANCH   2  22
ATOM     22  O   UNL     1      15.310  23.380  49.978  1.00  0.00    -0.387 OA
ATOM     23  H   UNL     1      14.702  23.924  50.545  1.00  0.00     0.211 HD
ENDBRANCH   2  22
BRANCH   3  24
ATOM     24  O   UNL     1      14.392  21.673  46.887  1.00  0.00    -0.387 OA
ATOM     25  H   UNL     1      14.873  20.984  46.343  1.00  0.00     0.211 HD
ENDBRANCH   3  24
BRANCH   5  26
ATOM     26  O   UNL     1      16.347  23.346  45.569  1.00  0.00    -0.454 OA
BRANCH  26  27
ATOM     27  C   UNL     1      16.972  23.561  44.327  1.00  0.00     0.214 A 
ATOM     28  C   UNL     1      17.075  22.459  43.465  1.00  0.00     0.180 A 
ATOM     29  C   UNL     1      17.493  24.800  43.897  1.00  0.00     0.239 A 
ATOM     30  O   UNL     1      17.666  22.572  42.283  1.00  0.00    -0.452 OA
ATOM     31  C   UNL     1      18.115  24.888  42.634  1.00  0.00     0.111 A 
ATOM     32  O   UNL     1      17.401  25.820  44.633  1.00  0.00    -0.285 OA
ATOM     33  C   UNL     1      18.191  23.710  41.849  1.00  0.00     0.146 A 
ATOM     34  C   UNL     1      18.655  26.096  42.122  1.00  0.00     0.134 A 
ATOM     35  C   UNL     1      18.829  23.736  40.603  1.00  0.00     0.094 A 
ATOM     36  C   UNL     1      19.286  26.101  40.869  1.00  0.00     0.093 A 
ATOM     37  C   UNL     1      19.393  24.922  40.122  1.00  0.00     0.123 A 
BRANCH  28  38
ATOM     38  C   UNL     1      16.553  21.153  43.885  1.00  0.00     0.025 A 
ATOM     39  C   UNL     1      17.405  20.218  44.490  1.00  0.00     0.062 A 
ATOM     40  C   UNL     1      15.188  20.870  43.769  1.00  0.00     0.016 A 
ATOM     41  C   UNL     1      16.895  19.012  44.984  1.00  0.00     0.158 A 
ATOM     42  C   UNL     1      14.671  19.675  44.274  1.00  0.00     0.051 A 
ATOM     43  C   UNL     1      15.521  18.742  44.886  1.00  0.00     0.157 A 
BRANCH  41  44
ATOM     44  O   UNL     1      17.770  18.106  45.579  1.00  0.00    -0.504 OA
ATOM     45  H   UNL     1      17.861  18.031  46.588  1.00  0.00     0.293 HD
ENDBRANCH  41  44
BRANCH  43  46
ATOM     46  O   UNL     1      15.001  17.555  45.397  1.00  0.00    -0.504 OA
ATOM     47  H   UNL     1      15.418  17.088  46.194  1.00  0.00     0.293 HD
ENDBRANCH  43  46
ENDBRANCH  28  38
BRANCH  34  48
ATOM     48  O   UNL     1      18.575  27.285  42.848  1.00  0.00    -0.507 OA
ATOM     49  H   UNL     1      17.778  27.498  43.436  1.00  0.00     0.293 HD
ENDBRANCH  34  48
BRANCH  37  50
ATOM     50  O   UNL     1      20.053  24.949  38.893  1.00  0.00    -0.508 OA
ATOM     51  H   UNL     1      20.789  24.282  38.670  1.00  0.00     0.293 HD
ENDBRANCH  37  50
ENDBRANCH  26  27
ENDBRANCH   5  26
BRANCH   4  52
ATOM     52  O   UNL     1      17.505  21.854  48.703  1.00  0.00    -0.384 OA
ATOM     53  H   UNL     1      16.950  21.804  49.523  1.00  0.00     0.211 HD
ENDBRANCH   4  52
TORSDOF 16
ENDMDL
MODEL 9
REMARK VINA RESULT:    -6.761      2.162      9.537
REMARK INTER + INTRA:         -13.044
REMARK INTER:                 -10.576
REMARK INTRA:                  -2.469
REMARK UNBOUND:                -1.935
REMARK SMILES C[C@@H]1O[C@@H](OC[C@H]2O[C@H](Oc3c(-c4ccc(O)c(O)c4)oc4cc(O)cc(O)c4c3=O)[C@@H](O)[C@H](O)[C@H]2O)[C@H](O)[C@@H](O)[C@@H]1O
REMARK SMILES IDX 7 1 36 2 34 3 32 4 9 5 8 6 6 7 5 8 4 9 1 10 2 11 42 12 3 13
REMARK SMILES IDX 40 14 38 15 43 16 41 18 39 20 37 22 35 24 10 26 11 27 12 28
REMARK SMILES IDX 30 29 21 30 29 31 31 32 22 33 27 34 23 35 26 36 24 37 13 38
REMARK SMILES IDX 20 39 14 40 18 41 15 42 16 43 19 44 17 46 28 48 25 50 33 52
REMARK H PARENT 43 17 41 19 39 21 37 23 35 25 19 45 17 47 28 49 25 51 33 53
REMARK Flexibility Score: inf
ROOT
ATOM      1  C   UNL     1      15.592  23.803  48.298  1.00  0.00     0.180 C 
ATOM      2  C   UNL     1      15.075  25.241  48.506  1.00  0.00     0.177 C 
ATOM      3  C   UNL     1      15.268  26.053  47.203  1.00  0.00     0.180 C 
ATOM      4  C   UNL     1      14.706  25.285  45.988  1.00  0.00     0.214 C 
ATOM      5  C   UNL     1      15.170  23.805  45.985  1.00  0.00     0.339 C 
ATOM      6  O   UNL     1      14.903  23.171  47.229  1.00  0.00    -0.332 OA
ENDROOT
BRANCH   1   7
ATOM      7  C   UNL     1      15.423  22.952  49.564  1.00  0.00     0.198 C 
BRANCH   7   8
ATOM      8  O   UNL     1      14.963  21.656  49.221  1.00  0.00    -0.347 OA
BRANCH   8   9
ATOM      9  C   UNL     1      15.944  20.654  49.460  1.00  0.00     0.281 C 
ATOM     10  C   UNL     1      13.720  17.734  49.187  1.00  0.00     0.041 C 
ATOM     11  C   UNL     1      14.327  18.993  49.816  1.00  0.00     0.150 C 
ATOM     12  C   UNL     1      14.723  18.756  51.292  1.00  0.00     0.174 C 
ATOM     13  O   UNL     1      15.457  19.384  49.056  1.00  0.00    -0.344 OA
ATOM     14  C   UNL     1      15.362  20.027  51.889  1.00  0.00     0.179 C 
ATOM     15  C   UNL     1      16.417  20.642  50.939  1.00  0.00     0.202 C 
BRANCH  12  16
ATOM     16  O   UNL     1      15.651  17.700  51.381  1.00  0.00    -0.388 OA
ATOM     17  H   UNL     1      16.534  18.096  51.593  1.00  0.00     0.211 HD
ENDBRANCH  12  16
BRANCH  14  18
ATOM     18  O   UNL     1      14.382  20.967  52.258  1.00  0.00    -0.387 OA
ATOM     19  H   UNL     1      13.505  20.682  51.891  1.00  0.00     0.211 HD
ENDBRANCH  14  18
BRANCH  15  20
ATOM     20  O   UNL     1      17.604  19.900  51.041  1.00  0.00    -0.385 OA
ATOM     21  H   UNL     1      17.999  20.099  51.928  1.00  0.00     0.211 HD
ENDBRANCH  15  20
ENDBRANCH   8   9
ENDBRANCH   7   8
ENDBRANCH   1   7
BRANCH   2  22
ATOM     22  O   UNL     1      13.715  25.218  48.856  1.00  0.00    -0.387 OA
ATOM     23  H   UNL     1      13.255  25.896  48.294  1.00  0.00     0.211 HD
ENDBRANCH   2  22
BRANCH   3  24
ATOM     24  O   UNL     1      16.628  26.329  46.962  1.00  0.00    -0.387 OA
ATOM     25  H   UNL     1      17.176  25.595  47.365  1.00  0.00     0.211 HD
ENDBRANCH   3  24
BRANCH   5  26
ATOM     26  O   UNL     1      16.559  23.753  45.651  1.00  0.00    -0.454 OA
BRANCH  26  27
ATOM     27  C   UNL     1      17.140  23.842  44.373  1.00  0.00     0.214 A 
ATOM     28  C   UNL     1      17.064  22.704  43.556  1.00  0.00     0.180 A 
ATOM     29  C   UNL     1      17.784  24.990  43.865  1.00  0.00     0.239 A 
ATOM     30  O   UNL     1      17.602  22.699  42.343  1.00  0.00    -0.452 OA
ATOM     31  C   UNL     1      18.346  24.954  42.571  1.00  0.00     0.111 A 
ATOM     32  O   UNL     1      17.855  26.041  44.559  1.00  0.00    -0.285 OA
ATOM     33  C   UNL     1      18.237  23.747  41.836  1.00  0.00     0.146 A 
ATOM     34  C   UNL     1      19.001  26.066  41.983  1.00  0.00     0.134 A 
ATOM     35  C   UNL     1      18.809  23.647  40.562  1.00  0.00     0.094 A 
ATOM     36  C   UNL     1      19.562  25.946  40.702  1.00  0.00     0.093 A 
ATOM     37  C   UNL     1      19.486  24.736  40.003  1.00  0.00     0.123 A 
BRANCH  28  38
ATOM     38  C   UNL     1      16.410  21.489  44.057  1.00  0.00     0.025 A 
ATOM     39  C   UNL     1      17.029  20.718  45.051  1.00  0.00     0.062 A 
ATOM     40  C   UNL     1      15.129  21.145  43.613  1.00  0.00     0.016 A 
ATOM     41  C   UNL     1      16.367  19.616  45.605  1.00  0.00     0.158 A 
ATOM     42  C   UNL     1      14.459  20.055  44.173  1.00  0.00     0.051 A 
ATOM     43  C   UNL     1      15.073  19.288  45.173  1.00  0.00     0.157 A 
BRANCH  41  44
ATOM     44  O   UNL     1      17.012  18.873  46.592  1.00  0.00    -0.504 OA
ATOM     45  H   UNL     1      17.966  18.545  46.480  1.00  0.00     0.293 HD
ENDBRANCH  41  44
BRANCH  43  46
ATOM     46  O   UNL     1      14.398  18.207  45.737  1.00  0.00    -0.504 OA
ATOM     47  H   UNL     1      13.621  18.336  46.375  1.00  0.00     0.293 HD
ENDBRANCH  43  46
ENDBRANCH  28  38
BRANCH  34  48
ATOM     48  O   UNL     1      19.103  27.282  42.659  1.00  0.00    -0.507 OA
ATOM     49  H   UNL     1      18.558  28.090  42.386  1.00  0.00     0.293 HD
ENDBRANCH  34  48
BRANCH  37  50
ATOM     50  O   UNL     1      20.080  24.634  38.745  1.00  0.00    -0.508 OA
ATOM     51  H   UNL     1      20.227  25.452  38.158  1.00  0.00     0.293 HD
ENDBRANCH  37  50
ENDBRANCH  26  27
ENDBRANCH   5  26
BRANCH   4  52
ATOM     52  O   UNL     1      13.300  25.392  45.929  1.00  0.00    -0.384 OA
ATOM     53  H   UNL     1      12.910  24.713  46.538  1.00  0.00     0.211 HD
ENDBRANCH   4  52
TORSDOF 16
ENDMDL
