MODEL 1
REMARK VINA RESULT:    -3.795      0.000      0.000
REMARK INTER + INTRA:          -6.273
REMARK INTER:                  -5.569
REMARK INTRA:                  -0.704
REMARK UNBOUND:                -0.704
REMARK SMILES CCCOC(=O)c1ccccc1C(=O)OCCC
REMARK SMILES IDX 7 1 8 2 9 3 10 4 11 5 12 6 5 7 6 8 4 9 3 10 2 11 1 12 13 13
REMARK SMILES IDX 14 14 15 15 16 16 17 17 18 18
REMARK H PARENT
REMARK Flexibility Score: inf
ROOT
ATOM      1  C   UNL     1       8.299 -33.941  14.690  1.00  0.00     0.074 A 
ATOM      2  C   UNL     1       7.602 -35.163  14.633  1.00  0.00     0.016 A 
ATOM      3  C   UNL     1       7.980 -36.159  13.731  1.00  0.00     0.001 A 
ATOM      4  C   UNL     1       9.058 -35.953  12.875  1.00  0.00     0.001 A 
ATOM      5  C   UNL     1       9.750 -34.742  12.899  1.00  0.00     0.016 A 
ATOM      6  C   UNL     1       9.372 -33.715  13.783  1.00  0.00     0.074 A 
ENDROOT
BRANCH   1   7
ATOM      7  C   UNL     1       7.918 -32.976  15.746  1.00  0.00     0.339 C 
ATOM      8  O   UNL     1       7.053 -32.087  15.513  1.00  0.00    -0.246 OA
BRANCH   7   9
ATOM      9  O   UNL     1       8.562 -33.025  16.988  1.00  0.00    -0.462 OA
BRANCH   9  10
ATOM     10  C   UNL     1       8.302 -32.105  18.046  1.00  0.00     0.233 C 
BRANCH  10  11
ATOM     11  C   UNL     1       9.597 -31.422  18.493  1.00  0.00     0.038 C 
ATOM     12  C   UNL     1      10.215 -30.614  17.356  1.00  0.00     0.007 C 
ENDBRANCH  10  11
ENDBRANCH   9  10
ENDBRANCH   7   9
ENDBRANCH   1   7
BRANCH   6  13
ATOM     13  C   UNL     1      10.077 -32.418  13.680  1.00  0.00     0.339 C 
ATOM     14  O   UNL     1       9.608 -31.495  12.958  1.00  0.00    -0.246 OA
BRANCH  13  15
ATOM     15  O   UNL     1      11.299 -32.245  14.341  1.00  0.00    -0.462 OA
BRANCH  15  16
ATOM     16  C   UNL     1      12.085 -31.058  14.239  1.00  0.00     0.233 C 
BRANCH  16  17
ATOM     17  C   UNL     1      13.557 -31.409  14.007  1.00  0.00     0.038 C 
ATOM     18  C   UNL     1      14.370 -30.169  13.648  1.00  0.00     0.007 C 
ENDBRANCH  16  17
ENDBRANCH  15  16
ENDBRANCH  13  15
ENDBRANCH   6  13
TORSDOF 8
ENDMDL
MODEL 2
REMARK VINA RESULT:    -3.620      1.972      5.944
REMARK INTER + INTRA:          -6.016
REMARK INTER:                  -5.352
REMARK INTRA:                  -0.665
REMARK UNBOUND:                -0.704
REMARK SMILES CCCOC(=O)c1ccccc1C(=O)OCCC
REMARK SMILES IDX 7 1 8 2 9 3 10 4 11 5 12 6 5 7 6 8 4 9 3 10 2 11 1 12 13 13
REMARK SMILES IDX 14 14 15 15 16 16 17 17 18 18
REMARK H PARENT
REMARK Flexibility Score: inf
ROOT
ATOM      1  C   UNL     1       9.431 -32.032  15.494  1.00  0.00     0.074 A 
ATOM      2  C   UNL     1      10.287 -31.122  16.143  1.00  0.00     0.016 A 
ATOM      3  C   UNL     1      10.155 -30.868  17.509  1.00  0.00     0.001 A 
ATOM      4  C   UNL     1       9.170 -31.517  18.248  1.00  0.00     0.001 A 
ATOM      5  C   UNL     1       8.296 -32.407  17.622  1.00  0.00     0.016 A 
ATOM      6  C   UNL     1       8.396 -32.660  16.241  1.00  0.00     0.074 A 
ENDROOT
BRANCH   1   7
ATOM      7  C   UNL     1       9.700 -32.339  14.071  1.00  0.00     0.339 C 
ATOM      8  O   UNL     1       8.957 -31.867  13.167  1.00  0.00    -0.246 OA
BRANCH   7   9
ATOM      9  O   UNL     1      10.754 -33.200  13.740  1.00  0.00    -0.462 OA
BRANCH   9  10
ATOM     10  C   UNL     1      10.583 -34.595  13.499  1.00  0.00     0.233 C 
BRANCH  10  11
ATOM     11  C   UNL     1      11.858 -35.195  12.901  1.00  0.00     0.038 C 
ATOM     12  C   UNL     1      11.858 -36.717  13.013  1.00  0.00     0.007 C 
ENDBRANCH  10  11
ENDBRANCH   9  10
ENDBRANCH   7   9
ENDBRANCH   1   7
BRANCH   6  13
ATOM     13  C   UNL     1       7.370 -33.527  15.621  1.00  0.00     0.339 C 
ATOM     14  O   UNL     1       6.274 -33.037  15.233  1.00  0.00    -0.246 OA
BRANCH  13  15
ATOM     15  O   UNL     1       7.601 -34.905  15.524  1.00  0.00    -0.462 OA
BRANCH  15  16
ATOM     16  C   UNL     1       6.992 -35.735  14.536  1.00  0.00     0.233 C 
BRANCH  16  17
ATOM     17  C   UNL     1       6.704 -37.125  15.108  1.00  0.00     0.038 C 
ATOM     18  C   UNL     1       6.628 -37.090  16.632  1.00  0.00     0.007 C 
ENDBRANCH  16  17
ENDBRANCH  15  16
ENDBRANCH  13  15
ENDBRANCH   6  13
TORSDOF 8
ENDMDL
MODEL 3
REMARK VINA RESULT:    -3.488      1.834      4.536
REMARK INTER + INTRA:          -5.823
REMARK INTER:                  -5.121
REMARK INTRA:                  -0.702
REMARK UNBOUND:                -0.704
REMARK SMILES CCCOC(=O)c1ccccc1C(=O)OCCC
REMARK SMILES IDX 7 1 8 2 9 3 10 4 11 5 12 6 5 7 6 8 4 9 3 10 2 11 1 12 13 13
REMARK SMILES IDX 14 14 15 15 16 16 17 17 18 18
REMARK H PARENT
REMARK Flexibility Score: inf
ROOT
ATOM      1  C   UNL     1       8.592 -32.554  16.080  1.00  0.00     0.074 A 
ATOM      2  C   UNL     1       8.450 -32.264  17.449  1.00  0.00     0.016 A 
ATOM      3  C   UNL     1       9.319 -31.376  18.085  1.00  0.00     0.001 A 
ATOM      4  C   UNL     1      10.341 -30.764  17.364  1.00  0.00     0.001 A 
ATOM      5  C   UNL     1      10.515 -31.054  16.010  1.00  0.00     0.016 A 
ATOM      6  C   UNL     1       9.665 -31.963  15.355  1.00  0.00     0.074 A 
ENDROOT
BRANCH   1   7
ATOM      7  C   UNL     1       7.567 -33.414  15.445  1.00  0.00     0.339 C 
ATOM      8  O   UNL     1       6.532 -32.901  14.937  1.00  0.00    -0.246 OA
BRANCH   7   9
ATOM      9  O   UNL     1       7.730 -34.805  15.460  1.00  0.00    -0.462 OA
BRANCH   9  10
ATOM     10  C   UNL     1       6.640 -35.724  15.503  1.00  0.00     0.233 C 
BRANCH  10  11
ATOM     11  C   UNL     1       6.843 -36.844  14.479  1.00  0.00     0.038 C 
ATOM     12  C   UNL     1       7.608 -36.343  13.258  1.00  0.00     0.007 C 
ENDBRANCH  10  11
ENDBRANCH   9  10
ENDBRANCH   7   9
ENDBRANCH   1   7
BRANCH   6  13
ATOM     13  C   UNL     1       9.971 -32.309  13.950  1.00  0.00     0.339 C 
ATOM     14  O   UNL     1       9.292 -31.810  13.010  1.00  0.00    -0.246 OA
BRANCH  13  15
ATOM     15  O   UNL     1      10.979 -33.241  13.674  1.00  0.00    -0.462 OA
BRANCH  15  16
ATOM     16  C   UNL     1      10.737 -34.639  13.529  1.00  0.00     0.233 C 
BRANCH  16  17
ATOM     17  C   UNL     1      11.939 -35.326  12.875  1.00  0.00     0.038 C 
ATOM     18  C   UNL     1      11.820 -36.845  12.959  1.00  0.00     0.007 C 
ENDBRANCH  16  17
ENDBRANCH  15  16
ENDBRANCH  13  15
ENDBRANCH   6  13
TORSDOF 8
ENDMDL
MODEL 4
REMARK VINA RESULT:    -3.430      1.112      5.324
REMARK INTER + INTRA:          -5.738
REMARK INTER:                  -5.066
REMARK INTRA:                  -0.673
REMARK UNBOUND:                -0.704
REMARK SMILES CCCOC(=O)c1ccccc1C(=O)OCCC
REMARK SMILES IDX 7 1 8 2 9 3 10 4 11 5 12 6 5 7 6 8 4 9 3 10 2 11 1 12 13 13
REMARK SMILES IDX 14 14 15 15 16 16 17 17 18 18
REMARK H PARENT
REMARK Flexibility Score: inf
ROOT
ATOM      1  C   UNL     1       9.392 -32.005  15.738  1.00  0.00     0.074 A 
ATOM      2  C   UNL     1      10.205 -31.119  16.469  1.00  0.00     0.016 A 
ATOM      3  C   UNL     1       9.991 -30.915  17.833  1.00  0.00     0.001 A 
ATOM      4  C   UNL     1       8.965 -31.591  18.488  1.00  0.00     0.001 A 
ATOM      5  C   UNL     1       8.133 -32.458  17.778  1.00  0.00     0.016 A 
ATOM      6  C   UNL     1       8.315 -32.660  16.398  1.00  0.00     0.074 A 
ENDROOT
BRANCH   1   7
ATOM      7  C   UNL     1       9.746 -32.260  14.323  1.00  0.00     0.339 C 
ATOM      8  O   UNL     1       9.022 -31.806  13.394  1.00  0.00    -0.246 OA
BRANCH   7   9
ATOM      9  O   UNL     1      10.861 -33.054  14.025  1.00  0.00    -0.462 OA
BRANCH   9  10
ATOM     10  C   UNL     1      12.041 -32.550  13.403  1.00  0.00     0.233 C 
BRANCH  10  11
ATOM     11  C   UNL     1      12.525 -31.286  14.118  1.00  0.00     0.038 C 
ATOM     12  C   UNL     1      14.025 -31.083  13.927  1.00  0.00     0.007 C 
ENDBRANCH  10  11
ENDBRANCH   9  10
ENDBRANCH   7   9
ENDBRANCH   1   7
BRANCH   6  13
ATOM     13  C   UNL     1       7.331 -33.505  15.686  1.00  0.00     0.339 C 
ATOM     14  O   UNL     1       6.233 -33.016  15.303  1.00  0.00    -0.246 OA
BRANCH  13  15
ATOM     15  O   UNL     1       7.601 -34.866  15.497  1.00  0.00    -0.462 OA
BRANCH  15  16
ATOM     16  C   UNL     1       6.875 -35.692  14.588  1.00  0.00     0.233 C 
BRANCH  16  17
ATOM     17  C   UNL     1       7.394 -35.504  13.161  1.00  0.00     0.038 C 
ATOM     18  C   UNL     1       8.895 -35.765  13.081  1.00  0.00     0.007 C 
ENDBRANCH  16  17
ENDBRANCH  15  16
ENDBRANCH  13  15
ENDBRANCH   6  13
TORSDOF 8
ENDMDL
MODEL 5
REMARK VINA RESULT:    -3.186      1.973      4.668
REMARK INTER + INTRA:          -5.380
REMARK INTER:                  -4.968
REMARK INTRA:                  -0.412
REMARK UNBOUND:                -0.704
REMARK SMILES CCCOC(=O)c1ccccc1C(=O)OCCC
REMARK SMILES IDX 7 1 8 2 9 3 10 4 11 5 12 6 5 7 6 8 4 9 3 10 2 11 1 12 13 13
REMARK SMILES IDX 14 14 15 15 16 16 17 17 18 18
REMARK H PARENT
REMARK Flexibility Score: inf
ROOT
ATOM      1  C   UNL     1       9.772 -34.212  13.347  1.00  0.00     0.074 A 
ATOM      2  C   UNL     1      11.090 -34.493  12.939  1.00  0.00     0.016 A 
ATOM      3  C   UNL     1      12.101 -33.542  13.086  1.00  0.00     0.001 A 
ATOM      4  C   UNL     1      11.814 -32.299  13.643  1.00  0.00     0.001 A 
ATOM      5  C   UNL     1      10.511 -31.990  14.035  1.00  0.00     0.016 A 
ATOM      6  C   UNL     1       9.471 -32.925  13.874  1.00  0.00     0.074 A 
ENDROOT
BRANCH   1   7
ATOM      7  C   UNL     1       8.776 -35.304  13.267  1.00  0.00     0.339 C 
ATOM      8  O   UNL     1       9.153 -36.509  13.247  1.00  0.00    -0.246 OA
BRANCH   7   9
ATOM      9  O   UNL     1       7.416 -34.989  13.163  1.00  0.00    -0.462 OA
BRANCH   9  10
ATOM     10  C   UNL     1       6.371 -35.858  13.597  1.00  0.00     0.233 C 
BRANCH  10  11
ATOM     11  C   UNL     1       5.934 -35.500  15.020  1.00  0.00     0.038 C 
ATOM     12  C   UNL     1       6.550 -36.451  16.042  1.00  0.00     0.007 C 
ENDBRANCH  10  11
ENDBRANCH   9  10
ENDBRANCH   7   9
ENDBRANCH   1   7
BRANCH   6  13
ATOM     13  C   UNL     1       8.096 -32.494  14.207  1.00  0.00     0.339 C 
ATOM     14  O   UNL     1       7.336 -32.042  13.307  1.00  0.00    -0.246 OA
BRANCH  13  15
ATOM     15  O   UNL     1       7.665 -32.535  15.539  1.00  0.00    -0.462 OA
BRANCH  15  16
ATOM     16  C   UNL     1       8.416 -33.144  16.588  1.00  0.00     0.233 C 
BRANCH  16  17
ATOM     17  C   UNL     1       8.529 -32.196  17.784  1.00  0.00     0.038 C 
ATOM     18  C   UNL     1       9.695 -31.226  17.612  1.00  0.00     0.007 C 
ENDBRANCH  16  17
ENDBRANCH  15  16
ENDBRANCH  13  15
ENDBRANCH   6  13
TORSDOF 8
ENDMDL
MODEL 6
REMARK VINA RESULT:    -3.142      1.575      4.085
REMARK INTER + INTRA:          -5.315
REMARK INTER:                  -4.966
REMARK INTRA:                  -0.350
REMARK UNBOUND:                -0.704
REMARK SMILES CCCOC(=O)c1ccccc1C(=O)OCCC
REMARK SMILES IDX 7 1 8 2 9 3 10 4 11 5 12 6 5 7 6 8 4 9 3 10 2 11 1 12 13 13
REMARK SMILES IDX 14 14 15 15 16 16 17 17 18 18
REMARK H PARENT
REMARK Flexibility Score: inf
ROOT
ATOM      1  C   UNL     1       8.950 -33.565  15.326  1.00  0.00     0.074 A 
ATOM      2  C   UNL     1       8.467 -33.912  16.602  1.00  0.00     0.016 A 
ATOM      3  C   UNL     1       8.536 -33.007  17.662  1.00  0.00     0.001 A 
ATOM      4  C   UNL     1       9.085 -31.742  17.465  1.00  0.00     0.001 A 
ATOM      5  C   UNL     1       9.590 -31.385  16.214  1.00  0.00     0.016 A 
ATOM      6  C   UNL     1       9.552 -32.290  15.138  1.00  0.00     0.074 A 
ENDROOT
BRANCH   1   7
ATOM      7  C   UNL     1       8.741 -34.530  14.222  1.00  0.00     0.339 C 
ATOM      8  O   UNL     1       9.731 -35.047  13.634  1.00  0.00    -0.246 OA
BRANCH   7   9
ATOM      9  O   UNL     1       7.438 -34.824  13.802  1.00  0.00    -0.462 OA
BRANCH   9  10
ATOM     10  C   UNL     1       7.065 -36.066  13.208  1.00  0.00     0.233 C 
BRANCH  10  11
ATOM     11  C   UNL     1       5.920 -36.712  13.993  1.00  0.00     0.038 C 
ATOM     12  C   UNL     1       6.320 -36.969  15.442  1.00  0.00     0.007 C 
ENDBRANCH  10  11
ENDBRANCH   9  10
ENDBRANCH   7   9
ENDBRANCH   1   7
BRANCH   6  13
ATOM     13  C   UNL     1      10.203 -31.888  13.872  1.00  0.00     0.339 C 
ATOM     14  O   UNL     1       9.504 -31.548  12.878  1.00  0.00    -0.246 OA
BRANCH  13  15
ATOM     15  O   UNL     1      11.598 -31.948  13.765  1.00  0.00    -0.462 OA
BRANCH  15  16
ATOM     16  C   UNL     1      12.480 -31.140  14.542  1.00  0.00     0.233 C 
BRANCH  16  17
ATOM     17  C   UNL     1      13.908 -31.229  13.997  1.00  0.00     0.038 C 
ATOM     18  C   UNL     1      14.435 -29.852  13.603  1.00  0.00     0.007 C 
ENDBRANCH  16  17
ENDBRANCH  15  16
ENDBRANCH  13  15
ENDBRANCH   6  13
TORSDOF 8
ENDMDL
MODEL 7
REMARK VINA RESULT:    -2.780      1.341      4.041
REMARK INTER + INTRA:          -4.784
REMARK INTER:                  -4.406
REMARK INTRA:                  -0.378
REMARK UNBOUND:                -0.704
REMARK SMILES CCCOC(=O)c1ccccc1C(=O)OCCC
REMARK SMILES IDX 7 1 8 2 9 3 10 4 11 5 12 6 5 7 6 8 4 9 3 10 2 11 1 12 13 13
REMARK SMILES IDX 14 14 15 15 16 16 17 17 18 18
REMARK H PARENT
REMARK Flexibility Score: inf
ROOT
ATOM      1  C   UNL     1       7.667 -34.165  13.890  1.00  0.00     0.074 A 
ATOM      2  C   UNL     1       7.070 -34.936  12.875  1.00  0.00     0.016 A 
ATOM      3  C   UNL     1       6.228 -36.003  13.191  1.00  0.00     0.001 A 
ATOM      4  C   UNL     1       5.967 -36.316  14.522  1.00  0.00     0.001 A 
ATOM      5  C   UNL     1       6.564 -35.579  15.545  1.00  0.00     0.016 A 
ATOM      6  C   UNL     1       7.435 -34.514  15.250  1.00  0.00     0.074 A 
ENDROOT
BRANCH   1   7
ATOM      7  C   UNL     1       8.456 -32.980  13.484  1.00  0.00     0.339 C 
ATOM      8  O   UNL     1       7.878 -31.964  13.007  1.00  0.00    -0.246 OA
BRANCH   7   9
ATOM      9  O   UNL     1       9.852 -33.014  13.586  1.00  0.00    -0.462 OA
BRANCH   9  10
ATOM     10  C   UNL     1      10.657 -31.850  13.758  1.00  0.00     0.233 C 
BRANCH  10  11
ATOM     11  C   UNL     1      12.143 -32.217  13.733  1.00  0.00     0.038 C 
ATOM     12  C   UNL     1      13.001 -31.083  14.284  1.00  0.00     0.007 C 
ENDBRANCH  10  11
ENDBRANCH   9  10
ENDBRANCH   7   9
ENDBRANCH   1   7
BRANCH   6  13
ATOM     13  C   UNL     1       8.120 -33.846  16.379  1.00  0.00     0.339 C 
ATOM     14  O   UNL     1       8.654 -34.531  17.294  1.00  0.00    -0.246 OA
BRANCH  13  15
ATOM     15  O   UNL     1       8.116 -32.447  16.455  1.00  0.00    -0.462 OA
BRANCH  15  16
ATOM     16  C   UNL     1       7.971 -31.729  17.679  1.00  0.00     0.233 C 
BRANCH  16  17
ATOM     17  C   UNL     1       9.341 -31.443  18.298  1.00  0.00     0.038 C 
ATOM     18  C   UNL     1      10.284 -30.806  17.283  1.00  0.00     0.007 C 
ENDBRANCH  16  17
ENDBRANCH  15  16
ENDBRANCH  13  15
ENDBRANCH   6  13
TORSDOF 8
ENDMDL
MODEL 8
REMARK VINA RESULT:    -2.582      1.510      4.857
REMARK INTER + INTRA:          -4.493
REMARK INTER:                  -4.623
REMARK INTRA:                   0.130
REMARK UNBOUND:                -0.704
REMARK SMILES CCCOC(=O)c1ccccc1C(=O)OCCC
REMARK SMILES IDX 7 1 8 2 9 3 10 4 11 5 12 6 5 7 6 8 4 9 3 10 2 11 1 12 13 13
REMARK SMILES IDX 14 14 15 15 16 16 17 17 18 18
REMARK H PARENT
REMARK Flexibility Score: inf
ROOT
ATOM      1  C   UNL     1      10.081 -31.573  15.539  1.00  0.00     0.074 A 
ATOM      2  C   UNL     1      10.422 -31.056  16.802  1.00  0.00     0.016 A 
ATOM      3  C   UNL     1       9.583 -31.245  17.901  1.00  0.00     0.001 A 
ATOM      4  C   UNL     1       8.393 -31.954  17.757  1.00  0.00     0.001 A 
ATOM      5  C   UNL     1       8.024 -32.457  16.509  1.00  0.00     0.016 A 
ATOM      6  C   UNL     1       8.843 -32.257  15.383  1.00  0.00     0.074 A 
ENDROOT
BRANCH   1   7
ATOM      7  C   UNL     1      11.069 -31.434  14.445  1.00  0.00     0.339 C 
ATOM      8  O   UNL     1      10.748 -31.716  13.257  1.00  0.00    -0.246 OA
BRANCH   7   9
ATOM      9  O   UNL     1      12.378 -31.039  14.747  1.00  0.00    -0.462 OA
BRANCH   9  10
ATOM     10  C   UNL     1      13.520 -31.470  14.009  1.00  0.00     0.233 C 
BRANCH  10  11
ATOM     11  C   UNL     1      14.367 -30.269  13.581  1.00  0.00     0.038 C 
ATOM     12  C   UNL     1      14.766 -29.419  14.782  1.00  0.00     0.007 C 
ENDBRANCH  10  11
ENDBRANCH   9  10
ENDBRANCH   7   9
ENDBRANCH   1   7
BRANCH   6  13
ATOM     13  C   UNL     1       8.341 -32.720  14.070  1.00  0.00     0.339 C 
ATOM     14  O   UNL     1       7.813 -31.903  13.267  1.00  0.00    -0.246 OA
BRANCH  13  15
ATOM     15  O   UNL     1       8.399 -34.083  13.753  1.00  0.00    -0.462 OA
BRANCH  15  16
ATOM     16  C   UNL     1       9.532 -34.906  14.029  1.00  0.00     0.233 C 
BRANCH  16  17
ATOM     17  C   UNL     1      10.535 -34.840  12.875  1.00  0.00     0.038 C 
ATOM     18  C   UNL     1      11.846 -35.528  13.244  1.00  0.00     0.007 C 
ENDBRANCH  16  17
ENDBRANCH  15  16
ENDBRANCH  13  15
ENDBRANCH   6  13
TORSDOF 8
ENDMDL
