MODEL 1
REMARK VINA RESULT:    20.156      0.000      0.000
REMARK INTER + INTRA:          26.373
REMARK INTER:                  25.459
REMARK INTRA:                   0.915
REMARK UNBOUND:                 0.915
REMARK SMILES O=C(C=Cc1ccc(O)cc1)c1ccc(O)cc1O
REMARK SMILES IDX 4 1 3 2 5 3 6 4 7 5 8 6 11 7 10 8 9 9 2 11 1 12 12 13 18 14
REMARK SMILES IDX 13 15 17 16 14 17 15 18 19 19 16 21
REMARK H PARENT 9 10 19 20 16 22
REMARK Flexibility Score: inf
ROOT
ATOM      1  C   UNL     1       6.991  -2.576 -10.049  1.00  0.00     0.012 C 
ATOM      2  C   UNL     1       8.098  -3.175  -9.582  1.00  0.00     0.053 C 
ENDROOT
BRANCH   1   3
ATOM      3  C   UNL     1       6.914  -1.746 -11.268  1.00  0.00    -0.025 A 
ATOM      4  C   UNL     1       6.957  -2.330 -12.546  1.00  0.00     0.012 A 
ATOM      5  C   UNL     1       6.937  -1.524 -13.689  1.00  0.00     0.047 A 
ATOM      6  C   UNL     1       6.898  -0.129 -13.565  1.00  0.00     0.115 A 
ATOM      7  C   UNL     1       6.907  -0.348 -11.150  1.00  0.00     0.012 A 
ATOM      8  C   UNL     1       6.887   0.455 -12.295  1.00  0.00     0.047 A 
BRANCH   6   9
ATOM      9  O   UNL     1       6.877   0.684 -14.696  1.00  0.00    -0.508 OA
ATOM     10  H   UNL     1       6.131   0.623 -15.380  1.00  0.00     0.293 HD
ENDBRANCH   6   9
ENDBRANCH   1   3
BRANCH   2  11
ATOM     11  C   UNL     1       9.400  -3.259 -10.289  1.00  0.00     0.189 C 
ATOM     12  O   UNL     1       9.473  -3.063 -11.532  1.00  0.00    -0.289 OA
BRANCH  11  13
ATOM     13  C   UNL     1      10.640  -3.581  -9.552  1.00  0.00     0.064 A 
ATOM     14  C   UNL     1      10.661  -4.537  -8.513  1.00  0.00     0.130 A 
ATOM     15  C   UNL     1      11.835  -2.940  -9.918  1.00  0.00     0.020 A 
ATOM     16  C   UNL     1      11.859  -4.800  -7.831  1.00  0.00     0.093 A 
ATOM     17  C   UNL     1      13.025  -3.214  -9.239  1.00  0.00     0.047 A 
ATOM     18  C   UNL     1      13.038  -4.141  -8.191  1.00  0.00     0.119 A 
BRANCH  14  19
ATOM     19  O   UNL     1       9.506  -5.242  -8.176  1.00  0.00    -0.507 OA
ATOM     20  H   UNL     1       9.244  -6.095  -8.656  1.00  0.00     0.293 HD
ENDBRANCH  14  19
BRANCH  18  21
ATOM     21  O   UNL     1      14.218  -4.418  -7.503  1.00  0.00    -0.508 OA
ATOM     22  H   UNL     1      14.225  -5.011  -6.682  1.00  0.00     0.293 HD
ENDBRANCH  18  21
ENDBRANCH  11  13
ENDBRANCH   2  11
TORSDOF 6
ENDMDL
MODEL 2
REMARK VINA RESULT:    21.378      0.924      1.567
REMARK INTER + INTRA:          27.917
REMARK INTER:                  27.722
REMARK INTRA:                   0.195
REMARK UNBOUND:                 0.915
REMARK SMILES O=C(C=Cc1ccc(O)cc1)c1ccc(O)cc1O
REMARK SMILES IDX 4 1 3 2 5 3 6 4 7 5 8 6 11 7 10 8 9 9 2 11 1 12 12 13 18 14
REMARK SMILES IDX 13 15 17 16 14 17 15 18 19 19 16 21
REMARK H PARENT 9 10 19 20 16 22
REMARK Flexibility Score: inf
ROOT
ATOM      1  C   UNL     1       6.938  -2.633 -10.059  1.00  0.00     0.012 C 
ATOM      2  C   UNL     1       8.037  -3.250  -9.600  1.00  0.00     0.053 C 
ENDROOT
BRANCH   1   3
ATOM      3  C   UNL     1       6.875  -1.773 -11.259  1.00  0.00    -0.025 A 
ATOM      4  C   UNL     1       6.881  -2.329 -12.550  1.00  0.00     0.012 A 
ATOM      5  C   UNL     1       6.875  -1.499 -13.674  1.00  0.00     0.047 A 
ATOM      6  C   UNL     1       6.888  -0.106 -13.520  1.00  0.00     0.115 A 
ATOM      7  C   UNL     1       6.919  -0.379 -11.110  1.00  0.00     0.012 A 
ATOM      8  C   UNL     1       6.913   0.450 -12.237  1.00  0.00     0.047 A 
BRANCH   6   9
ATOM      9  O   UNL     1       6.881   0.732 -14.633  1.00  0.00    -0.508 OA
ATOM     10  H   UNL     1       7.714   1.230 -14.927  1.00  0.00     0.293 HD
ENDBRANCH   6   9
ENDBRANCH   1   3
BRANCH   2  11
ATOM     11  C   UNL     1       9.343  -3.327 -10.300  1.00  0.00     0.189 C 
ATOM     12  O   UNL     1       9.422  -3.129 -11.543  1.00  0.00    -0.289 OA
BRANCH  11  13
ATOM     13  C   UNL     1      10.581  -3.645  -9.557  1.00  0.00     0.064 A 
ATOM     14  C   UNL     1      11.835  -3.125  -9.943  1.00  0.00     0.130 A 
ATOM     15  C   UNL     1      10.499  -4.462  -8.418  1.00  0.00     0.020 A 
ATOM     16  C   UNL     1      12.985  -3.465  -9.216  1.00  0.00     0.093 A 
ATOM     17  C   UNL     1      11.649  -4.791  -7.695  1.00  0.00     0.047 A 
ATOM     18  C   UNL     1      12.896  -4.296  -8.095  1.00  0.00     0.119 A 
BRANCH  14  19
ATOM     19  O   UNL     1      11.936  -2.253 -11.027  1.00  0.00    -0.507 OA
ATOM     20  H   UNL     1      12.835  -1.936 -11.373  1.00  0.00     0.293 HD
ENDBRANCH  14  19
BRANCH  18  21
ATOM     21  O   UNL     1      14.049  -4.621  -7.385  1.00  0.00    -0.508 OA
ATOM     22  H   UNL     1      14.011  -4.899  -6.411  1.00  0.00     0.293 HD
ENDBRANCH  18  21
ENDBRANCH  11  13
ENDBRANCH   2  11
TORSDOF 6
ENDMDL
MODEL 3
REMARK VINA RESULT:    22.118      1.897      6.672
REMARK INTER + INTRA:          28.852
REMARK INTER:                  29.503
REMARK INTRA:                  -0.651
REMARK UNBOUND:                 0.915
REMARK SMILES O=C(C=Cc1ccc(O)cc1)c1ccc(O)cc1O
REMARK SMILES IDX 4 1 3 2 5 3 6 4 7 5 8 6 11 7 10 8 9 9 2 11 1 12 12 13 18 14
REMARK SMILES IDX 13 15 17 16 14 17 15 18 19 19 16 21
REMARK H PARENT 9 10 19 20 16 22
REMARK Flexibility Score: inf
ROOT
ATOM      1  C   UNL     1      11.813  -3.029  -8.034  1.00  0.00     0.012 C 
ATOM      2  C   UNL     1      10.489  -3.229  -8.126  1.00  0.00     0.053 C 
ENDROOT
BRANCH   1   3
ATOM      3  C   UNL     1      12.839  -3.674  -8.878  1.00  0.00    -0.025 A 
ATOM      4  C   UNL     1      13.478  -2.966  -9.911  1.00  0.00     0.012 A 
ATOM      5  C   UNL     1      14.407  -3.608 -10.735  1.00  0.00     0.047 A 
ATOM      6  C   UNL     1      14.689  -4.968 -10.550  1.00  0.00     0.115 A 
ATOM      7  C   UNL     1      13.102  -5.043  -8.718  1.00  0.00     0.012 A 
ATOM      8  C   UNL     1      14.032  -5.683  -9.544  1.00  0.00     0.047 A 
BRANCH   6   9
ATOM      9  O   UNL     1      15.614  -5.618 -11.364  1.00  0.00    -0.508 OA
ATOM     10  H   UNL     1      16.141  -5.119 -12.072  1.00  0.00     0.293 HD
ENDBRANCH   6   9
ENDBRANCH   1   3
BRANCH   2  11
ATOM     11  C   UNL     1       9.802  -3.993  -9.197  1.00  0.00     0.189 C 
ATOM     12  O   UNL     1       9.875  -5.251  -9.241  1.00  0.00    -0.289 OA
BRANCH  11  13
ATOM     13  C   UNL     1       9.021  -3.295 -10.240  1.00  0.00     0.064 A 
ATOM     14  C   UNL     1       7.699  -2.856 -10.010  1.00  0.00     0.130 A 
ATOM     15  C   UNL     1       9.625  -3.034 -11.481  1.00  0.00     0.020 A 
ATOM     16  C   UNL     1       6.991  -2.210 -11.036  1.00  0.00     0.093 A 
ATOM     17  C   UNL     1       8.914  -2.384 -12.493  1.00  0.00     0.047 A 
ATOM     18  C   UNL     1       7.594  -1.974 -12.274  1.00  0.00     0.119 A 
BRANCH  14  19
ATOM     19  O   UNL     1       7.099  -3.036  -8.764  1.00  0.00    -0.507 OA
ATOM     20  H   UNL     1       7.644  -3.071  -7.911  1.00  0.00     0.293 HD
ENDBRANCH  14  19
BRANCH  18  21
ATOM     21  O   UNL     1       6.875  -1.329 -13.278  1.00  0.00    -0.508 OA
ATOM     22  H   UNL     1       6.383  -0.461 -13.103  1.00  0.00     0.293 HD
ENDBRANCH  18  21
ENDBRANCH  11  13
ENDBRANCH   2  11
TORSDOF 6
ENDMDL
