MODEL 1
REMARK VINA RESULT:    -3.919      0.000      0.000
REMARK INTER + INTRA:          -6.818
REMARK INTER:                  -5.981
REMARK INTRA:                  -0.838
REMARK UNBOUND:                -0.838
REMARK SMILES CCCCCCCCCCC(=O)[O-]
REMARK SMILES IDX 7 1 8 2 9 3 10 4 11 5 12 6 13 7 6 8 5 9 4 10 3 11 2 12 1 13
REMARK H PARENT
REMARK Flexibility Score: inf
ROOT
ATOM      1  C   UNL     1     -53.404 121.126  -8.843  1.00  0.00     0.000 C 
ENDROOT
BRANCH   1   2
ATOM      2  C   UNL     1     -54.674 121.994  -8.876  1.00  0.00     0.000 C 
BRANCH   2   3
ATOM      3  C   UNL     1     -55.947 121.178  -9.146  1.00  0.00     0.006 C 
BRANCH   3   4
ATOM      4  C   UNL     1     -56.447 121.399 -10.577  1.00  0.00     0.053 C 
BRANCH   4   5
ATOM      5  C   UNL     1     -57.146 120.178 -11.083  1.00  0.00     0.041 C 
ATOM      6  O   UNL     1     -58.195 120.288 -11.771  1.00  0.00    -0.550 OA
ATOM      7  O   UNL     1     -56.611 118.919 -10.838  1.00  0.00    -0.550 OA
ENDBRANCH   4   5
ENDBRANCH   3   4
ENDBRANCH   2   3
ENDBRANCH   1   2
BRANCH   1   8
ATOM      8  C   UNL     1     -53.447 119.867  -9.732  1.00  0.00     0.000 C 
BRANCH   8   9
ATOM      9  C   UNL     1     -52.977 120.077 -11.183  1.00  0.00    -0.000 C 
BRANCH   9  10
ATOM     10  C   UNL     1     -52.345 121.456 -11.414  1.00  0.00    -0.000 C 
BRANCH  10  11
ATOM     11  C   UNL     1     -50.895 121.323 -11.893  1.00  0.00    -0.000 C 
BRANCH  11  12
ATOM     12  C   UNL     1     -49.918 121.374 -10.712  1.00  0.00    -0.003 C 
ATOM     13  C   UNL     1     -50.147 122.620  -9.861  1.00  0.00     0.004 C 
ENDBRANCH  11  12
ENDBRANCH  10  11
ENDBRANCH   9  10
ENDBRANCH   8   9
ENDBRANCH   1   8
TORSDOF 9
ENDMDL
MODEL 2
REMARK VINA RESULT:    -3.756      0.554      1.191
REMARK INTER + INTRA:          -6.570
REMARK INTER:                  -5.544
REMARK INTRA:                  -1.026
REMARK UNBOUND:                -0.838
REMARK SMILES CCCCCCCCCCC(=O)[O-]
REMARK SMILES IDX 7 1 8 2 9 3 10 4 11 5 12 6 13 7 6 8 5 9 4 10 3 11 2 12 1 13
REMARK H PARENT
REMARK Flexibility Score: inf
ROOT
ATOM      1  C   UNL     1     -53.379 120.713  -8.791  1.00  0.00     0.000 C 
ENDROOT
BRANCH   1   2
ATOM      2  C   UNL     1     -54.343 121.877  -9.078  1.00  0.00     0.000 C 
BRANCH   2   3
ATOM      3  C   UNL     1     -55.810 121.430  -9.161  1.00  0.00     0.006 C 
BRANCH   3   4
ATOM      4  C   UNL     1     -56.333 121.527 -10.597  1.00  0.00     0.053 C 
BRANCH   4   5
ATOM      5  C   UNL     1     -57.012 120.256 -10.994  1.00  0.00     0.041 C 
ATOM      6  O   UNL     1     -56.504 119.144 -10.691  1.00  0.00    -0.550 OA
ATOM      7  O   UNL     1     -58.233 120.297 -11.657  1.00  0.00    -0.550 OA
ENDBRANCH   4   5
ENDBRANCH   3   4
ENDBRANCH   2   3
ENDBRANCH   1   2
BRANCH   1   8
ATOM      8  C   UNL     1     -52.978 119.876 -10.022  1.00  0.00     0.000 C 
BRANCH   8   9
ATOM      9  C   UNL     1     -52.903 120.658 -11.346  1.00  0.00    -0.000 C 
BRANCH   9  10
ATOM     10  C   UNL     1     -51.461 120.918 -11.806  1.00  0.00    -0.000 C 
BRANCH  10  11
ATOM     11  C   UNL     1     -51.032 122.353 -11.482  1.00  0.00    -0.000 C 
BRANCH  11  12
ATOM     12  C   UNL     1     -50.161 122.395 -10.221  1.00  0.00    -0.003 C 
ATOM     13  C   UNL     1     -49.377 121.097 -10.048  1.00  0.00     0.004 C 
ENDBRANCH  11  12
ENDBRANCH  10  11
ENDBRANCH   9  10
ENDBRANCH   8   9
ENDBRANCH   1   8
TORSDOF 9
ENDMDL
MODEL 3
REMARK VINA RESULT:    -3.723      1.675      2.275
REMARK INTER + INTRA:          -6.520
REMARK INTER:                  -5.627
REMARK INTRA:                  -0.893
REMARK UNBOUND:                -0.838
REMARK SMILES CCCCCCCCCCC(=O)[O-]
REMARK SMILES IDX 7 1 8 2 9 3 10 4 11 5 12 6 13 7 6 8 5 9 4 10 3 11 2 12 1 13
REMARK H PARENT
REMARK Flexibility Score: inf
ROOT
ATOM      1  C   UNL     1     -52.758 122.155  -9.843  1.00  0.00     0.000 C 
ENDROOT
BRANCH   1   2
ATOM      2  C   UNL     1     -53.505 120.969  -9.207  1.00  0.00     0.000 C 
BRANCH   2   3
ATOM      3  C   UNL     1     -54.282 120.133 -10.234  1.00  0.00     0.006 C 
BRANCH   3   4
ATOM      4  C   UNL     1     -55.781 120.132  -9.919  1.00  0.00     0.053 C 
BRANCH   4   5
ATOM      5  C   UNL     1     -56.277 121.530  -9.726  1.00  0.00     0.041 C 
ATOM      6  O   UNL     1     -56.382 122.307 -10.712  1.00  0.00    -0.550 OA
ATOM      7  O   UNL     1     -56.671 121.960  -8.465  1.00  0.00    -0.550 OA
ENDBRANCH   4   5
ENDBRANCH   3   4
ENDBRANCH   2   3
ENDBRANCH   1   2
BRANCH   1   8
ATOM      8  C   UNL     1     -52.877 122.256 -11.377  1.00  0.00     0.000 C 
BRANCH   8   9
ATOM      9  C   UNL     1     -51.543 122.427 -12.125  1.00  0.00    -0.000 C 
BRANCH   9  10
ATOM     10  C   UNL     1     -50.592 121.238 -11.930  1.00  0.00    -0.000 C 
BRANCH  10  11
ATOM     11  C   UNL     1     -49.201 121.712 -11.495  1.00  0.00    -0.000 C 
BRANCH  11  12
ATOM     12  C   UNL     1     -49.122 121.860  -9.971  1.00  0.00    -0.003 C 
ATOM     13  C   UNL     1     -49.056 123.329  -9.563  1.00  0.00     0.004 C 
ENDBRANCH  11  12
ENDBRANCH  10  11
ENDBRANCH   9  10
ENDBRANCH   8   9
ENDBRANCH   1   8
TORSDOF 9
ENDMDL
MODEL 4
REMARK VINA RESULT:    -3.663      1.744      2.366
REMARK INTER + INTRA:          -6.427
REMARK INTER:                  -5.827
REMARK INTRA:                  -0.600
REMARK UNBOUND:                -0.838
REMARK SMILES CCCCCCCCCCC(=O)[O-]
REMARK SMILES IDX 7 1 8 2 9 3 10 4 11 5 12 6 13 7 6 8 5 9 4 10 3 11 2 12 1 13
REMARK H PARENT
REMARK Flexibility Score: inf
ROOT
ATOM      1  C   UNL     1     -53.776 119.811  -9.952  1.00  0.00     0.000 C 
ENDROOT
BRANCH   1   2
ATOM      2  C   UNL     1     -53.756 119.996 -11.480  1.00  0.00     0.000 C 
BRANCH   2   3
ATOM      3  C   UNL     1     -55.153 120.240 -12.069  1.00  0.00     0.006 C 
BRANCH   3   4
ATOM      4  C   UNL     1     -56.212 120.296 -10.964  1.00  0.00     0.053 C 
BRANCH   4   5
ATOM      5  C   UNL     1     -56.430 121.706 -10.518  1.00  0.00     0.041 C 
ATOM      6  O   UNL     1     -56.871 121.944  -9.362  1.00  0.00    -0.550 OA
ATOM      7  O   UNL     1     -56.099 122.762 -11.359  1.00  0.00    -0.550 OA
ENDBRANCH   4   5
ENDBRANCH   3   4
ENDBRANCH   2   3
ENDBRANCH   1   2
BRANCH   1   8
ATOM      8  C   UNL     1     -52.705 120.609  -9.182  1.00  0.00     0.000 C 
BRANCH   8   9
ATOM      9  C   UNL     1     -52.588 122.093  -9.575  1.00  0.00    -0.000 C 
BRANCH   9  10
ATOM     10  C   UNL     1     -51.370 122.383 -10.462  1.00  0.00    -0.000 C 
BRANCH  10  11
ATOM     11  C   UNL     1     -50.285 121.317 -10.272  1.00  0.00    -0.000 C 
BRANCH  11  12
ATOM     12  C   UNL     1     -48.975 121.947  -9.785  1.00  0.00    -0.003 C 
ATOM     13  C   UNL     1     -49.128 123.452  -9.582  1.00  0.00     0.004 C 
ENDBRANCH  11  12
ENDBRANCH  10  11
ENDBRANCH   9  10
ENDBRANCH   8   9
ENDBRANCH   1   8
TORSDOF 9
ENDMDL
MODEL 5
REMARK VINA RESULT:    -3.488      1.217      1.674
REMARK INTER + INTRA:          -6.161
REMARK INTER:                  -5.503
REMARK INTRA:                  -0.659
REMARK UNBOUND:                -0.838
REMARK SMILES CCCCCCCCCCC(=O)[O-]
REMARK SMILES IDX 7 1 8 2 9 3 10 4 11 5 12 6 13 7 6 8 5 9 4 10 3 11 2 12 1 13
REMARK H PARENT
REMARK Flexibility Score: inf
ROOT
ATOM      1  C   UNL     1     -53.829 122.368  -9.550  1.00  0.00     0.000 C 
ENDROOT
BRANCH   1   2
ATOM      2  C   UNL     1     -54.194 122.676 -11.013  1.00  0.00     0.000 C 
BRANCH   2   3
ATOM      3  C   UNL     1     -55.527 122.044 -11.440  1.00  0.00     0.006 C 
BRANCH   3   4
ATOM      4  C   UNL     1     -56.151 121.249 -10.290  1.00  0.00     0.053 C 
BRANCH   4   5
ATOM      5  C   UNL     1     -57.023 120.156 -10.820  1.00  0.00     0.041 C 
ATOM      6  O   UNL     1     -58.141 120.430 -11.332  1.00  0.00    -0.550 OA
ATOM      7  O   UNL     1     -56.581 118.839 -10.795  1.00  0.00    -0.550 OA
ENDBRANCH   4   5
ENDBRANCH   3   4
ENDBRANCH   2   3
ENDBRANCH   1   2
BRANCH   1   8
ATOM      8  C   UNL     1     -52.500 121.611  -9.353  1.00  0.00     0.000 C 
BRANCH   8   9
ATOM      9  C   UNL     1     -51.798 121.176 -10.651  1.00  0.00    -0.000 C 
BRANCH   9  10
ATOM     10  C   UNL     1     -50.287 121.446 -10.634  1.00  0.00    -0.000 C 
BRANCH  10  11
ATOM     11  C   UNL     1     -49.912 122.536 -11.644  1.00  0.00    -0.000 C 
BRANCH  11  12
ATOM     12  C   UNL     1     -48.983 123.577 -11.010  1.00  0.00    -0.003 C 
ATOM     13  C   UNL     1     -49.084 123.552  -9.487  1.00  0.00     0.004 C 
ENDBRANCH  11  12
ENDBRANCH  10  11
ENDBRANCH   9  10
ENDBRANCH   8   9
ENDBRANCH   1   8
TORSDOF 9
ENDMDL
MODEL 6
REMARK VINA RESULT:    -3.346      1.241      2.596
REMARK INTER + INTRA:          -5.944
REMARK INTER:                  -5.028
REMARK INTRA:                  -0.917
REMARK UNBOUND:                -0.838
REMARK SMILES CCCCCCCCCCC(=O)[O-]
REMARK SMILES IDX 7 1 8 2 9 3 10 4 11 5 12 6 13 7 6 8 5 9 4 10 3 11 2 12 1 13
REMARK H PARENT
REMARK Flexibility Score: inf
ROOT
ATOM      1  C   UNL     1     -54.132 122.544 -12.076  1.00  0.00     0.000 C 
ENDROOT
BRANCH   1   2
ATOM      2  C   UNL     1     -55.635 122.247 -11.935  1.00  0.00     0.000 C 
BRANCH   2   3
ATOM      3  C   UNL     1     -56.092 122.157 -10.472  1.00  0.00     0.006 C 
BRANCH   3   4
ATOM      4  C   UNL     1     -56.408 120.709 -10.084  1.00  0.00     0.053 C 
BRANCH   4   5
ATOM      5  C   UNL     1     -56.799 119.917 -11.290  1.00  0.00     0.041 C 
ATOM      6  O   UNL     1     -55.998 119.081 -11.786  1.00  0.00    -0.550 OA
ATOM      7  O   UNL     1     -58.067 120.064 -11.839  1.00  0.00    -0.550 OA
ENDBRANCH   4   5
ENDBRANCH   3   4
ENDBRANCH   2   3
ENDBRANCH   1   2
BRANCH   1   8
ATOM      8  C   UNL     1     -53.221 121.301 -12.125  1.00  0.00     0.000 C 
BRANCH   8   9
ATOM      9  C   UNL     1     -51.755 121.550 -11.727  1.00  0.00    -0.000 C 
BRANCH   9  10
ATOM     10  C   UNL     1     -51.531 121.504 -10.209  1.00  0.00    -0.000 C 
BRANCH  10  11
ATOM     11  C   UNL     1     -52.594 120.639  -9.522  1.00  0.00    -0.000 C 
BRANCH  11  12
ATOM     12  C   UNL     1     -53.335 121.433  -8.441  1.00  0.00    -0.003 C 
ATOM     13  C   UNL     1     -53.033 122.925  -8.547  1.00  0.00     0.004 C 
ENDBRANCH  11  12
ENDBRANCH  10  11
ENDBRANCH   9  10
ENDBRANCH   8   9
ENDBRANCH   1   8
TORSDOF 9
ENDMDL
MODEL 7
REMARK VINA RESULT:    -3.167      3.922      6.158
REMARK INTER + INTRA:          -5.672
REMARK INTER:                  -5.018
REMARK INTRA:                  -0.653
REMARK UNBOUND:                -0.838
REMARK SMILES CCCCCCCCCCC(=O)[O-]
REMARK SMILES IDX 7 1 8 2 9 3 10 4 11 5 12 6 13 7 6 8 5 9 4 10 3 11 2 12 1 13
REMARK H PARENT
REMARK Flexibility Score: inf
ROOT
ATOM      1  C   UNL     1     -52.818 121.146  -9.388  1.00  0.00     0.000 C 
ENDROOT
BRANCH   1   2
ATOM      2  C   UNL     1     -51.768 122.135  -9.925  1.00  0.00     0.000 C 
BRANCH   2   3
ATOM      3  C   UNL     1     -50.553 121.433 -10.549  1.00  0.00     0.006 C 
BRANCH   3   4
ATOM      4  C   UNL     1     -49.260 121.835  -9.832  1.00  0.00     0.053 C 
BRANCH   4   5
ATOM      5  C   UNL     1     -49.079 123.319  -9.870  1.00  0.00     0.041 C 
ATOM      6  O   UNL     1     -48.875 123.904 -10.967  1.00  0.00    -0.550 OA
ATOM      7  O   UNL     1     -49.184 124.062  -8.701  1.00  0.00    -0.550 OA
ENDBRANCH   4   5
ENDBRANCH   3   4
ENDBRANCH   2   3
ENDBRANCH   1   2
BRANCH   1   8
ATOM      8  C   UNL     1     -53.305 120.093 -10.403  1.00  0.00     0.000 C 
BRANCH   8   9
ATOM      9  C   UNL     1     -53.904 120.665 -11.701  1.00  0.00    -0.000 C 
BRANCH   9  10
ATOM     10  C   UNL     1     -55.287 120.085 -12.029  1.00  0.00    -0.000 C 
BRANCH  10  11
ATOM     11  C   UNL     1     -56.403 120.991 -11.497  1.00  0.00    -0.000 C 
BRANCH  11  12
ATOM     12  C   UNL     1     -56.927 120.485 -10.148  1.00  0.00    -0.003 C 
ATOM     13  C   UNL     1     -56.479 121.394  -9.007  1.00  0.00     0.004 C 
ENDBRANCH  11  12
ENDBRANCH  10  11
ENDBRANCH   9  10
ENDBRANCH   8   9
ENDBRANCH   1   8
TORSDOF 9
ENDMDL
MODEL 8
REMARK VINA RESULT:    -3.146      1.683      3.100
REMARK INTER + INTRA:          -5.639
REMARK INTER:                  -4.749
REMARK INTRA:                  -0.890
REMARK UNBOUND:                -0.838
REMARK SMILES CCCCCCCCCCC(=O)[O-]
REMARK SMILES IDX 7 1 8 2 9 3 10 4 11 5 12 6 13 7 6 8 5 9 4 10 3 11 2 12 1 13
REMARK H PARENT
REMARK Flexibility Score: inf
ROOT
ATOM      1  C   UNL     1     -52.441 121.589 -12.090  1.00  0.00     0.000 C 
ENDROOT
BRANCH   1   2
ATOM      2  C   UNL     1     -53.444 120.422 -12.124  1.00  0.00     0.000 C 
BRANCH   2   3
ATOM      3  C   UNL     1     -54.176 120.225 -10.788  1.00  0.00     0.006 C 
BRANCH   3   4
ATOM      4  C   UNL     1     -55.691 120.349 -10.970  1.00  0.00     0.053 C 
BRANCH   4   5
ATOM      5  C   UNL     1     -56.154 121.720 -10.594  1.00  0.00     0.041 C 
ATOM      6  O   UNL     1     -56.008 122.680 -11.397  1.00  0.00    -0.550 OA
ATOM      7  O   UNL     1     -56.791 121.931  -9.378  1.00  0.00    -0.550 OA
ENDBRANCH   4   5
ENDBRANCH   3   4
ENDBRANCH   2   3
ENDBRANCH   1   2
BRANCH   1   8
ATOM      8  C   UNL     1     -50.964 121.178 -11.929  1.00  0.00     0.000 C 
BRANCH   8   9
ATOM      9  C   UNL     1     -50.384 121.365 -10.516  1.00  0.00    -0.000 C 
BRANCH   9  10
ATOM     10  C   UNL     1     -50.069 122.832 -10.188  1.00  0.00    -0.000 C 
BRANCH  10  11
ATOM     11  C   UNL     1     -50.910 123.322  -9.004  1.00  0.00    -0.000 C 
BRANCH  11  12
ATOM     12  C   UNL     1     -52.126 122.416  -8.779  1.00  0.00    -0.003 C 
ATOM     13  C   UNL     1     -53.405 123.234  -8.635  1.00  0.00     0.004 C 
ENDBRANCH  11  12
ENDBRANCH  10  11
ENDBRANCH   9  10
ENDBRANCH   8   9
ENDBRANCH   1   8
TORSDOF 9
ENDMDL
MODEL 9
REMARK VINA RESULT:    -3.126      3.680      5.907
REMARK INTER + INTRA:          -5.608
REMARK INTER:                  -4.749
REMARK INTRA:                  -0.859
REMARK UNBOUND:                -0.838
REMARK SMILES CCCCCCCCCCC(=O)[O-]
REMARK SMILES IDX 7 1 8 2 9 3 10 4 11 5 12 6 13 7 6 8 5 9 4 10 3 11 2 12 1 13
REMARK H PARENT
REMARK Flexibility Score: inf
ROOT
ATOM      1  C   UNL     1     -53.413 122.504 -10.239  1.00  0.00     0.000 C 
ENDROOT
BRANCH   1   2
ATOM      2  C   UNL     1     -52.320 121.483  -9.878  1.00  0.00     0.000 C 
BRANCH   2   3
ATOM      3  C   UNL     1     -51.458 121.080 -11.083  1.00  0.00     0.006 C 
BRANCH   3   4
ATOM      4  C   UNL     1     -50.222 121.978 -11.198  1.00  0.00     0.053 C 
BRANCH   4   5
ATOM      5  C   UNL     1     -49.421 121.932  -9.936  1.00  0.00     0.041 C 
ATOM      6  O   UNL     1     -48.875 120.856  -9.571  1.00  0.00    -0.550 OA
ATOM      7  O   UNL     1     -49.236 123.087  -9.187  1.00  0.00    -0.550 OA
ENDBRANCH   4   5
ENDBRANCH   3   4
ENDBRANCH   2   3
ENDBRANCH   1   2
BRANCH   1   8
ATOM      8  C   UNL     1     -53.824 122.525 -11.725  1.00  0.00     0.000 C 
BRANCH   8   9
ATOM      9  C   UNL     1     -55.151 121.815 -12.046  1.00  0.00    -0.000 C 
BRANCH   9  10
ATOM     10  C   UNL     1     -55.088 120.298 -11.821  1.00  0.00    -0.000 C 
BRANCH  10  11
ATOM     11  C   UNL     1     -56.090 119.859 -10.749  1.00  0.00    -0.000 C 
BRANCH  11  12
ATOM     12  C   UNL     1     -56.838 121.065 -10.167  1.00  0.00    -0.003 C 
ATOM     13  C   UNL     1     -56.377 121.365  -8.744  1.00  0.00     0.004 C 
ENDBRANCH  11  12
ENDBRANCH  10  11
ENDBRANCH   9  10
ENDBRANCH   8   9
ENDBRANCH   1   8
TORSDOF 9
ENDMDL
