MODEL 1
REMARK VINA RESULT:    -6.621      0.000      0.000
REMARK INTER + INTRA:          -8.945
REMARK INTER:                  -8.362
REMARK INTRA:                  -0.583
REMARK UNBOUND:                -0.583
REMARK SMILES O=C(C=Cc1ccc(O)cc1)c1ccc(O)cc1O
REMARK SMILES IDX 4 1 3 2 5 3 6 4 7 5 8 6 11 7 10 8 9 9 2 11 1 12 12 13 18 14
REMARK SMILES IDX 13 15 17 16 14 17 15 18 19 19 16 21
REMARK H PARENT 9 10 19 20 16 22
REMARK Flexibility Score: inf
ROOT
ATOM      1  C   UNL     1      -7.420  -7.058  66.126  1.00  0.00     0.012 C 
ATOM      2  C   UNL     1      -6.832  -8.259  66.029  1.00  0.00     0.053 C 
ENDROOT
BRANCH   1   3
ATOM      3  C   UNL     1      -7.538  -6.299  67.395  1.00  0.00    -0.025 A 
ATOM      4  C   UNL     1      -7.396  -4.902  67.360  1.00  0.00     0.012 A 
ATOM      5  C   UNL     1      -7.508  -4.145  68.530  1.00  0.00     0.047 A 
ATOM      6  C   UNL     1      -7.777  -4.774  69.753  1.00  0.00     0.115 A 
ATOM      7  C   UNL     1      -7.823  -6.923  68.628  1.00  0.00     0.012 A 
ATOM      8  C   UNL     1      -7.936  -6.161  69.796  1.00  0.00     0.047 A 
BRANCH   6   9
ATOM      9  O   UNL     1      -7.891  -4.031  70.924  1.00  0.00    -0.508 OA
ATOM     10  H   UNL     1      -7.074  -3.674  71.407  1.00  0.00     0.293 HD
ENDBRANCH   6   9
ENDBRANCH   1   3
BRANCH   2  11
ATOM     11  C   UNL     1      -6.722  -8.981  64.743  1.00  0.00     0.189 C 
ATOM     12  O   UNL     1      -6.361 -10.190  64.724  1.00  0.00    -0.289 OA
BRANCH  11  13
ATOM     13  C   UNL     1      -7.003  -8.285  63.468  1.00  0.00     0.064 A 
ATOM     14  C   UNL     1      -8.303  -8.244  62.908  1.00  0.00     0.130 A 
ATOM     15  C   UNL     1      -5.941  -7.680  62.772  1.00  0.00     0.020 A 
ATOM     16  C   UNL     1      -8.504  -7.637  61.663  1.00  0.00     0.093 A 
ATOM     17  C   UNL     1      -6.158  -7.064  61.538  1.00  0.00     0.047 A 
ATOM     18  C   UNL     1      -7.437  -7.045  60.977  1.00  0.00     0.119 A 
BRANCH  14  19
ATOM     19  O   UNL     1      -9.417  -8.768  63.568  1.00  0.00    -0.507 OA
ATOM     20  H   UNL     1      -9.561  -9.760  63.713  1.00  0.00     0.293 HD
ENDBRANCH  14  19
BRANCH  18  21
ATOM     21  O   UNL     1      -7.636  -6.434  59.741  1.00  0.00    -0.508 OA
ATOM     22  H   UNL     1      -8.156  -5.568  59.657  1.00  0.00     0.293 HD
ENDBRANCH  18  21
ENDBRANCH  11  13
ENDBRANCH   2  11
TORSDOF 6
ENDMDL
MODEL 2
REMARK VINA RESULT:    -6.602      1.953      7.025
REMARK INTER + INTRA:          -8.921
REMARK INTER:                  -8.342
REMARK INTRA:                  -0.578
REMARK UNBOUND:                -0.583
REMARK SMILES O=C(C=Cc1ccc(O)cc1)c1ccc(O)cc1O
REMARK SMILES IDX 4 1 3 2 5 3 6 4 7 5 8 6 11 7 10 8 9 9 2 11 1 12 12 13 18 14
REMARK SMILES IDX 13 15 17 16 14 17 15 18 19 19 16 21
REMARK H PARENT 9 10 19 20 16 22
REMARK Flexibility Score: inf
ROOT
ATOM      1  C   UNL     1      -8.501  -7.104  65.304  1.00  0.00     0.012 C 
ATOM      2  C   UNL     1      -8.804  -8.277  65.880  1.00  0.00     0.053 C 
ENDROOT
BRANCH   1   3
ATOM      3  C   UNL     1      -8.309  -6.929  63.844  1.00  0.00    -0.025 A 
ATOM      4  C   UNL     1      -8.435  -5.641  63.298  1.00  0.00     0.012 A 
ATOM      5  C   UNL     1      -8.253  -5.427  61.929  1.00  0.00     0.047 A 
ATOM      6  C   UNL     1      -7.930  -6.497  61.085  1.00  0.00     0.115 A 
ATOM      7  C   UNL     1      -7.969  -7.999  62.990  1.00  0.00     0.012 A 
ATOM      8  C   UNL     1      -7.786  -7.780  61.621  1.00  0.00     0.047 A 
BRANCH   6   9
ATOM      9  O   UNL     1      -7.747  -6.297  59.720  1.00  0.00    -0.508 OA
ATOM     10  H   UNL     1      -8.356  -5.685  59.188  1.00  0.00     0.293 HD
ENDBRANCH   6   9
ENDBRANCH   1   3
BRANCH   2  11
ATOM     11  C   UNL     1      -9.001  -8.411  67.339  1.00  0.00     0.189 C 
ATOM     12  O   UNL     1      -9.442  -9.490  67.823  1.00  0.00    -0.289 OA
BRANCH  11  13
ATOM     13  C   UNL     1      -8.713  -7.274  68.241  1.00  0.00     0.064 A 
ATOM     14  C   UNL     1      -7.406  -7.009  68.718  1.00  0.00     0.130 A 
ATOM     15  C   UNL     1      -9.774  -6.456  68.668  1.00  0.00     0.020 A 
ATOM     16  C   UNL     1      -7.197  -5.965  69.628  1.00  0.00     0.093 A 
ATOM     17  C   UNL     1      -9.549  -5.409  69.565  1.00  0.00     0.047 A 
ATOM     18  C   UNL     1      -8.264  -5.163  70.051  1.00  0.00     0.119 A 
BRANCH  14  19
ATOM     19  O   UNL     1      -6.293  -7.738  68.291  1.00  0.00    -0.507 OA
ATOM     20  H   UNL     1      -5.814  -8.411  68.875  1.00  0.00     0.293 HD
ENDBRANCH  14  19
BRANCH  18  21
ATOM     21  O   UNL     1      -8.056  -4.121  70.951  1.00  0.00    -0.508 OA
ATOM     22  H   UNL     1      -8.785  -3.447  71.158  1.00  0.00     0.293 HD
ENDBRANCH  18  21
ENDBRANCH  11  13
ENDBRANCH   2  11
TORSDOF 6
ENDMDL
MODEL 3
REMARK VINA RESULT:    -6.598      3.378      4.936
REMARK INTER + INTRA:          -8.916
REMARK INTER:                  -8.207
REMARK INTRA:                  -0.709
REMARK UNBOUND:                -0.583
REMARK SMILES O=C(C=Cc1ccc(O)cc1)c1ccc(O)cc1O
REMARK SMILES IDX 4 1 3 2 5 3 6 4 7 5 8 6 11 7 10 8 9 9 2 11 1 12 12 13 18 14
REMARK SMILES IDX 13 15 17 16 14 17 15 18 19 19 16 21
REMARK H PARENT 9 10 19 20 16 22
REMARK Flexibility Score: inf
ROOT
ATOM      1  C   UNL     1      -9.089  -7.600  68.456  1.00  0.00     0.012 C 
ATOM      2  C   UNL     1      -7.811  -7.693  68.059  1.00  0.00     0.053 C 
ENDROOT
BRANCH   1   3
ATOM      3  C   UNL     1      -9.612  -8.216  69.700  1.00  0.00    -0.025 A 
ATOM      4  C   UNL     1      -8.739  -8.985  70.488  1.00  0.00     0.012 A 
ATOM      5  C   UNL     1      -9.186  -9.577  71.673  1.00  0.00     0.047 A 
ATOM      6  C   UNL     1     -10.510  -9.399  72.094  1.00  0.00     0.115 A 
ATOM      7  C   UNL     1     -10.939  -8.030  70.139  1.00  0.00     0.012 A 
ATOM      8  C   UNL     1     -11.381  -8.623  71.326  1.00  0.00     0.047 A 
BRANCH   6   9
ATOM      9  O   UNL     1     -10.966  -9.984  73.273  1.00  0.00    -0.508 OA
ATOM     10  H   UNL     1     -11.619 -10.759  73.262  1.00  0.00     0.293 HD
ENDBRANCH   6   9
ENDBRANCH   1   3
BRANCH   2  11
ATOM     11  C   UNL     1      -7.323  -7.054  66.818  1.00  0.00     0.189 C 
ATOM     12  O   UNL     1      -6.480  -7.646  66.090  1.00  0.00    -0.289 OA
BRANCH  11  13
ATOM     13  C   UNL     1      -7.793  -5.704  66.437  1.00  0.00     0.064 A 
ATOM     14  C   UNL     1      -8.496  -5.469  65.230  1.00  0.00     0.130 A 
ATOM     15  C   UNL     1      -7.500  -4.616  67.279  1.00  0.00     0.020 A 
ATOM     16  C   UNL     1      -8.855  -4.162  64.878  1.00  0.00     0.093 A 
ATOM     17  C   UNL     1      -7.877  -3.319  66.923  1.00  0.00     0.047 A 
ATOM     18  C   UNL     1      -8.550  -3.087  65.722  1.00  0.00     0.119 A 
BRANCH  14  19
ATOM     19  O   UNL     1      -8.877  -6.505  64.374  1.00  0.00    -0.507 OA
ATOM     20  H   UNL     1      -9.713  -6.476  63.804  1.00  0.00     0.293 HD
ENDBRANCH  14  19
BRANCH  18  21
ATOM     21  O   UNL     1      -8.913  -1.787  65.377  1.00  0.00    -0.508 OA
ATOM     22  H   UNL     1      -8.806  -1.018  66.028  1.00  0.00     0.293 HD
ENDBRANCH  18  21
ENDBRANCH  11  13
ENDBRANCH   2  11
TORSDOF 6
ENDMDL
MODEL 4
REMARK VINA RESULT:    -6.520      4.376      7.511
REMARK INTER + INTRA:          -8.817
REMARK INTER:                  -8.174
REMARK INTRA:                  -0.644
REMARK UNBOUND:                -0.583
REMARK SMILES O=C(C=Cc1ccc(O)cc1)c1ccc(O)cc1O
REMARK SMILES IDX 4 1 3 2 5 3 6 4 7 5 8 6 11 7 10 8 9 9 2 11 1 12 12 13 18 14
REMARK SMILES IDX 13 15 17 16 14 17 15 18 19 19 16 21
REMARK H PARENT 9 10 19 20 16 22
REMARK Flexibility Score: inf
ROOT
ATOM      1  C   UNL     1      -8.007  -6.907  68.542  1.00  0.00     0.012 C 
ATOM      2  C   UNL     1      -8.809  -7.209  69.573  1.00  0.00     0.053 C 
ENDROOT
BRANCH   1   3
ATOM      3  C   UNL     1      -8.179  -5.708  67.687  1.00  0.00    -0.025 A 
ATOM      4  C   UNL     1      -7.399  -4.571  67.956  1.00  0.00     0.012 A 
ATOM      5  C   UNL     1      -7.522  -3.421  67.172  1.00  0.00     0.047 A 
ATOM      6  C   UNL     1      -8.419  -3.394  66.097  1.00  0.00     0.115 A 
ATOM      7  C   UNL     1      -9.071  -5.677  66.594  1.00  0.00     0.012 A 
ATOM      8  C   UNL     1      -9.188  -4.525  65.810  1.00  0.00     0.047 A 
BRANCH   6   9
ATOM      9  O   UNL     1      -8.550  -2.254  65.308  1.00  0.00    -0.508 OA
ATOM     10  H   UNL     1      -7.789  -1.922  64.727  1.00  0.00     0.293 HD
ENDBRANCH   6   9
ENDBRANCH   1   3
BRANCH   2  11
ATOM     11  C   UNL     1      -8.598  -8.408  70.412  1.00  0.00     0.189 C 
ATOM     12  O   UNL     1      -7.447  -8.681  70.850  1.00  0.00    -0.289 OA
BRANCH  11  13
ATOM     13  C   UNL     1      -9.727  -9.314  70.720  1.00  0.00     0.064 A 
ATOM     14  C   UNL     1      -9.863  -9.939  71.983  1.00  0.00     0.130 A 
ATOM     15  C   UNL     1     -10.672  -9.593  69.715  1.00  0.00     0.020 A 
ATOM     16  C   UNL     1     -10.908 -10.846  72.201  1.00  0.00     0.093 A 
ATOM     17  C   UNL     1     -11.718 -10.488  69.951  1.00  0.00     0.047 A 
ATOM     18  C   UNL     1     -11.836 -11.120  71.190  1.00  0.00     0.119 A 
BRANCH  14  19
ATOM     19  O   UNL     1      -9.001  -9.666  73.048  1.00  0.00    -0.507 OA
ATOM     20  H   UNL     1      -7.995  -9.756  72.985  1.00  0.00     0.293 HD
ENDBRANCH  14  19
BRANCH  18  21
ATOM     21  O   UNL     1     -12.880 -12.016  71.407  1.00  0.00    -0.508 OA
ATOM     22  H   UNL     1     -13.835 -11.698  71.527  1.00  0.00     0.293 HD
ENDBRANCH  18  21
ENDBRANCH  11  13
ENDBRANCH   2  11
TORSDOF 6
ENDMDL
MODEL 5
REMARK VINA RESULT:    -6.474      2.480      7.188
REMARK INTER + INTRA:          -8.759
REMARK INTER:                  -8.187
REMARK INTRA:                  -0.572
REMARK UNBOUND:                -0.583
REMARK SMILES O=C(C=Cc1ccc(O)cc1)c1ccc(O)cc1O
REMARK SMILES IDX 4 1 3 2 5 3 6 4 7 5 8 6 11 7 10 8 9 9 2 11 1 12 12 13 18 14
REMARK SMILES IDX 13 15 17 16 14 17 15 18 19 19 16 21
REMARK H PARENT 9 10 19 20 16 22
REMARK Flexibility Score: inf
ROOT
ATOM      1  C   UNL     1      -8.496  -5.949  65.781  1.00  0.00     0.012 C 
ATOM      2  C   UNL     1      -7.521  -5.454  66.558  1.00  0.00     0.053 C 
ENDROOT
BRANCH   1   3
ATOM      3  C   UNL     1      -8.390  -6.074  64.308  1.00  0.00    -0.025 A 
ATOM      4  C   UNL     1      -8.573  -4.926  63.519  1.00  0.00     0.012 A 
ATOM      5  C   UNL     1      -8.474  -4.996  62.126  1.00  0.00     0.047 A 
ATOM      6  C   UNL     1      -8.177  -6.214  61.501  1.00  0.00     0.115 A 
ATOM      7  C   UNL     1      -8.078  -7.294  63.671  1.00  0.00     0.012 A 
ATOM      8  C   UNL     1      -7.977  -7.358  62.278  1.00  0.00     0.047 A 
BRANCH   6   9
ATOM      9  O   UNL     1      -8.076  -6.295  60.115  1.00  0.00    -0.508 OA
ATOM     10  H   UNL     1      -8.038  -7.189  59.638  1.00  0.00     0.293 HD
ENDBRANCH   6   9
ENDBRANCH   1   3
BRANCH   2  11
ATOM     11  C   UNL     1      -7.657  -5.355  68.028  1.00  0.00     0.189 C 
ATOM     12  O   UNL     1      -7.292  -4.309  68.629  1.00  0.00    -0.289 OA
BRANCH  11  13
ATOM     13  C   UNL     1      -8.194  -6.492  68.807  1.00  0.00     0.064 A 
ATOM     14  C   UNL     1      -7.438  -7.668  69.034  1.00  0.00     0.130 A 
ATOM     15  C   UNL     1      -9.508  -6.419  69.305  1.00  0.00     0.020 A 
ATOM     16  C   UNL     1      -8.017  -8.746  69.715  1.00  0.00     0.093 A 
ATOM     17  C   UNL     1     -10.068  -7.496  69.995  1.00  0.00     0.047 A 
ATOM     18  C   UNL     1      -9.329  -8.663  70.198  1.00  0.00     0.119 A 
BRANCH  14  19
ATOM     19  O   UNL     1      -6.108  -7.791  68.625  1.00  0.00    -0.507 OA
ATOM     20  H   UNL     1      -5.640  -8.682  68.519  1.00  0.00     0.293 HD
ENDBRANCH  14  19
BRANCH  18  21
ATOM     21  O   UNL     1      -9.904  -9.732  70.881  1.00  0.00    -0.508 OA
ATOM     22  H   UNL     1     -10.899  -9.920  70.828  1.00  0.00     0.293 HD
ENDBRANCH  18  21
ENDBRANCH  11  13
ENDBRANCH   2  11
TORSDOF 6
ENDMDL
MODEL 6
REMARK VINA RESULT:    -6.423      4.594      6.769
REMARK INTER + INTRA:          -8.695
REMARK INTER:                  -8.031
REMARK INTRA:                  -0.664
REMARK UNBOUND:                -0.583
REMARK SMILES O=C(C=Cc1ccc(O)cc1)c1ccc(O)cc1O
REMARK SMILES IDX 4 1 3 2 5 3 6 4 7 5 8 6 11 7 10 8 9 9 2 11 1 12 12 13 18 14
REMARK SMILES IDX 13 15 17 16 14 17 15 18 19 19 16 21
REMARK H PARENT 9 10 19 20 16 22
REMARK Flexibility Score: inf
ROOT
ATOM      1  C   UNL     1      -5.354  -8.454  61.931  1.00  0.00     0.012 C 
ATOM      2  C   UNL     1      -4.153  -8.236  61.376  1.00  0.00     0.053 C 
ENDROOT
BRANCH   1   3
ATOM      3  C   UNL     1      -6.379  -7.399  62.118  1.00  0.00    -0.025 A 
ATOM      4  C   UNL     1      -7.409  -7.285  61.170  1.00  0.00     0.012 A 
ATOM      5  C   UNL     1      -8.402  -6.311  61.310  1.00  0.00     0.047 A 
ATOM      6  C   UNL     1      -8.386  -5.442  62.409  1.00  0.00     0.115 A 
ATOM      7  C   UNL     1      -6.378  -6.529  63.229  1.00  0.00     0.012 A 
ATOM      8  C   UNL     1      -7.374  -5.557  63.366  1.00  0.00     0.047 A 
BRANCH   6   9
ATOM      9  O   UNL     1      -9.369  -4.468  62.559  1.00  0.00    -0.508 OA
ATOM     10  H   UNL     1      -9.315  -3.581  62.071  1.00  0.00     0.293 HD
ENDBRANCH   6   9
ENDBRANCH   1   3
BRANCH   2  11
ATOM     11  C   UNL     1      -3.161  -9.317  61.193  1.00  0.00     0.189 C 
ATOM     12  O   UNL     1      -2.553  -9.794  62.190  1.00  0.00    -0.289 OA
BRANCH  11  13
ATOM     13  C   UNL     1      -2.850  -9.827  59.840  1.00  0.00     0.064 A 
ATOM     14  C   UNL     1      -1.547  -9.748  59.290  1.00  0.00     0.130 A 
ATOM     15  C   UNL     1      -3.887 -10.372  59.061  1.00  0.00     0.020 A 
ATOM     16  C   UNL     1      -1.320 -10.178  57.977  1.00  0.00     0.093 A 
ATOM     17  C   UNL     1      -3.644 -10.810  57.757  1.00  0.00     0.047 A 
ATOM     18  C   UNL     1      -2.363 -10.710  57.210  1.00  0.00     0.119 A 
BRANCH  14  19
ATOM     19  O   UNL     1      -0.455  -9.278  60.023  1.00  0.00    -0.507 OA
ATOM     20  H   UNL     1      -0.523  -8.972  60.985  1.00  0.00     0.293 HD
ENDBRANCH  14  19
BRANCH  18  21
ATOM     21  O   UNL     1      -2.137 -11.144  55.906  1.00  0.00    -0.508 OA
ATOM     22  H   UNL     1      -2.073 -12.130  55.680  1.00  0.00     0.293 HD
ENDBRANCH  18  21
ENDBRANCH  11  13
ENDBRANCH   2  11
TORSDOF 6
ENDMDL
MODEL 7
REMARK VINA RESULT:    -6.398      3.291      4.928
REMARK INTER + INTRA:          -8.664
REMARK INTER:                  -7.968
REMARK INTRA:                  -0.696
REMARK UNBOUND:                -0.583
REMARK SMILES O=C(C=Cc1ccc(O)cc1)c1ccc(O)cc1O
REMARK SMILES IDX 4 1 3 2 5 3 6 4 7 5 8 6 11 7 10 8 9 9 2 11 1 12 12 13 18 14
REMARK SMILES IDX 13 15 17 16 14 17 15 18 19 19 16 21
REMARK H PARENT 9 10 19 20 16 22
REMARK Flexibility Score: inf
ROOT
ATOM      1  C   UNL     1      -9.428  -6.201  69.064  1.00  0.00     0.012 C 
ATOM      2  C   UNL     1      -8.150  -5.864  68.836  1.00  0.00     0.053 C 
ENDROOT
BRANCH   1   3
ATOM      3  C   UNL     1      -9.845  -7.243  70.033  1.00  0.00    -0.025 A 
ATOM      4  C   UNL     1      -8.975  -8.317  70.283  1.00  0.00     0.012 A 
ATOM      5  C   UNL     1      -9.322  -9.317  71.195  1.00  0.00     0.047 A 
ATOM      6  C   UNL     1     -10.541  -9.252  71.882  1.00  0.00     0.115 A 
ATOM      7  C   UNL     1     -11.064  -7.177  70.741  1.00  0.00     0.012 A 
ATOM      8  C   UNL     1     -11.406  -8.179  71.654  1.00  0.00     0.047 A 
BRANCH   6   9
ATOM      9  O   UNL     1     -10.897 -10.242  72.793  1.00  0.00    -0.508 OA
ATOM     10  H   UNL     1     -10.246 -10.969  73.069  1.00  0.00     0.293 HD
ENDBRANCH   6   9
ENDBRANCH   1   3
BRANCH   2  11
ATOM     11  C   UNL     1      -7.772  -4.810  67.870  1.00  0.00     0.189 C 
ATOM     12  O   UNL     1      -7.257  -3.733  68.277  1.00  0.00    -0.289 OA
BRANCH  11  13
ATOM     13  C   UNL     1      -8.023  -4.996  66.424  1.00  0.00     0.064 A 
ATOM     14  C   UNL     1      -8.471  -3.935  65.599  1.00  0.00     0.130 A 
ATOM     15  C   UNL     1      -7.849  -6.272  65.859  1.00  0.00     0.020 A 
ATOM     16  C   UNL     1      -8.765  -4.179  64.252  1.00  0.00     0.093 A 
ATOM     17  C   UNL     1      -8.131  -6.499  64.510  1.00  0.00     0.047 A 
ATOM     18  C   UNL     1      -8.594  -5.457  63.704  1.00  0.00     0.119 A 
BRANCH  14  19
ATOM     19  O   UNL     1      -8.609  -2.628  66.072  1.00  0.00    -0.507 OA
ATOM     20  H   UNL     1      -8.251  -1.819  65.580  1.00  0.00     0.293 HD
ENDBRANCH  14  19
BRANCH  18  21
ATOM     21  O   UNL     1      -8.880  -5.700  62.363  1.00  0.00    -0.508 OA
ATOM     22  H   UNL     1      -8.303  -6.316  61.802  1.00  0.00     0.293 HD
ENDBRANCH  18  21
ENDBRANCH  11  13
ENDBRANCH   2  11
TORSDOF 6
ENDMDL
MODEL 8
REMARK VINA RESULT:    -6.371      3.720      5.464
REMARK INTER + INTRA:          -8.629
REMARK INTER:                  -8.086
REMARK INTRA:                  -0.544
REMARK UNBOUND:                -0.583
REMARK SMILES O=C(C=Cc1ccc(O)cc1)c1ccc(O)cc1O
REMARK SMILES IDX 4 1 3 2 5 3 6 4 7 5 8 6 11 7 10 8 9 9 2 11 1 12 12 13 18 14
REMARK SMILES IDX 13 15 17 16 14 17 15 18 19 19 16 21
REMARK H PARENT 9 10 19 20 16 22
REMARK Flexibility Score: inf
ROOT
ATOM      1  C   UNL     1      -8.345  -8.154  68.884  1.00  0.00     0.012 C 
ATOM      2  C   UNL     1      -8.546  -7.969  67.571  1.00  0.00     0.053 C 
ENDROOT
BRANCH   1   3
ATOM      3  C   UNL     1      -9.249  -8.948  69.751  1.00  0.00    -0.025 A 
ATOM      4  C   UNL     1     -10.378  -9.551  69.173  1.00  0.00     0.012 A 
ATOM      5  C   UNL     1     -11.253 -10.316  69.950  1.00  0.00     0.047 A 
ATOM      6  C   UNL     1     -11.004 -10.501  71.316  1.00  0.00     0.115 A 
ATOM      7  C   UNL     1      -8.998  -9.151  71.125  1.00  0.00     0.012 A 
ATOM      8  C   UNL     1      -9.874  -9.919  71.897  1.00  0.00     0.047 A 
BRANCH   6   9
ATOM      9  O   UNL     1     -11.868 -11.261  72.100  1.00  0.00    -0.508 OA
ATOM     10  H   UNL     1     -11.581 -12.149  72.497  1.00  0.00     0.293 HD
ENDBRANCH   6   9
ENDBRANCH   1   3
BRANCH   2  11
ATOM     11  C   UNL     1      -7.616  -7.181  66.734  1.00  0.00     0.189 C 
ATOM     12  O   UNL     1      -6.548  -7.702  66.311  1.00  0.00    -0.289 OA
BRANCH  11  13
ATOM     13  C   UNL     1      -7.913  -5.768  66.412  1.00  0.00     0.064 A 
ATOM     14  C   UNL     1      -7.527  -4.707  67.268  1.00  0.00     0.130 A 
ATOM     15  C   UNL     1      -8.635  -5.472  65.241  1.00  0.00     0.020 A 
ATOM     16  C   UNL     1      -7.897  -3.393  66.956  1.00  0.00     0.093 A 
ATOM     17  C   UNL     1      -8.985  -4.155  64.934  1.00  0.00     0.047 A 
ATOM     18  C   UNL     1      -8.623  -3.114  65.791  1.00  0.00     0.119 A 
BRANCH  14  19
ATOM     19  O   UNL     1      -6.757  -4.915  68.414  1.00  0.00    -0.507 OA
ATOM     20  H   UNL     1      -7.014  -4.561  69.327  1.00  0.00     0.293 HD
ENDBRANCH  14  19
BRANCH  18  21
ATOM     21  O   UNL     1      -8.985  -1.806  65.476  1.00  0.00    -0.508 OA
ATOM     22  H   UNL     1      -9.089  -1.098  66.193  1.00  0.00     0.293 HD
ENDBRANCH  18  21
ENDBRANCH  11  13
ENDBRANCH   2  11
TORSDOF 6
ENDMDL
MODEL 9
REMARK VINA RESULT:    -6.307      3.496      4.465
REMARK INTER + INTRA:          -8.549
REMARK INTER:                  -7.970
REMARK INTRA:                  -0.579
REMARK UNBOUND:                -0.583
REMARK SMILES O=C(C=Cc1ccc(O)cc1)c1ccc(O)cc1O
REMARK SMILES IDX 4 1 3 2 5 3 6 4 7 5 8 6 11 7 10 8 9 9 2 11 1 12 12 13 18 14
REMARK SMILES IDX 13 15 17 16 14 17 15 18 19 19 16 21
REMARK H PARENT 9 10 19 20 16 22
REMARK Flexibility Score: inf
ROOT
ATOM      1  C   UNL     1      -9.031  -8.975  67.531  1.00  0.00     0.012 C 
ATOM      2  C   UNL     1      -9.286  -7.818  66.903  1.00  0.00     0.053 C 
ENDROOT
BRANCH   1   3
ATOM      3  C   UNL     1      -9.425  -9.254  68.934  1.00  0.00    -0.025 A 
ATOM      4  C   UNL     1     -10.659  -9.882  69.174  1.00  0.00     0.012 A 
ATOM      5  C   UNL     1     -11.067 -10.173  70.479  1.00  0.00     0.047 A 
ATOM      6  C   UNL     1     -10.242  -9.852  71.564  1.00  0.00     0.115 A 
ATOM      7  C   UNL     1      -8.594  -8.947  70.031  1.00  0.00     0.012 A 
ATOM      8  C   UNL     1      -9.006  -9.243  71.334  1.00  0.00     0.047 A 
BRANCH   6   9
ATOM      9  O   UNL     1     -10.638 -10.137  72.867  1.00  0.00    -0.508 OA
ATOM     10  H   UNL     1     -11.245  -9.512  73.385  1.00  0.00     0.293 HD
ENDBRANCH   6   9
ENDBRANCH   1   3
BRANCH   2  11
ATOM     11  C   UNL     1      -8.889  -7.579  65.499  1.00  0.00     0.189 C 
ATOM     12  O   UNL     1      -8.937  -8.518  64.658  1.00  0.00    -0.289 OA
BRANCH  11  13
ATOM     13  C   UNL     1      -8.405  -6.247  65.074  1.00  0.00     0.064 A 
ATOM     14  C   UNL     1      -8.331  -5.877  63.709  1.00  0.00     0.130 A 
ATOM     15  C   UNL     1      -7.968  -5.336  66.053  1.00  0.00     0.020 A 
ATOM     16  C   UNL     1      -7.797  -4.632  63.355  1.00  0.00     0.093 A 
ATOM     17  C   UNL     1      -7.450  -4.092  65.686  1.00  0.00     0.047 A 
ATOM     18  C   UNL     1      -7.358  -3.738  64.339  1.00  0.00     0.119 A 
BRANCH  14  19
ATOM     19  O   UNL     1      -8.803  -6.702  62.685  1.00  0.00    -0.507 OA
ATOM     20  H   UNL     1      -8.797  -7.712  62.740  1.00  0.00     0.293 HD
ENDBRANCH  14  19
BRANCH  18  21
ATOM     21  O   UNL     1      -6.832  -2.497  63.988  1.00  0.00    -0.508 OA
ATOM     22  H   UNL     1      -5.832  -2.350  63.905  1.00  0.00     0.293 HD
ENDBRANCH  18  21
ENDBRANCH  11  13
ENDBRANCH   2  11
TORSDOF 6
ENDMDL
