MODEL 1
REMARK VINA RESULT:     3.346      0.000      0.000
REMARK INTER + INTRA:           4.931
REMARK INTER:                   3.835
REMARK INTRA:                   1.096
REMARK UNBOUND:                 1.096
REMARK SMILES O=C([O-])C=Cc1ccc(O)cc1
REMARK SMILES IDX 6 1 7 2 12 3 8 4 11 5 9 6 5 7 4 8 2 9 1 10 3 11 10 12
REMARK H PARENT 10 13
REMARK Flexibility Score: inf
ROOT
ATOM      1  C   UNL     1     -36.947  27.046  -4.942  1.00  0.00    -0.025 A 
ATOM      2  C   UNL     1     -38.220  26.460  -4.876  1.00  0.00     0.012 A 
ATOM      3  C   UNL     1     -35.810  26.220  -4.953  1.00  0.00     0.012 A 
ATOM      4  C   UNL     1     -38.358  25.069  -4.875  1.00  0.00     0.047 A 
ATOM      5  C   UNL     1     -35.950  24.829  -4.952  1.00  0.00     0.047 A 
ATOM      6  C   UNL     1     -37.225  24.249  -4.916  1.00  0.00     0.115 A 
ENDROOT
BRANCH   1   7
ATOM      7  C   UNL     1     -36.824  28.518  -4.888  1.00  0.00     0.010 C 
ATOM      8  C   UNL     1     -37.768  29.390  -5.274  1.00  0.00     0.025 C 
BRANCH   8   9
ATOM      9  C   UNL     1     -39.156  29.046  -5.636  1.00  0.00     0.064 C 
ATOM     10  O   UNL     1     -39.370  28.348  -6.661  1.00  0.00    -0.545 OA
ATOM     11  O   UNL     1     -40.237  29.534  -4.911  1.00  0.00    -0.545 OA
ENDBRANCH   8   9
ENDBRANCH   1   7
BRANCH   6  12
ATOM     12  O   UNL     1     -37.377  22.865  -4.916  1.00  0.00    -0.508 OA
ATOM     13  H   UNL     1     -38.271  22.431  -4.717  1.00  0.00     0.293 HD
ENDBRANCH   6  12
TORSDOF 3
ENDMDL
MODEL 2
REMARK VINA RESULT:     4.255      1.170      4.790
REMARK INTER + INTRA:           5.972
REMARK INTER:                   5.425
REMARK INTRA:                   0.547
REMARK UNBOUND:                 1.096
REMARK SMILES O=C([O-])C=Cc1ccc(O)cc1
REMARK SMILES IDX 6 1 7 2 12 3 8 4 11 5 9 6 5 7 4 8 2 9 1 10 3 11 10 12
REMARK H PARENT 10 13
REMARK Flexibility Score: inf
ROOT
ATOM      1  C   UNL     1     -36.709  26.525  -5.230  1.00  0.00    -0.025 A 
ATOM      2  C   UNL     1     -36.132  27.696  -5.742  1.00  0.00     0.012 A 
ATOM      3  C   UNL     1     -38.069  26.527  -4.876  1.00  0.00     0.012 A 
ATOM      4  C   UNL     1     -36.913  28.837  -5.947  1.00  0.00     0.047 A 
ATOM      5  C   UNL     1     -38.849  27.669  -5.082  1.00  0.00     0.047 A 
ATOM      6  C   UNL     1     -38.273  28.827  -5.621  1.00  0.00     0.115 A 
ENDROOT
BRANCH   1   7
ATOM      7  C   UNL     1     -35.853  25.349  -4.972  1.00  0.00     0.010 C 
ATOM      8  C   UNL     1     -36.245  24.069  -5.063  1.00  0.00     0.025 C 
BRANCH   8   9
ATOM      9  C   UNL     1     -37.531  23.604  -5.616  1.00  0.00     0.064 C 
ATOM     10  O   UNL     1     -38.549  23.587  -4.876  1.00  0.00    -0.545 OA
ATOM     11  O   UNL     1     -37.629  23.118  -6.914  1.00  0.00    -0.545 OA
ENDBRANCH   8   9
ENDBRANCH   1   7
BRANCH   6  12
ATOM     12  O   UNL     1     -39.040  29.971  -5.832  1.00  0.00    -0.508 OA
ATOM     13  H   UNL     1     -39.905  30.128  -5.328  1.00  0.00     0.293 HD
ENDBRANCH   6  12
TORSDOF 3
ENDMDL
MODEL 3
REMARK VINA RESULT:     4.750      1.917      2.161
REMARK INTER + INTRA:           6.540
REMARK INTER:                   5.477
REMARK INTRA:                   1.063
REMARK UNBOUND:                 1.096
REMARK SMILES O=C([O-])C=Cc1ccc(O)cc1
REMARK SMILES IDX 6 1 7 2 12 3 8 4 11 5 9 6 5 7 4 8 2 9 1 10 3 11 10 12
REMARK H PARENT 10 13
REMARK Flexibility Score: inf
ROOT
ATOM      1  C   UNL     1     -37.597  26.282  -4.933  1.00  0.00    -0.025 A 
ATOM      2  C   UNL     1     -38.543  25.246  -4.918  1.00  0.00     0.012 A 
ATOM      3  C   UNL     1     -36.229  25.964  -4.885  1.00  0.00     0.012 A 
ATOM      4  C   UNL     1     -38.127  23.911  -4.909  1.00  0.00     0.047 A 
ATOM      5  C   UNL     1     -35.816  24.629  -4.876  1.00  0.00     0.047 A 
ATOM      6  C   UNL     1     -36.764  23.598  -4.892  1.00  0.00     0.115 A 
ENDROOT
BRANCH   1   7
ATOM      7  C   UNL     1     -38.060  27.685  -4.889  1.00  0.00     0.010 C 
ATOM      8  C   UNL     1     -37.424  28.729  -5.441  1.00  0.00     0.025 C 
BRANCH   8   9
ATOM      9  C   UNL     1     -36.263  28.644  -6.347  1.00  0.00     0.064 C 
ATOM     10  O   UNL     1     -36.176  27.677  -7.147  1.00  0.00    -0.545 OA
ATOM     11  O   UNL     1     -35.227  29.569  -6.287  1.00  0.00    -0.545 OA
ENDBRANCH   8   9
ENDBRANCH   1   7
BRANCH   6  12
ATOM     12  O   UNL     1     -36.365  22.264  -4.884  1.00  0.00    -0.508 OA
ATOM     13  H   UNL     1     -36.406  21.704  -4.040  1.00  0.00     0.293 HD
ENDBRANCH   6  12
TORSDOF 3
ENDMDL
MODEL 4
REMARK VINA RESULT:     5.377      2.155      2.883
REMARK INTER + INTRA:           7.259
REMARK INTER:                   6.427
REMARK INTRA:                   0.832
REMARK UNBOUND:                 1.096
REMARK SMILES O=C([O-])C=Cc1ccc(O)cc1
REMARK SMILES IDX 6 1 7 2 12 3 8 4 11 5 9 6 5 7 4 8 2 9 1 10 3 11 10 12
REMARK H PARENT 10 13
REMARK Flexibility Score: inf
ROOT
ATOM      1  C   UNL     1     -37.228  27.854  -4.876  1.00  0.00    -0.025 A 
ATOM      2  C   UNL     1     -36.013  27.156  -4.931  1.00  0.00     0.012 A 
ATOM      3  C   UNL     1     -38.435  27.134  -4.876  1.00  0.00     0.012 A 
ATOM      4  C   UNL     1     -36.001  25.758  -4.931  1.00  0.00     0.047 A 
ATOM      5  C   UNL     1     -38.421  25.736  -4.876  1.00  0.00     0.047 A 
ATOM      6  C   UNL     1     -37.203  25.044  -4.901  1.00  0.00     0.115 A 
ENDROOT
BRANCH   1   7
ATOM      7  C   UNL     1     -37.218  29.331  -4.930  1.00  0.00     0.010 C 
ATOM      8  C   UNL     1     -36.396  30.075  -5.686  1.00  0.00     0.025 C 
BRANCH   8   9
ATOM      9  C   UNL     1     -35.494  29.559  -6.733  1.00  0.00     0.064 C 
ATOM     10  O   UNL     1     -35.895  28.638  -7.493  1.00  0.00    -0.545 OA
ATOM     11  O   UNL     1     -34.188  30.017  -6.856  1.00  0.00    -0.545 OA
ENDBRANCH   8   9
ENDBRANCH   1   7
BRANCH   6  12
ATOM     12  O   UNL     1     -37.176  23.651  -4.900  1.00  0.00    -0.508 OA
ATOM     13  H   UNL     1     -37.332  23.119  -4.052  1.00  0.00     0.293 HD
ENDBRANCH   6  12
TORSDOF 3
ENDMDL
MODEL 5
REMARK VINA RESULT:     5.812      2.956      4.016
REMARK INTER + INTRA:           7.756
REMARK INTER:                   7.875
REMARK INTRA:                  -0.118
REMARK UNBOUND:                 1.096
REMARK SMILES O=C([O-])C=Cc1ccc(O)cc1
REMARK SMILES IDX 6 1 7 2 12 3 8 4 11 5 9 6 5 7 4 8 2 9 1 10 3 11 10 12
REMARK H PARENT 10 13
REMARK Flexibility Score: inf
ROOT
ATOM      1  C   UNL     1     -37.678  28.147  -5.482  1.00  0.00    -0.025 A 
ATOM      2  C   UNL     1     -37.176  29.310  -4.880  1.00  0.00     0.012 A 
ATOM      3  C   UNL     1     -37.092  27.682  -6.672  1.00  0.00     0.012 A 
ATOM      4  C   UNL     1     -36.072  29.969  -5.428  1.00  0.00     0.047 A 
ATOM      5  C   UNL     1     -35.988  28.343  -7.219  1.00  0.00     0.047 A 
ATOM      6  C   UNL     1     -35.473  29.487  -6.597  1.00  0.00     0.115 A 
ENDROOT
BRANCH   1   7
ATOM      7  C   UNL     1     -38.878  27.497  -4.914  1.00  0.00     0.010 C 
ATOM      8  C   UNL     1     -40.107  28.033  -4.880  1.00  0.00     0.025 C 
BRANCH   8   9
ATOM      9  C   UNL     1     -40.522  29.271  -5.566  1.00  0.00     0.064 C 
ATOM     10  O   UNL     1     -41.053  30.197  -4.899  1.00  0.00    -0.545 OA
ATOM     11  O   UNL     1     -40.405  29.410  -6.944  1.00  0.00    -0.545 OA
ENDBRANCH   8   9
ENDBRANCH   1   7
BRANCH   6  12
ATOM     12  O   UNL     1     -34.373  30.153  -7.131  1.00  0.00    -0.508 OA
ATOM     13  H   UNL     1     -33.879  30.865  -6.606  1.00  0.00     0.293 HD
ENDBRANCH   6  12
TORSDOF 3
ENDMDL
MODEL 6
REMARK VINA RESULT:     5.976      2.427      4.768
REMARK INTER + INTRA:           7.945
REMARK INTER:                   7.100
REMARK INTRA:                   0.845
REMARK UNBOUND:                 1.096
REMARK SMILES O=C([O-])C=Cc1ccc(O)cc1
REMARK SMILES IDX 6 1 7 2 12 3 8 4 11 5 9 6 5 7 4 8 2 9 1 10 3 11 10 12
REMARK H PARENT 10 13
REMARK Flexibility Score: inf
ROOT
ATOM      1  C   UNL     1     -37.426  27.829  -5.561  1.00  0.00    -0.025 A 
ATOM      2  C   UNL     1     -37.072  29.000  -4.875  1.00  0.00     0.012 A 
ATOM      3  C   UNL     1     -36.788  27.524  -6.775  1.00  0.00     0.012 A 
ATOM      4  C   UNL     1     -36.057  29.827  -5.367  1.00  0.00     0.047 A 
ATOM      5  C   UNL     1     -35.773  28.352  -7.266  1.00  0.00     0.047 A 
ATOM      6  C   UNL     1     -35.403  29.505  -6.561  1.00  0.00     0.115 A 
ENDROOT
BRANCH   1   7
ATOM      7  C   UNL     1     -38.537  26.999  -5.050  1.00  0.00     0.010 C 
ATOM      8  C   UNL     1     -38.496  25.670  -4.876  1.00  0.00     0.025 C 
BRANCH   8   9
ATOM      9  C   UNL     1     -37.288  24.829  -4.979  1.00  0.00     0.064 C 
ATOM     10  O   UNL     1     -36.154  25.368  -4.892  1.00  0.00    -0.545 OA
ATOM     11  O   UNL     1     -37.372  23.467  -5.241  1.00  0.00    -0.545 OA
ENDBRANCH   8   9
ENDBRANCH   1   7
BRANCH   6  12
ATOM     12  O   UNL     1     -34.393  30.337  -7.038  1.00  0.00    -0.508 OA
ATOM     13  H   UNL     1     -34.335  31.310  -6.762  1.00  0.00     0.293 HD
ENDBRANCH   6  12
TORSDOF 3
ENDMDL
