MODEL 1
REMARK VINA RESULT:    -6.035      0.000      0.000
REMARK INTER + INTRA:          -6.565
REMARK INTER:                  -6.565
REMARK INTRA:                   0.000
REMARK UNBOUND:                 0.000
REMARK SMILES Cc1cc(O)c2c(c1)C(=O)c1cc(O)cc(O)c1C2=O
REMARK SMILES IDX 1 1 2 2 8 3 7 4 6 5 4 6 3 7 19 8 20 9 18 10 11 11 9 12 10 13
REMARK SMILES IDX 12 14 13 15 15 16 16 17 5 18 17 20 14 22
REMARK H PARENT 5 19 17 21 14 23
REMARK Flexibility Score: inf
ROOT
ATOM      1  C   UNL     1      17.502  35.234   6.513  1.00  0.00     0.044 C 
ATOM      2  C   UNL     1      16.123  35.649   6.091  1.00  0.00    -0.047 A 
ATOM      3  C   UNL     1      15.067  35.619   7.008  1.00  0.00     0.016 A 
ATOM      4  C   UNL     1      13.778  36.033   6.632  1.00  0.00     0.038 A 
ATOM      5  C   UNL     1      13.543  36.485   5.314  1.00  0.00     0.076 A 
ATOM      6  C   UNL     1      14.634  36.593   4.414  1.00  0.00     0.127 A 
ATOM      7  C   UNL     1      15.903  36.156   4.806  1.00  0.00     0.050 A 
ATOM      8  C   UNL     1      12.142  36.773   4.910  1.00  0.00     0.201 C 
ATOM      9  O   UNL     1      11.791  36.616   3.711  1.00  0.00    -0.288 OA
ATOM     10  C   UNL     1      11.119  37.062   5.949  1.00  0.00     0.076 A 
ATOM     11  C   UNL     1      11.360  36.610   7.266  1.00  0.00     0.041 A 
ATOM     12  C   UNL     1      12.667  36.005   7.612  1.00  0.00     0.194 C 
ATOM     13  O   UNL     1      12.842  35.488   8.750  1.00  0.00    -0.289 OA
ATOM     14  C   UNL     1      10.359  36.742   8.244  1.00  0.00     0.059 A 
ATOM     15  C   UNL     1       9.133  37.329   7.930  1.00  0.00     0.120 A 
ATOM     16  C   UNL     1       8.905  37.814   6.639  1.00  0.00     0.093 A 
ATOM     17  C   UNL     1       9.892  37.714   5.654  1.00  0.00     0.131 A 
ENDROOT
BRANCH   6  18
ATOM     18  O   UNL     1      14.511  37.159   3.143  1.00  0.00    -0.507 OA
ATOM     19  H   UNL     1      13.884  36.808   2.433  1.00  0.00     0.293 HD
ENDBRANCH   6  18
BRANCH  17  20
ATOM     20  O   UNL     1       9.628  38.301   4.415  1.00  0.00    -0.507 OA
ATOM     21  H   UNL     1       8.700  38.389   4.025  1.00  0.00     0.293 HD
ENDBRANCH  17  20
BRANCH  15  22
ATOM     22  O   UNL     1       8.152  37.438   8.912  1.00  0.00    -0.508 OA
ATOM     23  H   UNL     1       7.196  37.687   8.682  1.00  0.00     0.293 HD
ENDBRANCH  15  22
TORSDOF 3
ENDMDL
MODEL 2
REMARK VINA RESULT:    -6.034      1.370      5.506
REMARK INTER + INTRA:          -6.563
REMARK INTER:                  -6.563
REMARK INTRA:                   0.000
REMARK UNBOUND:                 0.000
REMARK SMILES Cc1cc(O)c2c(c1)C(=O)c1cc(O)cc(O)c1C2=O
REMARK SMILES IDX 1 1 2 2 8 3 7 4 6 5 4 6 3 7 19 8 20 9 18 10 11 11 9 12 10 13
REMARK SMILES IDX 12 14 13 15 15 16 16 17 5 18 17 20 14 22
REMARK H PARENT 5 19 17 21 14 23
REMARK Flexibility Score: inf
ROOT
ATOM      1  C   UNL     1       8.039  37.015   8.776  1.00  0.00     0.044 C 
ATOM      2  C   UNL     1       9.238  37.154   7.885  1.00  0.00    -0.047 A 
ATOM      3  C   UNL     1      10.456  36.568   8.246  1.00  0.00     0.016 A 
ATOM      4  C   UNL     1      11.577  36.669   7.405  1.00  0.00     0.038 A 
ATOM      5  C   UNL     1      11.477  37.367   6.181  1.00  0.00     0.076 A 
ATOM      6  C   UNL     1      10.219  37.885   5.781  1.00  0.00     0.127 A 
ATOM      7  C   UNL     1       9.122  37.791   6.644  1.00  0.00     0.050 A 
ATOM      8  C   UNL     1      12.717  37.580   5.390  1.00  0.00     0.201 C 
ATOM      9  O   UNL     1      12.829  38.603   4.665  1.00  0.00    -0.288 OA
ATOM     10  C   UNL     1      13.889  36.690   5.601  1.00  0.00     0.076 A 
ATOM     11  C   UNL     1      13.984  35.991   6.826  1.00  0.00     0.041 A 
ATOM     12  C   UNL     1      12.862  36.039   7.793  1.00  0.00     0.194 C 
ATOM     13  O   UNL     1      12.992  35.522   8.937  1.00  0.00    -0.289 OA
ATOM     14  C   UNL     1      15.141  35.249   7.119  1.00  0.00     0.059 A 
ATOM     15  C   UNL     1      16.192  35.184   6.205  1.00  0.00     0.120 A 
ATOM     16  C   UNL     1      16.086  35.840   4.976  1.00  0.00     0.093 A 
ATOM     17  C   UNL     1      14.937  36.567   4.651  1.00  0.00     0.131 A 
ENDROOT
BRANCH   6  18
ATOM     18  O   UNL     1      10.005  38.465   4.529  1.00  0.00    -0.507 OA
ATOM     19  H   UNL     1      10.628  39.143   4.113  1.00  0.00     0.293 HD
ENDBRANCH   6  18
BRANCH  17  20
ATOM     20  O   UNL     1      14.863  37.119   3.371  1.00  0.00    -0.507 OA
ATOM     21  H   UNL     1      14.024  37.116   2.808  1.00  0.00     0.293 HD
ENDBRANCH  17  20
BRANCH  15  22
ATOM     22  O   UNL     1      17.334  34.452   6.523  1.00  0.00    -0.508 OA
ATOM     23  H   UNL     1      17.363  33.838   7.329  1.00  0.00     0.293 HD
ENDBRANCH  15  22
TORSDOF 3
ENDMDL
MODEL 3
REMARK VINA RESULT:    -5.749     11.186     12.664
REMARK INTER + INTRA:          -6.253
REMARK INTER:                  -6.253
REMARK INTRA:                   0.000
REMARK UNBOUND:                 0.000
REMARK SMILES Cc1cc(O)c2c(c1)C(=O)c1cc(O)cc(O)c1C2=O
REMARK SMILES IDX 1 1 2 2 8 3 7 4 6 5 4 6 3 7 19 8 20 9 18 10 11 11 9 12 10 13
REMARK SMILES IDX 12 14 13 15 15 16 16 17 5 18 17 20 14 22
REMARK H PARENT 5 19 17 21 14 23
REMARK Flexibility Score: inf
ROOT
ATOM      1  C   UNL     1       4.366  26.120   6.563  1.00  0.00     0.044 C 
ATOM      2  C   UNL     1       5.748  25.739   6.120  1.00  0.00    -0.047 A 
ATOM      3  C   UNL     1       6.611  26.705   5.593  1.00  0.00     0.016 A 
ATOM      4  C   UNL     1       7.916  26.364   5.201  1.00  0.00     0.038 A 
ATOM      5  C   UNL     1       8.366  25.032   5.340  1.00  0.00     0.076 A 
ATOM      6  C   UNL     1       7.517  24.076   5.953  1.00  0.00     0.127 A 
ATOM      7  C   UNL     1       6.214  24.434   6.315  1.00  0.00     0.050 A 
ATOM      8  C   UNL     1       9.696  24.677   4.780  1.00  0.00     0.201 C 
ATOM      9  O   UNL     1       9.907  23.510   4.358  1.00  0.00    -0.288 OA
ATOM     10  C   UNL     1      10.706  25.742   4.546  1.00  0.00     0.076 A 
ATOM     11  C   UNL     1      10.252  27.074   4.411  1.00  0.00     0.041 A 
ATOM     12  C   UNL     1       8.826  27.397   4.651  1.00  0.00     0.194 C 
ATOM     13  O   UNL     1       8.393  28.557   4.410  1.00  0.00    -0.289 OA
ATOM     14  C   UNL     1      11.158  28.088   4.054  1.00  0.00     0.059 A 
ATOM     15  C   UNL     1      12.505  27.794   3.846  1.00  0.00     0.120 A 
ATOM     16  C   UNL     1      12.967  26.486   4.019  1.00  0.00     0.093 A 
ATOM     17  C   UNL     1      12.090  25.464   4.394  1.00  0.00     0.131 A 
ENDROOT
BRANCH   6  18
ATOM     18  O   UNL     1       7.934  22.777   6.252  1.00  0.00    -0.507 OA
ATOM     19  H   UNL     1       7.552  21.951   5.812  1.00  0.00     0.293 HD
ENDBRANCH   6  18
BRANCH  17  20
ATOM     20  O   UNL     1      12.637  24.202   4.636  1.00  0.00    -0.507 OA
ATOM     21  H   UNL     1      13.626  24.002   4.579  1.00  0.00     0.293 HD
ENDBRANCH  17  20
BRANCH  15  22
ATOM     22  O   UNL     1      13.382  28.813   3.481  1.00  0.00    -0.508 OA
ATOM     23  H   UNL     1      13.860  29.376   4.176  1.00  0.00     0.293 HD
ENDBRANCH  15  22
TORSDOF 3
ENDMDL
MODEL 4
REMARK VINA RESULT:    -5.722     11.114     12.466
REMARK INTER + INTRA:          -6.224
REMARK INTER:                  -6.224
REMARK INTRA:                   0.000
REMARK UNBOUND:                 0.000
REMARK SMILES Cc1cc(O)c2c(c1)C(=O)c1cc(O)cc(O)c1C2=O
REMARK SMILES IDX 1 1 2 2 8 3 7 4 6 5 4 6 3 7 19 8 20 9 18 10 11 11 9 12 10 13
REMARK SMILES IDX 12 14 13 15 15 16 16 17 5 18 17 20 14 22
REMARK H PARENT 5 19 17 21 14 23
REMARK Flexibility Score: inf
ROOT
ATOM      1  C   UNL     1       4.442  23.802   6.252  1.00  0.00     0.044 C 
ATOM      2  C   UNL     1       5.563  24.761   5.981  1.00  0.00    -0.047 A 
ATOM      3  C   UNL     1       6.846  24.282   5.697  1.00  0.00     0.016 A 
ATOM      4  C   UNL     1       7.897  25.171   5.415  1.00  0.00     0.038 A 
ATOM      5  C   UNL     1       7.659  26.563   5.414  1.00  0.00     0.076 A 
ATOM      6  C   UNL     1       6.338  27.039   5.619  1.00  0.00     0.127 A 
ATOM      7  C   UNL     1       5.313  26.136   5.919  1.00  0.00     0.050 A 
ATOM      8  C   UNL     1       8.822  27.475   5.258  1.00  0.00     0.201 C 
ATOM      9  O   UNL     1       8.801  28.614   5.794  1.00  0.00    -0.288 OA
ATOM     10  C   UNL     1      10.074  26.974   4.634  1.00  0.00     0.076 A 
ATOM     11  C   UNL     1      10.308  25.580   4.634  1.00  0.00     0.041 A 
ATOM     12  C   UNL     1       9.252  24.654   5.108  1.00  0.00     0.194 C 
ATOM     13  O   UNL     1       9.501  23.422   5.227  1.00  0.00    -0.289 OA
ATOM     14  C   UNL     1      11.539  25.078   4.178  1.00  0.00     0.059 A 
ATOM     15  C   UNL     1      12.528  25.943   3.712  1.00  0.00     0.120 A 
ATOM     16  C   UNL     1      12.287  27.319   3.672  1.00  0.00     0.093 A 
ATOM     17  C   UNL     1      11.063  27.842   4.100  1.00  0.00     0.131 A 
ENDROOT
BRANCH   6  18
ATOM     18  O   UNL     1       5.994  28.387   5.498  1.00  0.00    -0.507 OA
ATOM     19  H   UNL     1       6.532  29.055   4.963  1.00  0.00     0.293 HD
ENDBRANCH   6  18
BRANCH  17  20
ATOM     20  O   UNL     1      10.859  29.214   3.947  1.00  0.00    -0.507 OA
ATOM     21  H   UNL     1      11.089  29.722   3.104  1.00  0.00     0.293 HD
ENDBRANCH  17  20
BRANCH  15  22
ATOM     22  O   UNL     1      13.745  25.423   3.277  1.00  0.00    -0.508 OA
ATOM     23  H   UNL     1      13.911  25.207   2.300  1.00  0.00     0.293 HD
ENDBRANCH  15  22
TORSDOF 3
ENDMDL
MODEL 5
REMARK VINA RESULT:    -5.677     11.722     12.185
REMARK INTER + INTRA:          -6.174
REMARK INTER:                  -6.174
REMARK INTRA:                   0.000
REMARK UNBOUND:                 0.000
REMARK SMILES Cc1cc(O)c2c(c1)C(=O)c1cc(O)cc(O)c1C2=O
REMARK SMILES IDX 1 1 2 2 8 3 7 4 6 5 4 6 3 7 19 8 20 9 18 10 11 11 9 12 10 13
REMARK SMILES IDX 12 14 13 15 15 16 16 17 5 18 17 20 14 22
REMARK H PARENT 5 19 17 21 14 23
REMARK Flexibility Score: inf
ROOT
ATOM      1  C   UNL     1      12.745  25.800   3.442  1.00  0.00     0.044 C 
ATOM      2  C   UNL     1      11.421  25.461   4.060  1.00  0.00    -0.047 A 
ATOM      3  C   UNL     1      10.486  26.469   4.318  1.00  0.00     0.016 A 
ATOM      4  C   UNL     1       9.232  26.159   4.871  1.00  0.00     0.038 A 
ATOM      5  C   UNL     1       8.908  24.817   5.169  1.00  0.00     0.076 A 
ATOM      6  C   UNL     1       9.826  23.791   4.827  1.00  0.00     0.127 A 
ATOM      7  C   UNL     1      11.076  24.126   4.297  1.00  0.00     0.050 A 
ATOM      8  C   UNL     1       7.635  24.544   5.887  1.00  0.00     0.201 C 
ATOM      9  O   UNL     1       7.551  23.550   6.656  1.00  0.00    -0.288 OA
ATOM     10  C   UNL     1       6.535  25.542   5.845  1.00  0.00     0.076 A 
ATOM     11  C   UNL     1       6.864  26.884   5.543  1.00  0.00     0.041 A 
ATOM     12  C   UNL     1       8.244  27.233   5.133  1.00  0.00     0.194 C 
ATOM     13  O   UNL     1       8.572  28.442   4.985  1.00  0.00    -0.289 OA
ATOM     14  C   UNL     1       5.876  27.880   5.628  1.00  0.00     0.059 A 
ATOM     15  C   UNL     1       4.570  27.555   5.993  1.00  0.00     0.120 A 
ATOM     16  C   UNL     1       4.231  26.225   6.253  1.00  0.00     0.093 A 
ATOM     17  C   UNL     1       5.190  25.212   6.156  1.00  0.00     0.131 A 
ENDROOT
BRANCH   6  18
ATOM     18  O   UNL     1       9.526  22.434   4.961  1.00  0.00    -0.507 OA
ATOM     19  H   UNL     1      10.127  21.772   5.433  1.00  0.00     0.293 HD
ENDBRANCH   6  18
BRANCH  17  20
ATOM     20  O   UNL     1       4.759  23.896   6.340  1.00  0.00    -0.507 OA
ATOM     21  H   UNL     1       4.495  23.516   7.238  1.00  0.00     0.293 HD
ENDBRANCH  17  20
BRANCH  15  22
ATOM     22  O   UNL     1       3.611  28.562   6.082  1.00  0.00    -0.508 OA
ATOM     23  H   UNL     1       3.862  29.512   6.332  1.00  0.00     0.293 HD
ENDBRANCH  15  22
TORSDOF 3
ENDMDL
MODEL 6
REMARK VINA RESULT:    -5.646      3.575      6.413
REMARK INTER + INTRA:          -6.141
REMARK INTER:                  -6.141
REMARK INTRA:                   0.000
REMARK UNBOUND:                 0.000
REMARK SMILES Cc1cc(O)c2c(c1)C(=O)c1cc(O)cc(O)c1C2=O
REMARK SMILES IDX 1 1 2 2 8 3 7 4 6 5 4 6 3 7 19 8 20 9 18 10 11 11 9 12 10 13
REMARK SMILES IDX 12 14 13 15 15 16 16 17 5 18 17 20 14 22
REMARK H PARENT 5 19 17 21 14 23
REMARK Flexibility Score: inf
ROOT
ATOM      1  C   UNL     1       6.157  34.624   4.309  1.00  0.00     0.044 C 
ATOM      2  C   UNL     1       7.168  35.506   4.980  1.00  0.00    -0.047 A 
ATOM      3  C   UNL     1       8.175  36.120   4.228  1.00  0.00     0.016 A 
ATOM      4  C   UNL     1       9.111  36.970   4.842  1.00  0.00     0.038 A 
ATOM      5  C   UNL     1       9.036  37.209   6.232  1.00  0.00     0.076 A 
ATOM      6  C   UNL     1       7.964  36.651   6.974  1.00  0.00     0.127 A 
ATOM      7  C   UNL     1       7.057  35.792   6.345  1.00  0.00     0.050 A 
ATOM      8  C   UNL     1      10.127  37.992   6.870  1.00  0.00     0.201 C 
ATOM      9  O   UNL     1      10.439  37.769   8.069  1.00  0.00    -0.288 OA
ATOM     10  C   UNL     1      10.967  38.896   6.043  1.00  0.00     0.076 A 
ATOM     11  C   UNL     1      11.037  38.655   4.652  1.00  0.00     0.041 A 
ATOM     12  C   UNL     1      10.170  37.623   4.036  1.00  0.00     0.194 C 
ATOM     13  O   UNL     1      10.317  37.318   2.821  1.00  0.00    -0.289 OA
ATOM     14  C   UNL     1      11.925  39.400   3.857  1.00  0.00     0.059 A 
ATOM     15  C   UNL     1      12.729  40.387   4.427  1.00  0.00     0.120 A 
ATOM     16  C   UNL     1      12.635  40.657   5.795  1.00  0.00     0.093 A 
ATOM     17  C   UNL     1      11.744  39.944   6.603  1.00  0.00     0.131 A 
ENDROOT
BRANCH   6  18
ATOM     18  O   UNL     1       7.740  36.950   8.320  1.00  0.00    -0.507 OA
ATOM     19  H   UNL     1       8.449  36.869   9.036  1.00  0.00     0.293 HD
ENDBRANCH   6  18
BRANCH  17  20
ATOM     20  O   UNL     1      11.638  40.330   7.941  1.00  0.00    -0.507 OA
ATOM     21  H   UNL     1      10.971  39.930   8.587  1.00  0.00     0.293 HD
ENDBRANCH  17  20
BRANCH  15  22
ATOM     22  O   UNL     1      13.611  41.104   3.622  1.00  0.00    -0.508 OA
ATOM     23  H   UNL     1      13.579  42.116   3.571  1.00  0.00     0.293 HD
ENDBRANCH  15  22
TORSDOF 3
ENDMDL
MODEL 7
REMARK VINA RESULT:    -5.286      1.761      5.676
REMARK INTER + INTRA:          -5.749
REMARK INTER:                  -5.749
REMARK INTRA:                   0.000
REMARK UNBOUND:                 0.000
REMARK SMILES Cc1cc(O)c2c(c1)C(=O)c1cc(O)cc(O)c1C2=O
REMARK SMILES IDX 1 1 2 2 8 3 7 4 6 5 4 6 3 7 19 8 20 9 18 10 11 11 9 12 10 13
REMARK SMILES IDX 12 14 13 15 15 16 16 17 5 18 17 20 14 22
REMARK H PARENT 5 19 17 21 14 23
REMARK Flexibility Score: inf
ROOT
ATOM      1  C   UNL     1       9.081  37.277   8.125  1.00  0.00     0.044 C 
ATOM      2  C   UNL     1      10.159  36.978   7.124  1.00  0.00    -0.047 A 
ATOM      3  C   UNL     1      11.462  36.707   7.553  1.00  0.00     0.016 A 
ATOM      4  C   UNL     1      12.472  36.399   6.626  1.00  0.00     0.038 A 
ATOM      5  C   UNL     1      12.171  36.360   5.246  1.00  0.00     0.076 A 
ATOM      6  C   UNL     1      10.831  36.552   4.825  1.00  0.00     0.127 A 
ATOM      7  C   UNL     1       9.847  36.879   5.764  1.00  0.00     0.050 A 
ATOM      8  C   UNL     1      13.292  36.178   4.287  1.00  0.00     0.201 C 
ATOM      9  O   UNL     1      13.220  36.682   3.136  1.00  0.00    -0.288 OA
ATOM     10  C   UNL     1      14.566  35.566   4.749  1.00  0.00     0.076 A 
ATOM     11  C   UNL     1      14.862  35.605   6.131  1.00  0.00     0.041 A 
ATOM     12  C   UNL     1      13.849  36.105   7.090  1.00  0.00     0.194 C 
ATOM     13  O   UNL     1      14.152  36.258   8.305  1.00  0.00    -0.289 OA
ATOM     14  C   UNL     1      16.114  35.162   6.589  1.00  0.00     0.059 A 
ATOM     15  C   UNL     1      17.064  34.671   5.694  1.00  0.00     0.120 A 
ATOM     16  C   UNL     1      16.762  34.593   4.332  1.00  0.00     0.093 A 
ATOM     17  C   UNL     1      15.515  35.008   3.853  1.00  0.00     0.131 A 
ENDROOT
BRANCH   6  18
ATOM     18  O   UNL     1      10.427  36.394   3.497  1.00  0.00    -0.507 OA
ATOM     19  H   UNL     1      11.028  36.034   2.769  1.00  0.00     0.293 HD
ENDBRANCH   6  18
BRANCH  17  20
ATOM     20  O   UNL     1      15.250  34.816   2.495  1.00  0.00    -0.507 OA
ATOM     21  H   UNL     1      15.702  35.340   1.759  1.00  0.00     0.293 HD
ENDBRANCH  17  20
BRANCH  15  22
ATOM     22  O   UNL     1      18.303  34.249   6.170  1.00  0.00    -0.508 OA
ATOM     23  H   UNL     1      18.593  34.427   7.126  1.00  0.00     0.293 HD
ENDBRANCH  15  22
TORSDOF 3
ENDMDL
MODEL 8
REMARK VINA RESULT:    -5.255      3.179      4.560
REMARK INTER + INTRA:          -5.715
REMARK INTER:                  -5.715
REMARK INTRA:                   0.000
REMARK UNBOUND:                 0.000
REMARK SMILES Cc1cc(O)c2c(c1)C(=O)c1cc(O)cc(O)c1C2=O
REMARK SMILES IDX 1 1 2 2 8 3 7 4 6 5 4 6 3 7 19 8 20 9 18 10 11 11 9 12 10 13
REMARK SMILES IDX 12 14 13 15 15 16 16 17 5 18 17 20 14 22
REMARK H PARENT 5 19 17 21 14 23
REMARK Flexibility Score: inf
ROOT
ATOM      1  C   UNL     1      11.711  36.103   0.120  1.00  0.00     0.044 C 
ATOM      2  C   UNL     1      11.364  36.521   1.519  1.00  0.00    -0.047 A 
ATOM      3  C   UNL     1      10.159  36.112   2.097  1.00  0.00     0.016 A 
ATOM      4  C   UNL     1       9.837  36.475   3.416  1.00  0.00     0.038 A 
ATOM      5  C   UNL     1      10.738  37.261   4.168  1.00  0.00     0.076 A 
ATOM      6  C   UNL     1      11.995  37.601   3.606  1.00  0.00     0.127 A 
ATOM      7  C   UNL     1      12.283  37.246   2.284  1.00  0.00     0.050 A 
ATOM      8  C   UNL     1      10.301  37.749   5.502  1.00  0.00     0.201 C 
ATOM      9  O   UNL     1      10.743  38.841   5.946  1.00  0.00    -0.288 OA
ATOM     10  C   UNL     1       9.206  37.047   6.222  1.00  0.00     0.076 A 
ATOM     11  C   UNL     1       8.308  36.259   5.466  1.00  0.00     0.041 A 
ATOM     12  C   UNL     1       8.560  36.030   4.024  1.00  0.00     0.194 C 
ATOM     13  O   UNL     1       7.699  35.435   3.320  1.00  0.00    -0.289 OA
ATOM     14  C   UNL     1       7.182  35.692   6.088  1.00  0.00     0.059 A 
ATOM     15  C   UNL     1       6.950  35.888   7.449  1.00  0.00     0.120 A 
ATOM     16  C   UNL     1       7.856  36.632   8.209  1.00  0.00     0.093 A 
ATOM     17  C   UNL     1       8.995  37.189   7.619  1.00  0.00     0.131 A 
ENDROOT
BRANCH   6  18
ATOM     18  O   UNL     1      12.994  38.255   4.331  1.00  0.00    -0.507 OA
ATOM     19  H   UNL     1      12.807  38.878   5.104  1.00  0.00     0.293 HD
ENDBRANCH   6  18
BRANCH  17  20
ATOM     20  O   UNL     1       9.902  37.841   8.457  1.00  0.00    -0.507 OA
ATOM     21  H   UNL     1       9.634  38.548   9.128  1.00  0.00     0.293 HD
ENDBRANCH  17  20
BRANCH  15  22
ATOM     22  O   UNL     1       5.821  35.326   8.041  1.00  0.00    -0.508 OA
ATOM     23  H   UNL     1       5.853  34.416   8.487  1.00  0.00     0.293 HD
ENDBRANCH  15  22
TORSDOF 3
ENDMDL
MODEL 9
REMARK VINA RESULT:    -5.233     12.301     12.787
REMARK INTER + INTRA:          -5.692
REMARK INTER:                  -5.692
REMARK INTRA:                   0.000
REMARK UNBOUND:                 0.000
REMARK SMILES Cc1cc(O)c2c(c1)C(=O)c1cc(O)cc(O)c1C2=O
REMARK SMILES IDX 1 1 2 2 8 3 7 4 6 5 4 6 3 7 19 8 20 9 18 10 11 11 9 12 10 13
REMARK SMILES IDX 12 14 13 15 15 16 16 17 5 18 17 20 14 22
REMARK H PARENT 5 19 17 21 14 23
REMARK Flexibility Score: inf
ROOT
ATOM      1  C   UNL     1       8.815  21.066   7.261  1.00  0.00     0.044 C 
ATOM      2  C   UNL     1       8.453  22.288   6.469  1.00  0.00    -0.047 A 
ATOM      3  C   UNL     1       7.294  23.009   6.777  1.00  0.00     0.016 A 
ATOM      4  C   UNL     1       6.960  24.170   6.060  1.00  0.00     0.038 A 
ATOM      5  C   UNL     1       7.801  24.617   5.017  1.00  0.00     0.076 A 
ATOM      6  C   UNL     1       9.017  23.931   4.765  1.00  0.00     0.127 A 
ATOM      7  C   UNL     1       9.317  22.766   5.478  1.00  0.00     0.050 A 
ATOM      8  C   UNL     1       7.342  25.761   4.185  1.00  0.00     0.201 C 
ATOM      9  O   UNL     1       7.695  25.840   2.980  1.00  0.00    -0.288 OA
ATOM     10  C   UNL     1       6.320  26.699   4.720  1.00  0.00     0.076 A 
ATOM     11  C   UNL     1       5.483  26.247   5.766  1.00  0.00     0.041 A 
ATOM     12  C   UNL     1       5.734  24.931   6.399  1.00  0.00     0.194 C 
ATOM     13  O   UNL     1       4.917  24.471   7.243  1.00  0.00    -0.289 OA
ATOM     14  C   UNL     1       4.418  27.053   6.204  1.00  0.00     0.059 A 
ATOM     15  C   UNL     1       4.188  28.301   5.627  1.00  0.00     0.120 A 
ATOM     16  C   UNL     1       5.037  28.769   4.620  1.00  0.00     0.093 A 
ATOM     17  C   UNL     1       6.117  27.996   4.181  1.00  0.00     0.131 A 
ENDROOT
BRANCH   6  18
ATOM     18  O   UNL     1       9.966  24.389   3.848  1.00  0.00    -0.507 OA
ATOM     19  H   UNL     1       9.789  24.476   2.857  1.00  0.00     0.293 HD
ENDBRANCH   6  18
BRANCH  17  20
ATOM     20  O   UNL     1       6.976  28.565   3.238  1.00  0.00    -0.507 OA
ATOM     21  H   UNL     1       7.880  28.181   3.003  1.00  0.00     0.293 HD
ENDBRANCH  17  20
BRANCH  15  22
ATOM     22  O   UNL     1       3.119  29.076   6.069  1.00  0.00    -0.508 OA
ATOM     23  H   UNL     1       3.218  30.072   6.235  1.00  0.00     0.293 HD
ENDBRANCH  15  22
TORSDOF 3
ENDMDL
