MODEL 1
REMARK VINA RESULT:    12.117      0.000      0.000
REMARK INTER + INTRA:          12.509
REMARK INTER:                  12.826
REMARK INTRA:                  -0.317
REMARK UNBOUND:                -0.317
REMARK SMILES CC1=CC[C@@]23[C@@H]([C@@H]12)[C@H](C(C)C)CC[C@@H]3C
REMARK SMILES IDX 15 1 14 2 13 3 12 4 8 5 6 6 5 7 7 8 2 9 3 10 4 11 1 12 9 13
REMARK SMILES IDX 10 14 11 15
REMARK H PARENT
REMARK Flexibility Score: inf
ROOT
ATOM      1  C   UNL     1       2.035   3.714 -10.027  1.00  0.00     0.008 C 
ATOM      2  C   UNL     1       1.001   4.584  -9.305  1.00  0.00    -0.007 C 
ATOM      3  C   UNL     1       1.673   5.434  -8.211  1.00  0.00     0.004 C 
ATOM      4  C   UNL     1       0.678   6.324  -7.421  1.00  0.00     0.004 C 
ATOM      5  C   UNL     1      -0.761   6.352  -7.999  1.00  0.00    -0.004 C 
ATOM      6  C   UNL     1      -0.691   6.528  -9.535  1.00  0.00     0.007 C 
ATOM      7  C   UNL     1       0.218   5.528 -10.257  1.00  0.00    -0.013 C 
ATOM      8  C   UNL     1      -1.300   5.386 -10.352  1.00  0.00     0.025 C 
ATOM      9  C   UNL     1      -1.595   5.714 -11.776  1.00  0.00    -0.073 C 
ATOM     10  C   UNL     1      -0.507   6.024 -12.475  1.00  0.00    -0.027 C 
ATOM     11  C   UNL     1       0.729   5.963 -11.644  1.00  0.00     0.035 C 
ATOM     12  C   UNL     1      -2.976   5.722 -12.353  1.00  0.00     0.039 C 
ENDROOT
BRANCH   5  13
ATOM     13  C   UNL     1      -1.636   7.475  -7.366  1.00  0.00    -0.014 C 
ATOM     14  C   UNL     1      -0.808   8.748  -7.114  1.00  0.00     0.007 C 
ATOM     15  C   UNL     1      -2.845   7.832  -8.249  1.00  0.00     0.007 C 
ENDBRANCH   5  13
TORSDOF 1
ENDMDL
