MODEL 1
REMARK VINA RESULT:    -5.149      0.000      0.000
REMARK INTER + INTRA:          -5.765
REMARK INTER:                  -5.450
REMARK INTRA:                  -0.315
REMARK UNBOUND:                -0.315
REMARK SMILES CC1=CC[C@H]2[C@@H]3[C@@H](C(C)C)CC[C@@]2(C)[C@H]13
REMARK SMILES IDX 1 1 2 2 3 3 4 4 5 5 6 6 15 7 13 8 12 9 11 10 7 11 14 12 8 13
REMARK SMILES IDX 9 14 10 15
REMARK H PARENT
REMARK Flexibility Score: inf
ROOT
ATOM      1  C   UNL     1     135.939 133.736 131.773  1.00  0.00     0.039 C 
ATOM      2  C   UNL     1     134.818 134.711 131.572  1.00  0.00    -0.073 C 
ATOM      3  C   UNL     1     133.728 134.388 130.828  1.00  0.00    -0.027 C 
ATOM      4  C   UNL     1     132.624 135.433 130.643  1.00  0.00     0.031 C 
ATOM      5  C   UNL     1     132.972 136.740 131.428  1.00  0.00     0.003 C 
ATOM      6  C   UNL     1     133.438 136.323 132.842  1.00  0.00     0.004 C 
ATOM      7  C   UNL     1     134.838 136.102 132.211  1.00  0.00     0.024 C 
ATOM      8  C   UNL     1     134.435 137.180 131.176  1.00  0.00    -0.022 C 
ATOM      9  C   UNL     1     134.643 138.611 131.765  1.00  0.00     0.008 C 
ATOM     10  C   UNL     1     134.397 138.665 133.297  1.00  0.00     0.005 C 
ATOM     11  C   UNL     1     133.407 137.561 133.786  1.00  0.00    -0.005 C 
ATOM     12  C   UNL     1     135.002 137.086 129.741  1.00  0.00     0.012 C 
ENDROOT
BRANCH  11  13
ATOM     13  C   UNL     1     133.573 137.168 135.285  1.00  0.00    -0.014 C 
ATOM     14  C   UNL     1     132.805 138.072 136.263  1.00  0.00     0.007 C 
ATOM     15  C   UNL     1     133.215 135.694 135.526  1.00  0.00     0.007 C 
ENDBRANCH  11  13
TORSDOF 1
ENDMDL
MODEL 2
REMARK VINA RESULT:    -5.075      3.029      4.788
REMARK INTER + INTRA:          -5.687
REMARK INTER:                  -5.268
REMARK INTRA:                  -0.419
REMARK UNBOUND:                -0.315
REMARK SMILES CC1=CC[C@H]2[C@@H]3[C@@H](C(C)C)CC[C@@]2(C)[C@H]13
REMARK SMILES IDX 1 1 2 2 3 3 4 4 5 5 6 6 15 7 13 8 12 9 11 10 7 11 14 12 8 13
REMARK SMILES IDX 9 14 10 15
REMARK H PARENT
REMARK Flexibility Score: inf
ROOT
ATOM      1  C   UNL     1     139.682 136.416 131.870  1.00  0.00     0.039 C 
ATOM      2  C   UNL     1     138.977 135.153 131.474  1.00  0.00    -0.073 C 
ATOM      3  C   UNL     1     139.636 134.147 130.843  1.00  0.00    -0.027 C 
ATOM      4  C   UNL     1     138.858 132.888 130.447  1.00  0.00     0.031 C 
ATOM      5  C   UNL     1     137.368 133.001 130.907  1.00  0.00     0.003 C 
ATOM      6  C   UNL     1     137.369 133.501 132.370  1.00  0.00     0.004 C 
ATOM      7  C   UNL     1     137.494 134.930 131.780  1.00  0.00     0.024 C 
ATOM      8  C   UNL     1     136.760 134.376 130.535  1.00  0.00    -0.022 C 
ATOM      9  C   UNL     1     135.220 134.333 130.779  1.00  0.00     0.008 C 
ATOM     10  C   UNL     1     134.860 134.052 132.263  1.00  0.00     0.005 C 
ATOM     11  C   UNL     1     135.972 133.248 133.008  1.00  0.00    -0.005 C 
ATOM     12  C   UNL     1     137.083 134.978 129.147  1.00  0.00     0.012 C 
ENDROOT
BRANCH  11  13
ATOM     13  C   UNL     1     135.982 133.447 134.554  1.00  0.00    -0.014 C 
ATOM     14  C   UNL     1     137.388 133.521 135.171  1.00  0.00     0.007 C 
ATOM     15  C   UNL     1     135.151 134.670 134.972  1.00  0.00     0.007 C 
ENDBRANCH  11  13
TORSDOF 1
ENDMDL
MODEL 3
REMARK VINA RESULT:    -5.067      5.272      6.772
REMARK INTER + INTRA:          -5.678
REMARK INTER:                  -5.364
REMARK INTRA:                  -0.315
REMARK UNBOUND:                -0.315
REMARK SMILES CC1=CC[C@H]2[C@@H]3[C@@H](C(C)C)CC[C@@]2(C)[C@H]13
REMARK SMILES IDX 1 1 2 2 3 3 4 4 5 5 6 6 15 7 13 8 12 9 11 10 7 11 14 12 8 13
REMARK SMILES IDX 9 14 10 15
REMARK H PARENT
REMARK Flexibility Score: inf
ROOT
ATOM      1  C   UNL     1     137.991 140.098 131.997  1.00  0.00     0.039 C 
ATOM      2  C   UNL     1     139.028 139.037 131.778  1.00  0.00    -0.073 C 
ATOM      3  C   UNL     1     140.097 139.254 130.970  1.00  0.00    -0.027 C 
ATOM      4  C   UNL     1     141.114 138.126 130.770  1.00  0.00     0.031 C 
ATOM      5  C   UNL     1     140.714 136.875 131.620  1.00  0.00     0.003 C 
ATOM      6  C   UNL     1     140.354 137.373 133.039  1.00  0.00     0.004 C 
ATOM      7  C   UNL     1     138.943 137.675 132.470  1.00  0.00     0.024 C 
ATOM      8  C   UNL     1     139.212 136.534 131.459  1.00  0.00    -0.022 C 
ATOM      9  C   UNL     1     138.935 135.144 132.111  1.00  0.00     0.008 C 
ATOM     10  C   UNL     1     139.256 135.125 133.630  1.00  0.00     0.005 C 
ATOM     11  C   UNL     1     140.346 136.169 134.026  1.00  0.00    -0.005 C 
ATOM     12  C   UNL     1     138.579 136.621 130.050  1.00  0.00     0.012 C 
ENDROOT
BRANCH  11  13
ATOM     13  C   UNL     1     140.287 136.625 135.515  1.00  0.00    -0.014 C 
ATOM     14  C   UNL     1     141.096 135.740 136.479  1.00  0.00     0.007 C 
ATOM     15  C   UNL     1     140.695 138.097 135.674  1.00  0.00     0.007 C 
ENDBRANCH  11  13
TORSDOF 1
ENDMDL
MODEL 4
REMARK VINA RESULT:    -5.063      1.758      4.106
REMARK INTER + INTRA:          -5.674
REMARK INTER:                  -5.255
REMARK INTRA:                  -0.419
REMARK UNBOUND:                -0.315
REMARK SMILES CC1=CC[C@H]2[C@@H]3[C@@H](C(C)C)CC[C@@]2(C)[C@H]13
REMARK SMILES IDX 1 1 2 2 3 3 4 4 5 5 6 6 15 7 13 8 12 9 11 10 7 11 14 12 8 13
REMARK SMILES IDX 9 14 10 15
REMARK H PARENT
REMARK Flexibility Score: inf
ROOT
ATOM      1  C   UNL     1     136.232 137.688 129.650  1.00  0.00     0.039 C 
ATOM      2  C   UNL     1     135.240 136.651 130.087  1.00  0.00    -0.073 C 
ATOM      3  C   UNL     1     134.254 136.226 129.256  1.00  0.00    -0.027 C 
ATOM      4  C   UNL     1     133.259 135.178 129.765  1.00  0.00     0.031 C 
ATOM      5  C   UNL     1     133.618 134.749 131.225  1.00  0.00     0.003 C 
ATOM      6  C   UNL     1     135.141 134.482 131.270  1.00  0.00     0.004 C 
ATOM      7  C   UNL     1     135.306 136.011 131.476  1.00  0.00     0.024 C 
ATOM      8  C   UNL     1     133.901 135.978 132.125  1.00  0.00    -0.022 C 
ATOM      9  C   UNL     1     133.994 135.508 133.610  1.00  0.00     0.008 C 
ATOM     10  C   UNL     1     135.141 134.488 133.841  1.00  0.00     0.005 C 
ATOM     11  C   UNL     1     135.489 133.674 132.555  1.00  0.00    -0.005 C 
ATOM     12  C   UNL     1     132.988 137.219 131.993  1.00  0.00     0.012 C 
ENDROOT
BRANCH  11  13
ATOM     13  C   UNL     1     136.942 133.112 132.525  1.00  0.00    -0.014 C 
ATOM     14  C   UNL     1     137.495 132.867 131.111  1.00  0.00     0.007 C 
ATOM     15  C   UNL     1     137.908 133.995 133.330  1.00  0.00     0.007 C 
ENDBRANCH  11  13
TORSDOF 1
ENDMDL
MODEL 5
REMARK VINA RESULT:    -5.033      1.638      4.236
REMARK INTER + INTRA:          -5.643
REMARK INTER:                  -5.238
REMARK INTRA:                  -0.405
REMARK UNBOUND:                -0.315
REMARK SMILES CC1=CC[C@H]2[C@@H]3[C@@H](C(C)C)CC[C@@]2(C)[C@H]13
REMARK SMILES IDX 1 1 2 2 3 3 4 4 5 5 6 6 15 7 13 8 12 9 11 10 7 11 14 12 8 13
REMARK SMILES IDX 9 14 10 15
REMARK H PARENT
REMARK Flexibility Score: inf
ROOT
ATOM      1  C   UNL     1     138.035 138.204 130.364  1.00  0.00     0.039 C 
ATOM      2  C   UNL     1     136.652 138.708 130.649  1.00  0.00    -0.073 C 
ATOM      3  C   UNL     1     136.188 139.852 130.083  1.00  0.00    -0.027 C 
ATOM      4  C   UNL     1     134.773 140.327 130.428  1.00  0.00     0.031 C 
ATOM      5  C   UNL     1     134.081 139.316 131.400  1.00  0.00     0.003 C 
ATOM      6  C   UNL     1     134.324 137.894 130.843  1.00  0.00     0.004 C 
ATOM      7  C   UNL     1     135.693 137.948 131.570  1.00  0.00     0.024 C 
ATOM      8  C   UNL     1     135.016 138.919 132.568  1.00  0.00    -0.022 C 
ATOM      9  C   UNL     1     134.193 138.127 133.631  1.00  0.00     0.008 C 
ATOM     10  C   UNL     1     133.583 136.820 133.058  1.00  0.00     0.005 C 
ATOM     11  C   UNL     1     133.338 136.895 131.518  1.00  0.00    -0.005 C 
ATOM     12  C   UNL     1     135.873 140.018 133.239  1.00  0.00     0.012 C 
ENDROOT
BRANCH  11  13
ATOM     13  C   UNL     1     133.316 135.511 130.803  1.00  0.00    -0.014 C 
ATOM     14  C   UNL     1     133.583 135.579 129.289  1.00  0.00     0.007 C 
ATOM     15  C   UNL     1     134.276 134.514 131.469  1.00  0.00     0.007 C 
ENDBRANCH  11  13
TORSDOF 1
ENDMDL
MODEL 6
REMARK VINA RESULT:    -4.997      3.824      5.673
REMARK INTER + INTRA:          -5.605
REMARK INTER:                  -5.198
REMARK INTRA:                  -0.406
REMARK UNBOUND:                -0.315
REMARK SMILES CC1=CC[C@H]2[C@@H]3[C@@H](C(C)C)CC[C@@]2(C)[C@H]13
REMARK SMILES IDX 1 1 2 2 3 3 4 4 5 5 6 6 15 7 13 8 12 9 11 10 7 11 14 12 8 13
REMARK SMILES IDX 9 14 10 15
REMARK H PARENT
REMARK Flexibility Score: inf
ROOT
ATOM      1  C   UNL     1     138.128 135.651 130.530  1.00  0.00     0.039 C 
ATOM      2  C   UNL     1     138.621 137.044 130.786  1.00  0.00    -0.073 C 
ATOM      3  C   UNL     1     139.808 137.473 130.289  1.00  0.00    -0.027 C 
ATOM      4  C   UNL     1     140.267 138.901 130.599  1.00  0.00     0.031 C 
ATOM      5  C   UNL     1     139.191 139.646 131.455  1.00  0.00     0.003 C 
ATOM      6  C   UNL     1     137.814 139.382 130.803  1.00  0.00     0.004 C 
ATOM      7  C   UNL     1     137.800 138.050 131.598  1.00  0.00     0.024 C 
ATOM      8  C   UNL     1     138.697 138.771 132.634  1.00  0.00    -0.022 C 
ATOM      9  C   UNL     1     137.833 139.650 133.591  1.00  0.00     0.008 C 
ATOM     10  C   UNL     1     136.579 140.237 132.890  1.00  0.00     0.005 C 
ATOM     11  C   UNL     1     136.775 140.405 131.350  1.00  0.00    -0.005 C 
ATOM     12  C   UNL     1     139.734 137.943 133.428  1.00  0.00     0.012 C 
ENDROOT
BRANCH  11  13
ATOM     13  C   UNL     1     135.450 140.398 130.529  1.00  0.00    -0.014 C 
ATOM     14  C   UNL     1     135.630 140.044 129.044  1.00  0.00     0.007 C 
ATOM     15  C   UNL     1     134.391 139.488 131.170  1.00  0.00     0.007 C 
ENDBRANCH  11  13
TORSDOF 1
ENDMDL
MODEL 7
REMARK VINA RESULT:    -4.989      3.235      4.906
REMARK INTER + INTRA:          -5.597
REMARK INTER:                  -5.285
REMARK INTRA:                  -0.312
REMARK UNBOUND:                -0.315
REMARK SMILES CC1=CC[C@H]2[C@@H]3[C@@H](C(C)C)CC[C@@]2(C)[C@H]13
REMARK SMILES IDX 1 1 2 2 3 3 4 4 5 5 6 6 15 7 13 8 12 9 11 10 7 11 14 12 8 13
REMARK SMILES IDX 9 14 10 15
REMARK H PARENT
REMARK Flexibility Score: inf
ROOT
ATOM      1  C   UNL     1     133.998 138.108 131.368  1.00  0.00     0.039 C 
ATOM      2  C   UNL     1     135.000 139.221 131.457  1.00  0.00    -0.073 C 
ATOM      3  C   UNL     1     134.789 140.409 130.834  1.00  0.00    -0.027 C 
ATOM      4  C   UNL     1     135.857 141.502 130.945  1.00  0.00     0.031 C 
ATOM      5  C   UNL     1     137.042 141.017 131.843  1.00  0.00     0.003 C 
ATOM      6  C   UNL     1     136.432 140.374 133.110  1.00  0.00     0.004 C 
ATOM      7  C   UNL     1     136.290 139.079 132.269  1.00  0.00     0.024 C 
ATOM      8  C   UNL     1     137.503 139.591 131.454  1.00  0.00    -0.022 C 
ATOM      9  C   UNL     1     138.837 139.268 132.195  1.00  0.00     0.008 C 
ATOM     10  C   UNL     1     138.683 139.303 133.740  1.00  0.00     0.005 C 
ATOM     11  C   UNL     1     137.530 140.246 134.207  1.00  0.00    -0.005 C 
ATOM     12  C   UNL     1     137.601 139.226 129.954  1.00  0.00     0.012 C 
ENDROOT
BRANCH  11  13
ATOM     13  C   UNL     1     136.934 139.888 135.602  1.00  0.00    -0.014 C 
ATOM     14  C   UNL     1     137.619 140.598 136.782  1.00  0.00     0.007 C 
ATOM     15  C   UNL     1     135.417 140.122 135.647  1.00  0.00     0.007 C 
ENDBRANCH  11  13
TORSDOF 1
ENDMDL
MODEL 8
REMARK VINA RESULT:    -4.969      4.157      6.086
REMARK INTER + INTRA:          -5.575
REMARK INTER:                  -5.152
REMARK INTRA:                  -0.424
REMARK UNBOUND:                -0.315
REMARK SMILES CC1=CC[C@H]2[C@@H]3[C@@H](C(C)C)CC[C@@]2(C)[C@H]13
REMARK SMILES IDX 1 1 2 2 3 3 4 4 5 5 6 6 15 7 13 8 12 9 11 10 7 11 14 12 8 13
REMARK SMILES IDX 9 14 10 15
REMARK H PARENT
REMARK Flexibility Score: inf
ROOT
ATOM      1  C   UNL     1     135.303 137.874 132.787  1.00  0.00     0.039 C 
ATOM      2  C   UNL     1     136.527 138.676 132.459  1.00  0.00    -0.073 C 
ATOM      3  C   UNL     1     136.663 139.959 132.881  1.00  0.00    -0.027 C 
ATOM      4  C   UNL     1     137.928 140.734 132.498  1.00  0.00     0.031 C 
ATOM      5  C   UNL     1     138.895 139.824 131.673  1.00  0.00     0.003 C 
ATOM      6  C   UNL     1     138.991 138.464 132.402  1.00  0.00     0.004 C 
ATOM      7  C   UNL     1     137.687 138.081 131.656  1.00  0.00     0.024 C 
ATOM      8  C   UNL     1     138.144 139.065 130.552  1.00  0.00    -0.022 C 
ATOM      9  C   UNL     1     139.188 138.388 129.610  1.00  0.00     0.008 C 
ATOM     10  C   UNL     1     140.079 137.357 130.353  1.00  0.00     0.005 C 
ATOM     11  C   UNL     1     140.226 137.676 131.874  1.00  0.00    -0.005 C 
ATOM     12  C   UNL     1     137.070 139.821 129.735  1.00  0.00     0.012 C 
ENDROOT
BRANCH  11  13
ATOM     13  C   UNL     1     140.562 136.439 132.760  1.00  0.00    -0.014 C 
ATOM     14  C   UNL     1     140.068 136.551 134.213  1.00  0.00     0.007 C 
ATOM     15  C   UNL     1     140.059 135.134 132.125  1.00  0.00     0.007 C 
ENDBRANCH  11  13
TORSDOF 1
ENDMDL
MODEL 9
REMARK VINA RESULT:    -4.946      4.185      6.333
REMARK INTER + INTRA:          -5.550
REMARK INTER:                  -5.185
REMARK INTRA:                  -0.365
REMARK UNBOUND:                -0.315
REMARK SMILES CC1=CC[C@H]2[C@@H]3[C@@H](C(C)C)CC[C@@]2(C)[C@H]13
REMARK SMILES IDX 1 1 2 2 3 3 4 4 5 5 6 6 15 7 13 8 12 9 11 10 7 11 14 12 8 13
REMARK SMILES IDX 9 14 10 15
REMARK H PARENT
REMARK Flexibility Score: inf
ROOT
ATOM      1  C   UNL     1     135.650 135.898 131.237  1.00  0.00     0.039 C 
ATOM      2  C   UNL     1     137.062 135.398 131.296  1.00  0.00    -0.073 C 
ATOM      3  C   UNL     1     137.422 134.232 130.700  1.00  0.00    -0.027 C 
ATOM      4  C   UNL     1     138.876 133.763 130.810  1.00  0.00     0.031 C 
ATOM      5  C   UNL     1     139.726 134.804 131.610  1.00  0.00     0.003 C 
ATOM      6  C   UNL     1     139.387 136.206 131.053  1.00  0.00     0.004 C 
ATOM      7  C   UNL     1     138.165 136.185 132.008  1.00  0.00     0.024 C 
ATOM      8  C   UNL     1     139.007 135.248 132.907  1.00  0.00    -0.022 C 
ATOM      9  C   UNL     1     140.002 136.074 133.781  1.00  0.00     0.008 C 
ATOM     10  C   UNL     1     140.501 137.357 133.064  1.00  0.00     0.005 C 
ATOM     11  C   UNL     1     140.473 137.224 131.509  1.00  0.00    -0.005 C 
ATOM     12  C   UNL     1     138.282 134.178 133.757  1.00  0.00     0.012 C 
ENDROOT
BRANCH  11  13
ATOM     13  C   UNL     1     140.369 138.582 130.751  1.00  0.00    -0.014 C 
ATOM     14  C   UNL     1     140.039 138.445 129.255  1.00  0.00     0.007 C 
ATOM     15  C   UNL     1     139.375 139.535 131.431  1.00  0.00     0.007 C 
ENDBRANCH  11  13
TORSDOF 1
ENDMDL
