MODEL 1
REMARK VINA RESULT:    -3.612      0.000      0.000
REMARK INTER + INTRA:          -3.839
REMARK INTER:                  -3.823
REMARK INTRA:                  -0.017
REMARK UNBOUND:                -0.017
REMARK SMILES O=C([O-])c1cccnc1
REMARK SMILES IDX 4 1 5 2 9 3 6 4 8 5 7 6 2 7 1 8 3 9
REMARK H PARENT
REMARK Flexibility Score: inf
ROOT
ATOM      1  C   UNL     1      32.089   9.366  32.334  1.00  0.00     0.016 A 
ATOM      2  C   UNL     1      32.919  10.432  32.720  1.00  0.00     0.013 A 
ATOM      3  C   UNL     1      31.482   9.417  31.067  1.00  0.00     0.120 A 
ATOM      4  C   UNL     1      33.125  11.508  31.855  1.00  0.00     0.021 A 
ATOM      5  N   UNL     1      31.698  10.477  30.244  1.00  0.00    -0.264 NA
ATOM      6  C   UNL     1      32.500  11.513  30.607  1.00  0.00     0.111 A 
ENDROOT
BRANCH   1   7
ATOM      7  C   UNL     1      31.863   8.220  33.241  1.00  0.00     0.073 C 
ATOM      8  O   UNL     1      32.388   7.100  33.002  1.00  0.00    -0.545 OA
ATOM      9  O   UNL     1      31.065   8.363  34.371  1.00  0.00    -0.545 OA
ENDBRANCH   1   7
TORSDOF 1
ENDMDL
MODEL 2
REMARK VINA RESULT:    -3.488      2.790      3.623
REMARK INTER + INTRA:          -3.708
REMARK INTER:                  -3.688
REMARK INTRA:                  -0.020
REMARK UNBOUND:                -0.017
REMARK SMILES O=C([O-])c1cccnc1
REMARK SMILES IDX 4 1 5 2 9 3 6 4 8 5 7 6 2 7 1 8 3 9
REMARK H PARENT
REMARK Flexibility Score: inf
ROOT
ATOM      1  C   UNL     1      32.046  10.042  31.228  1.00  0.00     0.016 A 
ATOM      2  C   UNL     1      32.533   9.624  32.478  1.00  0.00     0.013 A 
ATOM      3  C   UNL     1      31.194   9.177  30.520  1.00  0.00     0.120 A 
ATOM      4  C   UNL     1      32.171   8.376  32.990  1.00  0.00     0.021 A 
ATOM      5  N   UNL     1      30.857   7.967  31.041  1.00  0.00    -0.264 NA
ATOM      6  C   UNL     1      31.323   7.553  32.249  1.00  0.00     0.111 A 
ENDROOT
BRANCH   1   7
ATOM      7  C   UNL     1      32.422  11.361  30.676  1.00  0.00     0.073 C 
ATOM      8  O   UNL     1      32.752  11.479  29.466  1.00  0.00    -0.545 OA
ATOM      9  O   UNL     1      32.418  12.491  31.486  1.00  0.00    -0.545 OA
ENDBRANCH   1   7
TORSDOF 1
ENDMDL
MODEL 3
REMARK VINA RESULT:    -3.462      3.666      4.416
REMARK INTER + INTRA:          -3.681
REMARK INTER:                  -3.662
REMARK INTRA:                  -0.019
REMARK UNBOUND:                -0.017
REMARK SMILES O=C([O-])c1cccnc1
REMARK SMILES IDX 4 1 5 2 9 3 6 4 8 5 7 6 2 7 1 8 3 9
REMARK H PARENT
REMARK Flexibility Score: inf
ROOT
ATOM      1  C   UNL     1      32.282  11.163  29.547  1.00  0.00     0.016 A 
ATOM      2  C   UNL     1      33.015  11.859  30.522  1.00  0.00     0.013 A 
ATOM      3  C   UNL     1      31.605   9.992  29.931  1.00  0.00     0.120 A 
ATOM      4  C   UNL     1      33.063  11.387  31.835  1.00  0.00     0.021 A 
ATOM      5  N   UNL     1      31.668   9.553  31.217  1.00  0.00    -0.264 NA
ATOM      6  C   UNL     1      32.374  10.219  32.167  1.00  0.00     0.111 A 
ENDROOT
BRANCH   1   7
ATOM      7  C   UNL     1      32.224  11.653  28.154  1.00  0.00     0.073 C 
ATOM      8  O   UNL     1      32.417  10.867  27.189  1.00  0.00    -0.545 OA
ATOM      9  O   UNL     1      31.957  12.992  27.889  1.00  0.00    -0.545 OA
ENDBRANCH   1   7
TORSDOF 1
ENDMDL
MODEL 4
REMARK VINA RESULT:    -3.427      0.960      1.961
REMARK INTER + INTRA:          -3.644
REMARK INTER:                  -3.627
REMARK INTRA:                  -0.017
REMARK UNBOUND:                -0.017
REMARK SMILES O=C([O-])c1cccnc1
REMARK SMILES IDX 4 1 5 2 9 3 6 4 8 5 7 6 2 7 1 8 3 9
REMARK H PARENT
REMARK Flexibility Score: inf
ROOT
ATOM      1  C   UNL     1      32.140   9.665  32.190  1.00  0.00     0.016 A 
ATOM      2  C   UNL     1      31.527   9.528  30.934  1.00  0.00     0.013 A 
ATOM      3  C   UNL     1      32.948  10.793  32.420  1.00  0.00     0.120 A 
ATOM      4  C   UNL     1      31.724  10.497  29.948  1.00  0.00     0.021 A 
ATOM      5  N   UNL     1      33.124  11.721  31.443  1.00  0.00    -0.264 NA
ATOM      6  C   UNL     1      32.535  11.599  30.224  1.00  0.00     0.111 A 
ENDROOT
BRANCH   1   7
ATOM      7  C   UNL     1      31.939   8.646  33.242  1.00  0.00     0.073 C 
ATOM      8  O   UNL     1      31.365   8.945  34.323  1.00  0.00    -0.545 OA
ATOM      9  O   UNL     1      32.382   7.341  33.053  1.00  0.00    -0.545 OA
ENDBRANCH   1   7
TORSDOF 1
ENDMDL
MODEL 5
REMARK VINA RESULT:    -3.424      2.352      3.363
REMARK INTER + INTRA:          -3.641
REMARK INTER:                  -3.618
REMARK INTRA:                  -0.023
REMARK UNBOUND:                -0.017
REMARK SMILES O=C([O-])c1cccnc1
REMARK SMILES IDX 4 1 5 2 9 3 6 4 8 5 7 6 2 7 1 8 3 9
REMARK H PARENT
REMARK Flexibility Score: inf
ROOT
ATOM      1  C   UNL     1      32.115   9.789  32.139  1.00  0.00     0.016 A 
ATOM      2  C   UNL     1      32.157   8.676  32.996  1.00  0.00     0.013 A 
ATOM      3  C   UNL     1      31.430   9.665  30.917  1.00  0.00     0.120 A 
ATOM      4  C   UNL     1      31.532   7.483  32.628  1.00  0.00     0.021 A 
ATOM      5  N   UNL     1      30.830   8.492  30.583  1.00  0.00    -0.264 NA
ATOM      6  C   UNL     1      30.866   7.409  31.404  1.00  0.00     0.111 A 
ENDROOT
BRANCH   1   7
ATOM      7  C   UNL     1      32.773  11.057  32.518  1.00  0.00     0.073 C 
ATOM      8  O   UNL     1      33.023  11.315  33.725  1.00  0.00    -0.545 OA
ATOM      9  O   UNL     1      33.125  11.986  31.544  1.00  0.00    -0.545 OA
ENDBRANCH   1   7
TORSDOF 1
ENDMDL
MODEL 6
REMARK VINA RESULT:    -3.368      1.722      2.119
REMARK INTER + INTRA:          -3.581
REMARK INTER:                  -3.560
REMARK INTRA:                  -0.021
REMARK UNBOUND:                -0.017
REMARK SMILES O=C([O-])c1cccnc1
REMARK SMILES IDX 4 1 5 2 9 3 6 4 8 5 7 6 2 7 1 8 3 9
REMARK H PARENT
REMARK Flexibility Score: inf
ROOT
ATOM      1  C   UNL     1      31.615   9.255  31.169  1.00  0.00     0.016 A 
ATOM      2  C   UNL     1      32.306   9.315  32.391  1.00  0.00     0.013 A 
ATOM      3  C   UNL     1      31.692  10.361  30.304  1.00  0.00     0.120 A 
ATOM      4  C   UNL     1      33.045  10.451  32.725  1.00  0.00     0.021 A 
ATOM      5  N   UNL     1      32.419  11.457  30.653  1.00  0.00    -0.264 NA
ATOM      6  C   UNL     1      33.090  11.524  31.833  1.00  0.00     0.111 A 
ENDROOT
BRANCH   1   7
ATOM      7  C   UNL     1      30.830   8.057  30.804  1.00  0.00     0.073 C 
ATOM      8  O   UNL     1      30.752   7.682  29.604  1.00  0.00    -0.545 OA
ATOM      9  O   UNL     1      30.163   7.328  31.783  1.00  0.00    -0.545 OA
ENDBRANCH   1   7
TORSDOF 1
ENDMDL
MODEL 7
REMARK VINA RESULT:    -3.366      2.924      4.106
REMARK INTER + INTRA:          -3.580
REMARK INTER:                  -3.556
REMARK INTRA:                  -0.024
REMARK UNBOUND:                -0.017
REMARK SMILES O=C([O-])c1cccnc1
REMARK SMILES IDX 4 1 5 2 9 3 6 4 8 5 7 6 2 7 1 8 3 9
REMARK H PARENT
REMARK Flexibility Score: inf
ROOT
ATOM      1  C   UNL     1      32.025   9.862  33.334  1.00  0.00     0.016 A 
ATOM      2  C   UNL     1      32.439   8.712  32.642  1.00  0.00     0.013 A 
ATOM      3  C   UNL     1      31.291   9.699  34.521  1.00  0.00     0.120 A 
ATOM      4  C   UNL     1      32.120   7.445  33.134  1.00  0.00     0.021 A 
ATOM      5  N   UNL     1      30.992   8.454  34.978  1.00  0.00    -0.264 NA
ATOM      6  C   UNL     1      31.388   7.334  34.316  1.00  0.00     0.111 A 
ENDROOT
BRANCH   1   7
ATOM      7  C   UNL     1      32.358  11.209  32.823  1.00  0.00     0.073 C 
ATOM      8  O   UNL     1      31.950  12.240  33.421  1.00  0.00    -0.545 OA
ATOM      9  O   UNL     1      33.125  11.357  31.673  1.00  0.00    -0.545 OA
ENDBRANCH   1   7
TORSDOF 1
ENDMDL
MODEL 8
REMARK VINA RESULT:    -3.365      2.585      3.174
REMARK INTER + INTRA:          -3.579
REMARK INTER:                  -3.562
REMARK INTRA:                  -0.016
REMARK UNBOUND:                -0.017
REMARK SMILES O=C([O-])c1cccnc1
REMARK SMILES IDX 4 1 5 2 9 3 6 4 8 5 7 6 2 7 1 8 3 9
REMARK H PARENT
REMARK Flexibility Score: inf
ROOT
ATOM      1  C   UNL     1      31.705  10.361  34.724  1.00  0.00     0.016 A 
ATOM      2  C   UNL     1      32.651  11.146  34.043  1.00  0.00     0.013 A 
ATOM      3  C   UNL     1      31.176   9.235  34.069  1.00  0.00     0.120 A 
ATOM      4  C   UNL     1      33.043  10.805  32.748  1.00  0.00     0.021 A 
ATOM      5  N   UNL     1      31.575   8.925  32.807  1.00  0.00    -0.264 NA
ATOM      6  C   UNL     1      32.489   9.678  32.140  1.00  0.00     0.111 A 
ENDROOT
BRANCH   1   7
ATOM      7  C   UNL     1      31.281  10.712  36.096  1.00  0.00     0.073 C 
ATOM      8  O   UNL     1      31.962  10.346  37.091  1.00  0.00    -0.545 OA
ATOM      9  O   UNL     1      30.123  11.452  36.308  1.00  0.00    -0.545 OA
ENDBRANCH   1   7
TORSDOF 1
ENDMDL
MODEL 9
REMARK VINA RESULT:    -3.342      1.934      2.356
REMARK INTER + INTRA:          -3.554
REMARK INTER:                  -3.536
REMARK INTRA:                  -0.018
REMARK UNBOUND:                -0.017
REMARK SMILES O=C([O-])c1cccnc1
REMARK SMILES IDX 4 1 5 2 9 3 6 4 8 5 7 6 2 7 1 8 3 9
REMARK H PARENT
REMARK Flexibility Score: inf
ROOT
ATOM      1  C   UNL     1      31.658   8.965  33.804  1.00  0.00     0.016 A 
ATOM      2  C   UNL     1      32.447   9.211  32.668  1.00  0.00     0.013 A 
ATOM      3  C   UNL     1      31.272  10.059  34.598  1.00  0.00     0.120 A 
ATOM      4  C   UNL     1      32.831  10.515  32.350  1.00  0.00     0.021 A 
ATOM      5  N   UNL     1      31.659  11.320  34.266  1.00  0.00    -0.264 NA
ATOM      6  C   UNL     1      32.423  11.568  33.169  1.00  0.00     0.111 A 
ENDROOT
BRANCH   1   7
ATOM      7  C   UNL     1      31.245   7.589  34.152  1.00  0.00     0.073 C 
ATOM      8  O   UNL     1      30.585   6.892  33.336  1.00  0.00    -0.545 OA
ATOM      9  O   UNL     1      31.579   7.045  35.388  1.00  0.00    -0.545 OA
ENDBRANCH   1   7
TORSDOF 1
ENDMDL
