MODEL 1
REMARK VINA RESULT:    -5.896      0.000      0.000
REMARK INTER + INTRA:          -9.260
REMARK INTER:                  -7.964
REMARK INTRA:                  -1.297
REMARK UNBOUND:                -1.297
REMARK SMILES CC(=O)CCC=C(C)CCC=C(C)C
REMARK SMILES IDX 7 1 6 2 8 3 9 4 10 5 11 6 13 7 12 8 14 9 5 10 4 11 2 12 3 13
REMARK SMILES IDX 1 14
REMARK H PARENT
REMARK Flexibility Score: inf
ROOT
ATOM      1  C   UNL     1      -8.363  34.644  24.760  1.00  0.00    -0.077 C 
ATOM      2  C   UNL     1      -8.739  33.624  25.565  1.00  0.00    -0.028 C 
ATOM      3  C   UNL     1      -9.003  35.991  24.972  1.00  0.00     0.039 C 
ENDROOT
BRANCH   1   4
ATOM      4  C   UNL     1      -7.304  34.499  23.681  1.00  0.00     0.034 C 
BRANCH   4   5
ATOM      5  C   UNL     1      -7.892  34.690  22.274  1.00  0.00     0.032 C 
BRANCH   5   6
ATOM      6  C   UNL     1      -8.781  33.536  21.874  1.00  0.00    -0.028 C 
ATOM      7  C   UNL     1      -9.456  31.539  20.579  1.00  0.00     0.039 C 
ATOM      8  C   UNL     1      -8.510  32.676  20.867  1.00  0.00    -0.080 C 
ATOM      9  C   UNL     1      -7.310  32.845  19.968  1.00  0.00     0.039 C 
ENDBRANCH   5   6
ENDBRANCH   4   5
ENDBRANCH   1   4
BRANCH   2  10
ATOM     10  C   UNL     1      -8.254  32.198  25.440  1.00  0.00     0.035 C 
BRANCH  10  11
ATOM     11  C   UNL     1      -9.188  31.361  24.556  1.00  0.00     0.079 C 
BRANCH  11  12
ATOM     12  C   UNL     1      -8.498  30.136  24.018  1.00  0.00     0.130 C 
ATOM     13  O   UNL     1      -9.009  29.036  24.164  1.00  0.00    -0.300 OA
ATOM     14  C   UNL     1      -7.179  30.256  23.317  1.00  0.00     0.087 C 
ENDBRANCH  11  12
ENDBRANCH  10  11
ENDBRANCH   2  10
TORSDOF 6
ENDMDL
MODEL 2
REMARK VINA RESULT:    -5.806      2.124      4.512
REMARK INTER + INTRA:          -9.140
REMARK INTER:                  -8.078
REMARK INTRA:                  -1.062
REMARK UNBOUND:                -1.297
REMARK SMILES CC(=O)CCC=C(C)CCC=C(C)C
REMARK SMILES IDX 7 1 6 2 8 3 9 4 10 5 11 6 13 7 12 8 14 9 5 10 4 11 2 12 3 13
REMARK SMILES IDX 1 14
REMARK H PARENT
REMARK Flexibility Score: inf
ROOT
ATOM      1  C   UNL     1      -7.953  33.553  20.902  1.00  0.00    -0.077 C 
ATOM      2  C   UNL     1      -7.573  34.518  21.769  1.00  0.00    -0.028 C 
ATOM      3  C   UNL     1      -7.168  33.391  19.626  1.00  0.00     0.039 C 
ENDROOT
BRANCH   1   4
ATOM      4  C   UNL     1      -9.109  32.606  21.174  1.00  0.00     0.034 C 
BRANCH   4   5
ATOM      5  C   UNL     1      -8.620  31.209  21.587  1.00  0.00     0.032 C 
BRANCH   5   6
ATOM      6  C   UNL     1      -8.774  30.974  23.071  1.00  0.00    -0.028 C 
ATOM      7  C   UNL     1      -8.111  30.191  25.322  1.00  0.00     0.039 C 
ATOM      8  C   UNL     1      -7.865  30.337  23.844  1.00  0.00    -0.080 C 
ATOM      9  C   UNL     1      -6.623  29.705  23.265  1.00  0.00     0.039 C 
ENDBRANCH   5   6
ENDBRANCH   4   5
ENDBRANCH   1   4
BRANCH   2  10
ATOM     10  C   UNL     1      -8.293  34.863  23.052  1.00  0.00     0.035 C 
BRANCH  10  11
ATOM     11  C   UNL     1      -7.568  34.289  24.277  1.00  0.00     0.079 C 
BRANCH  11  12
ATOM     12  C   UNL     1      -8.289  34.617  25.557  1.00  0.00     0.130 C 
ATOM     13  O   UNL     1      -8.885  35.679  25.664  1.00  0.00    -0.300 OA
ATOM     14  C   UNL     1      -8.267  33.657  26.708  1.00  0.00     0.087 C 
ENDBRANCH  11  12
ENDBRANCH  10  11
ENDBRANCH   2  10
TORSDOF 6
ENDMDL
MODEL 3
REMARK VINA RESULT:    -5.726      1.106      4.071
REMARK INTER + INTRA:          -9.031
REMARK INTER:                  -7.708
REMARK INTRA:                  -1.323
REMARK UNBOUND:                -1.297
REMARK SMILES CC(=O)CCC=C(C)CCC=C(C)C
REMARK SMILES IDX 7 1 6 2 8 3 9 4 10 5 11 6 13 7 12 8 14 9 5 10 4 11 2 12 3 13
REMARK SMILES IDX 1 14
REMARK H PARENT
REMARK Flexibility Score: inf
ROOT
ATOM      1  C   UNL     1      -7.911  32.800  20.882  1.00  0.00    -0.077 C 
ATOM      2  C   UNL     1      -7.936  31.473  21.137  1.00  0.00    -0.028 C 
ATOM      3  C   UNL     1      -7.076  33.288  19.727  1.00  0.00     0.039 C 
ENDROOT
BRANCH   1   4
ATOM      4  C   UNL     1      -8.712  33.811  21.684  1.00  0.00     0.034 C 
BRANCH   4   5
ATOM      5  C   UNL     1      -7.801  34.797  22.433  1.00  0.00     0.032 C 
BRANCH   5   6
ATOM      6  C   UNL     1      -7.604  34.397  23.876  1.00  0.00    -0.028 C 
ATOM      7  C   UNL     1      -7.992  34.459  26.318  1.00  0.00     0.039 C 
ATOM      8  C   UNL     1      -8.245  34.965  24.922  1.00  0.00    -0.080 C 
ATOM      9  C   UNL     1      -9.175  36.140  24.750  1.00  0.00     0.039 C 
ENDBRANCH   5   6
ENDBRANCH   4   5
ENDBRANCH   1   4
BRANCH   2  10
ATOM     10  C   UNL     1      -8.657  30.827  22.298  1.00  0.00     0.035 C 
BRANCH  10  11
ATOM     11  C   UNL     1      -7.746  30.695  23.525  1.00  0.00     0.079 C 
BRANCH  11  12
ATOM     12  C   UNL     1      -8.490  30.971  24.804  1.00  0.00     0.130 C 
ATOM     13  O   UNL     1      -7.959  30.737  25.880  1.00  0.00    -0.300 OA
ATOM     14  C   UNL     1      -9.885  31.517  24.767  1.00  0.00     0.087 C 
ENDBRANCH  11  12
ENDBRANCH  10  11
ENDBRANCH   2  10
TORSDOF 6
ENDMDL
MODEL 4
REMARK VINA RESULT:    -5.526      1.787      3.893
REMARK INTER + INTRA:          -8.761
REMARK INTER:                  -7.309
REMARK INTRA:                  -1.452
REMARK UNBOUND:                -1.297
REMARK SMILES CC(=O)CCC=C(C)CCC=C(C)C
REMARK SMILES IDX 7 1 6 2 8 3 9 4 10 5 11 6 13 7 12 8 14 9 5 10 4 11 2 12 3 13
REMARK SMILES IDX 1 14
REMARK H PARENT
REMARK Flexibility Score: inf
ROOT
ATOM      1  C   UNL     1      -8.640  32.412  26.258  1.00  0.00    -0.077 C 
ATOM      2  C   UNL     1      -8.521  33.319  25.263  1.00  0.00    -0.028 C 
ATOM      3  C   UNL     1      -7.858  32.639  27.526  1.00  0.00     0.039 C 
ENDROOT
BRANCH   1   4
ATOM      4  C   UNL     1      -9.550  31.200  26.168  1.00  0.00     0.034 C 
BRANCH   4   5
ATOM      5  C   UNL     1      -8.787  29.944  25.717  1.00  0.00     0.032 C 
BRANCH   5   6
ATOM      6  C   UNL     1      -9.183  29.513  24.325  1.00  0.00    -0.028 C 
ATOM      7  C   UNL     1      -8.844  29.008  21.927  1.00  0.00     0.039 C 
ATOM      8  C   UNL     1      -8.345  29.490  23.264  1.00  0.00    -0.080 C 
ATOM      9  C   UNL     1      -6.924  29.989  23.353  1.00  0.00     0.039 C 
ENDBRANCH   5   6
ENDBRANCH   4   5
ENDBRANCH   1   4
BRANCH   2  10
ATOM     10  C   UNL     1      -9.173  33.205  23.904  1.00  0.00     0.035 C 
BRANCH  10  11
ATOM     11  C   UNL     1      -8.169  33.462  22.773  1.00  0.00     0.079 C 
BRANCH  11  12
ATOM     12  C   UNL     1      -8.614  32.837  21.478  1.00  0.00     0.130 C 
ATOM     13  O   UNL     1      -9.770  32.463  21.349  1.00  0.00    -0.300 OA
ATOM     14  C   UNL     1      -7.644  32.655  20.351  1.00  0.00     0.087 C 
ENDBRANCH  11  12
ENDBRANCH  10  11
ENDBRANCH   2  10
TORSDOF 6
ENDMDL
MODEL 5
REMARK VINA RESULT:    -5.329      1.619      4.362
REMARK INTER + INTRA:          -8.495
REMARK INTER:                  -7.581
REMARK INTRA:                  -0.914
REMARK UNBOUND:                -1.297
REMARK SMILES CC(=O)CCC=C(C)CCC=C(C)C
REMARK SMILES IDX 7 1 6 2 8 3 9 4 10 5 11 6 13 7 12 8 14 9 5 10 4 11 2 12 3 13
REMARK SMILES IDX 1 14
REMARK H PARENT
REMARK Flexibility Score: inf
ROOT
ATOM      1  C   UNL     1      -8.310  30.187  25.364  1.00  0.00    -0.077 C 
ATOM      2  C   UNL     1      -7.880  29.722  24.169  1.00  0.00    -0.028 C 
ATOM      3  C   UNL     1      -7.596  29.725  26.607  1.00  0.00     0.039 C 
ENDROOT
BRANCH   1   4
ATOM      4  C   UNL     1      -9.452  31.178  25.502  1.00  0.00     0.034 C 
BRANCH   4   5
ATOM      5  C   UNL     1      -8.944  32.606  25.752  1.00  0.00     0.032 C 
BRANCH   5   6
ATOM      6  C   UNL     1      -8.300  33.198  24.520  1.00  0.00    -0.028 C 
ATOM      7  C   UNL     1      -7.473  34.997  23.037  1.00  0.00     0.039 C 
ATOM      8  C   UNL     1      -8.165  34.523  24.288  1.00  0.00    -0.080 C 
ATOM      9  C   UNL     1      -8.740  35.562  25.219  1.00  0.00     0.039 C 
ENDBRANCH   5   6
ENDBRANCH   4   5
ENDBRANCH   1   4
BRANCH   2  10
ATOM     10  C   UNL     1      -8.527  30.025  22.837  1.00  0.00     0.035 C 
BRANCH  10  11
ATOM     11  C   UNL     1      -7.582  30.807  21.916  1.00  0.00     0.079 C 
BRANCH  11  12
ATOM     12  C   UNL     1      -8.312  31.872  21.143  1.00  0.00     0.130 C 
ATOM     13  O   UNL     1      -9.517  32.013  21.289  1.00  0.00    -0.300 OA
ATOM     14  C   UNL     1      -7.572  32.753  20.182  1.00  0.00     0.087 C 
ENDBRANCH  11  12
ENDBRANCH  10  11
ENDBRANCH   2  10
TORSDOF 6
ENDMDL
MODEL 6
REMARK VINA RESULT:    -5.329      2.155      4.185
REMARK INTER + INTRA:          -8.495
REMARK INTER:                  -7.351
REMARK INTRA:                  -1.144
REMARK UNBOUND:                -1.297
REMARK SMILES CC(=O)CCC=C(C)CCC=C(C)C
REMARK SMILES IDX 7 1 6 2 8 3 9 4 10 5 11 6 13 7 12 8 14 9 5 10 4 11 2 12 3 13
REMARK SMILES IDX 1 14
REMARK H PARENT
REMARK Flexibility Score: inf
ROOT
ATOM      1  C   UNL     1      -8.867  30.122  25.149  1.00  0.00    -0.077 C 
ATOM      2  C   UNL     1      -9.624  31.228  25.329  1.00  0.00    -0.028 C 
ATOM      3  C   UNL     1      -9.236  28.875  25.910  1.00  0.00     0.039 C 
ENDROOT
BRANCH   1   4
ATOM      4  C   UNL     1      -7.690  30.073  24.191  1.00  0.00     0.034 C 
BRANCH   4   5
ATOM      5  C   UNL     1      -8.146  29.914  22.732  1.00  0.00     0.032 C 
BRANCH   5   6
ATOM      6  C   UNL     1      -7.529  30.959  21.832  1.00  0.00    -0.028 C 
ATOM      7  C   UNL     1      -7.507  32.882  20.276  1.00  0.00     0.039 C 
ATOM      8  C   UNL     1      -8.233  31.863  21.114  1.00  0.00    -0.080 C 
ATOM      9  C   UNL     1      -9.741  31.855  21.073  1.00  0.00     0.039 C 
ENDBRANCH   5   6
ENDBRANCH   4   5
ENDBRANCH   1   4
BRANCH   2  10
ATOM     10  C   UNL     1      -9.349  32.577  24.705  1.00  0.00     0.035 C 
BRANCH  10  11
ATOM     11  C   UNL     1      -8.557  33.487  25.653  1.00  0.00     0.079 C 
BRANCH  11  12
ATOM     12  C   UNL     1      -8.153  34.773  24.985  1.00  0.00     0.130 C 
ATOM     13  O   UNL     1      -8.155  35.816  25.622  1.00  0.00    -0.300 OA
ATOM     14  C   UNL     1      -7.765  34.787  23.538  1.00  0.00     0.087 C 
ENDBRANCH  11  12
ENDBRANCH  10  11
ENDBRANCH   2  10
TORSDOF 6
ENDMDL
MODEL 7
REMARK VINA RESULT:    -5.323      1.733      3.818
REMARK INTER + INTRA:          -8.487
REMARK INTER:                  -7.448
REMARK INTRA:                  -1.038
REMARK UNBOUND:                -1.297
REMARK SMILES CC(=O)CCC=C(C)CCC=C(C)C
REMARK SMILES IDX 7 1 6 2 8 3 9 4 10 5 11 6 13 7 12 8 14 9 5 10 4 11 2 12 3 13
REMARK SMILES IDX 1 14
REMARK H PARENT
REMARK Flexibility Score: inf
ROOT
ATOM      1  C   UNL     1      -7.921  29.826  23.704  1.00  0.00    -0.077 C 
ATOM      2  C   UNL     1      -8.291  29.869  25.003  1.00  0.00    -0.028 C 
ATOM      3  C   UNL     1      -6.461  29.638  23.385  1.00  0.00     0.039 C 
ENDROOT
BRANCH   1   4
ATOM      4  C   UNL     1      -8.913  29.923  22.558  1.00  0.00     0.034 C 
BRANCH   4   5
ATOM      5  C   UNL     1      -8.461  30.936  21.494  1.00  0.00     0.032 C 
BRANCH   5   6
ATOM      6  C   UNL     1      -8.348  32.332  22.059  1.00  0.00    -0.028 C 
ATOM      7  C   UNL     1      -7.863  34.758  22.024  1.00  0.00     0.039 C 
ATOM      8  C   UNL     1      -7.900  33.404  21.366  1.00  0.00    -0.080 C 
ATOM      9  C   UNL     1      -7.373  33.285  19.958  1.00  0.00     0.039 C 
ENDBRANCH   5   6
ENDBRANCH   4   5
ENDBRANCH   1   4
BRANCH   2  10
ATOM     10  C   UNL     1      -9.697  30.126  25.496  1.00  0.00     0.035 C 
BRANCH  10  11
ATOM     11  C   UNL     1     -10.061  31.614  25.411  1.00  0.00     0.079 C 
BRANCH  11  12
ATOM     12  C   UNL     1      -9.149  32.461  26.258  1.00  0.00     0.130 C 
ATOM     13  O   UNL     1      -9.049  32.238  27.455  1.00  0.00    -0.300 OA
ATOM     14  C   UNL     1      -8.373  33.587  25.644  1.00  0.00     0.087 C 
ENDBRANCH  11  12
ENDBRANCH  10  11
ENDBRANCH   2  10
TORSDOF 6
ENDMDL
MODEL 8
REMARK VINA RESULT:    -5.270      1.433      3.027
REMARK INTER + INTRA:          -8.415
REMARK INTER:                  -7.218
REMARK INTRA:                  -1.197
REMARK UNBOUND:                -1.297
REMARK SMILES CC(=O)CCC=C(C)CCC=C(C)C
REMARK SMILES IDX 7 1 6 2 8 3 9 4 10 5 11 6 13 7 12 8 14 9 5 10 4 11 2 12 3 13
REMARK SMILES IDX 1 14
REMARK H PARENT
REMARK Flexibility Score: inf
ROOT
ATOM      1  C   UNL     1      -8.479  33.847  22.468  1.00  0.00    -0.077 C 
ATOM      2  C   UNL     1      -8.404  33.763  23.815  1.00  0.00    -0.028 C 
ATOM      3  C   UNL     1      -7.640  34.887  21.771  1.00  0.00     0.039 C 
ENDROOT
BRANCH   1   4
ATOM      4  C   UNL     1      -9.342  32.922  21.628  1.00  0.00     0.034 C 
BRANCH   4   5
ATOM      5  C   UNL     1      -8.506  31.836  20.932  1.00  0.00     0.032 C 
BRANCH   5   6
ATOM      6  C   UNL     1      -7.480  31.234  21.862  1.00  0.00    -0.028 C 
ATOM      7  C   UNL     1      -6.500  29.516  23.349  1.00  0.00     0.039 C 
ATOM      8  C   UNL     1      -7.607  30.031  22.467  1.00  0.00    -0.080 C 
ATOM      9  C   UNL     1      -8.858  29.198  22.338  1.00  0.00     0.039 C 
ENDBRANCH   5   6
ENDBRANCH   4   5
ENDBRANCH   1   4
BRANCH   2  10
ATOM     10  C   UNL     1      -9.231  32.832  24.672  1.00  0.00     0.035 C 
BRANCH  10  11
ATOM     11  C   UNL     1      -8.402  32.235  25.817  1.00  0.00     0.079 C 
BRANCH  11  12
ATOM     12  C   UNL     1      -8.688  30.770  26.008  1.00  0.00     0.130 C 
ATOM     13  O   UNL     1      -9.726  30.291  25.576  1.00  0.00    -0.300 OA
ATOM     14  C   UNL     1      -7.714  29.896  26.739  1.00  0.00     0.087 C 
ENDBRANCH  11  12
ENDBRANCH  10  11
ENDBRANCH   2  10
TORSDOF 6
ENDMDL
MODEL 9
REMARK VINA RESULT:    -5.077      2.337      4.988
REMARK INTER + INTRA:          -8.155
REMARK INTER:                  -7.032
REMARK INTRA:                  -1.123
REMARK UNBOUND:                -1.297
REMARK SMILES CC(=O)CCC=C(C)CCC=C(C)C
REMARK SMILES IDX 7 1 6 2 8 3 9 4 10 5 11 6 13 7 12 8 14 9 5 10 4 11 2 12 3 13
REMARK SMILES IDX 1 14
REMARK H PARENT
REMARK Flexibility Score: inf
ROOT
ATOM      1  C   UNL     1      -8.499  31.794  21.888  1.00  0.00    -0.077 C 
ATOM      2  C   UNL     1      -8.569  33.028  22.436  1.00  0.00    -0.028 C 
ATOM      3  C   UNL     1      -9.419  31.471  20.739  1.00  0.00     0.039 C 
ENDROOT
BRANCH   1   4
ATOM      4  C   UNL     1      -7.514  30.736  22.355  1.00  0.00     0.034 C 
BRANCH   4   5
ATOM      5  C   UNL     1      -8.228  29.499  22.919  1.00  0.00     0.032 C 
BRANCH   5   6
ATOM      6  C   UNL     1      -9.265  29.869  23.954  1.00  0.00    -0.028 C 
ATOM      7  C   UNL     1     -10.108  30.497  26.193  1.00  0.00     0.039 C 
ATOM      8  C   UNL     1      -8.996  30.100  25.259  1.00  0.00    -0.080 C 
ATOM      9  C   UNL     1      -7.614  29.917  25.836  1.00  0.00     0.039 C 
ENDBRANCH   5   6
ENDBRANCH   4   5
ENDBRANCH   1   4
BRANCH   2  10
ATOM     10  C   UNL     1      -7.775  33.489  23.636  1.00  0.00     0.035 C 
BRANCH  10  11
ATOM     11  C   UNL     1      -8.226  34.877  24.110  1.00  0.00     0.079 C 
BRANCH  11  12
ATOM     12  C   UNL     1      -8.374  34.935  25.607  1.00  0.00     0.130 C 
ATOM     13  O   UNL     1      -8.586  36.005  26.157  1.00  0.00    -0.300 OA
ATOM     14  C   UNL     1      -8.246  33.689  26.430  1.00  0.00     0.087 C 
ENDBRANCH  11  12
ENDBRANCH  10  11
ENDBRANCH   2  10
TORSDOF 6
ENDMDL
