MODEL 1
REMARK VINA RESULT:    -4.278      0.000      0.000
REMARK INTER + INTRA:          -6.690
REMARK INTER:                  -6.029
REMARK INTRA:                  -0.661
REMARK UNBOUND:                -0.661
REMARK SMILES CCCCCCCCC(=O)[O-]
REMARK SMILES IDX 6 1 7 2 8 3 9 4 10 5 11 6 5 7 4 8 3 9 2 10 1 11
REMARK H PARENT
REMARK Flexibility Score: inf
ROOT
ATOM      1  C   UNL     1       6.716   3.123  19.018  1.00  0.00     0.000 C 
ENDROOT
BRANCH   1   2
ATOM      2  C   UNL     1       6.379   4.130  17.900  1.00  0.00     0.006 C 
BRANCH   2   3
ATOM      3  C   UNL     1       7.488   5.154  17.608  1.00  0.00     0.053 C 
BRANCH   3   4
ATOM      4  C   UNL     1       6.984   6.562  17.677  1.00  0.00     0.041 C 
ATOM      5  O   UNL     1       7.655   7.500  17.172  1.00  0.00    -0.550 OA
ATOM      6  O   UNL     1       5.758   6.835  18.270  1.00  0.00    -0.550 OA
ENDBRANCH   3   4
ENDBRANCH   2   3
ENDBRANCH   1   2
BRANCH   1   7
ATOM      7  C   UNL     1       8.162   3.188  19.541  1.00  0.00     0.000 C 
BRANCH   7   8
ATOM      8  C   UNL     1       8.244   3.544  21.033  1.00  0.00    -0.000 C 
BRANCH   8   9
ATOM      9  C   UNL     1       8.610   5.021  21.226  1.00  0.00    -0.000 C 
BRANCH   9  10
ATOM     10  C   UNL     1       7.380   5.845  21.624  1.00  0.00    -0.003 C 
ATOM     11  C   UNL     1       6.738   5.297  22.895  1.00  0.00     0.004 C 
ENDBRANCH   9  10
ENDBRANCH   8   9
ENDBRANCH   7   8
ENDBRANCH   1   7
TORSDOF 7
ENDMDL
MODEL 2
REMARK VINA RESULT:    -4.231      2.232      4.403
REMARK INTER + INTRA:          -6.623
REMARK INTER:                  -6.111
REMARK INTRA:                  -0.512
REMARK UNBOUND:                -0.661
REMARK SMILES CCCCCCCCC(=O)[O-]
REMARK SMILES IDX 6 1 7 2 8 3 9 4 10 5 11 6 5 7 4 8 3 9 2 10 1 11
REMARK H PARENT
REMARK Flexibility Score: inf
ROOT
ATOM      1  C   UNL     1       6.994   3.444  19.784  1.00  0.00     0.000 C 
ENDROOT
BRANCH   1   2
ATOM      2  C   UNL     1       8.208   3.410  20.735  1.00  0.00     0.006 C 
BRANCH   2   3
ATOM      3  C   UNL     1       8.595   4.777  21.324  1.00  0.00     0.053 C 
BRANCH   3   4
ATOM      4  C   UNL     1       7.501   5.354  22.168  1.00  0.00     0.041 C 
ATOM      5  O   UNL     1       7.275   4.888  23.316  1.00  0.00    -0.550 OA
ATOM      6  O   UNL     1       6.754   6.428  21.702  1.00  0.00    -0.550 OA
ENDBRANCH   3   4
ENDBRANCH   2   3
ENDBRANCH   1   2
BRANCH   1   7
ATOM      7  C   UNL     1       7.311   3.857  18.336  1.00  0.00     0.000 C 
BRANCH   7   8
ATOM      8  C   UNL     1       6.593   5.145  17.908  1.00  0.00    -0.000 C 
BRANCH   8   9
ATOM      9  C   UNL     1       7.428   6.382  18.261  1.00  0.00    -0.000 C 
BRANCH   9  10
ATOM     10  C   UNL     1       7.675   7.251  17.022  1.00  0.00    -0.003 C 
ATOM     11  C   UNL     1       8.221   6.419  15.866  1.00  0.00     0.004 C 
ENDBRANCH   9  10
ENDBRANCH   8   9
ENDBRANCH   7   8
ENDBRANCH   1   7
TORSDOF 7
ENDMDL
MODEL 3
REMARK VINA RESULT:    -4.028      3.858      5.159
REMARK INTER + INTRA:          -6.338
REMARK INTER:                  -6.031
REMARK INTRA:                  -0.307
REMARK UNBOUND:                -0.661
REMARK SMILES CCCCCCCCC(=O)[O-]
REMARK SMILES IDX 6 1 7 2 8 3 9 4 10 5 11 6 5 7 4 8 3 9 2 10 1 11
REMARK H PARENT
REMARK Flexibility Score: inf
ROOT
ATOM      1  C   UNL     1       8.398   5.696  15.188  1.00  0.00     0.000 C 
ENDROOT
BRANCH   1   2
ATOM      2  C   UNL     1       9.396   5.451  14.038  1.00  0.00     0.006 C 
BRANCH   2   3
ATOM      3  C   UNL     1      10.602   6.405  14.026  1.00  0.00     0.053 C 
BRANCH   3   4
ATOM      4  C   UNL     1      10.595   7.303  12.827  1.00  0.00     0.041 C 
ATOM      5  O   UNL     1      10.049   6.925  11.757  1.00  0.00    -0.550 OA
ATOM      6  O   UNL     1      11.162   8.568  12.901  1.00  0.00    -0.550 OA
ENDBRANCH   3   4
ENDBRANCH   2   3
ENDBRANCH   1   2
BRANCH   1   7
ATOM      7  C   UNL     1       8.553   7.046  15.910  1.00  0.00     0.000 C 
BRANCH   7   8
ATOM      8  C   UNL     1       7.652   7.171  17.147  1.00  0.00    -0.000 C 
BRANCH   8   9
ATOM      9  C   UNL     1       7.443   5.807  17.815  1.00  0.00    -0.000 C 
BRANCH   9  10
ATOM     10  C   UNL     1       7.183   5.965  19.318  1.00  0.00    -0.003 C 
ATOM     11  C   UNL     1       8.034   4.992  20.129  1.00  0.00     0.004 C 
ENDBRANCH   9  10
ENDBRANCH   8   9
ENDBRANCH   7   8
ENDBRANCH   1   7
TORSDOF 7
ENDMDL
MODEL 4
REMARK VINA RESULT:    -4.019     12.739     14.250
REMARK INTER + INTRA:          -6.325
REMARK INTER:                  -6.047
REMARK INTRA:                  -0.278
REMARK UNBOUND:                -0.661
REMARK SMILES CCCCCCCCC(=O)[O-]
REMARK SMILES IDX 6 1 7 2 8 3 9 4 10 5 11 6 5 7 4 8 3 9 2 10 1 11
REMARK H PARENT
REMARK Flexibility Score: inf
ROOT
ATOM      1  C   UNL     1      10.094  -2.317   8.369  1.00  0.00     0.000 C 
ENDROOT
BRANCH   1   2
ATOM      2  C   UNL     1       9.228  -2.665   9.597  1.00  0.00     0.006 C 
BRANCH   2   3
ATOM      3  C   UNL     1       7.940  -1.835   9.725  1.00  0.00     0.053 C 
BRANCH   3   4
ATOM      4  C   UNL     1       6.883  -2.557  10.504  1.00  0.00     0.041 C 
ATOM      5  O   UNL     1       6.139  -1.923  11.299  1.00  0.00    -0.550 OA
ATOM      6  O   UNL     1       6.698  -3.921  10.328  1.00  0.00    -0.550 OA
ENDBRANCH   3   4
ENDBRANCH   2   3
ENDBRANCH   1   2
BRANCH   1   7
ATOM      7  C   UNL     1      10.710  -3.525   7.642  1.00  0.00     0.000 C 
BRANCH   7   8
ATOM      8  C   UNL     1      12.039  -3.193   6.947  1.00  0.00    -0.000 C 
BRANCH   8   9
ATOM      9  C   UNL     1      12.808  -2.114   7.720  1.00  0.00    -0.000 C 
BRANCH   9  10
ATOM     10  C   UNL     1      14.321  -2.352   7.638  1.00  0.00    -0.003 C 
ATOM     11  C   UNL     1      14.631  -3.770   7.168  1.00  0.00     0.004 C 
ENDBRANCH   9  10
ENDBRANCH   8   9
ENDBRANCH   7   8
ENDBRANCH   1   7
TORSDOF 7
ENDMDL
MODEL 5
REMARK VINA RESULT:    -3.984      9.019     10.335
REMARK INTER + INTRA:          -6.276
REMARK INTER:                  -5.948
REMARK INTRA:                  -0.329
REMARK UNBOUND:                -0.661
REMARK SMILES CCCCCCCCC(=O)[O-]
REMARK SMILES IDX 6 1 7 2 8 3 9 4 10 5 11 6 5 7 4 8 3 9 2 10 1 11
REMARK H PARENT
REMARK Flexibility Score: inf
ROOT
ATOM      1  C   UNL     1      10.761  -3.739  15.500  1.00  0.00     0.000 C 
ENDROOT
BRANCH   1   2
ATOM      2  C   UNL     1      12.124  -3.122  15.877  1.00  0.00     0.006 C 
BRANCH   2   3
ATOM      3  C   UNL     1      13.288  -4.126  15.917  1.00  0.00     0.053 C 
BRANCH   3   4
ATOM      4  C   UNL     1      14.620  -3.441  15.893  1.00  0.00     0.041 C 
ATOM      5  O   UNL     1      15.162  -3.150  14.793  1.00  0.00    -0.550 OA
ATOM      6  O   UNL     1      15.247  -3.094  17.082  1.00  0.00    -0.550 OA
ENDBRANCH   3   4
ENDBRANCH   2   3
ENDBRANCH   1   2
BRANCH   1   7
ATOM      7  C   UNL     1      10.084  -4.556  16.615  1.00  0.00     0.000 C 
BRANCH   7   8
ATOM      8  C   UNL     1       8.651  -4.093  16.912  1.00  0.00    -0.000 C 
BRANCH   8   9
ATOM      9  C   UNL     1       8.496  -2.589  16.659  1.00  0.00    -0.000 C 
BRANCH   9  10
ATOM     10  C   UNL     1       8.632  -1.795  17.964  1.00  0.00    -0.003 C 
ATOM     11  C   UNL     1       7.594  -0.679  18.041  1.00  0.00     0.004 C 
ENDBRANCH   9  10
ENDBRANCH   8   9
ENDBRANCH   7   8
ENDBRANCH   1   7
TORSDOF 7
ENDMDL
MODEL 6
REMARK VINA RESULT:    -3.976     14.996     16.379
REMARK INTER + INTRA:          -6.264
REMARK INTER:                  -5.735
REMARK INTRA:                  -0.529
REMARK UNBOUND:                -0.661
REMARK SMILES CCCCCCCCC(=O)[O-]
REMARK SMILES IDX 6 1 7 2 8 3 9 4 10 5 11 6 5 7 4 8 3 9 2 10 1 11
REMARK H PARENT
REMARK Flexibility Score: inf
ROOT
ATOM      1  C   UNL     1      14.324  -0.925   7.792  1.00  0.00     0.000 C 
ENDROOT
BRANCH   1   2
ATOM      2  C   UNL     1      13.278  -1.294   6.720  1.00  0.00     0.006 C 
BRANCH   2   3
ATOM      3  C   UNL     1      12.825  -2.763   6.751  1.00  0.00     0.053 C 
BRANCH   3   4
ATOM      4  C   UNL     1      11.499  -2.926   7.429  1.00  0.00     0.041 C 
ATOM      5  O   UNL     1      11.033  -1.997   8.140  1.00  0.00    -0.550 OA
ATOM      6  O   UNL     1      10.764  -4.090   7.250  1.00  0.00    -0.550 OA
ENDBRANCH   3   4
ENDBRANCH   2   3
ENDBRANCH   1   2
BRANCH   1   7
ATOM      7  C   UNL     1      15.706  -1.575   7.606  1.00  0.00     0.000 C 
BRANCH   7   8
ATOM      8  C   UNL     1      16.021  -2.631   8.677  1.00  0.00    -0.000 C 
BRANCH   8   9
ATOM      9  C   UNL     1      16.042  -4.039   8.070  1.00  0.00    -0.000 C 
BRANCH   9  10
ATOM     10  C   UNL     1      16.670  -4.027   6.672  1.00  0.00    -0.003 C 
ATOM     11  C   UNL     1      18.168  -4.310   6.739  1.00  0.00     0.004 C 
ENDBRANCH   9  10
ENDBRANCH   8   9
ENDBRANCH   7   8
ENDBRANCH   1   7
TORSDOF 7
ENDMDL
MODEL 7
REMARK VINA RESULT:    -3.935     15.071     16.339
REMARK INTER + INTRA:          -6.207
REMARK INTER:                  -5.854
REMARK INTRA:                  -0.353
REMARK UNBOUND:                -0.661
REMARK SMILES CCCCCCCCC(=O)[O-]
REMARK SMILES IDX 6 1 7 2 8 3 9 4 10 5 11 6 5 7 4 8 3 9 2 10 1 11
REMARK H PARENT
REMARK Flexibility Score: inf
ROOT
ATOM      1  C   UNL     1      15.109  -1.012   7.889  1.00  0.00     0.000 C 
ENDROOT
BRANCH   1   2
ATOM      2  C   UNL     1      15.267  -2.342   8.654  1.00  0.00     0.006 C 
BRANCH   2   3
ATOM      3  C   UNL     1      15.709  -3.530   7.783  1.00  0.00     0.053 C 
BRANCH   3   4
ATOM      4  C   UNL     1      16.923  -4.210   8.338  1.00  0.00     0.041 C 
ATOM      5  O   UNL     1      18.043  -3.632   8.304  1.00  0.00    -0.550 OA
ATOM      6  O   UNL     1      16.814  -5.466   8.919  1.00  0.00    -0.550 OA
ENDBRANCH   3   4
ENDBRANCH   2   3
ENDBRANCH   1   2
BRANCH   1   7
ATOM      7  C   UNL     1      13.712  -0.765   7.292  1.00  0.00     0.000 C 
BRANCH   7   8
ATOM      8  C   UNL     1      12.656  -1.752   7.809  1.00  0.00    -0.000 C 
BRANCH   8   9
ATOM      9  C   UNL     1      12.198  -2.701   6.695  1.00  0.00    -0.000 C 
BRANCH   9  10
ATOM     10  C   UNL     1      11.012  -3.557   7.153  1.00  0.00    -0.003 C 
ATOM     11  C   UNL     1      10.274  -2.898   8.315  1.00  0.00     0.004 C 
ENDBRANCH   9  10
ENDBRANCH   8   9
ENDBRANCH   7   8
ENDBRANCH   1   7
TORSDOF 7
ENDMDL
MODEL 8
REMARK VINA RESULT:    -3.908     13.603     15.013
REMARK INTER + INTRA:          -6.169
REMARK INTER:                  -5.927
REMARK INTRA:                  -0.242
REMARK UNBOUND:                -0.661
REMARK SMILES CCCCCCCCC(=O)[O-]
REMARK SMILES IDX 6 1 7 2 8 3 9 4 10 5 11 6 5 7 4 8 3 9 2 10 1 11
REMARK H PARENT
REMARK Flexibility Score: inf
ROOT
ATOM      1  C   UNL     1      11.349  -3.382   7.253  1.00  0.00     0.000 C 
ENDROOT
BRANCH   1   2
ATOM      2  C   UNL     1      10.834  -2.251   8.166  1.00  0.00     0.006 C 
BRANCH   2   3
ATOM      3  C   UNL     1       9.685  -2.662   9.102  1.00  0.00     0.053 C 
BRANCH   3   4
ATOM      4  C   UNL     1       8.639  -1.595   9.207  1.00  0.00     0.041 C 
ATOM      5  O   UNL     1       8.882  -0.428   8.799  1.00  0.00    -0.550 OA
ATOM      6  O   UNL     1       7.386  -1.896   9.725  1.00  0.00    -0.550 OA
ENDBRANCH   3   4
ENDBRANCH   2   3
ENDBRANCH   1   2
BRANCH   1   7
ATOM      7  C   UNL     1      12.369  -2.945   6.185  1.00  0.00     0.000 C 
BRANCH   7   8
ATOM      8  C   UNL     1      13.723  -2.533   6.782  1.00  0.00    -0.000 C 
BRANCH   8   9
ATOM      9  C   UNL     1      14.587  -3.764   7.084  1.00  0.00    -0.000 C 
BRANCH   9  10
ATOM     10  C   UNL     1      15.520  -3.502   8.271  1.00  0.00    -0.003 C 
ATOM     11  C   UNL     1      16.665  -4.510   8.305  1.00  0.00     0.004 C 
ENDBRANCH   9  10
ENDBRANCH   8   9
ENDBRANCH   7   8
ENDBRANCH   1   7
TORSDOF 7
ENDMDL
MODEL 9
REMARK VINA RESULT:    -3.850     12.426     13.815
REMARK INTER + INTRA:          -6.087
REMARK INTER:                  -5.392
REMARK INTRA:                  -0.695
REMARK UNBOUND:                -0.661
REMARK SMILES CCCCCCCCC(=O)[O-]
REMARK SMILES IDX 6 1 7 2 8 3 9 4 10 5 11 6 5 7 4 8 3 9 2 10 1 11
REMARK H PARENT
REMARK Flexibility Score: inf
ROOT
ATOM      1  C   UNL     1      21.599   6.580  23.172  1.00  0.00     0.000 C 
ENDROOT
BRANCH   1   2
ATOM      2  C   UNL     1      22.013   6.770  21.699  1.00  0.00     0.006 C 
BRANCH   2   3
ATOM      3  C   UNL     1      22.030   8.232  21.225  1.00  0.00     0.053 C 
BRANCH   3   4
ATOM      4  C   UNL     1      20.873   8.544  20.326  1.00  0.00     0.041 C 
ATOM      5  O   UNL     1      21.073   8.863  19.124  1.00  0.00    -0.550 OA
ATOM      6  O   UNL     1      19.573   8.451  20.806  1.00  0.00    -0.550 OA
ENDBRANCH   3   4
ENDBRANCH   2   3
ENDBRANCH   1   2
BRANCH   1   7
ATOM      7  C   UNL     1      21.439   7.881  23.978  1.00  0.00     0.000 C 
BRANCH   7   8
ATOM      8  C   UNL     1      19.979   8.185  24.344  1.00  0.00    -0.000 C 
BRANCH   8   9
ATOM      9  C   UNL     1      19.229   6.901  24.720  1.00  0.00    -0.000 C 
BRANCH   9  10
ATOM     10  C   UNL     1      17.865   6.837  24.022  1.00  0.00    -0.003 C 
ATOM     11  C   UNL     1      17.942   6.021  22.735  1.00  0.00     0.004 C 
ENDBRANCH   9  10
ENDBRANCH   8   9
ENDBRANCH   7   8
ENDBRANCH   1   7
TORSDOF 7
ENDMDL
