MODEL 1
REMARK VINA RESULT:    -3.365      0.000      0.000
REMARK INTER + INTRA:          -3.764
REMARK INTER:                  -3.758
REMARK INTRA:                  -0.005
REMARK UNBOUND:                -0.005
REMARK SMILES CCCC(=O)[O-]
REMARK SMILES IDX 3 1 4 2 5 3 6 4 2 5 1 6
REMARK H PARENT
REMARK Flexibility Score: inf
ROOT
ATOM      1  C   UNL     1     -27.636 -12.260  17.526  1.00  0.00     0.052 C 
ENDROOT
BRANCH   1   2
ATOM      2  C   UNL     1     -28.912 -11.572  17.147  1.00  0.00     0.041 C 
ATOM      3  O   UNL     1     -29.743 -12.148  16.396  1.00  0.00    -0.550 OA
ATOM      4  O   UNL     1     -29.169 -10.282  17.597  1.00  0.00    -0.550 OA
ENDBRANCH   1   2
BRANCH   1   5
ATOM      5  C   UNL     1     -26.406 -11.504  17.004  1.00  0.00     0.003 C 
ATOM      6  C   UNL     1     -25.097 -12.199  17.373  1.00  0.00     0.004 C 
ENDBRANCH   1   5
TORSDOF 2
ENDMDL
MODEL 2
REMARK VINA RESULT:    -3.354      0.158      1.330
REMARK INTER + INTRA:          -3.752
REMARK INTER:                  -3.745
REMARK INTRA:                  -0.007
REMARK UNBOUND:                -0.005
REMARK SMILES CCCC(=O)[O-]
REMARK SMILES IDX 3 1 4 2 5 3 6 4 2 5 1 6
REMARK H PARENT
REMARK Flexibility Score: inf
ROOT
ATOM      1  C   UNL     1     -27.657 -12.345  17.406  1.00  0.00     0.052 C 
ENDROOT
BRANCH   1   2
ATOM      2  C   UNL     1     -28.948 -11.655  17.083  1.00  0.00     0.041 C 
ATOM      3  O   UNL     1     -29.196 -10.518  17.565  1.00  0.00    -0.550 OA
ATOM      4  O   UNL     1     -29.889 -12.281  16.276  1.00  0.00    -0.550 OA
ENDBRANCH   1   2
BRANCH   1   5
ATOM      5  C   UNL     1     -26.443 -11.488  17.023  1.00  0.00     0.003 C 
ATOM      6  C   UNL     1     -25.119 -12.162  17.377  1.00  0.00     0.004 C 
ENDBRANCH   1   5
TORSDOF 2
ENDMDL
MODEL 3
REMARK VINA RESULT:    -3.210      1.083      1.409
REMARK INTER + INTRA:          -3.591
REMARK INTER:                  -3.554
REMARK INTRA:                  -0.037
REMARK UNBOUND:                -0.005
REMARK SMILES CCCC(=O)[O-]
REMARK SMILES IDX 3 1 4 2 5 3 6 4 2 5 1 6
REMARK H PARENT
REMARK Flexibility Score: inf
ROOT
ATOM      1  C   UNL     1     -27.502 -11.355  17.478  1.00  0.00     0.052 C 
ENDROOT
BRANCH   1   2
ATOM      2  C   UNL     1     -28.540 -12.389  17.160  1.00  0.00     0.041 C 
ATOM      3  O   UNL     1     -28.418 -13.564  17.594  1.00  0.00    -0.550 OA
ATOM      4  O   UNL     1     -29.627 -12.060  16.359  1.00  0.00    -0.550 OA
ENDBRANCH   1   2
BRANCH   1   5
ATOM      5  C   UNL     1     -26.213 -11.581  16.679  1.00  0.00     0.003 C 
ATOM      6  C   UNL     1     -25.115 -12.233  17.518  1.00  0.00     0.004 C 
ENDBRANCH   1   5
TORSDOF 2
ENDMDL
MODEL 4
REMARK VINA RESULT:    -3.202      1.127      1.538
REMARK INTER + INTRA:          -3.581
REMARK INTER:                  -3.544
REMARK INTRA:                  -0.038
REMARK UNBOUND:                -0.005
REMARK SMILES CCCC(=O)[O-]
REMARK SMILES IDX 3 1 4 2 5 3 6 4 2 5 1 6
REMARK H PARENT
REMARK Flexibility Score: inf
ROOT
ATOM      1  C   UNL     1     -27.560 -11.349  17.504  1.00  0.00     0.052 C 
ENDROOT
BRANCH   1   2
ATOM      2  C   UNL     1     -28.554 -12.413  17.148  1.00  0.00     0.041 C 
ATOM      3  O   UNL     1     -29.556 -12.131  16.439  1.00  0.00    -0.550 OA
ATOM      4  O   UNL     1     -28.390 -13.707  17.625  1.00  0.00    -0.550 OA
ENDBRANCH   1   2
BRANCH   1   5
ATOM      5  C   UNL     1     -26.281 -11.463  16.665  1.00  0.00     0.003 C 
ATOM      6  C   UNL     1     -25.169 -12.211  17.398  1.00  0.00     0.004 C 
ENDBRANCH   1   5
TORSDOF 2
ENDMDL
MODEL 5
REMARK VINA RESULT:    -3.086      2.664      3.692
REMARK INTER + INTRA:          -3.452
REMARK INTER:                  -3.423
REMARK INTRA:                  -0.029
REMARK UNBOUND:                -0.005
REMARK SMILES CCCC(=O)[O-]
REMARK SMILES IDX 3 1 4 2 5 3 6 4 2 5 1 6
REMARK H PARENT
REMARK Flexibility Score: inf
ROOT
ATOM      1  C   UNL     1     -26.904 -11.557  16.694  1.00  0.00     0.052 C 
ENDROOT
BRANCH   1   2
ATOM      2  C   UNL     1     -25.864 -12.505  17.210  1.00  0.00     0.041 C 
ATOM      3  O   UNL     1     -24.674 -12.119  17.360  1.00  0.00    -0.550 OA
ATOM      4  O   UNL     1     -26.201 -13.822  17.493  1.00  0.00    -0.550 OA
ENDBRANCH   1   2
BRANCH   1   5
ATOM      5  C   UNL     1     -27.999 -11.293  17.736  1.00  0.00     0.003 C 
ATOM      6  C   UNL     1     -29.393 -11.635  17.215  1.00  0.00     0.004 C 
ENDBRANCH   1   5
TORSDOF 2
ENDMDL
MODEL 6
REMARK VINA RESULT:    -3.067      2.084      2.744
REMARK INTER + INTRA:          -3.432
REMARK INTER:                  -3.398
REMARK INTRA:                  -0.034
REMARK UNBOUND:                -0.005
REMARK SMILES CCCC(=O)[O-]
REMARK SMILES IDX 3 1 4 2 5 3 6 4 2 5 1 6
REMARK H PARENT
REMARK Flexibility Score: inf
ROOT
ATOM      1  C   UNL     1     -25.711 -12.685  17.222  1.00  0.00     0.052 C 
ENDROOT
BRANCH   1   2
ATOM      2  C   UNL     1     -26.728 -11.613  16.969  1.00  0.00     0.041 C 
ATOM      3  O   UNL     1     -26.433 -10.403  17.159  1.00  0.00    -0.550 OA
ATOM      4  O   UNL     1     -28.010 -11.953  16.554  1.00  0.00    -0.550 OA
ENDBRANCH   1   2
BRANCH   1   5
ATOM      5  C   UNL     1     -26.267 -13.793  18.125  1.00  0.00     0.003 C 
ATOM      6  C   UNL     1     -26.215 -15.167  17.459  1.00  0.00     0.004 C 
ENDBRANCH   1   5
TORSDOF 2
ENDMDL
MODEL 7
REMARK VINA RESULT:    -3.033      1.791      3.112
REMARK INTER + INTRA:          -3.393
REMARK INTER:                  -3.363
REMARK INTRA:                  -0.030
REMARK UNBOUND:                -0.005
REMARK SMILES CCCC(=O)[O-]
REMARK SMILES IDX 3 1 4 2 5 3 6 4 2 5 1 6
REMARK H PARENT
REMARK Flexibility Score: inf
ROOT
ATOM      1  C   UNL     1     -28.012 -12.371  17.403  1.00  0.00     0.052 C 
ENDROOT
BRANCH   1   2
ATOM      2  C   UNL     1     -27.406 -11.002  17.318  1.00  0.00     0.041 C 
ATOM      3  O   UNL     1     -26.166 -10.868  17.148  1.00  0.00    -0.550 OA
ATOM      4  O   UNL     1     -28.208  -9.876  17.460  1.00  0.00    -0.550 OA
ENDBRANCH   1   2
BRANCH   1   5
ATOM      5  C   UNL     1     -29.346 -12.450  16.649  1.00  0.00     0.003 C 
ATOM      6  C   UNL     1     -30.471 -13.015  17.514  1.00  0.00     0.004 C 
ENDBRANCH   1   5
TORSDOF 2
ENDMDL
MODEL 8
REMARK VINA RESULT:    -3.024      1.653      2.211
REMARK INTER + INTRA:          -3.382
REMARK INTER:                  -3.346
REMARK INTRA:                  -0.037
REMARK UNBOUND:                -0.005
REMARK SMILES CCCC(=O)[O-]
REMARK SMILES IDX 3 1 4 2 5 3 6 4 2 5 1 6
REMARK H PARENT
REMARK Flexibility Score: inf
ROOT
ATOM      1  C   UNL     1     -29.254 -11.328  17.258  1.00  0.00     0.052 C 
ENDROOT
BRANCH   1   2
ATOM      2  C   UNL     1     -30.059 -12.574  17.041  1.00  0.00     0.041 C 
ATOM      3  O   UNL     1     -30.931 -12.919  17.882  1.00  0.00    -0.550 OA
ATOM      4  O   UNL     1     -29.822 -13.371  15.928  1.00  0.00    -0.550 OA
ENDBRANCH   1   2
BRANCH   1   5
ATOM      5  C   UNL     1     -27.866 -11.640  17.832  1.00  0.00     0.003 C 
ATOM      6  C   UNL     1     -26.753 -11.439  16.805  1.00  0.00     0.004 C 
ENDBRANCH   1   5
TORSDOF 2
ENDMDL
MODEL 9
REMARK VINA RESULT:    -2.817      2.109      3.614
REMARK INTER + INTRA:          -3.152
REMARK INTER:                  -3.115
REMARK INTRA:                  -0.037
REMARK UNBOUND:                -0.005
REMARK SMILES CCCC(=O)[O-]
REMARK SMILES IDX 3 1 4 2 5 3 6 4 2 5 1 6
REMARK H PARENT
REMARK Flexibility Score: inf
ROOT
ATOM      1  C   UNL     1     -29.791 -12.605  16.406  1.00  0.00     0.052 C 
ENDROOT
BRANCH   1   2
ATOM      2  C   UNL     1     -28.813 -11.599  16.934  1.00  0.00     0.041 C 
ATOM      3  O   UNL     1     -29.207 -10.662  17.677  1.00  0.00    -0.550 OA
ATOM      4  O   UNL     1     -27.472 -11.679  16.579  1.00  0.00    -0.550 OA
ENDBRANCH   1   2
BRANCH   1   5
ATOM      5  C   UNL     1     -30.120 -13.679  17.449  1.00  0.00     0.003 C 
ATOM      6  C   UNL     1     -31.531 -13.528  18.016  1.00  0.00     0.004 C 
ENDBRANCH   1   5
TORSDOF 2
ENDMDL
