MODEL 1
REMARK VINA RESULT:    -4.134      0.000      0.000
REMARK INTER + INTRA:          -8.043
REMARK INTER:                  -6.551
REMARK INTRA:                  -1.492
REMARK UNBOUND:                -1.492
REMARK SMILES C=CCCCCCCCCCCC
REMARK SMILES IDX 7 1 8 2 9 3 10 4 11 5 12 6 13 7 6 8 5 9 4 10 3 11 2 12 1 13
REMARK H PARENT
REMARK Flexibility Score: inf
ROOT
ATOM      1  C   UNL     1     146.115 145.557 130.407  1.00  0.00     0.000 C 
ENDROOT
BRANCH   1   2
ATOM      2  C   UNL     1     144.677 145.016 130.407  1.00  0.00     0.000 C 
BRANCH   2   3
ATOM      3  C   UNL     1     144.596 143.548 130.856  1.00  0.00    -0.000 C 
BRANCH   3   4
ATOM      4  C   UNL     1     144.156 143.398 132.323  1.00  0.00    -0.000 C 
BRANCH   4   5
ATOM      5  C   UNL     1     145.285 142.841 133.214  1.00  0.00    -0.000 C 
BRANCH   5   6
ATOM      6  C   UNL     1     146.269 143.916 133.705  1.00  0.00    -0.003 C 
ATOM      7  C   UNL     1     147.597 143.897 132.954  1.00  0.00     0.004 C 
ENDBRANCH   5   6
ENDBRANCH   4   5
ENDBRANCH   3   4
ENDBRANCH   2   3
ENDBRANCH   1   2
BRANCH   1   8
ATOM      8  C   UNL     1     146.138 147.052 130.746  1.00  0.00     0.000 C 
BRANCH   8   9
ATOM      9  C   UNL     1     146.600 147.281 132.192  1.00  0.00     0.000 C 
BRANCH   9  10
ATOM     10  C   UNL     1     145.518 147.941 133.062  1.00  0.00     0.004 C 
BRANCH  10  11
ATOM     11  C   UNL     1     144.952 146.988 134.125  1.00  0.00     0.027 C 
BRANCH  11  12
ATOM     12  C   UNL     1     143.625 146.424 133.696  1.00  0.00    -0.035 C 
ATOM     13  C   UNL     1     142.973 146.894 132.628  1.00  0.00     0.004 C 
ENDBRANCH  11  12
ENDBRANCH  10  11
ENDBRANCH   9  10
ENDBRANCH   8   9
ENDBRANCH   1   8
TORSDOF 10
ENDMDL
MODEL 2
REMARK VINA RESULT:    -4.119      0.782      4.368
REMARK INTER + INTRA:          -8.020
REMARK INTER:                  -6.337
REMARK INTRA:                  -1.682
REMARK UNBOUND:                -1.492
REMARK SMILES C=CCCCCCCCCCCC
REMARK SMILES IDX 7 1 8 2 9 3 10 4 11 5 12 6 13 7 6 8 5 9 4 10 3 11 2 12 1 13
REMARK H PARENT
REMARK Flexibility Score: inf
ROOT
ATOM      1  C   UNL     1     147.720 144.448 133.372  1.00  0.00     0.000 C 
ENDROOT
BRANCH   1   2
ATOM      2  C   UNL     1     146.893 145.589 133.982  1.00  0.00     0.000 C 
BRANCH   2   3
ATOM      3  C   UNL     1     146.775 146.802 133.046  1.00  0.00    -0.000 C 
BRANCH   3   4
ATOM      4  C   UNL     1     145.422 147.523 133.174  1.00  0.00    -0.000 C 
BRANCH   4   5
ATOM      5  C   UNL     1     144.457 146.783 134.125  1.00  0.00    -0.000 C 
BRANCH   5   6
ATOM      6  C   UNL     1     143.136 146.366 133.458  1.00  0.00    -0.003 C 
ATOM      7  C   UNL     1     142.859 147.119 132.159  1.00  0.00     0.004 C 
ENDBRANCH   5   6
ENDBRANCH   4   5
ENDBRANCH   3   4
ENDBRANCH   2   3
ENDBRANCH   1   2
BRANCH   1   8
ATOM      8  C   UNL     1     146.822 143.460 132.619  1.00  0.00     0.000 C 
BRANCH   8   9
ATOM      9  C   UNL     1     145.485 143.267 133.349  1.00  0.00     0.000 C 
BRANCH   9  10
ATOM     10  C   UNL     1     144.277 143.332 132.399  1.00  0.00     0.004 C 
BRANCH  10  11
ATOM     11  C   UNL     1     144.692 143.493 130.928  1.00  0.00     0.027 C 
BRANCH  11  12
ATOM     12  C   UNL     1     144.639 144.936 130.506  1.00  0.00    -0.035 C 
ATOM     13  C   UNL     1     145.650 145.515 129.850  1.00  0.00     0.004 C 
ENDBRANCH  11  12
ENDBRANCH  10  11
ENDBRANCH   9  10
ENDBRANCH   8   9
ENDBRANCH   1   8
TORSDOF 10
ENDMDL
MODEL 3
REMARK VINA RESULT:    -4.036      0.872      4.408
REMARK INTER + INTRA:          -7.888
REMARK INTER:                  -6.240
REMARK INTRA:                  -1.648
REMARK UNBOUND:                -1.492
REMARK SMILES C=CCCCCCCCCCCC
REMARK SMILES IDX 7 1 8 2 9 3 10 4 11 5 12 6 13 7 6 8 5 9 4 10 3 11 2 12 1 13
REMARK H PARENT
REMARK Flexibility Score: inf
ROOT
ATOM      1  C   UNL     1     143.122 146.361 132.599  1.00  0.00     0.000 C 
ENDROOT
BRANCH   1   2
ATOM      2  C   UNL     1     143.999 147.617 132.705  1.00  0.00     0.000 C 
BRANCH   2   3
ATOM      3  C   UNL     1     145.359 147.338 133.365  1.00  0.00    -0.000 C 
BRANCH   3   4
ATOM      4  C   UNL     1     146.544 147.607 132.421  1.00  0.00    -0.000 C 
BRANCH   4   5
ATOM      5  C   UNL     1     146.187 147.330 130.946  1.00  0.00    -0.000 C 
BRANCH   5   6
ATOM      6  C   UNL     1     146.223 145.838 130.575  1.00  0.00    -0.003 C 
ATOM      7  C   UNL     1     145.062 145.417 129.677  1.00  0.00     0.004 C 
ENDBRANCH   5   6
ENDBRANCH   4   5
ENDBRANCH   3   4
ENDBRANCH   2   3
ENDBRANCH   1   2
BRANCH   1   8
ATOM      8  C   UNL     1     143.664 145.236 133.490  1.00  0.00     0.000 C 
BRANCH   8   9
ATOM      9  C   UNL     1     143.800 143.927 132.699  1.00  0.00     0.000 C 
BRANCH   9  10
ATOM     10  C   UNL     1     145.022 143.100 133.131  1.00  0.00     0.004 C 
BRANCH  10  11
ATOM     11  C   UNL     1     145.921 143.850 134.125  1.00  0.00     0.027 C 
BRANCH  11  12
ATOM     12  C   UNL     1     147.215 144.265 133.479  1.00  0.00    -0.035 C 
ATOM     13  C   UNL     1     147.734 143.591 132.448  1.00  0.00     0.004 C 
ENDBRANCH  11  12
ENDBRANCH  10  11
ENDBRANCH   9  10
ENDBRANCH   8   9
ENDBRANCH   1   8
TORSDOF 10
ENDMDL
MODEL 4
REMARK VINA RESULT:    -4.036      0.964      2.685
REMARK INTER + INTRA:          -7.887
REMARK INTER:                  -6.227
REMARK INTRA:                  -1.660
REMARK UNBOUND:                -1.492
REMARK SMILES C=CCCCCCCCCCCC
REMARK SMILES IDX 7 1 8 2 9 3 10 4 11 5 12 6 13 7 6 8 5 9 4 10 3 11 2 12 1 13
REMARK H PARENT
REMARK Flexibility Score: inf
ROOT
ATOM      1  C   UNL     1     143.695 146.256 133.660  1.00  0.00     0.000 C 
ENDROOT
BRANCH   1   2
ATOM      2  C   UNL     1     143.135 145.345 132.557  1.00  0.00     0.000 C 
BRANCH   2   3
ATOM      3  C   UNL     1     143.669 143.906 132.648  1.00  0.00    -0.000 C 
BRANCH   3   4
ATOM      4  C   UNL     1     144.786 143.752 133.695  1.00  0.00    -0.000 C 
BRANCH   4   5
ATOM      5  C   UNL     1     146.023 143.027 133.124  1.00  0.00    -0.000 C 
BRANCH   5   6
ATOM      6  C   UNL     1     147.223 143.956 132.881  1.00  0.00    -0.003 C 
ATOM      7  C   UNL     1     147.633 144.741 134.125  1.00  0.00     0.004 C 
ENDBRANCH   5   6
ENDBRANCH   4   5
ENDBRANCH   3   4
ENDBRANCH   2   3
ENDBRANCH   1   2
BRANCH   1   8
ATOM      8  C   UNL     1     144.320 147.522 133.062  1.00  0.00     0.000 C 
BRANCH   8   9
ATOM      9  C   UNL     1     145.805 147.632 133.438  1.00  0.00     0.000 C 
BRANCH   9  10
ATOM     10  C   UNL     1     146.728 147.611 132.208  1.00  0.00     0.004 C 
BRANCH  10  11
ATOM     11  C   UNL     1     145.978 147.267 130.913  1.00  0.00     0.027 C 
BRANCH  11  12
ATOM     12  C   UNL     1     146.141 145.812 130.564  1.00  0.00    -0.035 C 
ATOM     13  C   UNL     1     145.360 145.214 129.658  1.00  0.00     0.004 C 
ENDBRANCH  11  12
ENDBRANCH  10  11
ENDBRANCH   9  10
ENDBRANCH   8   9
ENDBRANCH   1   8
TORSDOF 10
ENDMDL
MODEL 5
REMARK VINA RESULT:    -4.034      1.046      4.021
REMARK INTER + INTRA:          -7.884
REMARK INTER:                  -6.593
REMARK INTRA:                  -1.291
REMARK UNBOUND:                -1.492
REMARK SMILES C=CCCCCCCCCCCC
REMARK SMILES IDX 7 1 8 2 9 3 10 4 11 5 12 6 13 7 6 8 5 9 4 10 3 11 2 12 1 13
REMARK H PARENT
REMARK Flexibility Score: inf
ROOT
ATOM      1  C   UNL     1     146.488 146.864 133.569  1.00  0.00     0.000 C 
ENDROOT
BRANCH   1   2
ATOM      2  C   UNL     1     147.134 147.172 132.211  1.00  0.00     0.000 C 
BRANCH   2   3
ATOM      3  C   UNL     1     146.097 147.432 131.106  1.00  0.00    -0.000 C 
BRANCH   3   4
ATOM      4  C   UNL     1     145.246 146.191 130.784  1.00  0.00    -0.000 C 
BRANCH   4   5
ATOM      5  C   UNL     1     143.736 146.466 130.941  1.00  0.00    -0.000 C 
BRANCH   5   6
ATOM      6  C   UNL     1     143.363 147.104 132.289  1.00  0.00    -0.003 C 
ATOM      7  C   UNL     1     143.107 146.075 133.387  1.00  0.00     0.004 C 
ENDBRANCH   5   6
ENDBRANCH   4   5
ENDBRANCH   3   4
ENDBRANCH   2   3
ENDBRANCH   1   2
BRANCH   1   8
ATOM      8  C   UNL     1     146.987 145.525 134.124  1.00  0.00     0.000 C 
BRANCH   8   9
ATOM      9  C   UNL     1     147.608 144.666 133.013  1.00  0.00     0.000 C 
BRANCH   9  10
ATOM     10  C   UNL     1     146.693 143.509 132.579  1.00  0.00     0.004 C 
BRANCH  10  11
ATOM     11  C   UNL     1     145.450 143.373 133.471  1.00  0.00     0.027 C 
BRANCH  11  12
ATOM     12  C   UNL     1     144.228 143.054 132.654  1.00  0.00    -0.035 C 
ATOM     13  C   UNL     1     144.267 143.008 131.318  1.00  0.00     0.004 C 
ENDBRANCH  11  12
ENDBRANCH  10  11
ENDBRANCH   9  10
ENDBRANCH   8   9
ENDBRANCH   1   8
TORSDOF 10
ENDMDL
MODEL 6
REMARK VINA RESULT:    -3.994      0.653      1.999
REMARK INTER + INTRA:          -7.821
REMARK INTER:                  -6.356
REMARK INTRA:                  -1.465
REMARK UNBOUND:                -1.492
REMARK SMILES C=CCCCCCCCCCCC
REMARK SMILES IDX 7 1 8 2 9 3 10 4 11 5 12 6 13 7 6 8 5 9 4 10 3 11 2 12 1 13
REMARK H PARENT
REMARK Flexibility Score: inf
ROOT
ATOM      1  C   UNL     1     146.459 145.327 130.771  1.00  0.00     0.000 C 
ENDROOT
BRANCH   1   2
ATOM      2  C   UNL     1     147.497 144.991 131.852  1.00  0.00     0.000 C 
BRANCH   2   3
ATOM      3  C   UNL     1     147.222 143.645 132.541  1.00  0.00    -0.000 C 
BRANCH   3   4
ATOM      4  C   UNL     1     146.134 143.743 133.624  1.00  0.00    -0.000 C 
BRANCH   4   5
ATOM      5  C   UNL     1     144.947 142.798 133.344  1.00  0.00    -0.000 C 
BRANCH   5   6
ATOM      6  C   UNL     1     143.902 143.392 132.385  1.00  0.00    -0.003 C 
ATOM      7  C   UNL     1     143.989 142.816 130.975  1.00  0.00     0.004 C 
ENDBRANCH   5   6
ENDBRANCH   4   5
ENDBRANCH   3   4
ENDBRANCH   2   3
ENDBRANCH   1   2
BRANCH   1   8
ATOM      8  C   UNL     1     146.040 146.800 130.852  1.00  0.00     0.000 C 
BRANCH   8   9
ATOM      9  C   UNL     1     146.634 147.473 132.097  1.00  0.00     0.000 C 
BRANCH   9  10
ATOM     10  C   UNL     1     145.554 147.991 133.061  1.00  0.00     0.004 C 
BRANCH  10  11
ATOM     11  C   UNL     1     145.165 146.953 134.124  1.00  0.00     0.027 C 
BRANCH  11  12
ATOM     12  C   UNL     1     143.776 146.426 133.884  1.00  0.00    -0.035 C 
ATOM     13  C   UNL     1     143.067 146.777 132.806  1.00  0.00     0.004 C 
ENDBRANCH  11  12
ENDBRANCH  10  11
ENDBRANCH   9  10
ENDBRANCH   8   9
ENDBRANCH   1   8
TORSDOF 10
ENDMDL
MODEL 7
REMARK VINA RESULT:    -3.926      0.994      3.721
REMARK INTER + INTRA:          -7.713
REMARK INTER:                  -5.940
REMARK INTRA:                  -1.773
REMARK UNBOUND:                -1.492
REMARK SMILES C=CCCCCCCCCCCC
REMARK SMILES IDX 7 1 8 2 9 3 10 4 11 5 12 6 13 7 6 8 5 9 4 10 3 11 2 12 1 13
REMARK H PARENT
REMARK Flexibility Score: inf
ROOT
ATOM      1  C   UNL     1     145.014 147.660 133.562  1.00  0.00     0.000 C 
ENDROOT
BRANCH   1   2
ATOM      2  C   UNL     1     144.107 146.493 133.982  1.00  0.00     0.000 C 
BRANCH   2   3
ATOM      3  C   UNL     1     143.100 146.102 132.888  1.00  0.00    -0.000 C 
BRANCH   3   4
ATOM      4  C   UNL     1     143.588 146.462 131.474  1.00  0.00    -0.000 C 
BRANCH   4   5
ATOM      5  C   UNL     1     144.158 145.238 130.727  1.00  0.00    -0.000 C 
BRANCH   5   6
ATOM      6  C   UNL     1     145.498 145.516 130.025  1.00  0.00    -0.003 C 
ATOM      7  C   UNL     1     146.048 146.910 130.316  1.00  0.00     0.004 C 
ENDBRANCH   5   6
ENDBRANCH   4   5
ENDBRANCH   3   4
ENDBRANCH   2   3
ENDBRANCH   1   2
BRANCH   1   8
ATOM      8  C   UNL     1     146.487 147.235 133.559  1.00  0.00     0.000 C 
BRANCH   8   9
ATOM      9  C   UNL     1     146.644 145.789 134.050  1.00  0.00     0.000 C 
BRANCH   9  10
ATOM     10  C   UNL     1     147.591 144.963 133.163  1.00  0.00     0.004 C 
BRANCH  10  11
ATOM     11  C   UNL     1     146.976 143.623 132.732  1.00  0.00     0.027 C 
BRANCH  11  12
ATOM     12  C   UNL     1     145.743 143.310 133.535  1.00  0.00    -0.035 C 
ATOM     13  C   UNL     1     144.619 142.873 132.957  1.00  0.00     0.004 C 
ENDBRANCH  11  12
ENDBRANCH  10  11
ENDBRANCH   9  10
ENDBRANCH   8   9
ENDBRANCH   1   8
TORSDOF 10
ENDMDL
