MODEL 1
REMARK VINA RESULT:    -3.487      0.000      0.000
REMARK INTER + INTRA:         -11.329
REMARK INTER:                  -7.565
REMARK INTRA:                  -3.764
REMARK UNBOUND:                -3.764
REMARK SMILES CCCCCCCCCCCCCCCCCCCCCC(=O)[O-]
REMARK SMILES IDX 12 1 11 2 10 3 9 4 8 5 7 6 6 7 5 8 4 9 3 10 2 11 1 12 13 13
REMARK SMILES IDX 14 14 15 15 16 16 17 17 18 18 19 19 20 20 21 21 22 22 23 23
REMARK SMILES IDX 24 24
REMARK H PARENT
REMARK Flexibility Score: inf
ROOT
ATOM      1  C   UNL     1     130.139 145.246 122.264  1.00  0.00     0.000 C 
ENDROOT
BRANCH   1   2
ATOM      2  C   UNL     1     129.092 145.758 123.268  1.00  0.00     0.000 C 
BRANCH   2   3
ATOM      3  C   UNL     1     127.974 146.601 122.616  1.00  0.00     0.000 C 
BRANCH   3   4
ATOM      4  C   UNL     1     127.085 145.763 121.680  1.00  0.00    -0.000 C 
BRANCH   4   5
ATOM      5  C   UNL     1     126.969 146.372 120.273  1.00  0.00    -0.000 C 
BRANCH   5   6
ATOM      6  C   UNL     1     127.797 145.610 119.229  1.00  0.00    -0.000 C 
BRANCH   6   7
ATOM      7  C   UNL     1     127.590 144.096 119.362  1.00  0.00    -0.000 C 
BRANCH   7   8
ATOM      8  C   UNL     1     128.934 143.357 119.370  1.00  0.00    -0.000 C 
BRANCH   8   9
ATOM      9  C   UNL     1     128.896 142.154 120.321  1.00  0.00    -0.000 C 
BRANCH   9  10
ATOM     10  C   UNL     1     127.651 142.204 121.219  1.00  0.00    -0.000 C 
BRANCH  10  11
ATOM     11  C   UNL     1     128.004 142.221 122.716  1.00  0.00    -0.003 C 
ATOM     12  C   UNL     1     129.401 141.668 123.000  1.00  0.00     0.004 C 
ENDBRANCH  10  11
ENDBRANCH   9  10
ENDBRANCH   8   9
ENDBRANCH   7   8
ENDBRANCH   6   7
ENDBRANCH   5   6
ENDBRANCH   4   5
ENDBRANCH   3   4
ENDBRANCH   2   3
ENDBRANCH   1   2
BRANCH   1  13
ATOM     13  C   UNL     1     130.806 146.379 121.468  1.00  0.00     0.000 C 
BRANCH  13  14
ATOM     14  C   UNL     1     131.431 145.895 120.146  1.00  0.00     0.000 C 
BRANCH  14  15
ATOM     15  C   UNL     1     132.718 146.629 119.728  1.00  0.00     0.000 C 
BRANCH  15  16
ATOM     16  C   UNL     1     133.882 146.406 120.709  1.00  0.00     0.000 C 
BRANCH  16  17
ATOM     17  C   UNL     1     135.035 145.603 120.086  1.00  0.00     0.000 C 
BRANCH  17  18
ATOM     18  C   UNL     1     134.945 145.521 118.553  1.00  0.00     0.000 C 
BRANCH  18  19
ATOM     19  C   UNL     1     134.875 144.073 118.033  1.00  0.00     0.000 C 
BRANCH  19  20
ATOM     20  C   UNL     1     133.618 143.289 118.462  1.00  0.00     0.006 C 
BRANCH  20  21
ATOM     21  C   UNL     1     133.894 142.111 119.411  1.00  0.00     0.053 C 
BRANCH  21  22
ATOM     22  C   UNL     1     133.514 142.430 120.825  1.00  0.00     0.041 C 
ATOM     23  O   UNL     1     132.309 142.644 121.123  1.00  0.00    -0.550 OA
ATOM     24  O   UNL     1     134.486 142.469 121.817  1.00  0.00    -0.550 OA
ENDBRANCH  21  22
ENDBRANCH  20  21
ENDBRANCH  19  20
ENDBRANCH  18  19
ENDBRANCH  17  18
ENDBRANCH  16  17
ENDBRANCH  15  16
ENDBRANCH  14  15
ENDBRANCH  13  14
ENDBRANCH   1  13
TORSDOF 20
ENDMDL
MODEL 2
REMARK VINA RESULT:    -3.473      1.836      6.470
REMARK INTER + INTRA:         -11.297
REMARK INTER:                  -7.768
REMARK INTRA:                  -3.529
REMARK UNBOUND:                -3.764
REMARK SMILES CCCCCCCCCCCCCCCCCCCCCC(=O)[O-]
REMARK SMILES IDX 12 1 11 2 10 3 9 4 8 5 7 6 6 7 5 8 4 9 3 10 2 11 1 12 13 13
REMARK SMILES IDX 14 14 15 15 16 16 17 17 18 18 19 19 20 20 21 21 22 22 23 23
REMARK SMILES IDX 24 24
REMARK H PARENT
REMARK Flexibility Score: inf
ROOT
ATOM      1  C   UNL     1     130.035 141.975 122.511  1.00  0.00     0.000 C 
ENDROOT
BRANCH   1   2
ATOM      2  C   UNL     1     131.208 142.541 121.692  1.00  0.00     0.000 C 
BRANCH   2   3
ATOM      3  C   UNL     1     131.012 142.412 120.165  1.00  0.00     0.000 C 
BRANCH   3   4
ATOM      4  C   UNL     1     130.736 143.773 119.498  1.00  0.00    -0.000 C 
BRANCH   4   5
ATOM      5  C   UNL     1     130.883 144.950 120.475  1.00  0.00    -0.000 C 
BRANCH   5   6
ATOM      6  C   UNL     1     130.795 146.313 119.774  1.00  0.00    -0.000 C 
BRANCH   6   7
ATOM      7  C   UNL     1     132.183 146.948 119.630  1.00  0.00    -0.000 C 
BRANCH   7   8
ATOM      8  C   UNL     1     133.176 146.329 120.621  1.00  0.00    -0.000 C 
BRANCH   8   9
ATOM      9  C   UNL     1     134.592 146.291 120.034  1.00  0.00    -0.000 C 
BRANCH   9  10
ATOM     10  C   UNL     1     134.554 145.969 118.533  1.00  0.00    -0.000 C 
BRANCH  10  11
ATOM     11  C   UNL     1     135.139 144.584 118.211  1.00  0.00    -0.003 C 
ATOM     12  C   UNL     1     134.080 143.481 118.213  1.00  0.00     0.004 C 
ENDBRANCH  10  11
ENDBRANCH   9  10
ENDBRANCH   8   9
ENDBRANCH   7   8
ENDBRANCH   6   7
ENDBRANCH   5   6
ENDBRANCH   4   5
ENDBRANCH   3   4
ENDBRANCH   2   3
ENDBRANCH   1   2
BRANCH   1  13
ATOM     13  C   UNL     1     129.066 141.135 121.663  1.00  0.00     0.000 C 
BRANCH  13  14
ATOM     14  C   UNL     1     127.654 141.744 121.588  1.00  0.00     0.000 C 
BRANCH  14  15
ATOM     15  C   UNL     1     127.207 142.183 120.182  1.00  0.00     0.000 C 
BRANCH  15  16
ATOM     16  C   UNL     1     127.211 143.711 120.002  1.00  0.00     0.000 C 
BRANCH  16  17
ATOM     17  C   UNL     1     127.449 144.462 121.322  1.00  0.00     0.000 C 
BRANCH  17  18
ATOM     18  C   UNL     1     127.101 145.957 121.230  1.00  0.00     0.000 C 
BRANCH  18  19
ATOM     19  C   UNL     1     127.546 146.754 122.471  1.00  0.00     0.000 C 
BRANCH  19  20
ATOM     20  C   UNL     1     128.067 145.895 123.642  1.00  0.00     0.006 C 
BRANCH  20  21
ATOM     21  C   UNL     1     129.150 146.572 124.497  1.00  0.00     0.053 C 
BRANCH  21  22
ATOM     22  C   UNL     1     130.526 146.110 124.127  1.00  0.00     0.041 C 
ATOM     23  O   UNL     1     130.917 144.959 124.460  1.00  0.00    -0.550 OA
ATOM     24  O   UNL     1     131.369 146.938 123.398  1.00  0.00    -0.550 OA
ENDBRANCH  21  22
ENDBRANCH  20  21
ENDBRANCH  19  20
ENDBRANCH  18  19
ENDBRANCH  17  18
ENDBRANCH  16  17
ENDBRANCH  15  16
ENDBRANCH  14  15
ENDBRANCH  13  14
ENDBRANCH   1  13
TORSDOF 20
ENDMDL
MODEL 3
REMARK VINA RESULT:    -3.431      2.840      5.599
REMARK INTER + INTRA:         -11.206
REMARK INTER:                  -7.688
REMARK INTRA:                  -3.518
REMARK UNBOUND:                -3.764
REMARK SMILES CCCCCCCCCCCCCCCCCCCCCC(=O)[O-]
REMARK SMILES IDX 12 1 11 2 10 3 9 4 8 5 7 6 6 7 5 8 4 9 3 10 2 11 1 12 13 13
REMARK SMILES IDX 14 14 15 15 16 16 17 17 18 18 19 19 20 20 21 21 22 22 23 23
REMARK SMILES IDX 24 24
REMARK H PARENT
REMARK Flexibility Score: inf
ROOT
ATOM      1  C   UNL     1     128.808 146.193 122.610  1.00  0.00     0.000 C 
ENDROOT
BRANCH   1   2
ATOM      2  C   UNL     1     127.452 146.368 121.905  1.00  0.00     0.000 C 
BRANCH   2   3
ATOM      3  C   UNL     1     127.127 145.237 120.904  1.00  0.00     0.000 C 
BRANCH   3   4
ATOM      4  C   UNL     1     127.186 145.719 119.443  1.00  0.00    -0.000 C 
BRANCH   4   5
ATOM      5  C   UNL     1     127.900 144.719 118.520  1.00  0.00    -0.000 C 
BRANCH   5   6
ATOM      6  C   UNL     1     128.817 143.756 119.288  1.00  0.00    -0.000 C 
BRANCH   6   7
ATOM      7  C   UNL     1     130.192 144.387 119.535  1.00  0.00    -0.000 C 
BRANCH   7   8
ATOM      8  C   UNL     1     131.262 143.309 119.741  1.00  0.00    -0.000 C 
BRANCH   8   9
ATOM      9  C   UNL     1     132.423 143.839 120.592  1.00  0.00    -0.000 C 
BRANCH   9  10
ATOM     10  C   UNL     1     131.915 144.388 121.933  1.00  0.00    -0.000 C 
BRANCH  10  11
ATOM     11  C   UNL     1     132.751 145.574 122.440  1.00  0.00    -0.003 C 
ATOM     12  C   UNL     1     132.440 146.876 121.700  1.00  0.00     0.004 C 
ENDBRANCH  10  11
ENDBRANCH   9  10
ENDBRANCH   8   9
ENDBRANCH   7   8
ENDBRANCH   6   7
ENDBRANCH   5   6
ENDBRANCH   4   5
ENDBRANCH   3   4
ENDBRANCH   2   3
ENDBRANCH   1   2
BRANCH   1  13
ATOM     13  C   UNL     1     128.804 146.727 124.051  1.00  0.00     0.000 C 
BRANCH  13  14
ATOM     14  C   UNL     1     130.097 146.394 124.817  1.00  0.00     0.000 C 
BRANCH  14  15
ATOM     15  C   UNL     1     130.176 144.958 125.367  1.00  0.00     0.000 C 
BRANCH  15  16
ATOM     16  C   UNL     1     128.827 144.445 125.900  1.00  0.00     0.000 C 
BRANCH  16  17
ATOM     17  C   UNL     1     128.230 143.333 125.024  1.00  0.00     0.000 C 
BRANCH  17  18
ATOM     18  C   UNL     1     129.287 142.613 124.168  1.00  0.00     0.000 C 
BRANCH  18  19
ATOM     19  C   UNL     1     128.842 142.412 122.708  1.00  0.00     0.000 C 
BRANCH  19  20
ATOM     20  C   UNL     1     128.170 141.055 122.415  1.00  0.00     0.006 C 
BRANCH  20  21
ATOM     21  C   UNL     1     127.514 140.954 121.028  1.00  0.00     0.053 C 
BRANCH  21  22
ATOM     22  C   UNL     1     127.183 139.539 120.666  1.00  0.00     0.041 C 
ATOM     23  O   UNL     1     126.875 138.712 121.565  1.00  0.00    -0.550 OA
ATOM     24  O   UNL     1     127.194 139.137 119.336  1.00  0.00    -0.550 OA
ENDBRANCH  21  22
ENDBRANCH  20  21
ENDBRANCH  19  20
ENDBRANCH  18  19
ENDBRANCH  17  18
ENDBRANCH  16  17
ENDBRANCH  15  16
ENDBRANCH  14  15
ENDBRANCH  13  14
ENDBRANCH   1  13
TORSDOF 20
ENDMDL
MODEL 4
REMARK VINA RESULT:    -3.429      3.336      6.481
REMARK INTER + INTRA:         -11.202
REMARK INTER:                  -7.075
REMARK INTRA:                  -4.126
REMARK UNBOUND:                -3.764
REMARK SMILES CCCCCCCCCCCCCCCCCCCCCC(=O)[O-]
REMARK SMILES IDX 12 1 11 2 10 3 9 4 8 5 7 6 6 7 5 8 4 9 3 10 2 11 1 12 13 13
REMARK SMILES IDX 14 14 15 15 16 16 17 17 18 18 19 19 20 20 21 21 22 22 23 23
REMARK SMILES IDX 24 24
REMARK H PARENT
REMARK Flexibility Score: inf
ROOT
ATOM      1  C   UNL     1     130.976 145.176 119.983  1.00  0.00     0.000 C 
ENDROOT
BRANCH   1   2
ATOM      2  C   UNL     1     129.699 145.992 119.721  1.00  0.00     0.000 C 
BRANCH   2   3
ATOM      3  C   UNL     1     128.565 145.170 119.070  1.00  0.00     0.000 C 
BRANCH   3   4
ATOM      4  C   UNL     1     127.255 145.246 119.875  1.00  0.00    -0.000 C 
BRANCH   4   5
ATOM      5  C   UNL     1     127.223 146.441 120.841  1.00  0.00    -0.000 C 
BRANCH   5   6
ATOM      6  C   UNL     1     126.964 146.020 122.295  1.00  0.00    -0.000 C 
BRANCH   6   7
ATOM      7  C   UNL     1     127.871 146.792 123.260  1.00  0.00    -0.000 C 
BRANCH   7   8
ATOM      8  C   UNL     1     129.281 146.190 123.291  1.00  0.00    -0.000 C 
BRANCH   8   9
ATOM      9  C   UNL     1     130.086 146.732 124.478  1.00  0.00    -0.000 C 
BRANCH   9  10
ATOM     10  C   UNL     1     131.595 146.598 124.224  1.00  0.00    -0.000 C 
BRANCH  10  11
ATOM     11  C   UNL     1     132.013 145.153 123.908  1.00  0.00    -0.003 C 
ATOM     12  C   UNL     1     132.633 144.440 125.111  1.00  0.00     0.004 C 
ENDBRANCH  10  11
ENDBRANCH   9  10
ENDBRANCH   8   9
ENDBRANCH   7   8
ENDBRANCH   6   7
ENDBRANCH   5   6
ENDBRANCH   4   5
ENDBRANCH   3   4
ENDBRANCH   2   3
ENDBRANCH   1   2
BRANCH   1  13
ATOM     13  C   UNL     1     130.722 143.660 120.001  1.00  0.00     0.000 C 
BRANCH  13  14
ATOM     14  C   UNL     1     130.762 143.064 121.420  1.00  0.00     0.000 C 
BRANCH  14  15
ATOM     15  C   UNL     1     129.653 142.041 121.728  1.00  0.00     0.000 C 
BRANCH  15  16
ATOM     16  C   UNL     1     128.378 142.692 122.293  1.00  0.00     0.000 C 
BRANCH  16  17
ATOM     17  C   UNL     1     128.102 142.287 123.749  1.00  0.00     0.000 C 
BRANCH  17  18
ATOM     18  C   UNL     1     129.326 142.475 124.663  1.00  0.00     0.000 C 
BRANCH  18  19
ATOM     19  C   UNL     1     129.082 143.500 125.787  1.00  0.00     0.000 C 
BRANCH  19  20
ATOM     20  C   UNL     1     127.641 144.044 125.870  1.00  0.00     0.006 C 
BRANCH  20  21
ATOM     21  C   UNL     1     127.488 145.316 126.718  1.00  0.00     0.053 C 
BRANCH  21  22
ATOM     22  C   UNL     1     128.410 145.317 127.899  1.00  0.00     0.041 C 
ATOM     23  O   UNL     1     128.216 144.518 128.853  1.00  0.00    -0.550 OA
ATOM     24  O   UNL     1     129.496 146.183 127.937  1.00  0.00    -0.550 OA
ENDBRANCH  21  22
ENDBRANCH  20  21
ENDBRANCH  19  20
ENDBRANCH  18  19
ENDBRANCH  17  18
ENDBRANCH  16  17
ENDBRANCH  15  16
ENDBRANCH  14  15
ENDBRANCH  13  14
ENDBRANCH   1  13
TORSDOF 20
ENDMDL
MODEL 5
REMARK VINA RESULT:    -3.412      2.356      4.520
REMARK INTER + INTRA:         -11.164
REMARK INTER:                  -7.614
REMARK INTRA:                  -3.550
REMARK UNBOUND:                -3.764
REMARK SMILES CCCCCCCCCCCCCCCCCCCCCC(=O)[O-]
REMARK SMILES IDX 12 1 11 2 10 3 9 4 8 5 7 6 6 7 5 8 4 9 3 10 2 11 1 12 13 13
REMARK SMILES IDX 14 14 15 15 16 16 17 17 18 18 19 19 20 20 21 21 22 22 23 23
REMARK SMILES IDX 24 24
REMARK H PARENT
REMARK Flexibility Score: inf
ROOT
ATOM      1  C   UNL     1     130.579 142.401 120.397  1.00  0.00     0.000 C 
ENDROOT
BRANCH   1   2
ATOM      2  C   UNL     1     130.146 143.447 119.356  1.00  0.00     0.000 C 
BRANCH   2   3
ATOM      3  C   UNL     1     128.633 143.755 119.385  1.00  0.00     0.000 C 
BRANCH   3   4
ATOM      4  C   UNL     1     128.323 145.191 118.923  1.00  0.00    -0.000 C 
BRANCH   4   5
ATOM      5  C   UNL     1     127.442 145.956 119.923  1.00  0.00    -0.000 C 
BRANCH   5   6
ATOM      6  C   UNL     1     127.204 145.173 121.222  1.00  0.00    -0.000 C 
BRANCH   6   7
ATOM      7  C   UNL     1     127.114 146.118 122.425  1.00  0.00    -0.000 C 
BRANCH   7   8
ATOM      8  C   UNL     1     128.257 145.860 123.414  1.00  0.00    -0.000 C 
BRANCH   8   9
ATOM      9  C   UNL     1     127.717 145.598 124.825  1.00  0.00    -0.000 C 
BRANCH   9  10
ATOM     10  C   UNL     1     128.854 145.605 125.858  1.00  0.00    -0.000 C 
BRANCH  10  11
ATOM     11  C   UNL     1     128.477 144.873 127.156  1.00  0.00    -0.003 C 
ATOM     12  C   UNL     1     127.084 145.251 127.663  1.00  0.00     0.004 C 
ENDBRANCH  10  11
ENDBRANCH   9  10
ENDBRANCH   8   9
ENDBRANCH   7   8
ENDBRANCH   6   7
ENDBRANCH   5   6
ENDBRANCH   4   5
ENDBRANCH   3   4
ENDBRANCH   2   3
ENDBRANCH   1   2
BRANCH   1  13
ATOM     13  C   UNL     1     129.520 142.169 121.486  1.00  0.00     0.000 C 
BRANCH  13  14
ATOM     14  C   UNL     1     129.953 142.698 122.865  1.00  0.00     0.000 C 
BRANCH  14  15
ATOM     15  C   UNL     1     131.427 143.130 122.963  1.00  0.00     0.000 C 
BRANCH  15  16
ATOM     16  C   UNL     1     131.626 144.391 123.822  1.00  0.00     0.000 C 
BRANCH  16  17
ATOM     17  C   UNL     1     132.597 145.396 123.182  1.00  0.00     0.000 C 
BRANCH  17  18
ATOM     18  C   UNL     1     131.885 146.637 122.615  1.00  0.00     0.000 C 
BRANCH  18  19
ATOM     19  C   UNL     1     131.125 146.346 121.307  1.00  0.00     0.000 C 
BRANCH  19  20
ATOM     20  C   UNL     1     131.903 146.678 120.016  1.00  0.00     0.006 C 
BRANCH  20  21
ATOM     21  C   UNL     1     133.026 145.685 119.675  1.00  0.00     0.053 C 
BRANCH  21  22
ATOM     22  C   UNL     1     134.369 146.347 119.643  1.00  0.00     0.041 C 
ATOM     23  O   UNL     1     134.973 146.499 118.549  1.00  0.00    -0.550 OA
ATOM     24  O   UNL     1     134.945 146.816 120.818  1.00  0.00    -0.550 OA
ENDBRANCH  21  22
ENDBRANCH  20  21
ENDBRANCH  19  20
ENDBRANCH  18  19
ENDBRANCH  17  18
ENDBRANCH  16  17
ENDBRANCH  15  16
ENDBRANCH  14  15
ENDBRANCH  13  14
ENDBRANCH   1  13
TORSDOF 20
ENDMDL
MODEL 6
REMARK VINA RESULT:    -3.411      2.169      6.023
REMARK INTER + INTRA:         -11.163
REMARK INTER:                  -7.114
REMARK INTRA:                  -4.050
REMARK UNBOUND:                -3.764
REMARK SMILES CCCCCCCCCCCCCCCCCCCCCC(=O)[O-]
REMARK SMILES IDX 12 1 11 2 10 3 9 4 8 5 7 6 6 7 5 8 4 9 3 10 2 11 1 12 13 13
REMARK SMILES IDX 14 14 15 15 16 16 17 17 18 18 19 19 20 20 21 21 22 22 23 23
REMARK SMILES IDX 24 24
REMARK H PARENT
REMARK Flexibility Score: inf
ROOT
ATOM      1  C   UNL     1     128.551 142.227 120.522  1.00  0.00     0.000 C 
ENDROOT
BRANCH   1   2
ATOM      2  C   UNL     1     129.820 143.062 120.764  1.00  0.00     0.000 C 
BRANCH   2   3
ATOM      3  C   UNL     1     131.025 142.614 119.909  1.00  0.00     0.000 C 
BRANCH   3   4
ATOM      4  C   UNL     1     131.955 143.789 119.553  1.00  0.00    -0.000 C 
BRANCH   4   5
ATOM      5  C   UNL     1     131.318 145.156 119.847  1.00  0.00    -0.000 C 
BRANCH   5   6
ATOM      6  C   UNL     1     132.357 146.281 119.957  1.00  0.00    -0.000 C 
BRANCH   6   7
ATOM      7  C   UNL     1     132.183 147.064 121.263  1.00  0.00    -0.000 C 
BRANCH   7   8
ATOM      8  C   UNL     1     131.323 146.281 122.263  1.00  0.00    -0.000 C 
BRANCH   8   9
ATOM      9  C   UNL     1     131.896 146.384 123.682  1.00  0.00    -0.000 C 
BRANCH   9  10
ATOM     10  C   UNL     1     132.887 145.244 123.957  1.00  0.00    -0.000 C 
BRANCH  10  11
ATOM     11  C   UNL     1     132.518 143.949 123.216  1.00  0.00    -0.003 C 
ATOM     12  C   UNL     1     133.237 142.721 123.778  1.00  0.00     0.004 C 
ENDBRANCH  10  11
ENDBRANCH   9  10
ENDBRANCH   8   9
ENDBRANCH   7   8
ENDBRANCH   6   7
ENDBRANCH   5   6
ENDBRANCH   4   5
ENDBRANCH   3   4
ENDBRANCH   2   3
ENDBRANCH   1   2
BRANCH   1  13
ATOM     13  C   UNL     1     127.359 143.077 120.055  1.00  0.00     0.000 C 
BRANCH  13  14
ATOM     14  C   UNL     1     127.767 144.199 119.083  1.00  0.00     0.000 C 
BRANCH  14  15
ATOM     15  C   UNL     1     127.232 145.597 119.442  1.00  0.00     0.000 C 
BRANCH  15  16
ATOM     16  C   UNL     1     127.941 146.217 120.659  1.00  0.00     0.000 C 
BRANCH  16  17
ATOM     17  C   UNL     1     127.080 146.171 121.931  1.00  0.00     0.000 C 
BRANCH  17  18
ATOM     18  C   UNL     1     127.829 146.676 123.177  1.00  0.00     0.000 C 
BRANCH  18  19
ATOM     19  C   UNL     1     127.858 145.643 124.319  1.00  0.00     0.000 C 
BRANCH  19  20
ATOM     20  C   UNL     1     128.642 144.351 124.006  1.00  0.00     0.006 C 
BRANCH  20  21
ATOM     21  C   UNL     1     127.945 143.058 124.458  1.00  0.00     0.053 C 
BRANCH  21  22
ATOM     22  C   UNL     1     128.831 141.860 124.303  1.00  0.00     0.041 C 
ATOM     23  O   UNL     1     130.017 141.891 124.727  1.00  0.00    -0.550 OA
ATOM     24  O   UNL     1     128.343 140.702 123.710  1.00  0.00    -0.550 OA
ENDBRANCH  21  22
ENDBRANCH  20  21
ENDBRANCH  19  20
ENDBRANCH  18  19
ENDBRANCH  17  18
ENDBRANCH  16  17
ENDBRANCH  15  16
ENDBRANCH  14  15
ENDBRANCH  13  14
ENDBRANCH   1  13
TORSDOF 20
ENDMDL
MODEL 7
REMARK VINA RESULT:    -3.403      1.590      3.311
REMARK INTER + INTRA:         -11.146
REMARK INTER:                  -8.105
REMARK INTRA:                  -3.041
REMARK UNBOUND:                -3.764
REMARK SMILES CCCCCCCCCCCCCCCCCCCCCC(=O)[O-]
REMARK SMILES IDX 12 1 11 2 10 3 9 4 8 5 7 6 6 7 5 8 4 9 3 10 2 11 1 12 13 13
REMARK SMILES IDX 14 14 15 15 16 16 17 17 18 18 19 19 20 20 21 21 22 22 23 23
REMARK SMILES IDX 24 24
REMARK H PARENT
REMARK Flexibility Score: inf
ROOT
ATOM      1  C   UNL     1     129.432 142.664 120.232  1.00  0.00     0.000 C 
ENDROOT
BRANCH   1   2
ATOM      2  C   UNL     1     127.933 142.990 120.118  1.00  0.00     0.000 C 
BRANCH   2   3
ATOM      3  C   UNL     1     127.624 144.119 119.111  1.00  0.00     0.000 C 
BRANCH   3   4
ATOM      4  C   UNL     1     127.140 145.403 119.808  1.00  0.00    -0.000 C 
BRANCH   4   5
ATOM      5  C   UNL     1     127.220 145.310 121.340  1.00  0.00    -0.000 C 
BRANCH   5   6
ATOM      6  C   UNL     1     126.969 146.660 122.028  1.00  0.00    -0.000 C 
BRANCH   6   7
ATOM      7  C   UNL     1     127.837 146.807 123.283  1.00  0.00    -0.000 C 
BRANCH   7   8
ATOM      8  C   UNL     1     129.280 146.367 123.008  1.00  0.00    -0.000 C 
BRANCH   8   9
ATOM      9  C   UNL     1     129.827 145.518 124.162  1.00  0.00    -0.000 C 
BRANCH   9  10
ATOM     10  C   UNL     1     130.037 144.062 123.720  1.00  0.00    -0.000 C 
BRANCH  10  11
ATOM     11  C   UNL     1     128.757 143.220 123.838  1.00  0.00    -0.003 C 
ATOM     12  C   UNL     1     128.048 143.406 125.180  1.00  0.00     0.004 C 
ENDBRANCH  10  11
ENDBRANCH   9  10
ENDBRANCH   8   9
ENDBRANCH   7   8
ENDBRANCH   6   7
ENDBRANCH   5   6
ENDBRANCH   4   5
ENDBRANCH   3   4
ENDBRANCH   2   3
ENDBRANCH   1   2
BRANCH   1  13
ATOM     13  C   UNL     1     130.307 143.562 119.344  1.00  0.00     0.000 C 
BRANCH  13  14
ATOM     14  C   UNL     1     131.033 144.664 120.137  1.00  0.00     0.000 C 
BRANCH  14  15
ATOM     15  C   UNL     1     130.680 146.105 119.724  1.00  0.00     0.000 C 
BRANCH  15  16
ATOM     16  C   UNL     1     131.856 147.082 119.895  1.00  0.00     0.000 C 
BRANCH  16  17
ATOM     17  C   UNL     1     133.140 146.386 120.373  1.00  0.00     0.000 C 
BRANCH  17  18
ATOM     18  C   UNL     1     134.246 146.374 119.304  1.00  0.00     0.000 C 
BRANCH  18  19
ATOM     19  C   UNL     1     135.639 146.691 119.879  1.00  0.00     0.000 C 
BRANCH  19  20
ATOM     20  C   UNL     1     136.608 145.492 119.932  1.00  0.00     0.006 C 
BRANCH  20  21
ATOM     21  C   UNL     1     136.121 144.315 120.792  1.00  0.00     0.053 C 
BRANCH  21  22
ATOM     22  C   UNL     1     135.846 143.095 119.968  1.00  0.00     0.041 C 
ATOM     23  O   UNL     1     136.250 143.032 118.776  1.00  0.00    -0.550 OA
ATOM     24  O   UNL     1     135.163 142.018 120.520  1.00  0.00    -0.550 OA
ENDBRANCH  21  22
ENDBRANCH  20  21
ENDBRANCH  19  20
ENDBRANCH  18  19
ENDBRANCH  17  18
ENDBRANCH  16  17
ENDBRANCH  15  16
ENDBRANCH  14  15
ENDBRANCH  13  14
ENDBRANCH   1  13
TORSDOF 20
ENDMDL
MODEL 8
REMARK VINA RESULT:    -3.402      2.306      5.957
REMARK INTER + INTRA:         -11.143
REMARK INTER:                  -6.929
REMARK INTRA:                  -4.214
REMARK UNBOUND:                -3.764
REMARK SMILES CCCCCCCCCCCCCCCCCCCCCC(=O)[O-]
REMARK SMILES IDX 12 1 11 2 10 3 9 4 8 5 7 6 6 7 5 8 4 9 3 10 2 11 1 12 13 13
REMARK SMILES IDX 14 14 15 15 16 16 17 17 18 18 19 19 20 20 21 21 22 22 23 23
REMARK SMILES IDX 24 24
REMARK H PARENT
REMARK Flexibility Score: inf
ROOT
ATOM      1  C   UNL     1     130.582 146.377 120.712  1.00  0.00     0.000 C 
ENDROOT
BRANCH   1   2
ATOM      2  C   UNL     1     132.002 146.936 120.518  1.00  0.00     0.000 C 
BRANCH   2   3
ATOM      3  C   UNL     1     132.903 146.775 121.762  1.00  0.00     0.000 C 
BRANCH   3   4
ATOM      4  C   UNL     1     134.322 146.302 121.396  1.00  0.00    -0.000 C 
BRANCH   4   5
ATOM      5  C   UNL     1     134.595 146.369 119.885  1.00  0.00    -0.000 C 
BRANCH   5   6
ATOM      6  C   UNL     1     135.344 145.133 119.365  1.00  0.00    -0.000 C 
BRANCH   6   7
ATOM      7  C   UNL     1     134.425 144.253 118.510  1.00  0.00    -0.000 C 
BRANCH   7   8
ATOM      8  C   UNL     1     133.694 143.219 119.374  1.00  0.00    -0.000 C 
BRANCH   8   9
ATOM      9  C   UNL     1     132.203 143.159 119.021  1.00  0.00    -0.000 C 
BRANCH   9  10
ATOM     10  C   UNL     1     131.356 142.856 120.265  1.00  0.00    -0.000 C 
BRANCH  10  11
ATOM     11  C   UNL     1     132.109 143.141 121.575  1.00  0.00    -0.003 C 
ATOM     12  C   UNL     1     131.996 141.995 122.583  1.00  0.00     0.004 C 
ENDBRANCH  10  11
ENDBRANCH   9  10
ENDBRANCH   8   9
ENDBRANCH   7   8
ENDBRANCH   6   7
ENDBRANCH   5   6
ENDBRANCH   4   5
ENDBRANCH   3   4
ENDBRANCH   2   3
ENDBRANCH   1   2
BRANCH   1  13
ATOM     13  C   UNL     1     129.852 146.129 119.383  1.00  0.00     0.000 C 
BRANCH  13  14
ATOM     14  C   UNL     1     128.413 145.617 119.576  1.00  0.00     0.000 C 
BRANCH  14  15
ATOM     15  C   UNL     1     128.126 144.234 118.964  1.00  0.00     0.000 C 
BRANCH  15  16
ATOM     16  C   UNL     1     127.608 143.218 119.996  1.00  0.00     0.000 C 
BRANCH  16  17
ATOM     17  C   UNL     1     127.644 143.763 121.433  1.00  0.00     0.000 C 
BRANCH  17  18
ATOM     18  C   UNL     1     128.339 142.806 122.417  1.00  0.00     0.000 C 
BRANCH  18  19
ATOM     19  C   UNL     1     128.593 143.444 123.795  1.00  0.00     0.000 C 
BRANCH  19  20
ATOM     20  C   UNL     1     129.001 144.932 123.757  1.00  0.00     0.006 C 
BRANCH  20  21
ATOM     21  C   UNL     1     130.463 145.202 124.147  1.00  0.00     0.053 C 
BRANCH  21  22
ATOM     22  C   UNL     1     130.575 145.821 125.507  1.00  0.00     0.041 C 
ATOM     23  O   UNL     1     129.548 145.962 126.223  1.00  0.00    -0.550 OA
ATOM     24  O   UNL     1     131.813 146.221 125.992  1.00  0.00    -0.550 OA
ENDBRANCH  21  22
ENDBRANCH  20  21
ENDBRANCH  19  20
ENDBRANCH  18  19
ENDBRANCH  17  18
ENDBRANCH  16  17
ENDBRANCH  15  16
ENDBRANCH  14  15
ENDBRANCH  13  14
ENDBRANCH   1  13
TORSDOF 20
ENDMDL
MODEL 9
REMARK VINA RESULT:    -3.397      2.348      6.602
REMARK INTER + INTRA:         -11.133
REMARK INTER:                  -7.897
REMARK INTRA:                  -3.236
REMARK UNBOUND:                -3.764
REMARK SMILES CCCCCCCCCCCCCCCCCCCCCC(=O)[O-]
REMARK SMILES IDX 12 1 11 2 10 3 9 4 8 5 7 6 6 7 5 8 4 9 3 10 2 11 1 12 13 13
REMARK SMILES IDX 14 14 15 15 16 16 17 17 18 18 19 19 20 20 21 21 22 22 23 23
REMARK SMILES IDX 24 24
REMARK H PARENT
REMARK Flexibility Score: inf
ROOT
ATOM      1  C   UNL     1     127.798 142.648 121.553  1.00  0.00     0.000 C 
ENDROOT
BRANCH   1   2
ATOM      2  C   UNL     1     129.152 141.920 121.513  1.00  0.00     0.000 C 
BRANCH   2   3
ATOM      3  C   UNL     1     130.161 142.437 122.562  1.00  0.00     0.000 C 
BRANCH   3   4
ATOM      4  C   UNL     1     131.363 143.146 121.912  1.00  0.00    -0.000 C 
BRANCH   4   5
ATOM      5  C   UNL     1     131.840 142.447 120.630  1.00  0.00    -0.000 C 
BRANCH   5   6
ATOM      6  C   UNL     1     131.939 143.406 119.435  1.00  0.00    -0.000 C 
BRANCH   6   7
ATOM      7  C   UNL     1     133.270 144.168 119.451  1.00  0.00    -0.000 C 
BRANCH   7   8
ATOM      8  C   UNL     1     133.059 145.633 119.852  1.00  0.00    -0.000 C 
BRANCH   8   9
ATOM      9  C   UNL     1     133.860 146.574 118.944  1.00  0.00    -0.000 C 
BRANCH   9  10
ATOM     10  C   UNL     1     135.340 146.169 118.902  1.00  0.00    -0.000 C 
BRANCH  10  11
ATOM     11  C   UNL     1     136.109 146.609 120.159  1.00  0.00    -0.003 C 
ATOM     12  C   UNL     1     137.056 145.529 120.681  1.00  0.00     0.004 C 
ENDBRANCH  10  11
ENDBRANCH   9  10
ENDBRANCH   8   9
ENDBRANCH   7   8
ENDBRANCH   6   7
ENDBRANCH   5   6
ENDBRANCH   4   5
ENDBRANCH   3   4
ENDBRANCH   2   3
ENDBRANCH   1   2
BRANCH   1  13
ATOM     13  C   UNL     1     127.277 143.017 120.155  1.00  0.00     0.000 C 
BRANCH  13  14
ATOM     14  C   UNL     1     128.293 143.831 119.334  1.00  0.00     0.000 C 
BRANCH  14  15
ATOM     15  C   UNL     1     128.125 145.359 119.418  1.00  0.00     0.000 C 
BRANCH  15  16
ATOM     16  C   UNL     1     129.427 146.086 119.797  1.00  0.00     0.000 C 
BRANCH  16  17
ATOM     17  C   UNL     1     129.688 146.080 121.312  1.00  0.00     0.000 C 
BRANCH  17  18
ATOM     18  C   UNL     1     128.404 146.256 122.140  1.00  0.00     0.000 C 
BRANCH  18  19
ATOM     19  C   UNL     1     128.638 146.088 123.653  1.00  0.00     0.000 C 
BRANCH  19  20
ATOM     20  C   UNL     1     127.356 145.928 124.496  1.00  0.00     0.006 C 
BRANCH  20  21
ATOM     21  C   UNL     1     127.545 145.138 125.800  1.00  0.00     0.053 C 
BRANCH  21  22
ATOM     22  C   UNL     1     128.058 143.753 125.547  1.00  0.00     0.041 C 
ATOM     23  O   UNL     1     127.331 142.906 124.964  1.00  0.00    -0.550 OA
ATOM     24  O   UNL     1     129.346 143.404 125.935  1.00  0.00    -0.550 OA
ENDBRANCH  21  22
ENDBRANCH  20  21
ENDBRANCH  19  20
ENDBRANCH  18  19
ENDBRANCH  17  18
ENDBRANCH  16  17
ENDBRANCH  15  16
ENDBRANCH  14  15
ENDBRANCH  13  14
ENDBRANCH   1  13
TORSDOF 20
ENDMDL
