MODEL 1
REMARK VINA RESULT:    -6.354      0.000      0.000
REMARK INTER + INTRA:          -7.158
REMARK INTER:                  -7.097
REMARK INTRA:                  -0.062
REMARK UNBOUND:                -0.062
REMARK SMILES COc1cc2ccc(=O)oc2c(O)c1O
REMARK SMILES IDX 3 1 14 2 12 3 11 4 5 5 4 6 6 7 7 8 8 9 9 10 10 11 2 12 1 13
REMARK SMILES IDX 15 14 13 16
REMARK H PARENT 15 15 13 17
REMARK Flexibility Score: inf
ROOT
ATOM      1  C   UNL     1      -2.144  -2.107  12.228  1.00  0.00     0.165 A 
ATOM      2  C   UNL     1      -2.290  -1.545  13.508  1.00  0.00     0.204 A 
ATOM      3  C   UNL     1      -3.449  -0.794  13.824  1.00  0.00     0.205 A 
ATOM      4  C   UNL     1      -4.446  -0.619  12.856  1.00  0.00     0.184 A 
ATOM      5  C   UNL     1      -4.296  -1.185  11.573  1.00  0.00     0.025 A 
ATOM      6  C   UNL     1      -3.151  -1.925  11.263  1.00  0.00     0.062 A 
ATOM      7  C   UNL     1      -5.313  -0.989  10.632  1.00  0.00     0.020 A 
ATOM      8  C   UNL     1      -6.437  -0.245  10.983  1.00  0.00     0.094 A 
ATOM      9  C   UNL     1      -6.521   0.287  12.274  1.00  0.00     0.336 A 
ATOM     10  O   UNL     1      -7.528   0.962  12.612  1.00  0.00    -0.246 OA
ATOM     11  O   UNL     1      -5.539   0.085  13.149  1.00  0.00    -0.419 OA
ENDROOT
BRANCH   1  12
ATOM     12  O   UNL     1      -0.979  -2.843  11.956  1.00  0.00    -0.493 OA
ATOM     13  C   UNL     1       0.160  -2.330  11.271  1.00  0.00     0.278 C 
ENDBRANCH   1  12
BRANCH   2  14
ATOM     14  O   UNL     1      -1.261  -1.754  14.431  1.00  0.00    -0.502 OA
ATOM     15  H   UNL     1      -0.483  -2.379  14.283  1.00  0.00     0.293 HD
ENDBRANCH   2  14
BRANCH   3  16
ATOM     16  O   UNL     1      -3.648  -0.212  15.079  1.00  0.00    -0.502 OA
ATOM     17  H   UNL     1      -4.248  -0.596  15.795  1.00  0.00     0.293 HD
ENDBRANCH   3  16
TORSDOF 3
ENDMDL
MODEL 2
REMARK VINA RESULT:    -6.347      2.358      4.870
REMARK INTER + INTRA:          -7.151
REMARK INTER:                  -7.116
REMARK INTRA:                  -0.035
REMARK UNBOUND:                -0.062
REMARK SMILES COc1cc2ccc(=O)oc2c(O)c1O
REMARK SMILES IDX 3 1 14 2 12 3 11 4 5 5 4 6 6 7 7 8 8 9 9 10 10 11 2 12 1 13
REMARK SMILES IDX 15 14 13 16
REMARK H PARENT 15 15 13 17
REMARK Flexibility Score: inf
ROOT
ATOM      1  C   UNL     1      -5.103  -2.361  10.132  1.00  0.00     0.165 A 
ATOM      2  C   UNL     1      -4.365  -3.547  10.289  1.00  0.00     0.204 A 
ATOM      3  C   UNL     1      -3.311  -3.605  11.235  1.00  0.00     0.205 A 
ATOM      4  C   UNL     1      -3.012  -2.477  12.009  1.00  0.00     0.184 A 
ATOM      5  C   UNL     1      -3.755  -1.289  11.849  1.00  0.00     0.025 A 
ATOM      6  C   UNL     1      -4.794  -1.234  10.915  1.00  0.00     0.062 A 
ATOM      7  C   UNL     1      -3.427  -0.182  12.640  1.00  0.00     0.020 A 
ATOM      8  C   UNL     1      -2.384  -0.282  13.558  1.00  0.00     0.094 A 
ATOM      9  C   UNL     1      -1.689  -1.491  13.665  1.00  0.00     0.336 A 
ATOM     10  O   UNL     1      -0.743  -1.603  14.488  1.00  0.00    -0.246 OA
ATOM     11  O   UNL     1      -2.022  -2.528  12.900  1.00  0.00    -0.419 OA
ENDROOT
BRANCH   1  12
ATOM     12  O   UNL     1      -6.139  -2.345   9.184  1.00  0.00    -0.493 OA
ATOM     13  C   UNL     1      -5.985  -1.949   7.824  1.00  0.00     0.278 C 
ENDBRANCH   1  12
BRANCH   2  14
ATOM     14  O   UNL     1      -4.711  -4.639   9.489  1.00  0.00    -0.502 OA
ATOM     15  H   UNL     1      -4.586  -4.672   8.488  1.00  0.00     0.293 HD
ENDBRANCH   2  14
BRANCH   3  16
ATOM     16  O   UNL     1      -2.544  -4.757  11.433  1.00  0.00    -0.502 OA
ATOM     17  H   UNL     1      -1.561  -4.752  11.666  1.00  0.00     0.293 HD
ENDBRANCH   3  16
TORSDOF 3
ENDMDL
MODEL 3
REMARK VINA RESULT:    -6.249     17.523     18.577
REMARK INTER + INTRA:          -7.041
REMARK INTER:                  -6.989
REMARK INTRA:                  -0.052
REMARK UNBOUND:                -0.062
REMARK SMILES COc1cc2ccc(=O)oc2c(O)c1O
REMARK SMILES IDX 3 1 14 2 12 3 11 4 5 5 4 6 6 7 7 8 8 9 9 10 10 11 2 12 1 13
REMARK SMILES IDX 15 14 13 16
REMARK H PARENT 15 15 13 17
REMARK Flexibility Score: inf
ROOT
ATOM      1  C   UNL     1     -14.867 -11.578  22.166  1.00  0.00     0.165 A 
ATOM      2  C   UNL     1     -14.931 -12.721  21.352  1.00  0.00     0.204 A 
ATOM      3  C   UNL     1     -13.810 -13.583  21.250  1.00  0.00     0.205 A 
ATOM      4  C   UNL     1     -12.643 -13.287  21.967  1.00  0.00     0.184 A 
ATOM      5  C   UNL     1     -12.583 -12.139  22.783  1.00  0.00     0.025 A 
ATOM      6  C   UNL     1     -13.691 -11.290  22.881  1.00  0.00     0.062 A 
ATOM      7  C   UNL     1     -11.401 -11.876  23.484  1.00  0.00     0.020 A 
ATOM      8  C   UNL     1     -10.322 -12.748  23.356  1.00  0.00     0.094 A 
ATOM      9  C   UNL     1     -10.450 -13.869  22.529  1.00  0.00     0.336 A 
ATOM     10  O   UNL     1      -9.488 -14.670  22.401  1.00  0.00    -0.246 OA
ATOM     11  O   UNL     1     -11.587 -14.094  21.875  1.00  0.00    -0.419 OA
ENDROOT
BRANCH   1  12
ATOM     12  O   UNL     1     -16.000 -10.751  22.238  1.00  0.00    -0.493 OA
ATOM     13  C   UNL     1     -16.037  -9.484  22.889  1.00  0.00     0.278 C 
ENDBRANCH   1  12
BRANCH   2  14
ATOM     14  O   UNL     1     -16.122 -12.963  20.662  1.00  0.00    -0.502 OA
ATOM     15  H   UNL     1     -16.176 -13.179  19.678  1.00  0.00     0.293 HD
ENDBRANCH   2  14
BRANCH   3  16
ATOM     16  O   UNL     1     -13.816 -14.732  20.456  1.00  0.00    -0.502 OA
ATOM     17  H   UNL     1     -14.578 -15.000  19.849  1.00  0.00     0.293 HD
ENDBRANCH   3  16
TORSDOF 3
ENDMDL
MODEL 4
REMARK VINA RESULT:    -6.198      4.295      5.643
REMARK INTER + INTRA:          -6.984
REMARK INTER:                  -6.914
REMARK INTRA:                  -0.069
REMARK UNBOUND:                -0.062
REMARK SMILES COc1cc2ccc(=O)oc2c(O)c1O
REMARK SMILES IDX 3 1 14 2 12 3 11 4 5 5 4 6 6 7 7 8 8 9 9 10 10 11 2 12 1 13
REMARK SMILES IDX 15 14 13 16
REMARK H PARENT 15 15 13 17
REMARK Flexibility Score: inf
ROOT
ATOM      1  C   UNL     1      -4.521  -0.441  10.752  1.00  0.00     0.165 A 
ATOM      2  C   UNL     1      -5.242  -0.402   9.546  1.00  0.00     0.204 A 
ATOM      3  C   UNL     1      -4.822   0.452   8.496  1.00  0.00     0.205 A 
ATOM      4  C   UNL     1      -3.685   1.253   8.668  1.00  0.00     0.184 A 
ATOM      5  C   UNL     1      -2.964   1.210   9.879  1.00  0.00     0.025 A 
ATOM      6  C   UNL     1      -3.382   0.367  10.914  1.00  0.00     0.062 A 
ATOM      7  C   UNL     1      -1.834   2.024  10.014  1.00  0.00     0.020 A 
ATOM      8  C   UNL     1      -1.454   2.849   8.958  1.00  0.00     0.094 A 
ATOM      9  C   UNL     1      -2.215   2.841   7.785  1.00  0.00     0.336 A 
ATOM     10  O   UNL     1      -1.890   3.578   6.818  1.00  0.00    -0.246 OA
ATOM     11  O   UNL     1      -3.286   2.057   7.684  1.00  0.00    -0.419 OA
ENDROOT
BRANCH   1  12
ATOM     12  O   UNL     1      -4.972  -1.301  11.767  1.00  0.00    -0.493 OA
ATOM     13  C   UNL     1      -4.368  -2.548  12.097  1.00  0.00     0.278 C 
ENDBRANCH   1  12
BRANCH   2  14
ATOM     14  O   UNL     1      -6.367  -1.224   9.434  1.00  0.00    -0.502 OA
ATOM     15  H   UNL     1      -7.308  -0.885   9.298  1.00  0.00     0.293 HD
ENDBRANCH   2  14
BRANCH   3  16
ATOM     16  O   UNL     1      -5.500   0.533   7.277  1.00  0.00    -0.502 OA
ATOM     17  H   UNL     1      -6.257  -0.079   7.006  1.00  0.00     0.293 HD
ENDBRANCH   3  16
TORSDOF 3
ENDMDL
MODEL 5
REMARK VINA RESULT:    -6.194      4.546      5.496
REMARK INTER + INTRA:          -6.980
REMARK INTER:                  -6.947
REMARK INTRA:                  -0.033
REMARK UNBOUND:                -0.062
REMARK SMILES COc1cc2ccc(=O)oc2c(O)c1O
REMARK SMILES IDX 3 1 14 2 12 3 11 4 5 5 4 6 6 7 7 8 8 9 9 10 10 11 2 12 1 13
REMARK SMILES IDX 15 14 13 16
REMARK H PARENT 15 15 13 17
REMARK Flexibility Score: inf
ROOT
ATOM      1  C   UNL     1      -1.890   1.683   7.089  1.00  0.00     0.165 A 
ATOM      2  C   UNL     1      -1.033   0.699   7.610  1.00  0.00     0.204 A 
ATOM      3  C   UNL     1      -1.497  -0.185   8.616  1.00  0.00     0.205 A 
ATOM      4  C   UNL     1      -2.812  -0.072   9.084  1.00  0.00     0.184 A 
ATOM      5  C   UNL     1      -3.670   0.917   8.558  1.00  0.00     0.025 A 
ATOM      6  C   UNL     1      -3.209   1.788   7.566  1.00  0.00     0.062 A 
ATOM      7  C   UNL     1      -4.977   1.000   9.051  1.00  0.00     0.020 A 
ATOM      8  C   UNL     1      -5.394   0.111  10.040  1.00  0.00     0.094 A 
ATOM      9  C   UNL     1      -4.490  -0.845  10.515  1.00  0.00     0.336 A 
ATOM     10  O   UNL     1      -4.846  -1.658  11.408  1.00  0.00    -0.246 OA
ATOM     11  O   UNL     1      -3.253  -0.901  10.029  1.00  0.00    -0.419 OA
ENDROOT
BRANCH   1  12
ATOM     12  O   UNL     1      -1.391   2.539   6.094  1.00  0.00    -0.493 OA
ATOM     13  C   UNL     1      -0.763   3.792   6.346  1.00  0.00     0.278 C 
ENDBRANCH   1  12
BRANCH   2  14
ATOM     14  O   UNL     1       0.268   0.635   7.102  1.00  0.00    -0.502 OA
ATOM     15  H   UNL     1       0.632   1.252   6.392  1.00  0.00     0.293 HD
ENDBRANCH   2  14
BRANCH   3  16
ATOM     16  O   UNL     1      -0.689  -1.182   9.170  1.00  0.00    -0.502 OA
ATOM     17  H   UNL     1      -0.989  -1.821   9.892  1.00  0.00     0.293 HD
ENDBRANCH   3  16
TORSDOF 3
ENDMDL
MODEL 6
REMARK VINA RESULT:    -6.193      3.998      4.997
REMARK INTER + INTRA:          -6.979
REMARK INTER:                  -6.910
REMARK INTRA:                  -0.069
REMARK UNBOUND:                -0.062
REMARK SMILES COc1cc2ccc(=O)oc2c(O)c1O
REMARK SMILES IDX 3 1 14 2 12 3 11 4 5 5 4 6 6 7 7 8 8 9 9 10 10 11 2 12 1 13
REMARK SMILES IDX 15 14 13 16
REMARK H PARENT 15 15 13 17
REMARK Flexibility Score: inf
ROOT
ATOM      1  C   UNL     1      -3.377  -0.436  11.570  1.00  0.00     0.165 A 
ATOM      2  C   UNL     1      -3.251   0.867  12.084  1.00  0.00     0.204 A 
ATOM      3  C   UNL     1      -2.593   1.867  11.326  1.00  0.00     0.205 A 
ATOM      4  C   UNL     1      -2.073   1.550  10.065  1.00  0.00     0.184 A 
ATOM      5  C   UNL     1      -2.201   0.242   9.552  1.00  0.00     0.025 A 
ATOM      6  C   UNL     1      -2.850  -0.743  10.303  1.00  0.00     0.062 A 
ATOM      7  C   UNL     1      -1.669  -0.037   8.289  1.00  0.00     0.020 A 
ATOM      8  C   UNL     1      -1.029   0.975   7.576  1.00  0.00     0.094 A 
ATOM      9  C   UNL     1      -0.938   2.250   8.145  1.00  0.00     0.336 A 
ATOM     10  O   UNL     1      -0.365   3.179   7.518  1.00  0.00    -0.246 OA
ATOM     11  O   UNL     1      -1.454   2.488   9.348  1.00  0.00    -0.419 OA
ENDROOT
BRANCH   1  12
ATOM     12  O   UNL     1      -4.036  -1.397  12.354  1.00  0.00    -0.493 OA
ATOM     13  C   UNL     1      -5.372  -1.841  12.134  1.00  0.00     0.278 C 
ENDBRANCH   1  12
BRANCH   2  14
ATOM     14  O   UNL     1      -3.791   1.122  13.347  1.00  0.00    -0.502 OA
ATOM     15  H   UNL     1      -4.778   1.225  13.534  1.00  0.00     0.293 HD
ENDBRANCH   2  14
BRANCH   3  16
ATOM     16  O   UNL     1      -2.439   3.177  11.786  1.00  0.00    -0.502 OA
ATOM     17  H   UNL     1      -1.564   3.569  12.106  1.00  0.00     0.293 HD
ENDBRANCH   3  16
TORSDOF 3
ENDMDL
MODEL 7
REMARK VINA RESULT:    -6.162      3.740      5.130
REMARK INTER + INTRA:          -6.944
REMARK INTER:                  -6.874
REMARK INTRA:                  -0.070
REMARK UNBOUND:                -0.062
REMARK SMILES COc1cc2ccc(=O)oc2c(O)c1O
REMARK SMILES IDX 3 1 14 2 12 3 11 4 5 5 4 6 6 7 7 8 8 9 9 10 10 11 2 12 1 13
REMARK SMILES IDX 15 14 13 16
REMARK H PARENT 15 15 13 17
REMARK Flexibility Score: inf
ROOT
ATOM      1  C   UNL     1      -3.239  -1.576  10.729  1.00  0.00     0.165 A 
ATOM      2  C   UNL     1      -1.944  -1.955  10.335  1.00  0.00     0.204 A 
ATOM      3  C   UNL     1      -1.274  -1.236   9.315  1.00  0.00     0.205 A 
ATOM      4  C   UNL     1      -1.909  -0.147   8.704  1.00  0.00     0.184 A 
ATOM      5  C   UNL     1      -3.208   0.232   9.102  1.00  0.00     0.025 A 
ATOM      6  C   UNL     1      -3.867  -0.480  10.109  1.00  0.00     0.062 A 
ATOM      7  C   UNL     1      -3.810   1.325   8.470  1.00  0.00     0.020 A 
ATOM      8  C   UNL     1      -3.117   2.006   7.471  1.00  0.00     0.094 A 
ATOM      9  C   UNL     1      -1.831   1.576   7.127  1.00  0.00     0.336 A 
ATOM     10  O   UNL     1      -1.187   2.177   6.227  1.00  0.00    -0.246 OA
ATOM     11  O   UNL     1      -1.282   0.533   7.745  1.00  0.00    -0.419 OA
ENDROOT
BRANCH   1  12
ATOM     12  O   UNL     1      -3.867  -2.315  11.744  1.00  0.00    -0.493 OA
ATOM     13  C   UNL     1      -4.088  -1.843  13.070  1.00  0.00     0.278 C 
ENDBRANCH   1  12
BRANCH   2  14
ATOM     14  O   UNL     1      -1.363  -3.050  10.981  1.00  0.00    -0.502 OA
ATOM     15  H   UNL     1      -0.777  -2.982  11.799  1.00  0.00     0.293 HD
ENDBRANCH   2  14
BRANCH   3  16
ATOM     16  O   UNL     1       0.013  -1.568   8.883  1.00  0.00    -0.502 OA
ATOM     17  H   UNL     1       0.390  -1.326   7.978  1.00  0.00     0.293 HD
ENDBRANCH   3  16
TORSDOF 3
ENDMDL
MODEL 8
REMARK VINA RESULT:    -6.131      3.823      4.997
REMARK INTER + INTRA:          -6.909
REMARK INTER:                  -6.839
REMARK INTRA:                  -0.070
REMARK UNBOUND:                -0.062
REMARK SMILES COc1cc2ccc(=O)oc2c(O)c1O
REMARK SMILES IDX 3 1 14 2 12 3 11 4 5 5 4 6 6 7 7 8 8 9 9 10 10 11 2 12 1 13
REMARK SMILES IDX 15 14 13 16
REMARK H PARENT 15 15 13 17
REMARK Flexibility Score: inf
ROOT
ATOM      1  C   UNL     1      -2.930   1.398   8.817  1.00  0.00     0.165 A 
ATOM      2  C   UNL     1      -4.044   1.218   7.979  1.00  0.00     0.204 A 
ATOM      3  C   UNL     1      -5.171   0.495   8.445  1.00  0.00     0.205 A 
ATOM      4  C   UNL     1      -5.166  -0.035   9.741  1.00  0.00     0.184 A 
ATOM      5  C   UNL     1      -4.046   0.149  10.579  1.00  0.00     0.025 A 
ATOM      6  C   UNL     1      -2.935   0.862  10.117  1.00  0.00     0.062 A 
ATOM      7  C   UNL     1      -4.078  -0.395  11.868  1.00  0.00     0.020 A 
ATOM      8  C   UNL     1      -5.205  -1.098  12.287  1.00  0.00     0.094 A 
ATOM      9  C   UNL     1      -6.280  -1.242  11.404  1.00  0.00     0.336 A 
ATOM     10  O   UNL     1      -7.309  -1.874  11.762  1.00  0.00    -0.246 OA
ATOM     11  O   UNL     1      -6.223  -0.714  10.184  1.00  0.00    -0.419 OA
ENDROOT
BRANCH   1  12
ATOM     12  O   UNL     1      -1.834   2.121   8.316  1.00  0.00    -0.493 OA
ATOM     13  C   UNL     1      -1.499   3.451   8.702  1.00  0.00     0.278 C 
ENDBRANCH   1  12
BRANCH   2  14
ATOM     14  O   UNL     1      -3.990   1.770   6.697  1.00  0.00    -0.502 OA
ATOM     15  H   UNL     1      -4.088   1.239   5.844  1.00  0.00     0.293 HD
ENDBRANCH   2  14
BRANCH   3  16
ATOM     16  O   UNL     1      -6.305   0.285   7.656  1.00  0.00    -0.502 OA
ATOM     17  H   UNL     1      -6.435  -0.511   7.047  1.00  0.00     0.293 HD
ENDBRANCH   3  16
TORSDOF 3
ENDMDL
MODEL 9
REMARK VINA RESULT:    -6.004      2.696      3.417
REMARK INTER + INTRA:          -6.768
REMARK INTER:                  -6.711
REMARK INTRA:                  -0.057
REMARK UNBOUND:                -0.062
REMARK SMILES COc1cc2ccc(=O)oc2c(O)c1O
REMARK SMILES IDX 3 1 14 2 12 3 11 4 5 5 4 6 6 7 7 8 8 9 9 10 10 11 2 12 1 13
REMARK SMILES IDX 15 14 13 16
REMARK H PARENT 15 15 13 17
REMARK Flexibility Score: inf
ROOT
ATOM      1  C   UNL     1      -3.726  -3.038  10.826  1.00  0.00     0.165 A 
ATOM      2  C   UNL     1      -3.722  -2.939  12.228  1.00  0.00     0.204 A 
ATOM      3  C   UNL     1      -3.379  -1.713  12.851  1.00  0.00     0.205 A 
ATOM      4  C   UNL     1      -3.048  -0.604  12.061  1.00  0.00     0.184 A 
ATOM      5  C   UNL     1      -3.054  -0.707  10.654  1.00  0.00     0.025 A 
ATOM      6  C   UNL     1      -3.392  -1.919  10.043  1.00  0.00     0.062 A 
ATOM      7  C   UNL     1      -2.718   0.421   9.899  1.00  0.00     0.020 A 
ATOM      8  C   UNL     1      -2.388   1.608  10.550  1.00  0.00     0.094 A 
ATOM      9  C   UNL     1      -2.402   1.639  11.948  1.00  0.00     0.336 A 
ATOM     10  O   UNL     1      -2.107   2.701  12.557  1.00  0.00    -0.246 OA
ATOM     11  O   UNL     1      -2.726   0.551  12.642  1.00  0.00    -0.419 OA
ENDROOT
BRANCH   1  12
ATOM     12  O   UNL     1      -4.072  -4.271  10.250  1.00  0.00    -0.493 OA
ATOM     13  C   UNL     1      -4.817  -4.420   9.044  1.00  0.00     0.278 C 
ENDBRANCH   1  12
BRANCH   2  14
ATOM     14  O   UNL     1      -4.062  -4.079  12.962  1.00  0.00    -0.502 OA
ATOM     15  H   UNL     1      -4.722  -4.777  12.654  1.00  0.00     0.293 HD
ENDBRANCH   2  14
BRANCH   3  16
ATOM     16  O   UNL     1      -3.358  -1.556  14.239  1.00  0.00    -0.502 OA
ATOM     17  H   UNL     1      -3.241  -0.670  14.710  1.00  0.00     0.293 HD
ENDBRANCH   3  16
TORSDOF 3
ENDMDL
