MODEL 1
REMARK VINA RESULT:    -5.033      0.000      0.000
REMARK INTER + INTRA:          -8.669
REMARK INTER:                  -7.681
REMARK INTRA:                  -0.988
REMARK UNBOUND:                -0.988
REMARK SMILES CC(=O)CCC=C(C)CCC=C(C)CCC=C(C)C
REMARK SMILES IDX 10 1 11 2 12 3 13 4 14 5 15 6 16 7 18 8 17 9 19 10 9 11 7 12
REMARK SMILES IDX 6 13 8 14 5 15 4 16 2 17 3 18 1 19
REMARK H PARENT
REMARK Flexibility Score: inf
ROOT
ATOM      1  C   UNL     1     181.668 186.170 192.932  1.00  0.00     0.032 C 
ENDROOT
BRANCH   1   2
ATOM      2  C   UNL     1     180.737 185.126 193.502  1.00  0.00    -0.028 C 
ATOM      3  C   UNL     1     179.740 185.379 194.380  1.00  0.00    -0.077 C 
ATOM      4  C   UNL     1     179.396 186.781 194.820  1.00  0.00     0.039 C 
BRANCH   3   5
ATOM      5  C   UNL     1     178.904 184.229 194.903  1.00  0.00     0.034 C 
BRANCH   5   6
ATOM      6  C   UNL     1     177.412 184.586 194.952  1.00  0.00     0.032 C 
BRANCH   6   7
ATOM      7  C   UNL     1     176.697 183.879 196.078  1.00  0.00    -0.028 C 
ATOM      8  C   UNL     1     175.998 183.432 198.390  1.00  0.00     0.039 C 
ATOM      9  C   UNL     1     176.724 184.271 197.371  1.00  0.00    -0.080 C 
ATOM     10  C   UNL     1     177.438 185.527 197.811  1.00  0.00     0.039 C 
ENDBRANCH   6   7
ENDBRANCH   5   6
ENDBRANCH   3   5
ENDBRANCH   1   2
BRANCH   1  11
ATOM     11  C   UNL     1     183.108 185.966 193.423  1.00  0.00     0.034 C 
BRANCH  11  12
ATOM     12  C   UNL     1     183.706 187.240 193.995  1.00  0.00    -0.077 C 
ATOM     13  C   UNL     1     184.788 187.240 194.804  1.00  0.00    -0.028 C 
ATOM     14  C   UNL     1     183.081 188.564 193.635  1.00  0.00     0.039 C 
BRANCH  13  15
ATOM     15  C   UNL     1     185.497 185.986 195.265  1.00  0.00     0.035 C 
BRANCH  15  16
ATOM     16  C   UNL     1     186.780 186.305 196.043  1.00  0.00     0.079 C 
BRANCH  16  17
ATOM     17  C   UNL     1     186.577 186.186 197.532  1.00  0.00     0.130 C 
ATOM     18  O   UNL     1     187.134 185.290 198.146  1.00  0.00    -0.300 OA
ATOM     19  C   UNL     1     185.709 187.155 198.282  1.00  0.00     0.087 C 
ENDBRANCH  16  17
ENDBRANCH  15  16
ENDBRANCH  13  15
ENDBRANCH  11  12
ENDBRANCH   1  11
TORSDOF 9
ENDMDL
MODEL 2
REMARK VINA RESULT:    -5.016      1.476      2.942
REMARK INTER + INTRA:          -8.644
REMARK INTER:                  -7.293
REMARK INTRA:                  -1.351
REMARK UNBOUND:                -0.988
REMARK SMILES CC(=O)CCC=C(C)CCC=C(C)CCC=C(C)C
REMARK SMILES IDX 10 1 11 2 12 3 13 4 14 5 15 6 16 7 18 8 17 9 19 10 9 11 7 12
REMARK SMILES IDX 6 13 8 14 5 15 4 16 2 17 3 18 1 19
REMARK H PARENT
REMARK Flexibility Score: inf
ROOT
ATOM      1  C   UNL     1     183.723 188.723 192.393  1.00  0.00     0.032 C 
ENDROOT
BRANCH   1   2
ATOM      2  C   UNL     1     182.526 188.328 193.224  1.00  0.00    -0.028 C 
ATOM      3  C   UNL     1     181.856 187.159 193.104  1.00  0.00    -0.077 C 
ATOM      4  C   UNL     1     182.308 186.069 192.161  1.00  0.00     0.039 C 
BRANCH   3   5
ATOM      5  C   UNL     1     180.644 186.907 193.977  1.00  0.00     0.034 C 
BRANCH   5   6
ATOM      6  C   UNL     1     180.264 185.420 194.005  1.00  0.00     0.032 C 
BRANCH   6   7
ATOM      7  C   UNL     1     179.003 185.173 194.800  1.00  0.00    -0.028 C 
ATOM      8  C   UNL     1     176.951 184.012 195.488  1.00  0.00     0.039 C 
ATOM      9  C   UNL     1     178.203 184.094 194.655  1.00  0.00    -0.080 C 
ATOM     10  C   UNL     1     178.541 182.970 193.705  1.00  0.00     0.039 C 
ENDBRANCH   6   7
ENDBRANCH   5   6
ENDBRANCH   3   5
ENDBRANCH   1   2
BRANCH   1  11
ATOM     11  C   UNL     1     185.035 188.500 193.158  1.00  0.00     0.034 C 
BRANCH  11  12
ATOM     12  C   UNL     1     185.682 187.169 192.814  1.00  0.00    -0.077 C 
ATOM     13  C   UNL     1     185.697 186.122 193.669  1.00  0.00    -0.028 C 
ATOM     14  C   UNL     1     186.320 186.997 191.459  1.00  0.00     0.039 C 
BRANCH  13  15
ATOM     15  C   UNL     1     185.118 186.163 195.065  1.00  0.00     0.035 C 
BRANCH  15  16
ATOM     16  C   UNL     1     186.066 186.845 196.060  1.00  0.00     0.079 C 
BRANCH  16  17
ATOM     17  C   UNL     1     186.538 185.890 197.127  1.00  0.00     0.130 C 
ATOM     18  O   UNL     1     187.037 184.824 196.804  1.00  0.00    -0.300 OA
ATOM     19  C   UNL     1     186.419 186.229 198.585  1.00  0.00     0.087 C 
ENDBRANCH  16  17
ENDBRANCH  15  16
ENDBRANCH  13  15
ENDBRANCH  11  12
ENDBRANCH   1  11
TORSDOF 9
ENDMDL
MODEL 3
REMARK VINA RESULT:    -5.000      5.521     10.863
REMARK INTER + INTRA:          -8.619
REMARK INTER:                  -7.396
REMARK INTRA:                  -1.223
REMARK UNBOUND:                -0.988
REMARK SMILES CC(=O)CCC=C(C)CCC=C(C)CCC=C(C)C
REMARK SMILES IDX 10 1 11 2 12 3 13 4 14 5 15 6 16 7 18 8 17 9 19 10 9 11 7 12
REMARK SMILES IDX 6 13 8 14 5 15 4 16 2 17 3 18 1 19
REMARK H PARENT
REMARK Flexibility Score: inf
ROOT
ATOM      1  C   UNL     1     188.354 185.276 192.156  1.00  0.00     0.032 C 
ENDROOT
BRANCH   1   2
ATOM      2  C   UNL     1     189.528 185.483 193.083  1.00  0.00    -0.028 C 
ATOM      3  C   UNL     1     190.505 186.399 192.897  1.00  0.00    -0.077 C 
ATOM      4  C   UNL     1     190.469 187.391 191.759  1.00  0.00     0.039 C 
BRANCH   3   5
ATOM      5  C   UNL     1     191.650 186.473 193.887  1.00  0.00     0.034 C 
BRANCH   5   6
ATOM      6  C   UNL     1     192.487 187.745 193.692  1.00  0.00     0.032 C 
BRANCH   6   7
ATOM      7  C   UNL     1     193.671 187.791 194.629  1.00  0.00    -0.028 C 
ATOM      8  C   UNL     1     195.729 188.677 195.636  1.00  0.00     0.039 C 
ATOM      9  C   UNL     1     194.572 188.798 194.680  1.00  0.00    -0.080 C 
ATOM     10  C   UNL     1     194.436 190.036 193.826  1.00  0.00     0.039 C 
ENDBRANCH   6   7
ENDBRANCH   5   6
ENDBRANCH   3   5
ENDBRANCH   1   2
BRANCH   1  11
ATOM     11  C   UNL     1     187.021 185.346 192.915  1.00  0.00     0.034 C 
BRANCH  11  12
ATOM     12  C   UNL     1     186.329 186.686 192.737  1.00  0.00    -0.077 C 
ATOM     13  C   UNL     1     185.528 187.226 193.683  1.00  0.00    -0.028 C 
ATOM     14  C   UNL     1     186.552 187.459 191.462  1.00  0.00     0.039 C 
BRANCH  13  15
ATOM     15  C   UNL     1     185.197 186.550 194.994  1.00  0.00     0.035 C 
BRANCH  15  16
ATOM     16  C   UNL     1     185.926 187.202 196.176  1.00  0.00     0.079 C 
BRANCH  16  17
ATOM     17  C   UNL     1     186.509 186.172 197.111  1.00  0.00     0.130 C 
ATOM     18  O   UNL     1     186.569 186.409 198.307  1.00  0.00    -0.300 OA
ATOM     19  C   UNL     1     187.009 184.851 196.603  1.00  0.00     0.087 C 
ENDBRANCH  16  17
ENDBRANCH  15  16
ENDBRANCH  13  15
ENDBRANCH  11  12
ENDBRANCH   1  11
TORSDOF 9
ENDMDL
MODEL 4
REMARK VINA RESULT:    -4.981      2.911      4.988
REMARK INTER + INTRA:          -8.590
REMARK INTER:                  -6.970
REMARK INTRA:                  -1.620
REMARK UNBOUND:                -0.988
REMARK SMILES CC(=O)CCC=C(C)CCC=C(C)CCC=C(C)C
REMARK SMILES IDX 10 1 11 2 12 3 13 4 14 5 15 6 16 7 18 8 17 9 19 10 9 11 7 12
REMARK SMILES IDX 6 13 8 14 5 15 4 16 2 17 3 18 1 19
REMARK H PARENT
REMARK Flexibility Score: inf
ROOT
ATOM      1  C   UNL     1     184.958 186.092 193.627  1.00  0.00     0.032 C 
ENDROOT
BRANCH   1   2
ATOM      2  C   UNL     1     183.507 186.204 194.029  1.00  0.00    -0.028 C 
ATOM      3  C   UNL     1     182.466 186.203 193.166  1.00  0.00    -0.077 C 
ATOM      4  C   UNL     1     182.654 185.997 191.682  1.00  0.00     0.039 C 
BRANCH   3   5
ATOM      5  C   UNL     1     181.058 186.362 193.703  1.00  0.00     0.034 C 
BRANCH   5   6
ATOM      6  C   UNL     1     180.280 185.040 193.656  1.00  0.00     0.032 C 
BRANCH   6   7
ATOM      7  C   UNL     1     179.189 184.988 194.699  1.00  0.00    -0.028 C 
ATOM      8  C   UNL     1     177.219 184.110 195.875  1.00  0.00     0.039 C 
ATOM      9  C   UNL     1     178.279 183.995 194.811  1.00  0.00    -0.080 C 
ATOM     10  C   UNL     1     178.311 182.777 193.918  1.00  0.00     0.039 C 
ENDBRANCH   6   7
ENDBRANCH   5   6
ENDBRANCH   3   5
ENDBRANCH   1   2
BRANCH   1  11
ATOM     11  C   UNL     1     185.587 187.475 193.404  1.00  0.00     0.034 C 
BRANCH  11  12
ATOM     12  C   UNL     1     185.292 188.431 194.548  1.00  0.00    -0.077 C 
ATOM     13  C   UNL     1     184.391 189.433 194.449  1.00  0.00    -0.028 C 
ATOM     14  C   UNL     1     186.020 188.248 195.855  1.00  0.00     0.039 C 
BRANCH  13  15
ATOM     15  C   UNL     1     183.610 189.745 193.193  1.00  0.00     0.035 C 
BRANCH  15  16
ATOM     16  C   UNL     1     182.107 189.880 193.469  1.00  0.00     0.079 C 
BRANCH  16  17
ATOM     17  C   UNL     1     181.311 189.989 192.193  1.00  0.00     0.130 C 
ATOM     18  O   UNL     1     180.212 190.520 192.213  1.00  0.00    -0.300 OA
ATOM     19  C   UNL     1     181.847 189.469 190.891  1.00  0.00     0.087 C 
ENDBRANCH  16  17
ENDBRANCH  15  16
ENDBRANCH  13  15
ENDBRANCH  11  12
ENDBRANCH   1  11
TORSDOF 9
ENDMDL
MODEL 5
REMARK VINA RESULT:    -4.906      1.932      3.429
REMARK INTER + INTRA:          -8.476
REMARK INTER:                  -7.128
REMARK INTRA:                  -1.347
REMARK UNBOUND:                -0.988
REMARK SMILES CC(=O)CCC=C(C)CCC=C(C)CCC=C(C)C
REMARK SMILES IDX 10 1 11 2 12 3 13 4 14 5 15 6 16 7 18 8 17 9 19 10 9 11 7 12
REMARK SMILES IDX 6 13 8 14 5 15 4 16 2 17 3 18 1 19
REMARK H PARENT
REMARK Flexibility Score: inf
ROOT
ATOM      1  C   UNL     1     184.819 187.032 191.730  1.00  0.00     0.032 C 
ENDROOT
BRANCH   1   2
ATOM      2  C   UNL     1     183.697 186.942 192.736  1.00  0.00    -0.028 C 
ATOM      3  C   UNL     1     182.558 186.234 192.560  1.00  0.00    -0.077 C 
ATOM      4  C   UNL     1     182.331 185.371 191.342  1.00  0.00     0.039 C 
BRANCH   3   5
ATOM      5  C   UNL     1     181.494 186.263 193.637  1.00  0.00     0.034 C 
BRANCH   5   6
ATOM      6  C   UNL     1     180.459 185.146 193.443  1.00  0.00     0.032 C 
BRANCH   6   7
ATOM      7  C   UNL     1     179.477 185.079 194.589  1.00  0.00    -0.028 C 
ATOM      8  C   UNL     1     177.624 184.191 195.934  1.00  0.00     0.039 C 
ATOM      9  C   UNL     1     178.570 184.093 194.767  1.00  0.00    -0.080 C 
ATOM     10  C   UNL     1     178.496 182.899 193.845  1.00  0.00     0.039 C 
ENDBRANCH   6   7
ENDBRANCH   5   6
ENDBRANCH   3   5
ENDBRANCH   1   2
BRANCH   1  11
ATOM     11  C   UNL     1     186.143 186.527 192.320  1.00  0.00     0.034 C 
BRANCH  11  12
ATOM     12  C   UNL     1     186.123 185.031 192.580  1.00  0.00    -0.077 C 
ATOM     13  C   UNL     1     186.401 184.496 193.791  1.00  0.00    -0.028 C 
ATOM     14  C   UNL     1     185.761 184.099 191.452  1.00  0.00     0.039 C 
BRANCH  13  15
ATOM     15  C   UNL     1     186.802 185.309 195.000  1.00  0.00     0.035 C 
BRANCH  15  16
ATOM     16  C   UNL     1     185.584 185.775 195.809  1.00  0.00     0.079 C 
BRANCH  16  17
ATOM     17  C   UNL     1     185.941 186.876 196.775  1.00  0.00     0.130 C 
ATOM     18  O   UNL     1     185.831 188.041 196.429  1.00  0.00    -0.300 OA
ATOM     19  C   UNL     1     186.420 186.569 198.165  1.00  0.00     0.087 C 
ENDBRANCH  16  17
ENDBRANCH  15  16
ENDBRANCH  13  15
ENDBRANCH  11  12
ENDBRANCH   1  11
TORSDOF 9
ENDMDL
MODEL 6
REMARK VINA RESULT:    -4.904      4.986     11.170
REMARK INTER + INTRA:          -8.472
REMARK INTER:                  -7.537
REMARK INTRA:                  -0.935
REMARK UNBOUND:                -0.988
REMARK SMILES CC(=O)CCC=C(C)CCC=C(C)CCC=C(C)C
REMARK SMILES IDX 10 1 11 2 12 3 13 4 14 5 15 6 16 7 18 8 17 9 19 10 9 11 7 12
REMARK SMILES IDX 6 13 8 14 5 15 4 16 2 17 3 18 1 19
REMARK H PARENT
REMARK Flexibility Score: inf
ROOT
ATOM      1  C   UNL     1     188.184 186.347 193.874  1.00  0.00     0.032 C 
ENDROOT
BRANCH   1   2
ATOM      2  C   UNL     1     189.685 186.516 193.872  1.00  0.00    -0.028 C 
ATOM      3  C   UNL     1     190.572 185.533 193.595  1.00  0.00    -0.077 C 
ATOM      4  C   UNL     1     190.131 184.155 193.165  1.00  0.00     0.039 C 
BRANCH   3   5
ATOM      5  C   UNL     1     192.055 185.831 193.668  1.00  0.00     0.034 C 
BRANCH   5   6
ATOM      6  C   UNL     1     192.323 187.325 193.902  1.00  0.00     0.032 C 
BRANCH   6   7
ATOM      7  C   UNL     1     193.508 187.551 194.811  1.00  0.00    -0.028 C 
ATOM      8  C   UNL     1     195.527 188.657 195.668  1.00  0.00     0.039 C 
ATOM      9  C   UNL     1     194.361 188.595 194.716  1.00  0.00    -0.080 C 
ATOM     10  C   UNL     1     194.165 189.698 193.704  1.00  0.00     0.039 C 
ENDBRANCH   6   7
ENDBRANCH   5   6
ENDBRANCH   3   5
ENDBRANCH   1   2
BRANCH   1  11
ATOM     11  C   UNL     1     187.540 187.068 195.067  1.00  0.00     0.034 C 
BRANCH  11  12
ATOM     12  C   UNL     1     186.535 186.190 195.794  1.00  0.00    -0.077 C 
ATOM     13  C   UNL     1     185.236 186.110 195.428  1.00  0.00    -0.028 C 
ATOM     14  C   UNL     1     187.003 185.359 196.961  1.00  0.00     0.039 C 
BRANCH  13  15
ATOM     15  C   UNL     1     184.627 186.906 194.296  1.00  0.00     0.035 C 
BRANCH  15  16
ATOM     16  C   UNL     1     184.398 186.044 193.047  1.00  0.00     0.079 C 
BRANCH  16  17
ATOM     17  C   UNL     1     182.941 185.988 192.666  1.00  0.00     0.130 C 
ATOM     18  O   UNL     1     182.624 185.590 191.556  1.00  0.00    -0.300 OA
ATOM     19  C   UNL     1     181.865 186.399 193.628  1.00  0.00     0.087 C 
ENDBRANCH  16  17
ENDBRANCH  15  16
ENDBRANCH  13  15
ENDBRANCH  11  12
ENDBRANCH   1  11
TORSDOF 9
ENDMDL
MODEL 7
REMARK VINA RESULT:    -4.888      6.191     10.522
REMARK INTER + INTRA:          -8.448
REMARK INTER:                  -7.215
REMARK INTRA:                  -1.233
REMARK UNBOUND:                -0.988
REMARK SMILES CC(=O)CCC=C(C)CCC=C(C)CCC=C(C)C
REMARK SMILES IDX 10 1 11 2 12 3 13 4 14 5 15 6 16 7 18 8 17 9 19 10 9 11 7 12
REMARK SMILES IDX 6 13 8 14 5 15 4 16 2 17 3 18 1 19
REMARK H PARENT
REMARK Flexibility Score: inf
ROOT
ATOM      1  C   UNL     1     187.553 184.754 195.297  1.00  0.00     0.032 C 
ENDROOT
BRANCH   1   2
ATOM      2  C   UNL     1     188.461 185.808 194.711  1.00  0.00    -0.028 C 
ATOM      3  C   UNL     1     189.364 185.588 193.728  1.00  0.00    -0.077 C 
ATOM      4  C   UNL     1     189.494 184.248 193.044  1.00  0.00     0.039 C 
BRANCH   3   5
ATOM      5  C   UNL     1     190.242 186.730 193.260  1.00  0.00     0.034 C 
BRANCH   5   6
ATOM      6  C   UNL     1     191.671 186.610 193.807  1.00  0.00     0.032 C 
BRANCH   6   7
ATOM      7  C   UNL     1     192.513 187.814 193.460  1.00  0.00    -0.028 C 
ATOM      8  C   UNL     1     194.188 189.579 193.796  1.00  0.00     0.039 C 
ATOM      9  C   UNL     1     193.464 188.343 194.262  1.00  0.00    -0.080 C 
ATOM     10  C   UNL     1     193.828 187.721 195.589  1.00  0.00     0.039 C 
ENDBRANCH   6   7
ENDBRANCH   5   6
ENDBRANCH   3   5
ENDBRANCH   1   2
BRANCH   1  11
ATOM     11  C   UNL     1     186.185 185.339 195.676  1.00  0.00     0.034 C 
BRANCH  11  12
ATOM     12  C   UNL     1     186.283 186.336 196.818  1.00  0.00    -0.077 C 
ATOM     13  C   UNL     1     185.957 187.640 196.679  1.00  0.00    -0.028 C 
ATOM     14  C   UNL     1     186.747 185.854 198.169  1.00  0.00     0.039 C 
BRANCH  13  15
ATOM     15  C   UNL     1     185.503 188.263 195.379  1.00  0.00     0.035 C 
BRANCH  15  16
ATOM     16  C   UNL     1     186.519 189.278 194.842  1.00  0.00     0.079 C 
BRANCH  16  17
ATOM     17  C   UNL     1     186.607 189.241 193.337  1.00  0.00     0.130 C 
ATOM     18  O   UNL     1     186.688 188.165 192.765  1.00  0.00    -0.300 OA
ATOM     19  C   UNL     1     186.585 190.501 192.522  1.00  0.00     0.087 C 
ENDBRANCH  16  17
ENDBRANCH  15  16
ENDBRANCH  13  15
ENDBRANCH  11  12
ENDBRANCH   1  11
TORSDOF 9
ENDMDL
MODEL 8
REMARK VINA RESULT:    -4.882      1.601      3.188
REMARK INTER + INTRA:          -8.438
REMARK INTER:                  -6.842
REMARK INTRA:                  -1.596
REMARK UNBOUND:                -0.988
REMARK SMILES CC(=O)CCC=C(C)CCC=C(C)CCC=C(C)C
REMARK SMILES IDX 10 1 11 2 12 3 13 4 14 5 15 6 16 7 18 8 17 9 19 10 9 11 7 12
REMARK SMILES IDX 6 13 8 14 5 15 4 16 2 17 3 18 1 19
REMARK H PARENT
REMARK Flexibility Score: inf
ROOT
ATOM      1  C   UNL     1     184.167 188.783 192.161  1.00  0.00     0.032 C 
ENDROOT
BRANCH   1   2
ATOM      2  C   UNL     1     183.560 187.509 192.700  1.00  0.00    -0.028 C 
ATOM      3  C   UNL     1     182.326 187.414 193.246  1.00  0.00    -0.077 C 
ATOM      4  C   UNL     1     181.376 188.587 193.291  1.00  0.00     0.039 C 
BRANCH   3   5
ATOM      5  C   UNL     1     181.856 186.079 193.786  1.00  0.00     0.034 C 
BRANCH   5   6
ATOM      6  C   UNL     1     180.382 185.817 193.447  1.00  0.00     0.032 C 
BRANCH   6   7
ATOM      7  C   UNL     1     179.552 185.575 194.685  1.00  0.00    -0.028 C 
ATOM      8  C   UNL     1     177.954 184.420 196.151  1.00  0.00     0.039 C 
ATOM      9  C   UNL     1     178.761 184.496 194.882  1.00  0.00    -0.080 C 
ATOM     10  C   UNL     1     178.684 183.369 193.880  1.00  0.00     0.039 C 
ENDBRANCH   6   7
ENDBRANCH   5   6
ENDBRANCH   3   5
ENDBRANCH   1   2
BRANCH   1  11
ATOM     11  C   UNL     1     185.425 189.181 192.944  1.00  0.00     0.034 C 
BRANCH  11  12
ATOM     12  C   UNL     1     185.094 189.747 194.314  1.00  0.00    -0.077 C 
ATOM     13  C   UNL     1     185.625 189.254 195.456  1.00  0.00    -0.028 C 
ATOM     14  C   UNL     1     184.149 190.917 194.410  1.00  0.00     0.039 C 
BRANCH  13  15
ATOM     15  C   UNL     1     186.564 188.071 195.508  1.00  0.00     0.035 C 
BRANCH  15  16
ATOM     16  C   UNL     1     186.197 187.096 196.635  1.00  0.00     0.079 C 
BRANCH  16  17
ATOM     17  C   UNL     1     186.203 185.665 196.161  1.00  0.00     0.130 C 
ATOM     18  O   UNL     1     186.924 184.850 196.715  1.00  0.00    -0.300 OA
ATOM     19  C   UNL     1     185.330 185.214 195.027  1.00  0.00     0.087 C 
ENDBRANCH  16  17
ENDBRANCH  15  16
ENDBRANCH  13  15
ENDBRANCH  11  12
ENDBRANCH   1  11
TORSDOF 9
ENDMDL
MODEL 9
REMARK VINA RESULT:    -4.747     10.880     14.465
REMARK INTER + INTRA:          -8.232
REMARK INTER:                  -7.153
REMARK INTRA:                  -1.079
REMARK UNBOUND:                -0.988
REMARK SMILES CC(=O)CCC=C(C)CCC=C(C)CCC=C(C)C
REMARK SMILES IDX 10 1 11 2 12 3 13 4 14 5 15 6 16 7 18 8 17 9 19 10 9 11 7 12
REMARK SMILES IDX 6 13 8 14 5 15 4 16 2 17 3 18 1 19
REMARK H PARENT
REMARK Flexibility Score: inf
ROOT
ATOM      1  C   UNL     1     192.377 178.267 197.987  1.00  0.00     0.032 C 
ENDROOT
BRANCH   1   2
ATOM      2  C   UNL     1     193.139 178.079 196.697  1.00  0.00    -0.028 C 
ATOM      3  C   UNL     1     194.111 178.904 196.248  1.00  0.00    -0.077 C 
ATOM      4  C   UNL     1     194.602 180.080 197.058  1.00  0.00     0.039 C 
BRANCH   3   5
ATOM      5  C   UNL     1     194.768 178.618 194.913  1.00  0.00     0.034 C 
BRANCH   5   6
ATOM      6  C   UNL     1     195.356 179.890 194.286  1.00  0.00     0.032 C 
BRANCH   6   7
ATOM      7  C   UNL     1     194.609 180.304 193.040  1.00  0.00    -0.028 C 
ATOM      8  C   UNL     1     192.966 181.531 191.687  1.00  0.00     0.039 C 
ATOM      9  C   UNL     1     193.659 181.265 192.998  1.00  0.00    -0.080 C 
ATOM     10  C   UNL     1     193.293 182.082 194.215  1.00  0.00     0.039 C 
ENDBRANCH   6   7
ENDBRANCH   5   6
ENDBRANCH   3   5
ENDBRANCH   1   2
BRANCH   1  11
ATOM     11  C   UNL     1     191.866 176.929 198.538  1.00  0.00     0.034 C 
BRANCH  11  12
ATOM     12  C   UNL     1     191.421 177.036 199.986  1.00  0.00    -0.077 C 
ATOM     13  C   UNL     1     190.211 177.521 200.345  1.00  0.00    -0.028 C 
ATOM     14  C   UNL     1     192.354 176.567 201.073  1.00  0.00     0.039 C 
BRANCH  13  15
ATOM     15  C   UNL     1     189.188 178.048 199.363  1.00  0.00     0.035 C 
BRANCH  15  16
ATOM     16  C   UNL     1     189.054 179.574 199.438  1.00  0.00     0.079 C 
BRANCH  16  17
ATOM     17  C   UNL     1     188.121 180.001 200.543  1.00  0.00     0.130 C 
ATOM     18  O   UNL     1     186.918 179.840 200.411  1.00  0.00    -0.300 OA
ATOM     19  C   UNL     1     188.642 180.610 201.812  1.00  0.00     0.087 C 
ENDBRANCH  16  17
ENDBRANCH  15  16
ENDBRANCH  13  15
ENDBRANCH  11  12
ENDBRANCH   1  11
TORSDOF 9
ENDMDL
