MODEL 1
REMARK VINA RESULT:    -3.540      0.000      0.000
REMARK INTER + INTRA:          -5.587
REMARK INTER:                  -5.403
REMARK INTRA:                  -0.184
REMARK UNBOUND:                -0.184
REMARK SMILES CC1=CCC[C@@H](C)C(=O)C[C@@H](C(C)C)C(=O)C1
REMARK SMILES IDX 8 1 9 2 6 3 7 4 5 5 4 6 3 7 2 8 1 9 10 11 11 12 15 13 16 14
REMARK SMILES IDX 17 15 12 17 13 18 14 19
REMARK H PARENT
REMARK Flexibility Score: 70.00
ROOT
ATOM      1  C   UNL     1      28.861 -42.707 -19.121  1.00  0.00     0.136 C 
ATOM      2  O   UNL     1      29.003 -41.492 -19.100  1.00  0.00    -0.299 OA
ENDROOT
BRANCH   1   3
ATOM      3  C   UNL     1      29.340 -43.537 -17.946  1.00  0.00     0.053 C 
ATOM      4  C   UNL     1      29.647 -44.960 -18.422  1.00  0.00     0.016 C 
BRANCH   3   5
ATOM      5  C   UNL     1      28.306 -43.573 -16.793  1.00  0.00     0.015 C 
BRANCH   5   6
ATOM      6  C   UNL     1      27.270 -44.702 -16.910  1.00  0.00     0.028 C 
BRANCH   6   7
ATOM      7  C   UNL     1      25.860 -44.159 -16.951  1.00  0.00    -0.028 C 
ATOM      8  C   UNL     1      25.102 -44.048 -18.065  1.00  0.00    -0.070 CG0
ATOM      9  C   UNL     1      23.717 -43.468 -17.924  1.00  0.00     0.039 C 
ATOM     10  G   UNL     1      25.587 -44.467 -19.442  1.00  0.00     0.000 G0
ENDBRANCH   6   7
ENDBRANCH   5   6
ENDBRANCH   3   5
ENDBRANCH   1   3
BRANCH   1  11
ATOM     11  C   UNL     1      28.164 -43.345 -20.302  1.00  0.00     0.087 C 
BRANCH  11  12
ATOM     12  C   UNL     1      26.916 -42.553 -20.770  1.00  0.00     0.066 C 
BRANCH  12  13
ATOM     13  C   UNL     1      25.629 -43.307 -20.462  1.00  0.00     0.140 C 
ATOM     14  O   UNL     1      24.585 -42.948 -20.985  1.00  0.00    -0.299 OA
BRANCH  13  15
ATOM     15  C   UNL     1      25.575 -44.448 -19.471  1.00  0.00     0.106 CG0
ATOM     16  G   UNL     1      25.110 -44.038 -18.084  1.00  0.00     0.000 G0
ENDBRANCH  13  15
ENDBRANCH  12  13
BRANCH  12  17
ATOM     17  C   UNL     1      26.961 -42.130 -22.271  1.00  0.00    -0.006 C 
ATOM     18  C   UNL     1      27.784 -43.073 -23.166  1.00  0.00     0.008 C 
ATOM     19  C   UNL     1      27.452 -40.683 -22.442  1.00  0.00     0.008 C 
ENDBRANCH  12  17
ENDBRANCH  11  12
ENDBRANCH   1  11
TORSDOF 1
ENDMDL
MODEL 2
REMARK VINA RESULT:    -3.068     11.467     14.176
REMARK INTER + INTRA:          -4.866
REMARK INTER:                  -4.559
REMARK INTRA:                  -0.306
REMARK UNBOUND:                -0.184
REMARK SMILES CC1=CCC[C@@H](C)C(=O)C[C@@H](C(C)C)C(=O)C1
REMARK SMILES IDX 8 1 9 2 6 3 7 4 5 5 4 6 3 7 2 8 1 9 10 11 11 12 15 13 16 14
REMARK SMILES IDX 17 15 12 17 13 18 14 19
REMARK H PARENT
REMARK Flexibility Score: 70.00
ROOT
ATOM      1  C   UNL     1      20.099 -43.565  -9.984  1.00  0.00     0.136 C 
ATOM      2  O   UNL     1      20.414 -42.684 -10.773  1.00  0.00    -0.299 OA
ENDROOT
BRANCH   1   3
ATOM      3  C   UNL     1      19.716 -44.935 -10.507  1.00  0.00     0.053 C 
ATOM      4  C   UNL     1      20.722 -45.368 -11.579  1.00  0.00     0.016 C 
BRANCH   3   5
ATOM      5  C   UNL     1      18.279 -44.962 -11.083  1.00  0.00     0.015 C 
BRANCH   5   6
ATOM      6  C   UNL     1      17.254 -45.680 -10.190  1.00  0.00     0.028 C 
BRANCH   6   7
ATOM      7  C   UNL     1      16.312 -44.702  -9.529  1.00  0.00    -0.028 C 
ATOM      8  C   UNL     1      16.284 -44.422  -8.206  1.00  0.00    -0.070 CG0
ATOM      9  C   UNL     1      15.265 -43.426  -7.714  1.00  0.00     0.039 C 
ATOM     10  G   UNL     1      17.220 -45.073  -7.202  1.00  0.00     0.000 G0
ENDBRANCH   6   7
ENDBRANCH   5   6
ENDBRANCH   3   5
ENDBRANCH   1   3
BRANCH   1  11
ATOM     11  C   UNL     1      20.150 -43.274  -8.501  1.00  0.00     0.087 C 
BRANCH  11  12
ATOM     12  C   UNL     1      19.778 -44.501  -7.629  1.00  0.00     0.066 C 
BRANCH  12  13
ATOM     13  C   UNL     1      18.465 -44.282  -6.889  1.00  0.00     0.140 C 
ATOM     14  O   UNL     1      18.423 -43.480  -5.967  1.00  0.00    -0.299 OA
BRANCH  13  15
ATOM     15  C   UNL     1      17.215 -45.073  -7.203  1.00  0.00     0.106 CG0
ATOM     16  G   UNL     1      16.310 -44.413  -8.230  1.00  0.00     0.000 G0
ENDBRANCH  13  15
ENDBRANCH  12  13
BRANCH  12  17
ATOM     17  C   UNL     1      20.902 -44.938  -6.639  1.00  0.00    -0.006 C 
ATOM     18  C   UNL     1      21.610 -43.768  -5.933  1.00  0.00     0.008 C 
ATOM     19  C   UNL     1      21.941 -45.846  -7.319  1.00  0.00     0.008 C 
ENDBRANCH  12  17
ENDBRANCH  11  12
ENDBRANCH   1  11
TORSDOF 1
ENDMDL
MODEL 3
REMARK VINA RESULT:    -3.008     12.029     14.761
REMARK INTER + INTRA:          -4.775
REMARK INTER:                  -4.850
REMARK INTRA:                   0.075
REMARK UNBOUND:                -0.184
REMARK SMILES CC1=CCC[C@@H](C)C(=O)C[C@@H](C(C)C)C(=O)C1
REMARK SMILES IDX 8 1 9 2 6 3 7 4 5 5 4 6 3 7 2 8 1 9 10 11 11 12 15 13 16 14
REMARK SMILES IDX 17 15 12 17 13 18 14 19
REMARK H PARENT
REMARK Flexibility Score: 70.00
ROOT
ATOM      1  C   UNL     1      17.076 -43.434 -10.310  1.00  0.00     0.136 C 
ATOM      2  O   UNL     1      16.319 -42.688 -10.917  1.00  0.00    -0.299 OA
ENDROOT
BRANCH   1   3
ATOM      3  C   UNL     1      18.554 -43.435 -10.647  1.00  0.00     0.053 C 
ATOM      4  C   UNL     1      18.865 -42.251 -11.569  1.00  0.00     0.016 C 
BRANCH   3   5
ATOM      5  C   UNL     1      19.005 -44.759 -11.311  1.00  0.00     0.015 C 
BRANCH   5   6
ATOM      6  C   UNL     1      19.596 -45.787 -10.332  1.00  0.00     0.028 C 
BRANCH   6   7
ATOM      7  C   UNL     1      20.407 -45.117  -9.248  1.00  0.00    -0.028 C 
ATOM      8  C   UNL     1      19.987 -44.909  -7.979  1.00  0.00    -0.070 CG0
ATOM      9  C   UNL     1      20.925 -44.211  -7.028  1.00  0.00     0.039 C 
ATOM     10  G   UNL     1      18.617 -45.336  -7.480  1.00  0.00     0.000 G0
ENDBRANCH   6   7
ENDBRANCH   5   6
ENDBRANCH   3   5
ENDBRANCH   1   3
BRANCH   1  11
ATOM     11  C   UNL     1      16.521 -44.301  -9.203  1.00  0.00     0.087 C 
BRANCH  11  12
ATOM     12  C   UNL     1      16.610 -43.635  -7.807  1.00  0.00     0.066 C 
BRANCH  12  13
ATOM     13  C   UNL     1      17.723 -44.247  -6.966  1.00  0.00     0.140 C 
ATOM     14  O   UNL     1      17.957 -43.790  -5.857  1.00  0.00    -0.299 OA
BRANCH  13  15
ATOM     15  C   UNL     1      18.607 -45.363  -7.479  1.00  0.00     0.106 CG0
ATOM     16  G   UNL     1      19.969 -44.896  -7.964  1.00  0.00     0.000 G0
ENDBRANCH  13  15
ENDBRANCH  12  13
BRANCH  12  17
ATOM     17  C   UNL     1      15.263 -43.631  -7.019  1.00  0.00    -0.006 C 
ATOM     18  C   UNL     1      14.824 -45.018  -6.517  1.00  0.00     0.008 C 
ATOM     19  C   UNL     1      14.129 -42.984  -7.830  1.00  0.00     0.008 C 
ENDBRANCH  12  17
ENDBRANCH  11  12
ENDBRANCH   1  11
TORSDOF 1
ENDMDL
MODEL 4
REMARK VINA RESULT:    -2.965     11.627     12.730
REMARK INTER + INTRA:          -4.709
REMARK INTER:                  -4.325
REMARK INTRA:                  -0.384
REMARK UNBOUND:                -0.184
REMARK SMILES CC1=CCC[C@@H](C)C(=O)C[C@@H](C(C)C)C(=O)C1
REMARK SMILES IDX 8 1 9 2 6 3 7 4 5 5 4 6 3 7 2 8 1 9 10 11 11 12 15 13 16 14
REMARK SMILES IDX 17 15 12 17 13 18 14 19
REMARK H PARENT
REMARK Flexibility Score: 70.00
ROOT
ATOM      1  C   UNL     1      26.393 -32.841 -15.476  1.00  0.00     0.136 C 
ATOM      2  O   UNL     1      25.796 -32.799 -16.543  1.00  0.00    -0.299 OA
ENDROOT
BRANCH   1   3
ATOM      3  C   UNL     1      27.577 -33.775 -15.319  1.00  0.00     0.053 C 
ATOM      4  C   UNL     1      28.388 -33.788 -16.619  1.00  0.00     0.016 C 
BRANCH   3   5
ATOM      5  C   UNL     1      27.145 -35.214 -14.947  1.00  0.00     0.015 C 
BRANCH   5   6
ATOM      6  C   UNL     1      26.726 -35.387 -13.478  1.00  0.00     0.028 C 
BRANCH   6   7
ATOM      7  C   UNL     1      27.859 -35.057 -12.535  1.00  0.00    -0.028 C 
ATOM      8  C   UNL     1      27.882 -34.006 -11.685  1.00  0.00    -0.070 CG0
ATOM      9  C   UNL     1      29.104 -33.818 -10.822  1.00  0.00     0.039 C 
ATOM     10  G   UNL     1      26.742 -33.007 -11.572  1.00  0.00     0.000 G0
ENDBRANCH   6   7
ENDBRANCH   5   6
ENDBRANCH   3   5
ENDBRANCH   1   3
BRANCH   1  11
ATOM     11  C   UNL     1      25.962 -31.921 -14.357  1.00  0.00     0.087 C 
BRANCH  11  12
ATOM     12  C   UNL     1      27.155 -31.300 -13.587  1.00  0.00     0.066 C 
BRANCH  12  13
ATOM     13  C   UNL     1      27.089 -31.621 -12.100  1.00  0.00     0.140 C 
ATOM     14  O   UNL     1      27.388 -30.759 -11.287  1.00  0.00    -0.299 OA
BRANCH  13  15
ATOM     15  C   UNL     1      26.732 -32.997 -11.582  1.00  0.00     0.106 CG0
ATOM     16  G   UNL     1      27.866 -34.004 -11.677  1.00  0.00     0.000 G0
ENDBRANCH  13  15
ENDBRANCH  12  13
BRANCH  12  17
ATOM     17  C   UNL     1      27.325 -29.766 -13.813  1.00  0.00    -0.006 C 
ATOM     18  C   UNL     1      26.195 -29.122 -14.636  1.00  0.00     0.008 C 
ATOM     19  C   UNL     1      28.687 -29.427 -14.439  1.00  0.00     0.008 C 
ENDBRANCH  12  17
ENDBRANCH  11  12
ENDBRANCH   1  11
TORSDOF 1
ENDMDL
MODEL 5
REMARK VINA RESULT:    -2.955     11.503     12.566
REMARK INTER + INTRA:          -4.693
REMARK INTER:                  -4.879
REMARK INTRA:                   0.186
REMARK UNBOUND:                -0.184
REMARK SMILES CC1=CCC[C@@H](C)C(=O)C[C@@H](C(C)C)C(=O)C1
REMARK SMILES IDX 8 1 9 2 6 3 7 4 5 5 4 6 3 7 2 8 1 9 10 11 11 12 15 13 16 14
REMARK SMILES IDX 17 15 12 17 13 18 14 19
REMARK H PARENT
REMARK Flexibility Score: 70.00
ROOT
ATOM      1  C   UNL     1      28.085 -31.778 -11.709  1.00  0.00     0.136 C 
ATOM      2  O   UNL     1      27.934 -31.015 -10.765  1.00  0.00    -0.299 OA
ENDROOT
BRANCH   1   3
ATOM      3  C   UNL     1      27.661 -33.227 -11.576  1.00  0.00     0.053 C 
ATOM      4  C   UNL     1      26.425 -33.312 -10.673  1.00  0.00     0.016 C 
BRANCH   3   5
ATOM      5  C   UNL     1      28.794 -34.121 -11.013  1.00  0.00     0.015 C 
BRANCH   5   6
ATOM      6  C   UNL     1      29.850 -34.529 -12.052  1.00  0.00     0.028 C 
BRANCH   6   7
ATOM      7  C   UNL     1      29.240 -35.324 -13.182  1.00  0.00    -0.028 C 
ATOM      8  C   UNL     1      28.981 -34.844 -14.419  1.00  0.00    -0.070 CG0
ATOM      9  C   UNL     1      28.353 -35.776 -15.424  1.00  0.00     0.039 C 
ATOM     10  G   UNL     1      29.282 -33.413 -14.832  1.00  0.00     0.000 G0
ENDBRANCH   6   7
ENDBRANCH   5   6
ENDBRANCH   3   5
ENDBRANCH   1   3
BRANCH   1  11
ATOM     11  C   UNL     1      28.648 -31.239 -13.005  1.00  0.00     0.087 C 
BRANCH  11  12
ATOM     12  C   UNL     1      27.668 -31.379 -14.198  1.00  0.00     0.066 C 
BRANCH  12  13
ATOM     13  C   UNL     1      28.026 -32.569 -15.078  1.00  0.00     0.140 C 
ATOM     14  O   UNL     1      27.263 -32.903 -15.973  1.00  0.00    -0.299 OA
BRANCH  13  15
ATOM     15  C   UNL     1      29.264 -33.406 -14.846  1.00  0.00     0.106 CG0
ATOM     16  G   UNL     1      28.970 -34.841 -14.440  1.00  0.00     0.000 G0
ENDBRANCH  13  15
ENDBRANCH  12  13
BRANCH  12  17
ATOM     17  C   UNL     1      27.524 -30.083 -15.054  1.00  0.00    -0.006 C 
ATOM     18  C   UNL     1      28.481 -28.949 -14.646  1.00  0.00     0.008 C 
ATOM     19  C   UNL     1      26.076 -29.566 -15.071  1.00  0.00     0.008 C 
ENDBRANCH  12  17
ENDBRANCH  11  12
ENDBRANCH   1  11
TORSDOF 1
ENDMDL
MODEL 6
REMARK VINA RESULT:    -2.918     12.658     14.194
REMARK INTER + INTRA:          -4.638
REMARK INTER:                  -4.123
REMARK INTRA:                  -0.515
REMARK UNBOUND:                -0.184
REMARK SMILES CC1=CCC[C@@H](C)C(=O)C[C@@H](C(C)C)C(=O)C1
REMARK SMILES IDX 8 1 9 2 6 3 7 4 5 5 4 6 3 7 2 8 1 9 10 11 11 12 15 13 16 14
REMARK SMILES IDX 17 15 12 17 13 18 14 19
REMARK H PARENT
REMARK Flexibility Score: 70.00
ROOT
ATOM      1  C   UNL     1      24.969 -32.549 -11.656  1.00  0.00     0.136 C 
ATOM      2  O   UNL     1      23.880 -33.097 -11.545  1.00  0.00    -0.299 OA
ENDROOT
BRANCH   1   3
ATOM      3  C   UNL     1      25.041 -31.036 -11.723  1.00  0.00     0.053 C 
ATOM      4  C   UNL     1      24.126 -30.437 -10.649  1.00  0.00     0.016 C 
BRANCH   3   5
ATOM      5  C   UNL     1      24.650 -30.491 -13.119  1.00  0.00     0.015 C 
BRANCH   5   6
ATOM      6  C   UNL     1      25.841 -30.013 -13.965  1.00  0.00     0.028 C 
BRANCH   6   7
ATOM      7  C   UNL     1      26.341 -31.102 -14.884  1.00  0.00    -0.028 C 
ATOM      8  C   UNL     1      27.503 -31.776 -14.731  1.00  0.00    -0.070 CG0
ATOM      9  C   UNL     1      27.854 -32.826 -15.755  1.00  0.00     0.039 C 
ATOM     10  G   UNL     1      28.468 -31.514 -13.587  1.00  0.00     0.000 G0
ENDBRANCH   6   7
ENDBRANCH   5   6
ENDBRANCH   3   5
ENDBRANCH   1   3
BRANCH   1  11
ATOM     11  C   UNL     1      26.220 -33.398 -11.675  1.00  0.00     0.087 C 
BRANCH  11  12
ATOM     12  C   UNL     1      27.505 -32.592 -11.359  1.00  0.00     0.066 C 
BRANCH  12  13
ATOM     13  C   UNL     1      28.478 -32.611 -12.531  1.00  0.00     0.140 C 
ATOM     14  O   UNL     1      29.322 -33.493 -12.595  1.00  0.00    -0.299 OA
BRANCH  13  15
ATOM     15  C   UNL     1      28.489 -31.534 -13.593  1.00  0.00     0.106 CG0
ATOM     16  G   UNL     1      27.502 -31.774 -14.724  1.00  0.00     0.000 G0
ENDBRANCH  13  15
ENDBRANCH  12  13
BRANCH  12  17
ATOM     17  C   UNL     1      28.220 -33.029 -10.043  1.00  0.00    -0.006 C 
ATOM     18  C   UNL     1      27.539 -34.203  -9.317  1.00  0.00     0.008 C 
ATOM     19  C   UNL     1      28.405 -31.850  -9.074  1.00  0.00     0.008 C 
ENDBRANCH  12  17
ENDBRANCH  11  12
ENDBRANCH   1  11
TORSDOF 1
ENDMDL
MODEL 7
REMARK VINA RESULT:    -2.890      1.848      3.786
REMARK INTER + INTRA:          -4.595
REMARK INTER:                  -4.237
REMARK INTRA:                  -0.358
REMARK UNBOUND:                -0.184
REMARK SMILES CC1=CCC[C@@H](C)C(=O)C[C@@H](C(C)C)C(=O)C1
REMARK SMILES IDX 8 1 9 2 6 3 7 4 5 5 4 6 3 7 2 8 1 9 10 11 11 12 15 13 16 14
REMARK SMILES IDX 17 15 12 17 13 18 14 19
REMARK H PARENT
REMARK Flexibility Score: 70.00
ROOT
ATOM      1  C   UNL     1      25.157 -41.892 -18.892  1.00  0.00     0.136 C 
ATOM      2  O   UNL     1      24.688 -41.168 -18.023  1.00  0.00    -0.299 OA
ENDROOT
BRANCH   1   3
ATOM      3  C   UNL     1      24.639 -43.308 -19.044  1.00  0.00     0.053 C 
ATOM      4  C   UNL     1      23.158 -43.268 -19.434  1.00  0.00     0.016 C 
BRANCH   3   5
ATOM      5  C   UNL     1      24.827 -44.144 -17.753  1.00  0.00     0.015 C 
BRANCH   5   6
ATOM      6  C   UNL     1      26.267 -44.629 -17.519  1.00  0.00     0.028 C 
BRANCH   6   7
ATOM      7  C   UNL     1      26.950 -43.835 -16.430  1.00  0.00    -0.028 C 
ATOM      8  C   UNL     1      28.114 -43.163 -16.571  1.00  0.00    -0.070 CG0
ATOM      9  C   UNL     1      28.662 -42.434 -15.370  1.00  0.00     0.039 C 
ATOM     10  G   UNL     1      28.895 -43.123 -17.874  1.00  0.00     0.000 G0
ENDBRANCH   6   7
ENDBRANCH   5   6
ENDBRANCH   3   5
ENDBRANCH   1   3
BRANCH   1  11
ATOM     11  C   UNL     1      26.208 -41.333 -19.825  1.00  0.00     0.087 C 
BRANCH  11  12
ATOM     12  C   UNL     1      27.454 -42.246 -19.951  1.00  0.00     0.066 C 
BRANCH  12  13
ATOM     13  C   UNL     1      28.443 -41.999 -18.820  1.00  0.00     0.140 C 
ATOM     14  O   UNL     1      28.935 -40.888 -18.686  1.00  0.00    -0.299 OA
BRANCH  13  15
ATOM     15  C   UNL     1      28.901 -43.100 -17.889  1.00  0.00     0.106 CG0
ATOM     16  G   UNL     1      28.129 -43.162 -16.582  1.00  0.00     0.000 G0
ENDBRANCH  13  15
ENDBRANCH  12  13
BRANCH  12  17
ATOM     17  C   UNL     1      28.167 -42.156 -21.336  1.00  0.00    -0.006 C 
ATOM     18  C   UNL     1      27.329 -41.475 -22.433  1.00  0.00     0.008 C 
ATOM     19  C   UNL     1      28.647 -43.533 -21.823  1.00  0.00     0.008 C 
ENDBRANCH  12  17
ENDBRANCH  11  12
ENDBRANCH   1  11
TORSDOF 1
ENDMDL
MODEL 8
REMARK VINA RESULT:    -2.826     12.323     13.547
REMARK INTER + INTRA:          -4.497
REMARK INTER:                  -4.035
REMARK INTRA:                  -0.462
REMARK UNBOUND:                -0.184
REMARK SMILES CC1=CCC[C@@H](C)C(=O)C[C@@H](C(C)C)C(=O)C1
REMARK SMILES IDX 8 1 9 2 6 3 7 4 5 5 4 6 3 7 2 8 1 9 10 11 11 12 15 13 16 14
REMARK SMILES IDX 17 15 12 17 13 18 14 19
REMARK H PARENT
REMARK Flexibility Score: 70.00
ROOT
ATOM      1  C   UNL     1      27.623 -30.882 -13.551  1.00  0.00     0.136 C 
ATOM      2  O   UNL     1      27.919 -29.805 -14.051  1.00  0.00    -0.299 OA
ENDROOT
BRANCH   1   3
ATOM      3  C   UNL     1      26.166 -31.290 -13.460  1.00  0.00     0.053 C 
ATOM      4  C   UNL     1      25.422 -30.789 -14.703  1.00  0.00     0.016 C 
BRANCH   3   5
ATOM      5  C   UNL     1      25.484 -30.751 -12.179  1.00  0.00     0.015 C 
BRANCH   5   6
ATOM      6  C   UNL     1      25.211 -31.823 -11.111  1.00  0.00     0.028 C 
BRANCH   6   7
ATOM      7  C   UNL     1      26.173 -31.709  -9.952  1.00  0.00    -0.028 C 
ATOM      8  C   UNL     1      27.136 -32.608  -9.650  1.00  0.00    -0.070 CG0
ATOM      9  C   UNL     1      28.001 -32.342  -8.443  1.00  0.00     0.039 C 
ATOM     10  G   UNL     1      27.375 -33.871 -10.461  1.00  0.00     0.000 G0
ENDBRANCH   6   7
ENDBRANCH   5   6
ENDBRANCH   3   5
ENDBRANCH   1   3
BRANCH   1  11
ATOM     11  C   UNL     1      28.728 -31.801 -13.080  1.00  0.00     0.087 C 
BRANCH  11  12
ATOM     12  C   UNL     1      28.260 -33.267 -12.891  1.00  0.00     0.066 C 
BRANCH  12  13
ATOM     13  C   UNL     1      28.500 -33.750 -11.467  1.00  0.00     0.140 C 
ATOM     14  O   UNL     1      29.622 -34.103 -11.135  1.00  0.00    -0.299 OA
BRANCH  13  15
ATOM     15  C   UNL     1      27.383 -33.880 -10.456  1.00  0.00     0.106 CG0
ATOM     16  G   UNL     1      27.138 -32.620  -9.642  1.00  0.00     0.000 G0
ENDBRANCH  13  15
ENDBRANCH  12  13
BRANCH  12  17
ATOM     17  C   UNL     1      28.873 -34.265 -13.922  1.00  0.00    -0.006 C 
ATOM     18  C   UNL     1      29.026 -33.689 -15.341  1.00  0.00     0.008 C 
ATOM     19  C   UNL     1      28.087 -35.586 -13.974  1.00  0.00     0.008 C 
ENDBRANCH  12  17
ENDBRANCH  11  12
ENDBRANCH   1  11
TORSDOF 1
ENDMDL
MODEL 9
REMARK VINA RESULT:    -2.793      1.952      3.081
REMARK INTER + INTRA:          -4.447
REMARK INTER:                  -3.960
REMARK INTRA:                  -0.487
REMARK UNBOUND:                -0.184
REMARK SMILES CC1=CCC[C@@H](C)C(=O)C[C@@H](C(C)C)C(=O)C1
REMARK SMILES IDX 8 1 9 2 6 3 7 4 5 5 4 6 3 7 2 8 1 9 10 11 11 12 15 13 16 14
REMARK SMILES IDX 17 15 12 17 13 18 14 19
REMARK H PARENT
REMARK Flexibility Score: 70.00
ROOT
ATOM      1  C   UNL     1      27.753 -43.644 -20.132  1.00  0.00     0.136 C 
ATOM      2  O   UNL     1      28.458 -44.103 -21.020  1.00  0.00    -0.299 OA
ENDROOT
BRANCH   1   3
ATOM      3  C   UNL     1      28.222 -42.429 -19.357  1.00  0.00     0.053 C 
ATOM      4  C   UNL     1      28.612 -41.320 -20.341  1.00  0.00     0.016 C 
BRANCH   3   5
ATOM      5  C   UNL     1      29.413 -42.753 -18.422  1.00  0.00     0.015 C 
BRANCH   5   6
ATOM      6  C   UNL     1      29.057 -43.669 -17.240  1.00  0.00     0.028 C 
BRANCH   6   7
ATOM      7  C   UNL     1      28.154 -42.971 -16.249  1.00  0.00    -0.028 C 
ATOM      8  C   UNL     1      26.854 -43.273 -16.035  1.00  0.00    -0.070 CG0
ATOM      9  C   UNL     1      26.097 -42.461 -15.014  1.00  0.00     0.039 C 
ATOM     10  G   UNL     1      26.127 -44.379 -16.781  1.00  0.00     0.000 G0
ENDBRANCH   6   7
ENDBRANCH   5   6
ENDBRANCH   3   5
ENDBRANCH   1   3
BRANCH   1  11
ATOM     11  C   UNL     1      26.405 -44.275 -19.865  1.00  0.00     0.087 C 
BRANCH  11  12
ATOM     12  C   UNL     1      25.428 -43.329 -19.120  1.00  0.00     0.066 C 
BRANCH  12  13
ATOM     13  C   UNL     1      25.062 -43.875 -17.746  1.00  0.00     0.140 C 
ATOM     14  O   UNL     1      23.893 -43.860 -17.388  1.00  0.00    -0.299 OA
BRANCH  13  15
ATOM     15  C   UNL     1      26.102 -44.375 -16.768  1.00  0.00     0.106 CG0
ATOM     16  G   UNL     1      26.849 -43.268 -16.044  1.00  0.00     0.000 G0
ENDBRANCH  13  15
ENDBRANCH  12  13
BRANCH  12  17
ATOM     17  C   UNL     1      24.145 -42.976 -19.933  1.00  0.00    -0.006 C 
ATOM     18  C   UNL     1      24.102 -43.593 -21.342  1.00  0.00     0.008 C 
ATOM     19  C   UNL     1      23.922 -41.457 -20.019  1.00  0.00     0.008 C 
ENDBRANCH  12  17
ENDBRANCH  11  12
ENDBRANCH   1  11
TORSDOF 1
ENDMDL
