MODEL 1
REMARK VINA RESULT:    -3.267      0.000      0.000
REMARK INTER + INTRA:          -3.120
REMARK INTER:                  -3.648
REMARK INTRA:                   0.528
REMARK UNBOUND:                 0.528
REMARK SMILES O=C([O-])c1ccccc1C(=O)[O-]
REMARK SMILES IDX 4 1 9 2 5 3 8 4 6 5 7 6 2 7 1 8 3 9 10 10 11 11 12 12
REMARK H PARENT
REMARK Flexibility Score: inf
ROOT
ATOM      1  C   UNL     1      22.395   6.810   6.011  1.00  0.00     0.006 A 
ATOM      2  C   UNL     1      22.702   5.422   6.044  1.00  0.00     0.006 A 
ATOM      3  C   UNL     1      23.323   7.704   5.446  1.00  0.00     0.010 A 
ATOM      4  C   UNL     1      23.898   4.972   5.450  1.00  0.00     0.010 A 
ATOM      5  C   UNL     1      24.511   7.238   4.882  1.00  0.00     0.001 A 
ATOM      6  C   UNL     1      24.792   5.874   4.875  1.00  0.00     0.001 A 
ENDROOT
BRANCH   1   7
ATOM      7  C   UNL     1      21.104   7.361   6.486  1.00  0.00     0.072 C 
ATOM      8  O   UNL     1      20.061   7.250   5.789  1.00  0.00    -0.545 OA
ATOM      9  O   UNL     1      21.044   8.069   7.680  1.00  0.00    -0.545 OA
ENDBRANCH   1   7
BRANCH   2  10
ATOM     10  C   UNL     1      21.852   4.429   6.740  1.00  0.00     0.072 C 
ATOM     11  O   UNL     1      20.926   4.812   7.504  1.00  0.00    -0.545 OA
ATOM     12  O   UNL     1      22.019   3.068   6.512  1.00  0.00    -0.545 OA
ENDBRANCH   2  10
TORSDOF 2
ENDMDL
MODEL 2
REMARK VINA RESULT:    -3.157      1.959      3.665
REMARK INTER + INTRA:          -2.998
REMARK INTER:                  -3.401
REMARK INTRA:                   0.403
REMARK UNBOUND:                 0.528
REMARK SMILES O=C([O-])c1ccccc1C(=O)[O-]
REMARK SMILES IDX 4 1 9 2 5 3 8 4 6 5 7 6 2 7 1 8 3 9 10 10 11 11 12 12
REMARK H PARENT
REMARK Flexibility Score: inf
ROOT
ATOM      1  C   UNL     1      22.876   5.947   5.887  1.00  0.00     0.006 A 
ATOM      2  C   UNL     1      21.620   6.198   6.507  1.00  0.00     0.006 A 
ATOM      3  C   UNL     1      23.370   4.630   5.850  1.00  0.00     0.010 A 
ATOM      4  C   UNL     1      20.876   5.113   7.008  1.00  0.00     0.010 A 
ATOM      5  C   UNL     1      22.624   3.573   6.372  1.00  0.00     0.001 A 
ATOM      6  C   UNL     1      21.376   3.813   6.940  1.00  0.00     0.001 A 
ENDROOT
BRANCH   1   7
ATOM      7  C   UNL     1      23.666   7.002   5.211  1.00  0.00     0.072 C 
ATOM      8  O   UNL     1      23.131   8.092   4.875  1.00  0.00    -0.545 OA
ATOM      9  O   UNL     1      24.996   6.773   4.879  1.00  0.00    -0.545 OA
ENDBRANCH   1   7
BRANCH   2  10
ATOM     10  C   UNL     1      21.089   7.565   6.715  1.00  0.00     0.072 C 
ATOM     11  O   UNL     1      20.144   7.993   6.001  1.00  0.00    -0.545 OA
ATOM     12  O   UNL     1      21.578   8.368   7.739  1.00  0.00    -0.545 OA
ENDBRANCH   2  10
TORSDOF 2
ENDMDL
MODEL 3
REMARK VINA RESULT:    -3.123      1.932      3.245
REMARK INTER + INTRA:          -2.960
REMARK INTER:                  -3.415
REMARK INTRA:                   0.455
REMARK UNBOUND:                 0.528
REMARK SMILES O=C([O-])c1ccccc1C(=O)[O-]
REMARK SMILES IDX 4 1 9 2 5 3 8 4 6 5 7 6 2 7 1 8 3 9 10 10 11 11 12 12
REMARK H PARENT
REMARK Flexibility Score: inf
ROOT
ATOM      1  C   UNL     1      21.635   6.141   6.579  1.00  0.00     0.006 A 
ATOM      2  C   UNL     1      22.854   5.838   5.912  1.00  0.00     0.006 A 
ATOM      3  C   UNL     1      20.877   5.092   7.131  1.00  0.00     0.010 A 
ATOM      4  C   UNL     1      23.303   4.503   5.880  1.00  0.00     0.010 A 
ATOM      5  C   UNL     1      21.331   3.774   7.069  1.00  0.00     0.001 A 
ATOM      6  C   UNL     1      22.546   3.482   6.454  1.00  0.00     0.001 A 
ENDROOT
BRANCH   1   7
ATOM      7  C   UNL     1      21.151   7.526   6.783  1.00  0.00     0.072 C 
ATOM      8  O   UNL     1      21.622   8.244   7.705  1.00  0.00    -0.545 OA
ATOM      9  O   UNL     1      20.120   8.028   5.998  1.00  0.00    -0.545 OA
ENDBRANCH   1   7
BRANCH   2  10
ATOM     10  C   UNL     1      23.644   6.858   5.183  1.00  0.00     0.072 C 
ATOM     11  O   UNL     1      23.123   7.962   4.877  1.00  0.00    -0.545 OA
ATOM     12  O   UNL     1      24.984   6.637   4.886  1.00  0.00    -0.545 OA
ENDBRANCH   2  10
TORSDOF 2
ENDMDL
MODEL 4
REMARK VINA RESULT:    -3.072      2.135      4.001
REMARK INTER + INTRA:          -2.903
REMARK INTER:                  -3.402
REMARK INTRA:                   0.499
REMARK UNBOUND:                 0.528
REMARK SMILES O=C([O-])c1ccccc1C(=O)[O-]
REMARK SMILES IDX 4 1 9 2 5 3 8 4 6 5 7 6 2 7 1 8 3 9 10 10 11 11 12 12
REMARK H PARENT
REMARK Flexibility Score: inf
ROOT
ATOM      1  C   UNL     1      21.794   5.419   6.748  1.00  0.00     0.006 A 
ATOM      2  C   UNL     1      22.408   6.451   5.986  1.00  0.00     0.006 A 
ATOM      3  C   UNL     1      20.668   5.726   7.534  1.00  0.00     0.010 A 
ATOM      4  C   UNL     1      21.832   7.736   5.987  1.00  0.00     0.010 A 
ATOM      5  C   UNL     1      20.127   7.011   7.536  1.00  0.00     0.001 A 
ATOM      6  C   UNL     1      20.702   8.012   6.756  1.00  0.00     0.001 A 
ENDROOT
BRANCH   1   7
ATOM      7  C   UNL     1      22.244   4.008   6.704  1.00  0.00     0.072 C 
ATOM      8  O   UNL     1      21.619   3.154   6.022  1.00  0.00    -0.545 OA
ATOM      9  O   UNL     1      23.327   3.597   7.472  1.00  0.00    -0.545 OA
ENDBRANCH   1   7
BRANCH   2  10
ATOM     10  C   UNL     1      23.674   6.254   5.243  1.00  0.00     0.072 C 
ATOM     11  O   UNL     1      24.019   5.100   4.875  1.00  0.00    -0.545 OA
ATOM     12  O   UNL     1      24.463   7.341   4.886  1.00  0.00    -0.545 OA
ENDBRANCH   2  10
TORSDOF 2
ENDMDL
MODEL 5
REMARK VINA RESULT:    -3.022      2.193      3.244
REMARK INTER + INTRA:          -2.847
REMARK INTER:                  -4.502
REMARK INTRA:                   1.655
REMARK UNBOUND:                 0.528
REMARK SMILES O=C([O-])c1ccccc1C(=O)[O-]
REMARK SMILES IDX 4 1 9 2 5 3 8 4 6 5 7 6 2 7 1 8 3 9 10 10 11 11 12 12
REMARK H PARENT
REMARK Flexibility Score: inf
ROOT
ATOM      1  C   UNL     1      22.664   6.538   5.851  1.00  0.00     0.006 A 
ATOM      2  C   UNL     1      22.113   5.354   6.415  1.00  0.00     0.006 A 
ATOM      3  C   UNL     1      21.973   7.754   6.004  1.00  0.00     0.010 A 
ATOM      4  C   UNL     1      20.925   5.443   7.167  1.00  0.00     0.010 A 
ATOM      5  C   UNL     1      20.787   7.815   6.736  1.00  0.00     0.001 A 
ATOM      6  C   UNL     1      20.271   6.664   7.325  1.00  0.00     0.001 A 
ENDROOT
BRANCH   1   7
ATOM      7  C   UNL     1      23.975   6.568   5.162  1.00  0.00     0.072 C 
ATOM      8  O   UNL     1      24.577   5.499   4.876  1.00  0.00    -0.545 OA
ATOM      9  O   UNL     1      24.588   7.783   4.882  1.00  0.00    -0.545 OA
ENDBRANCH   1   7
BRANCH   2  10
ATOM     10  C   UNL     1      22.695   4.011   6.186  1.00  0.00     0.072 C 
ATOM     11  O   UNL     1      22.755   3.178   7.128  1.00  0.00    -0.545 OA
ATOM     12  O   UNL     1      23.122   3.631   4.919  1.00  0.00    -0.545 OA
ENDBRANCH   2  10
TORSDOF 2
ENDMDL
MODEL 6
REMARK VINA RESULT:    -0.588     21.518     22.454
REMARK INTER + INTRA:          -0.128
REMARK INTER:                   0.025
REMARK INTRA:                  -0.154
REMARK UNBOUND:                 0.528
REMARK SMILES O=C([O-])c1ccccc1C(=O)[O-]
REMARK SMILES IDX 4 1 9 2 5 3 8 4 6 5 7 6 2 7 1 8 3 9 10 10 11 11 12 12
REMARK H PARENT
REMARK Flexibility Score: inf
ROOT
ATOM      1  C   UNL     1      36.057  -1.627  22.342  1.00  0.00     0.006 A 
ATOM      2  C   UNL     1      34.783  -1.353  22.913  1.00  0.00     0.006 A 
ATOM      3  C   UNL     1      37.132  -1.950  23.190  1.00  0.00     0.010 A 
ATOM      4  C   UNL     1      34.618  -1.479  24.306  1.00  0.00     0.010 A 
ATOM      5  C   UNL     1      36.950  -2.048  24.570  1.00  0.00     0.001 A 
ATOM      6  C   UNL     1      35.692  -1.823  25.125  1.00  0.00     0.001 A 
ENDROOT
BRANCH   1   7
ATOM      7  C   UNL     1      36.296  -1.655  20.881  1.00  0.00     0.072 C 
ATOM      8  O   UNL     1      36.266  -2.741  20.244  1.00  0.00    -0.545 OA
ATOM      9  O   UNL     1      36.623  -0.485  20.204  1.00  0.00    -0.545 OA
ENDBRANCH   1   7
BRANCH   2  10
ATOM     10  C   UNL     1      33.634  -0.871  22.114  1.00  0.00     0.072 C 
ATOM     11  O   UNL     1      32.580  -1.557  22.040  1.00  0.00    -0.545 OA
ATOM     12  O   UNL     1      33.676   0.370  21.489  1.00  0.00    -0.545 OA
ENDBRANCH   2  10
TORSDOF 2
ENDMDL
MODEL 7
REMARK VINA RESULT:    -0.542     21.528     22.386
REMARK INTER + INTRA:          -0.077
REMARK INTER:                   0.019
REMARK INTRA:                  -0.096
REMARK UNBOUND:                 0.528
REMARK SMILES O=C([O-])c1ccccc1C(=O)[O-]
REMARK SMILES IDX 4 1 9 2 5 3 8 4 6 5 7 6 2 7 1 8 3 9 10 10 11 11 12 12
REMARK H PARENT
REMARK Flexibility Score: inf
ROOT
ATOM      1  C   UNL     1      34.811  -1.337  22.908  1.00  0.00     0.006 A 
ATOM      2  C   UNL     1      36.085  -1.611  22.338  1.00  0.00     0.006 A 
ATOM      3  C   UNL     1      34.648  -1.442  24.302  1.00  0.00     0.010 A 
ATOM      4  C   UNL     1      37.164  -1.916  23.190  1.00  0.00     0.010 A 
ATOM      5  C   UNL     1      35.727  -1.766  25.125  1.00  0.00     0.001 A 
ATOM      6  C   UNL     1      36.984  -1.991  24.571  1.00  0.00     0.001 A 
ENDROOT
BRANCH   1   7
ATOM      7  C   UNL     1      33.652  -0.877  22.109  1.00  0.00     0.072 C 
ATOM      8  O   UNL     1      33.687   0.226  21.500  1.00  0.00    -0.545 OA
ATOM      9  O   UNL     1      32.484  -1.628  22.076  1.00  0.00    -0.545 OA
ENDBRANCH   1   7
BRANCH   2  10
ATOM     10  C   UNL     1      36.314  -1.662  20.875  1.00  0.00     0.072 C 
ATOM     11  O   UNL     1      36.622  -0.615  20.246  1.00  0.00    -0.545 OA
ATOM     12  O   UNL     1      36.257  -2.870  20.190  1.00  0.00    -0.545 OA
ENDBRANCH   2  10
TORSDOF 2
ENDMDL
