MODEL 1
REMARK VINA RESULT:    -2.119      0.000      0.000
REMARK INTER + INTRA:          -3.374
REMARK INTER:                  -3.110
REMARK INTRA:                  -0.264
REMARK UNBOUND:                -0.264
REMARK SMILES C=C1C=C[C@@H](C(C)C)CCC(C)=CCC1
REMARK SMILES IDX 3 1 4 2 5 3 9 4 10 5 11 6 12 7 13 8 6 10 7 11 8 12 2 13 1 14
REMARK SMILES IDX 15 15 14 16
REMARK H PARENT
REMARK Flexibility Score: 70.00
ROOT
ATOM      1  C   UNL     1     144.156 147.107 133.289  1.00  0.00    -0.001 C 
ATOM      2  C   UNL     1     145.432 147.515 133.290  1.00  0.00    -0.023 C 
ENDROOT
BRANCH   2   3
ATOM      3  C   UNL     1     146.468 147.088 132.267  1.00  0.00     0.014 C 
BRANCH   3   4
ATOM      4  C   UNL     1     147.620 146.337 132.997  1.00  0.00     0.012 C 
BRANCH   4   5
ATOM      5  C   UNL     1     147.147 145.081 133.768  1.00  0.00     0.031 C 
BRANCH   5   6
ATOM      6  C   UNL     1     146.679 143.968 132.842  1.00  0.00    -0.077 C 
ATOM      7  C   UNL     1     147.681 143.307 131.929  1.00  0.00     0.039 C 
ATOM      8  C   UNL     1     145.391 143.556 132.775  1.00  0.00    -0.028 CG0
ATOM      9  G   UNL     1     144.272 144.069 133.648  1.00  0.00     0.000 G0
ENDBRANCH   5   6
ENDBRANCH   4   5
ENDBRANCH   3   4
BRANCH   3  10
ATOM     10  C   UNL     1     146.971 148.328 131.463  1.00  0.00    -0.010 C 
ATOM     11  C   UNL     1     146.872 148.087 129.945  1.00  0.00     0.008 C 
ATOM     12  C   UNL     1     148.423 148.699 131.811  1.00  0.00     0.008 C 
ENDBRANCH   3  10
ENDBRANCH   2   3
BRANCH   1  13
ATOM     13  C   UNL     1     143.602 146.129 132.332  1.00  0.00    -0.055 C 
ATOM     14  C   UNL     1     143.365 146.506 131.075  1.00  0.00     0.012 C 
BRANCH  13  15
ATOM     15  C   UNL     1     143.170 144.766 132.815  1.00  0.00     0.039 C 
BRANCH  15  16
ATOM     16  C   UNL     1     144.261 144.065 133.650  1.00  0.00     0.032 CG0
ATOM     17  G   UNL     1     145.384 143.570 132.772  1.00  0.00     0.000 G0
ENDBRANCH  15  16
ENDBRANCH  13  15
ENDBRANCH   1  13
TORSDOF 1
ENDMDL
MODEL 2
REMARK VINA RESULT:    -2.100      1.364      3.301
REMARK INTER + INTRA:          -3.347
REMARK INTER:                  -3.320
REMARK INTRA:                  -0.026
REMARK UNBOUND:                -0.264
REMARK SMILES C=C1C=C[C@@H](C(C)C)CCC(C)=CCC1
REMARK SMILES IDX 3 1 4 2 5 3 9 4 10 5 11 6 12 7 13 8 6 10 7 11 8 12 2 13 1 14
REMARK SMILES IDX 15 15 14 16
REMARK H PARENT
REMARK Flexibility Score: 70.00
ROOT
ATOM      1  C   UNL     1     146.609 146.920 133.521  1.00  0.00    -0.001 C 
ATOM      2  C   UNL     1     147.024 145.659 133.707  1.00  0.00    -0.023 C 
ENDROOT
BRANCH   2   3
ATOM      3  C   UNL     1     146.624 144.488 132.828  1.00  0.00     0.014 C 
BRANCH   3   4
ATOM      4  C   UNL     1     146.019 143.367 133.724  1.00  0.00     0.012 C 
BRANCH   4   5
ATOM      5  C   UNL     1     144.473 143.299 133.666  1.00  0.00     0.031 C 
BRANCH   5   6
ATOM      6  C   UNL     1     143.911 143.845 132.362  1.00  0.00    -0.077 C 
ATOM      7  C   UNL     1     143.796 142.924 131.174  1.00  0.00     0.039 C 
ATOM      8  C   UNL     1     143.532 145.136 132.205  1.00  0.00    -0.028 CG0
ATOM      9  G   UNL     1     143.531 146.177 133.297  1.00  0.00     0.000 G0
ENDBRANCH   5   6
ENDBRANCH   4   5
ENDBRANCH   3   4
BRANCH   3  10
ATOM     10  C   UNL     1     147.851 143.998 131.996  1.00  0.00    -0.010 C 
ATOM     11  C   UNL     1     147.635 144.237 130.490  1.00  0.00     0.008 C 
ATOM     12  C   UNL     1     148.151 142.507 132.222  1.00  0.00     0.008 C 
ENDBRANCH   3  10
ENDBRANCH   2   3
BRANCH   1  13
ATOM     13  C   UNL     1     145.650 147.329 132.476  1.00  0.00    -0.055 C 
ATOM     14  C   UNL     1     146.104 147.672 131.270  1.00  0.00     0.012 C 
BRANCH  13  15
ATOM     15  C   UNL     1     144.191 147.499 132.821  1.00  0.00     0.039 C 
BRANCH  15  16
ATOM     16  C   UNL     1     143.542 146.184 133.296  1.00  0.00     0.032 CG0
ATOM     17  G   UNL     1     143.535 145.151 132.195  1.00  0.00     0.000 G0
ENDBRANCH  15  16
ENDBRANCH  13  15
ENDBRANCH   1  13
TORSDOF 1
ENDMDL
MODEL 3
REMARK VINA RESULT:    -2.076      1.842      4.843
REMARK INTER + INTRA:          -3.311
REMARK INTER:                  -3.254
REMARK INTRA:                  -0.058
REMARK UNBOUND:                -0.264
REMARK SMILES C=C1C=C[C@@H](C(C)C)CCC(C)=CCC1
REMARK SMILES IDX 3 1 4 2 5 3 9 4 10 5 11 6 12 7 13 8 6 10 7 11 8 12 2 13 1 14
REMARK SMILES IDX 15 15 14 16
REMARK H PARENT
REMARK Flexibility Score: 70.00
ROOT
ATOM      1  C   UNL     1     146.553 144.098 133.721  1.00  0.00    -0.001 C 
ATOM      2  C   UNL     1     145.268 143.715 133.740  1.00  0.00    -0.023 C 
ENDROOT
BRANCH   2   3
ATOM      3  C   UNL     1     144.253 144.073 132.671  1.00  0.00     0.014 C 
BRANCH   3   4
ATOM      4  C   UNL     1     143.034 144.769 133.343  1.00  0.00     0.012 C 
BRANCH   4   5
ATOM      5  C   UNL     1     143.089 146.315 133.272  1.00  0.00     0.031 C 
BRANCH   5   6
ATOM      6  C   UNL     1     143.827 146.817 132.039  1.00  0.00    -0.077 C 
ATOM      7  C   UNL     1     143.088 146.897 130.727  1.00  0.00     0.039 C 
ATOM      8  C   UNL     1     145.133 147.174 132.055  1.00  0.00    -0.028 CG0
ATOM      9  G   UNL     1     146.007 147.204 133.286  1.00  0.00     0.000 G0
ENDBRANCH   5   6
ENDBRANCH   4   5
ENDBRANCH   3   4
BRANCH   3  10
ATOM     10  C   UNL     1     143.850 142.797 131.865  1.00  0.00    -0.010 C 
ATOM     11  C   UNL     1     144.040 143.009 130.351  1.00  0.00     0.008 C 
ATOM     12  C   UNL     1     142.393 142.379 132.126  1.00  0.00     0.008 C 
ENDBRANCH   3  10
ENDBRANCH   2   3
BRANCH   1  13
ATOM     13  C   UNL     1     147.137 144.979 132.691  1.00  0.00    -0.055 C 
ATOM     14  C   UNL     1     147.599 144.447 131.559  1.00  0.00     0.012 C 
BRANCH  13  15
ATOM     15  C   UNL     1     147.343 146.445 132.986  1.00  0.00     0.039 C 
BRANCH  15  16
ATOM     16  C   UNL     1     146.019 147.178 133.279  1.00  0.00     0.032 CG0
ATOM     17  G   UNL     1     145.120 147.184 132.066  1.00  0.00     0.000 G0
ENDBRANCH  15  16
ENDBRANCH  13  15
ENDBRANCH   1  13
TORSDOF 1
ENDMDL
MODEL 4
REMARK VINA RESULT:    -1.982      1.882      3.956
REMARK INTER + INTRA:          -3.173
REMARK INTER:                  -3.064
REMARK INTRA:                  -0.109
REMARK UNBOUND:                -0.264
REMARK SMILES C=C1C=C[C@@H](C(C)C)CCC(C)=CCC1
REMARK SMILES IDX 3 1 4 2 5 3 9 4 10 5 11 6 12 7 13 8 6 10 7 11 8 12 2 13 1 14
REMARK SMILES IDX 15 15 14 16
REMARK H PARENT
REMARK Flexibility Score: 70.00
ROOT
ATOM      1  C   UNL     1     143.511 146.835 133.309  1.00  0.00    -0.001 C 
ATOM      2  C   UNL     1     143.277 145.714 132.612  1.00  0.00    -0.023 C 
ENDROOT
BRANCH   2   3
ATOM      3  C   UNL     1     144.360 144.779 132.107  1.00  0.00     0.014 C 
BRANCH   3   4
ATOM      4  C   UNL     1     144.756 145.198 130.660  1.00  0.00     0.012 C 
BRANCH   4   5
ATOM      5  C   UNL     1     146.220 145.685 130.537  1.00  0.00     0.031 C 
BRANCH   5   6
ATOM      6  C   UNL     1     147.182 144.867 131.386  1.00  0.00    -0.077 C 
ATOM      7  C   UNL     1     147.669 143.539 130.865  1.00  0.00     0.039 C 
ATOM      8  C   UNL     1     147.605 145.262 132.610  1.00  0.00    -0.028 CG0
ATOM      9  G   UNL     1     147.261 146.579 133.262  1.00  0.00     0.000 G0
ENDBRANCH   5   6
ENDBRANCH   4   5
ENDBRANCH   3   4
BRANCH   3  10
ATOM     10  C   UNL     1     143.875 143.298 132.193  1.00  0.00    -0.010 C 
ATOM     11  C   UNL     1     144.744 142.481 133.168  1.00  0.00     0.008 C 
ATOM     12  C   UNL     1     143.881 142.601 130.823  1.00  0.00     0.008 C 
ENDBRANCH   3  10
ENDBRANCH   2   3
BRANCH   1  13
ATOM     13  C   UNL     1     144.859 147.349 133.619  1.00  0.00    -0.055 C 
ATOM     14  C   UNL     1     145.149 148.625 133.359  1.00  0.00     0.012 C 
BRANCH  13  15
ATOM     15  C   UNL     1     145.937 146.400 134.083  1.00  0.00     0.039 C 
BRANCH  15  16
ATOM     16  C   UNL     1     147.242 146.552 133.277  1.00  0.00     0.032 CG0
ATOM     17  G   UNL     1     147.622 145.254 132.607  1.00  0.00     0.000 G0
ENDBRANCH  15  16
ENDBRANCH  13  15
ENDBRANCH   1  13
TORSDOF 1
ENDMDL
MODEL 5
REMARK VINA RESULT:    -1.972      1.217      3.421
REMARK INTER + INTRA:          -3.158
REMARK INTER:                  -3.181
REMARK INTRA:                   0.023
REMARK UNBOUND:                -0.264
REMARK SMILES C=C1C=C[C@@H](C(C)C)CCC(C)=CCC1
REMARK SMILES IDX 3 1 4 2 5 3 9 4 10 5 11 6 12 7 13 8 6 10 7 11 8 12 2 13 1 14
REMARK SMILES IDX 15 15 14 16
REMARK H PARENT
REMARK Flexibility Score: 70.00
ROOT
ATOM      1  C   UNL     1     147.148 143.929 133.191  1.00  0.00    -0.001 C 
ATOM      2  C   UNL     1     147.377 145.031 132.463  1.00  0.00    -0.023 C 
ENDROOT
BRANCH   2   3
ATOM      3  C   UNL     1     146.313 146.047 132.092  1.00  0.00     0.014 C 
BRANCH   3   4
ATOM      4  C   UNL     1     145.809 145.747 130.649  1.00  0.00     0.012 C 
BRANCH   4   5
ATOM      5  C   UNL     1     144.349 145.232 130.600  1.00  0.00     0.031 C 
BRANCH   5   6
ATOM      6  C   UNL     1     143.407 146.060 131.462  1.00  0.00    -0.077 C 
ATOM      7  C   UNL     1     142.861 147.354 130.913  1.00  0.00     0.039 C 
ATOM      8  C   UNL     1     143.053 145.704 132.720  1.00  0.00    -0.028 CG0
ATOM      9  G   UNL     1     143.463 144.423 133.405  1.00  0.00     0.000 G0
ENDBRANCH   5   6
ENDBRANCH   4   5
ENDBRANCH   3   4
BRANCH   3  10
ATOM     10  C   UNL     1     146.876 147.495 132.244  1.00  0.00    -0.010 C 
ATOM     11  C   UNL     1     145.923 148.381 133.068  1.00  0.00     0.008 C 
ATOM     12  C   UNL     1     147.128 148.169 130.886  1.00  0.00     0.008 C 
ENDBRANCH   3  10
ENDBRANCH   2   3
BRANCH   1  13
ATOM     13  C   UNL     1     145.814 143.518 133.672  1.00  0.00    -0.055 C 
ATOM     14  C   UNL     1     145.451 142.238 133.577  1.00  0.00     0.012 C 
BRANCH  13  15
ATOM     15  C   UNL     1     144.824 144.563 134.124  1.00  0.00     0.039 C 
BRANCH  15  16
ATOM     16  C   UNL     1     143.460 144.425 133.418  1.00  0.00     0.032 CG0
ATOM     17  G   UNL     1     143.063 145.716 132.744  1.00  0.00     0.000 G0
ENDBRANCH  15  16
ENDBRANCH  13  15
ENDBRANCH   1  13
TORSDOF 1
ENDMDL
MODEL 6
REMARK VINA RESULT:    -1.774      1.786      3.871
REMARK INTER + INTRA:          -2.867
REMARK INTER:                  -3.706
REMARK INTRA:                   0.838
REMARK UNBOUND:                -0.264
REMARK SMILES C=C1C=C[C@@H](C(C)C)CCC(C)=CCC1
REMARK SMILES IDX 3 1 4 2 5 3 9 4 10 5 11 6 12 7 13 8 6 10 7 11 8 12 2 13 1 14
REMARK SMILES IDX 15 15 14 16
REMARK H PARENT
REMARK Flexibility Score: 70.00
ROOT
ATOM      1  C   UNL     1     143.597 143.803 132.421  1.00  0.00    -0.001 C 
ATOM      2  C   UNL     1     144.841 143.471 132.048  1.00  0.00    -0.023 C 
ENDROOT
BRANCH   2   3
ATOM      3  C   UNL     1     146.018 144.428 132.050  1.00  0.00     0.014 C 
BRANCH   3   4
ATOM      4  C   UNL     1     146.168 145.050 130.631  1.00  0.00     0.012 C 
BRANCH   4   5
ATOM      5  C   UNL     1     145.587 146.481 130.520  1.00  0.00     0.031 C 
BRANCH   5   6
ATOM      6  C   UNL     1     145.907 147.339 131.736  1.00  0.00    -0.077 C 
ATOM      7  C   UNL     1     147.348 147.643 132.056  1.00  0.00     0.039 C 
ATOM      8  C   UNL     1     144.955 147.824 132.568  1.00  0.00    -0.028 CG0
ATOM      9  G   UNL     1     143.468 147.660 132.371  1.00  0.00     0.000 G0
ENDBRANCH   5   6
ENDBRANCH   4   5
ENDBRANCH   3   4
BRANCH   3  10
ATOM     10  C   UNL     1     147.310 143.688 132.523  1.00  0.00    -0.010 C 
ATOM     11  C   UNL     1     147.996 144.444 133.677  1.00  0.00     0.008 C 
ATOM     12  C   UNL     1     148.324 143.500 131.383  1.00  0.00     0.008 C 
ENDBRANCH   3  10
ENDBRANCH   2   3
BRANCH   1  13
ATOM     13  C   UNL     1     143.189 145.165 132.818  1.00  0.00    -0.055 C 
ATOM     14  C   UNL     1     142.752 145.381 134.060  1.00  0.00     0.012 C 
BRANCH  13  15
ATOM     15  C   UNL     1     143.126 146.262 131.784  1.00  0.00     0.039 C 
BRANCH  15  16
ATOM     16  C   UNL     1     143.452 147.648 132.376  1.00  0.00     0.032 CG0
ATOM     17  G   UNL     1     144.940 147.830 132.550  1.00  0.00     0.000 G0
ENDBRANCH  15  16
ENDBRANCH  13  15
ENDBRANCH   1  13
TORSDOF 1
ENDMDL
MODEL 7
REMARK VINA RESULT:    -1.757      1.422      3.835
REMARK INTER + INTRA:          -2.842
REMARK INTER:                  -4.036
REMARK INTRA:                   1.194
REMARK UNBOUND:                -0.264
REMARK SMILES C=C1C=C[C@@H](C(C)C)CCC(C)=CCC1
REMARK SMILES IDX 3 1 4 2 5 3 9 4 10 5 11 6 12 7 13 8 6 10 7 11 8 12 2 13 1 14
REMARK SMILES IDX 15 15 14 16
REMARK H PARENT
REMARK Flexibility Score: 70.00
ROOT
ATOM      1  C   UNL     1     147.130 146.981 132.608  1.00  0.00    -0.001 C 
ATOM      2  C   UNL     1     145.886 147.300 132.223  1.00  0.00    -0.023 C 
ENDROOT
BRANCH   2   3
ATOM      3  C   UNL     1     144.743 146.308 132.114  1.00  0.00     0.014 C 
BRANCH   3   4
ATOM      4  C   UNL     1     144.675 145.774 130.654  1.00  0.00     0.012 C 
BRANCH   4   5
ATOM      5  C   UNL     1     145.015 144.268 130.531  1.00  0.00     0.031 C 
BRANCH   5   6
ATOM      6  C   UNL     1     144.753 143.502 131.819  1.00  0.00    -0.077 C 
ATOM      7  C   UNL     1     143.329 143.252 132.244  1.00  0.00     0.039 C 
ATOM      8  C   UNL     1     145.745 143.053 132.626  1.00  0.00    -0.028 CG0
ATOM      9  G   UNL     1     147.220 143.170 132.330  1.00  0.00     0.000 G0
ENDBRANCH   5   6
ENDBRANCH   4   5
ENDBRANCH   3   4
BRANCH   3  10
ATOM     10  C   UNL     1     143.409 146.975 132.575  1.00  0.00    -0.010 C 
ATOM     11  C   UNL     1     142.649 146.075 133.569  1.00  0.00     0.008 C 
ATOM     12  C   UNL     1     142.480 147.299 131.394  1.00  0.00     0.008 C 
ENDBRANCH   3  10
ENDBRANCH   2   3
BRANCH   1  13
ATOM     13  C   UNL     1     147.574 145.606 132.911  1.00  0.00    -0.055 C 
ATOM     14  C   UNL     1     148.077 145.332 134.116  1.00  0.00     0.012 C 
BRANCH  13  15
ATOM     15  C   UNL     1     147.595 144.565 131.819  1.00  0.00     0.039 C 
BRANCH  15  16
ATOM     16  C   UNL     1     147.229 143.161 132.338  1.00  0.00     0.032 CG0
ATOM     17  G   UNL     1     145.753 143.057 132.635  1.00  0.00     0.000 G0
ENDBRANCH  15  16
ENDBRANCH  13  15
ENDBRANCH   1  13
TORSDOF 1
ENDMDL
MODEL 8
REMARK VINA RESULT:    -1.559      2.079      4.355
REMARK INTER + INTRA:          -2.553
REMARK INTER:                  -2.366
REMARK INTRA:                  -0.187
REMARK UNBOUND:                -0.264
REMARK SMILES C=C1C=C[C@@H](C(C)C)CCC(C)=CCC1
REMARK SMILES IDX 3 1 4 2 5 3 9 4 10 5 11 6 12 7 13 8 6 10 7 11 8 12 2 13 1 14
REMARK SMILES IDX 15 15 14 16
REMARK H PARENT
REMARK Flexibility Score: 70.00
ROOT
ATOM      1  C   UNL     1     145.151 145.347 130.370  1.00  0.00    -0.001 C 
ATOM      2  C   UNL     1     145.075 144.070 130.772  1.00  0.00    -0.023 C 
ENDROOT
BRANCH   2   3
ATOM      3  C   UNL     1     144.202 143.584 131.913  1.00  0.00     0.014 C 
BRANCH   3   4
ATOM      4  C   UNL     1     145.091 143.367 133.173  1.00  0.00     0.012 C 
BRANCH   4   5
ATOM      5  C   UNL     1     145.244 144.636 134.046  1.00  0.00     0.031 C 
BRANCH   5   6
ATOM      6  C   UNL     1     146.565 145.354 133.809  1.00  0.00    -0.077 C 
ATOM      7  C   UNL     1     147.854 144.603 134.027  1.00  0.00     0.039 C 
ATOM      8  C   UNL     1     146.641 146.654 133.437  1.00  0.00    -0.028 CG0
ATOM      9  G   UNL     1     145.457 147.537 133.127  1.00  0.00     0.000 G0
ENDBRANCH   5   6
ENDBRANCH   4   5
ENDBRANCH   3   4
BRANCH   3  10
ATOM     10  C   UNL     1     143.434 142.292 131.489  1.00  0.00    -0.010 C 
ATOM     11  C   UNL     1     143.493 142.083 129.964  1.00  0.00     0.008 C 
ATOM     12  C   UNL     1     141.960 142.320 131.927  1.00  0.00     0.008 C 
ENDBRANCH   3  10
ENDBRANCH   2   3
BRANCH   1  13
ATOM     13  C   UNL     1     144.449 146.464 131.030  1.00  0.00    -0.055 C 
ATOM     14  C   UNL     1     143.115 146.502 131.011  1.00  0.00     0.012 C 
BRANCH  13  15
ATOM     15  C   UNL     1     145.238 147.624 131.586  1.00  0.00     0.039 C 
BRANCH  15  16
ATOM     16  C   UNL     1     145.454 147.513 133.109  1.00  0.00     0.032 CG0
ATOM     17  G   UNL     1     146.648 146.646 133.428  1.00  0.00     0.000 G0
ENDBRANCH  15  16
ENDBRANCH  13  15
ENDBRANCH   1  13
TORSDOF 1
ENDMDL
MODEL 9
REMARK VINA RESULT:    -1.547      1.195      2.867
REMARK INTER + INTRA:          -2.534
REMARK INTER:                  -2.611
REMARK INTRA:                   0.076
REMARK UNBOUND:                -0.264
REMARK SMILES C=C1C=C[C@@H](C(C)C)CCC(C)=CCC1
REMARK SMILES IDX 3 1 4 2 5 3 9 4 10 5 11 6 12 7 13 8 6 10 7 11 8 12 2 13 1 14
REMARK SMILES IDX 15 15 14 16
REMARK H PARENT
REMARK Flexibility Score: 70.00
ROOT
ATOM      1  C   UNL     1     145.906 145.106 130.782  1.00  0.00    -0.001 C 
ATOM      2  C   UNL     1     145.878 146.444 130.854  1.00  0.00    -0.023 C 
ENDROOT
BRANCH   2   3
ATOM      3  C   UNL     1     146.535 147.255 131.955  1.00  0.00     0.014 C 
BRANCH   3   4
ATOM      4  C   UNL     1     145.456 147.645 133.008  1.00  0.00     0.012 C 
BRANCH   4   5
ATOM      5  C   UNL     1     145.197 146.542 134.063  1.00  0.00     0.031 C 
BRANCH   5   6
ATOM      6  C   UNL     1     143.946 145.729 133.764  1.00  0.00    -0.077 C 
ATOM      7  C   UNL     1     142.638 146.449 133.556  1.00  0.00     0.039 C 
ATOM      8  C   UNL     1     143.943 144.376 133.704  1.00  0.00    -0.028 CG0
ATOM      9  G   UNL     1     145.165 143.500 133.835  1.00  0.00     0.000 G0
ENDBRANCH   5   6
ENDBRANCH   4   5
ENDBRANCH   3   4
BRANCH   3  10
ATOM     10  C   UNL     1     147.261 148.497 131.348  1.00  0.00    -0.010 C 
ATOM     11  C   UNL     1     147.238 148.459 129.808  1.00  0.00     0.008 C 
ATOM     12  C   UNL     1     148.720 148.608 131.818  1.00  0.00     0.008 C 
ENDBRANCH   3  10
ENDBRANCH   2   3
BRANCH   1  13
ATOM     13  C   UNL     1     146.519 144.236 131.804  1.00  0.00    -0.055 C 
ATOM     14  C   UNL     1     147.821 144.358 132.072  1.00  0.00     0.012 C 
BRANCH  13  15
ATOM     15  C   UNL     1     145.712 143.123 132.426  1.00  0.00     0.039 C 
BRANCH  15  16
ATOM     16  C   UNL     1     145.166 143.499 133.818  1.00  0.00     0.032 CG0
ATOM     17  G   UNL     1     143.952 144.388 133.705  1.00  0.00     0.000 G0
ENDBRANCH  15  16
ENDBRANCH  13  15
ENDBRANCH   1  13
TORSDOF 1
ENDMDL
