MODEL 1
REMARK VINA RESULT:    -4.077      0.000      0.000
REMARK INTER + INTRA:          -5.386
REMARK INTER:                  -4.911
REMARK INTRA:                  -0.475
REMARK UNBOUND:                -0.475
REMARK SMILES NC(=O)C[C@@H]([NH3+])C(=O)[O-]
REMARK SMILES IDX 4 1 5 2 6 3 7 7 8 8 9 9 2 10 3 11 1 12
REMARK H PARENT 6 4 6 5 6 6 1 13 1 14
REMARK Flexibility Score: inf
ROOT
ATOM      1  C   UNL     1     -13.561 -28.544 -13.945  1.00  0.00     0.171 C 
ENDROOT
BRANCH   1   2
ATOM      2  C   UNL     1     -14.779 -27.722 -14.412  1.00  0.00     0.237 C 
BRANCH   2   3
ATOM      3  N   UNL     1     -16.026 -28.420 -14.077  1.00  0.00    -0.350 N 
ATOM      4  H   UNL     1     -16.026 -28.678 -13.063  1.00  0.00     0.345 HD
ATOM      5  H   UNL     1     -16.104 -29.299 -14.639  1.00  0.00     0.345 HD
ATOM      6  H   UNL     1     -16.855 -27.811 -14.273  1.00  0.00     0.345 HD
ENDBRANCH   2   3
BRANCH   2   7
ATOM      7  C   UNL     1     -14.772 -26.349 -13.790  1.00  0.00     0.100 C 
ATOM      8  O   UNL     1     -14.390 -26.196 -12.600  1.00  0.00    -0.544 OA
ATOM      9  O   UNL     1     -15.198 -25.246 -14.520  1.00  0.00    -0.544 OA
ENDBRANCH   2   7
ENDBRANCH   1   2
BRANCH   1  10
ATOM     10  C   UNL     1     -13.934 -29.523 -12.869  1.00  0.00     0.223 C 
ATOM     11  O   UNL     1     -14.279 -30.694 -13.180  1.00  0.00    -0.275 OA
ATOM     12  N   UNL     1     -13.863 -29.149 -11.492  1.00  0.00    -0.369 N 
ATOM     13  H   UNL     1     -14.109 -29.838 -10.746  1.00  0.00     0.159 HD
ATOM     14  H   UNL     1     -13.560 -28.189 -11.215  1.00  0.00     0.159 HD
ENDBRANCH   1  10
TORSDOF 4
ENDMDL
MODEL 2
REMARK VINA RESULT:    -3.977      1.185      1.591
REMARK INTER + INTRA:          -5.266
REMARK INTER:                  -4.971
REMARK INTRA:                  -0.295
REMARK UNBOUND:                -0.475
REMARK SMILES NC(=O)C[C@@H]([NH3+])C(=O)[O-]
REMARK SMILES IDX 4 1 5 2 6 3 7 7 8 8 9 9 2 10 3 11 1 12
REMARK H PARENT 6 4 6 5 6 6 1 13 1 14
REMARK Flexibility Score: inf
ROOT
ATOM      1  C   UNL     1     -14.737 -29.192 -13.929  1.00  0.00     0.171 C 
ENDROOT
BRANCH   1   2
ATOM      2  C   UNL     1     -13.955 -28.046 -14.602  1.00  0.00     0.237 C 
BRANCH   2   3
ATOM      3  N   UNL     1     -14.076 -28.132 -16.062  1.00  0.00    -0.350 N 
ATOM      4  H   UNL     1     -15.067 -28.342 -16.323  1.00  0.00     0.345 HD
ATOM      5  H   UNL     1     -13.471 -28.905 -16.424  1.00  0.00     0.345 HD
ATOM      6  H   UNL     1     -13.788 -27.231 -16.511  1.00  0.00     0.345 HD
ENDBRANCH   2   3
BRANCH   2   7
ATOM      7  C   UNL     1     -14.446 -26.705 -14.121  1.00  0.00     0.100 C 
ATOM      8  O   UNL     1     -14.895 -25.863 -14.943  1.00  0.00    -0.544 OA
ATOM      9  O   UNL     1     -14.396 -26.383 -12.769  1.00  0.00    -0.544 OA
ENDBRANCH   2   7
ENDBRANCH   1   2
BRANCH   1  10
ATOM     10  C   UNL     1     -13.930 -29.850 -12.847  1.00  0.00     0.223 C 
ATOM     11  O   UNL     1     -13.302 -30.914 -13.093  1.00  0.00    -0.275 OA
ATOM     12  N   UNL     1     -13.838 -29.259 -11.550  1.00  0.00    -0.369 N 
ATOM     13  H   UNL     1     -13.264 -29.712 -10.804  1.00  0.00     0.159 HD
ATOM     14  H   UNL     1     -14.336 -28.367 -11.333  1.00  0.00     0.159 HD
ENDBRANCH   1  10
TORSDOF 4
ENDMDL
MODEL 3
REMARK VINA RESULT:    -3.969      1.509      4.087
REMARK INTER + INTRA:          -5.256
REMARK INTER:                  -4.968
REMARK INTRA:                  -0.288
REMARK UNBOUND:                -0.475
REMARK SMILES NC(=O)C[C@@H]([NH3+])C(=O)[O-]
REMARK SMILES IDX 4 1 5 2 6 3 7 7 8 8 9 9 2 10 3 11 1 12
REMARK H PARENT 6 4 6 5 6 6 1 13 1 14
REMARK Flexibility Score: inf
ROOT
ATOM      1  C   UNL     1     -15.168 -28.072 -13.955  1.00  0.00     0.171 C 
ENDROOT
BRANCH   1   2
ATOM      2  C   UNL     1     -13.983 -28.883 -13.394  1.00  0.00     0.237 C 
BRANCH   2   3
ATOM      3  N   UNL     1     -13.947 -28.791 -11.930  1.00  0.00    -0.350 N 
ATOM      4  H   UNL     1     -14.256 -27.839 -11.627  1.00  0.00     0.345 HD
ATOM      5  H   UNL     1     -12.970 -28.943 -11.588  1.00  0.00     0.345 HD
ATOM      6  H   UNL     1     -14.577 -29.507 -11.498  1.00  0.00     0.345 HD
ENDBRANCH   2   3
BRANCH   2   7
ATOM      7  C   UNL     1     -14.071 -30.327 -13.819  1.00  0.00     0.100 C 
ATOM      8  O   UNL     1     -14.198 -31.234 -12.954  1.00  0.00    -0.544 OA
ATOM      9  O   UNL     1     -14.001 -30.668 -15.164  1.00  0.00    -0.544 OA
ENDBRANCH   2   7
ENDBRANCH   1   2
BRANCH   1  10
ATOM     10  C   UNL     1     -14.751 -27.219 -15.119  1.00  0.00     0.223 C 
ATOM     11  O   UNL     1     -14.798 -25.964 -15.025  1.00  0.00    -0.275 OA
ATOM     12  N   UNL     1     -14.264 -27.820 -16.320  1.00  0.00    -0.369 N 
ATOM     13  H   UNL     1     -13.961 -27.223 -17.122  1.00  0.00     0.159 HD
ATOM     14  H   UNL     1     -14.199 -28.858 -16.409  1.00  0.00     0.159 HD
ENDBRANCH   1  10
TORSDOF 4
ENDMDL
MODEL 4
REMARK VINA RESULT:    -3.950      2.138      3.734
REMARK INTER + INTRA:          -5.233
REMARK INTER:                  -5.108
REMARK INTRA:                  -0.125
REMARK UNBOUND:                -0.475
REMARK SMILES NC(=O)C[C@@H]([NH3+])C(=O)[O-]
REMARK SMILES IDX 4 1 5 2 6 3 7 7 8 8 9 9 2 10 3 11 1 12
REMARK H PARENT 6 4 6 5 6 6 1 13 1 14
REMARK Flexibility Score: inf
ROOT
ATOM      1  C   UNL     1     -13.408 -27.359 -13.916  1.00  0.00     0.171 C 
ENDROOT
BRANCH   1   2
ATOM      2  C   UNL     1     -14.314 -28.387 -14.622  1.00  0.00     0.237 C 
BRANCH   2   3
ATOM      3  N   UNL     1     -13.967 -28.485 -16.044  1.00  0.00    -0.350 N 
ATOM      4  H   UNL     1     -13.965 -29.488 -16.340  1.00  0.00     0.345 HD
ATOM      5  H   UNL     1     -13.009 -28.095 -16.204  1.00  0.00     0.345 HD
ATOM      6  H   UNL     1     -14.655 -27.957 -16.631  1.00  0.00     0.345 HD
ENDBRANCH   2   3
BRANCH   2   7
ATOM      7  C   UNL     1     -14.203 -29.741 -13.969  1.00  0.00     0.100 C 
ATOM      8  O   UNL     1     -14.169 -29.837 -12.714  1.00  0.00    -0.544 OA
ATOM      9  O   UNL     1     -14.125 -30.891 -14.746  1.00  0.00    -0.544 OA
ENDBRANCH   2   7
ENDBRANCH   1   2
BRANCH   1  10
ATOM     10  C   UNL     1     -14.201 -26.208 -13.366  1.00  0.00     0.223 C 
ATOM     11  O   UNL     1     -14.482 -26.171 -12.139  1.00  0.00    -0.275 OA
ATOM     12  N   UNL     1     -14.607 -25.136 -14.217  1.00  0.00    -0.369 N 
ATOM     13  H   UNL     1     -15.146 -24.330 -13.827  1.00  0.00     0.159 HD
ATOM     14  H   UNL     1     -14.367 -25.141 -15.233  1.00  0.00     0.159 HD
ENDBRANCH   1  10
TORSDOF 4
ENDMDL
MODEL 5
REMARK VINA RESULT:    -3.897      1.789      3.865
REMARK INTER + INTRA:          -5.170
REMARK INTER:                  -4.931
REMARK INTRA:                  -0.239
REMARK UNBOUND:                -0.475
REMARK SMILES NC(=O)C[C@@H]([NH3+])C(=O)[O-]
REMARK SMILES IDX 4 1 5 2 6 3 7 7 8 8 9 9 2 10 3 11 1 12
REMARK H PARENT 6 4 6 5 6 6 1 13 1 14
REMARK Flexibility Score: inf
ROOT
ATOM      1  C   UNL     1     -14.936 -28.232 -13.890  1.00  0.00     0.171 C 
ENDROOT
BRANCH   1   2
ATOM      2  C   UNL     1     -13.898 -27.993 -12.775  1.00  0.00     0.237 C 
BRANCH   2   3
ATOM      3  N   UNL     1     -14.318 -26.882 -11.913  1.00  0.00    -0.350 N 
ATOM      4  H   UNL     1     -15.354 -26.910 -11.779  1.00  0.00     0.345 HD
ATOM      5  H   UNL     1     -14.071 -25.970 -12.364  1.00  0.00     0.345 HD
ATOM      6  H   UNL     1     -13.850 -26.941 -10.979  1.00  0.00     0.345 HD
ENDBRANCH   2   3
BRANCH   2   7
ATOM      7  C   UNL     1     -13.697 -29.238 -11.950  1.00  0.00     0.100 C 
ATOM      8  O   UNL     1     -13.195 -29.160 -10.798  1.00  0.00    -0.544 OA
ATOM      9  O   UNL     1     -14.053 -30.482 -12.460  1.00  0.00    -0.544 OA
ENDBRANCH   2   7
ENDBRANCH   1   2
BRANCH   1  10
ATOM     10  C   UNL     1     -14.679 -27.355 -15.082  1.00  0.00     0.223 C 
ATOM     11  O   UNL     1     -14.820 -26.107 -14.983  1.00  0.00    -0.275 OA
ATOM     12  N   UNL     1     -14.238 -27.922 -16.316  1.00  0.00    -0.369 N 
ATOM     13  H   UNL     1     -14.047 -27.306 -17.139  1.00  0.00     0.159 HD
ATOM     14  H   UNL     1     -14.098 -28.952 -16.411  1.00  0.00     0.159 HD
ENDBRANCH   1  10
TORSDOF 4
ENDMDL
MODEL 6
REMARK VINA RESULT:    -3.894      2.261      2.881
REMARK INTER + INTRA:          -5.166
REMARK INTER:                  -4.838
REMARK INTRA:                  -0.328
REMARK UNBOUND:                -0.475
REMARK SMILES NC(=O)C[C@@H]([NH3+])C(=O)[O-]
REMARK SMILES IDX 4 1 5 2 6 3 7 7 8 8 9 9 2 10 3 11 1 12
REMARK H PARENT 6 4 6 5 6 6 1 13 1 14
REMARK Flexibility Score: inf
ROOT
ATOM      1  C   UNL     1     -13.504 -27.454 -13.929  1.00  0.00     0.171 C 
ENDROOT
BRANCH   1   2
ATOM      2  C   UNL     1     -14.666 -27.204 -12.946  1.00  0.00     0.237 C 
BRANCH   2   3
ATOM      3  N   UNL     1     -15.878 -27.896 -13.399  1.00  0.00    -0.350 N 
ATOM      4  H   UNL     1     -16.000 -27.761 -14.429  1.00  0.00     0.345 HD
ATOM      5  H   UNL     1     -16.717 -27.498 -12.916  1.00  0.00     0.345 HD
ATOM      6  H   UNL     1     -15.818 -28.921 -13.194  1.00  0.00     0.345 HD
ENDBRANCH   2   3
BRANCH   2   7
ATOM      7  C   UNL     1     -14.302 -27.657 -11.556  1.00  0.00     0.100 C 
ATOM      8  O   UNL     1     -14.305 -26.835 -10.601  1.00  0.00    -0.544 OA
ATOM      9  O   UNL     1     -13.947 -28.980 -11.319  1.00  0.00    -0.544 OA
ENDBRANCH   2   7
ENDBRANCH   1   2
BRANCH   1  10
ATOM     10  C   UNL     1     -13.870 -28.474 -14.969  1.00  0.00     0.223 C 
ATOM     11  O   UNL     1     -13.985 -29.686 -14.644  1.00  0.00    -0.275 OA
ATOM     12  N   UNL     1     -14.126 -28.076 -16.316  1.00  0.00    -0.369 N 
ATOM     13  H   UNL     1     -14.395 -28.787 -17.033  1.00  0.00     0.159 HD
ATOM     14  H   UNL     1     -14.054 -27.073 -16.599  1.00  0.00     0.159 HD
ENDBRANCH   1  10
TORSDOF 4
ENDMDL
MODEL 7
REMARK VINA RESULT:    -3.856      1.711      1.751
REMARK INTER + INTRA:          -5.120
REMARK INTER:                  -5.041
REMARK INTRA:                  -0.079
REMARK UNBOUND:                -0.475
REMARK SMILES NC(=O)C[C@@H]([NH3+])C(=O)[O-]
REMARK SMILES IDX 4 1 5 2 6 3 7 7 8 8 9 9 2 10 3 11 1 12
REMARK H PARENT 6 4 6 5 6 6 1 13 1 14
REMARK Flexibility Score: inf
ROOT
ATOM      1  C   UNL     1     -15.112 -28.884 -13.760  1.00  0.00     0.171 C 
ENDROOT
BRANCH   1   2
ATOM      2  C   UNL     1     -14.265 -27.768 -14.404  1.00  0.00     0.237 C 
BRANCH   2   3
ATOM      3  N   UNL     1     -14.440 -27.767 -15.860  1.00  0.00    -0.350 N 
ATOM      4  H   UNL     1     -15.394 -28.120 -16.103  1.00  0.00     0.345 HD
ATOM      5  H   UNL     1     -13.734 -28.400 -16.304  1.00  0.00     0.345 HD
ATOM      6  H   UNL     1     -14.326 -26.801 -16.247  1.00  0.00     0.345 HD
ENDBRANCH   2   3
BRANCH   2   7
ATOM      7  C   UNL     1     -14.633 -26.420 -13.839  1.00  0.00     0.100 C 
ATOM      8  O   UNL     1     -14.404 -26.157 -12.628  1.00  0.00    -0.544 OA
ATOM      9  O   UNL     1     -15.237 -25.462 -14.645  1.00  0.00    -0.544 OA
ENDBRANCH   2   7
ENDBRANCH   1   2
BRANCH   1  10
ATOM     10  C   UNL     1     -14.429 -30.218 -13.852  1.00  0.00     0.223 C 
ATOM     11  O   UNL     1     -13.538 -30.525 -13.017  1.00  0.00    -0.275 OA
ATOM     12  N   UNL     1     -14.811 -31.159 -14.857  1.00  0.00    -0.369 N 
ATOM     13  H   UNL     1     -14.344 -32.092 -14.908  1.00  0.00     0.159 HD
ATOM     14  H   UNL     1     -15.561 -30.930 -15.546  1.00  0.00     0.159 HD
ENDBRANCH   1  10
TORSDOF 4
ENDMDL
MODEL 8
REMARK VINA RESULT:    -3.786      2.194      3.201
REMARK INTER + INTRA:          -5.036
REMARK INTER:                  -4.674
REMARK INTRA:                  -0.362
REMARK UNBOUND:                -0.475
REMARK SMILES NC(=O)C[C@@H]([NH3+])C(=O)[O-]
REMARK SMILES IDX 4 1 5 2 6 3 7 7 8 8 9 9 2 10 3 11 1 12
REMARK H PARENT 6 4 6 5 6 6 1 13 1 14
REMARK Flexibility Score: inf
ROOT
ATOM      1  C   UNL     1     -15.534 -27.856 -13.537  1.00  0.00     0.171 C 
ENDROOT
BRANCH   1   2
ATOM      2  C   UNL     1     -14.404 -28.423 -12.655  1.00  0.00     0.237 C 
BRANCH   2   3
ATOM      3  N   UNL     1     -13.456 -29.191 -13.470  1.00  0.00    -0.350 N 
ATOM      4  H   UNL     1     -13.081 -29.994 -12.914  1.00  0.00     0.345 HD
ATOM      5  H   UNL     1     -12.651 -28.582 -13.748  1.00  0.00     0.345 HD
ATOM      6  H   UNL     1     -13.922 -29.561 -14.331  1.00  0.00     0.345 HD
ENDBRANCH   2   3
BRANCH   2   7
ATOM      7  C   UNL     1     -13.682 -27.317 -11.929  1.00  0.00     0.100 C 
ATOM      8  O   UNL     1     -12.475 -27.070 -12.190  1.00  0.00    -0.544 OA
ATOM      9  O   UNL     1     -14.339 -26.570 -10.958  1.00  0.00    -0.544 OA
ENDBRANCH   2   7
ENDBRANCH   1   2
BRANCH   1  10
ATOM     10  C   UNL     1     -14.997 -26.961 -14.617  1.00  0.00     0.223 C 
ATOM     11  O   UNL     1     -14.447 -27.465 -15.631  1.00  0.00    -0.275 OA
ATOM     12  N   UNL     1     -15.141 -25.543 -14.521  1.00  0.00    -0.369 N 
ATOM     13  H   UNL     1     -14.779 -24.925 -15.282  1.00  0.00     0.159 HD
ATOM     14  H   UNL     1     -15.612 -25.108 -13.697  1.00  0.00     0.159 HD
ENDBRANCH   1  10
TORSDOF 4
ENDMDL
MODEL 9
REMARK VINA RESULT:    -3.749      2.213      2.727
REMARK INTER + INTRA:          -4.991
REMARK INTER:                  -4.749
REMARK INTRA:                  -0.243
REMARK UNBOUND:                -0.475
REMARK SMILES NC(=O)C[C@@H]([NH3+])C(=O)[O-]
REMARK SMILES IDX 4 1 5 2 6 3 7 7 8 8 9 9 2 10 3 11 1 12
REMARK H PARENT 6 4 6 5 6 6 1 13 1 14
REMARK Flexibility Score: inf
ROOT
ATOM      1  C   UNL     1     -14.040 -30.745 -12.962  1.00  0.00     0.171 C 
ENDROOT
BRANCH   1   2
ATOM      2  C   UNL     1     -14.153 -29.263 -13.372  1.00  0.00     0.237 C 
BRANCH   2   3
ATOM      3  N   UNL     1     -15.385 -29.035 -14.135  1.00  0.00    -0.350 N 
ATOM      4  H   UNL     1     -15.980 -29.895 -14.113  1.00  0.00     0.345 HD
ATOM      5  H   UNL     1     -15.151 -28.825 -15.133  1.00  0.00     0.345 HD
ATOM      6  H   UNL     1     -15.927 -28.235 -13.733  1.00  0.00     0.345 HD
ENDBRANCH   2   3
BRANCH   2   7
ATOM      7  C   UNL     1     -14.122 -28.366 -12.161  1.00  0.00     0.100 C 
ATOM      8  O   UNL     1     -13.876 -28.848 -11.023  1.00  0.00    -0.544 OA
ATOM      9  O   UNL     1     -14.377 -27.006 -12.288  1.00  0.00    -0.544 OA
ENDBRANCH   2   7
ENDBRANCH   1   2
BRANCH   1  10
ATOM     10  C   UNL     1     -13.715 -31.621 -14.138  1.00  0.00     0.223 C 
ATOM     11  O   UNL     1     -14.377 -31.509 -15.203  1.00  0.00    -0.275 OA
ATOM     12  N   UNL     1     -12.635 -32.553 -14.071  1.00  0.00    -0.369 N 
ATOM     13  H   UNL     1     -12.403 -33.150 -14.897  1.00  0.00     0.159 HD
ATOM     14  H   UNL     1     -12.063 -32.646 -13.203  1.00  0.00     0.159 HD
ENDBRANCH   1  10
TORSDOF 4
ENDMDL
