MODEL 1
REMARK VINA RESULT:    -4.151      0.000      0.000
REMARK INTER + INTRA:         -10.645
REMARK INTER:                  -8.033
REMARK INTRA:                  -2.612
REMARK UNBOUND:                -2.612
REMARK SMILES CCCCCCCCCCCCCCCCCC(=O)[O-]
REMARK SMILES IDX 10 1 11 2 12 3 13 4 14 5 15 6 16 7 17 8 18 9 19 10 20 11
REMARK SMILES IDX 9 12 8 13 7 14 6 15 5 16 4 17 3 18 2 19 1 20
REMARK H PARENT
REMARK Flexibility Score: inf
ROOT
ATOM      1  C   UNL     1      -1.093 -22.892 -16.604  1.00  0.00     0.000 C 
ENDROOT
BRANCH   1   2
ATOM      2  C   UNL     1       0.398 -23.208 -16.375  1.00  0.00     0.000 C 
BRANCH   2   3
ATOM      3  C   UNL     1       1.191 -22.042 -15.747  1.00  0.00     0.000 C 
BRANCH   3   4
ATOM      4  C   UNL     1       0.282 -21.070 -14.973  1.00  0.00     0.000 C 
BRANCH   4   5
ATOM      5  C   UNL     1       1.041 -19.847 -14.432  1.00  0.00     0.000 C 
BRANCH   5   6
ATOM      6  C   UNL     1       2.255 -20.237 -13.574  1.00  0.00     0.000 C 
BRANCH   6   7
ATOM      7  C   UNL     1       1.867 -20.976 -12.282  1.00  0.00     0.006 C 
BRANCH   7   8
ATOM      8  C   UNL     1       2.996 -21.839 -11.689  1.00  0.00     0.053 C 
BRANCH   8   9
ATOM      9  C   UNL     1       4.313 -21.122 -11.652  1.00  0.00     0.041 C 
ATOM     10  O   UNL     1       5.215 -21.406 -12.485  1.00  0.00    -0.550 OA
ATOM     11  O   UNL     1       4.557 -20.165 -10.675  1.00  0.00    -0.550 OA
ENDBRANCH   8   9
ENDBRANCH   7   8
ENDBRANCH   6   7
ENDBRANCH   5   6
ENDBRANCH   4   5
ENDBRANCH   3   4
ENDBRANCH   2   3
ENDBRANCH   1   2
BRANCH   1  12
ATOM     12  C   UNL     1      -2.070 -23.870 -15.930  1.00  0.00     0.000 C 
BRANCH  12  13
ATOM     13  C   UNL     1      -3.162 -23.156 -15.120  1.00  0.00    -0.000 C 
BRANCH  13  14
ATOM     14  C   UNL     1      -3.079 -23.533 -13.636  1.00  0.00    -0.000 C 
BRANCH  14  15
ATOM     15  C   UNL     1      -1.947 -22.773 -12.936  1.00  0.00    -0.000 C 
BRANCH  15  16
ATOM     16  C   UNL     1      -1.090 -23.721 -12.083  1.00  0.00    -0.000 C 
BRANCH  16  17
ATOM     17  C   UNL     1       0.196 -24.166 -12.813  1.00  0.00    -0.000 C 
BRANCH  17  18
ATOM     18  C   UNL     1       0.076 -25.542 -13.496  1.00  0.00    -0.000 C 
BRANCH  18  19
ATOM     19  C   UNL     1      -0.780 -26.566 -12.734  1.00  0.00    -0.003 C 
ATOM     20  C   UNL     1      -0.027 -27.231 -11.582  1.00  0.00     0.004 C 
ENDBRANCH  18  19
ENDBRANCH  17  18
ENDBRANCH  16  17
ENDBRANCH  15  16
ENDBRANCH  14  15
ENDBRANCH  13  14
ENDBRANCH  12  13
ENDBRANCH   1  12
TORSDOF 16
ENDMDL
MODEL 2
REMARK VINA RESULT:    -4.047      9.772     11.899
REMARK INTER + INTRA:         -10.444
REMARK INTER:                  -7.729
REMARK INTRA:                  -2.715
REMARK UNBOUND:                -2.612
REMARK SMILES CCCCCCCCCCCCCCCCCC(=O)[O-]
REMARK SMILES IDX 10 1 11 2 12 3 13 4 14 5 15 6 16 7 17 8 18 9 19 10 20 11
REMARK SMILES IDX 9 12 8 13 7 14 6 15 5 16 4 17 3 18 2 19 1 20
REMARK H PARENT
REMARK Flexibility Score: inf
ROOT
ATOM      1  C   UNL     1      -5.711 -23.531  -6.087  1.00  0.00     0.000 C 
ENDROOT
BRANCH   1   2
ATOM      2  C   UNL     1      -7.109 -23.225  -6.658  1.00  0.00     0.000 C 
BRANCH   2   3
ATOM      3  C   UNL     1      -7.203 -21.860  -7.373  1.00  0.00     0.000 C 
BRANCH   3   4
ATOM      4  C   UNL     1      -6.114 -20.880  -6.902  1.00  0.00     0.000 C 
BRANCH   4   5
ATOM      5  C   UNL     1      -6.693 -19.590  -6.299  1.00  0.00     0.000 C 
BRANCH   5   6
ATOM      6  C   UNL     1      -7.809 -19.863  -5.277  1.00  0.00     0.000 C 
BRANCH   6   7
ATOM      7  C   UNL     1      -9.103 -19.085  -5.577  1.00  0.00     0.006 C 
BRANCH   7   8
ATOM      8  C   UNL     1      -9.358 -18.847  -7.077  1.00  0.00     0.053 C 
BRANCH   8   9
ATOM      9  C   UNL     1     -10.446 -19.722  -7.625  1.00  0.00     0.041 C 
ATOM     10  O   UNL     1     -10.933 -20.646  -6.921  1.00  0.00    -0.550 OA
ATOM     11  O   UNL     1     -10.897 -19.538  -8.926  1.00  0.00    -0.550 OA
ENDBRANCH   8   9
ENDBRANCH   7   8
ENDBRANCH   6   7
ENDBRANCH   5   6
ENDBRANCH   4   5
ENDBRANCH   3   4
ENDBRANCH   2   3
ENDBRANCH   1   2
BRANCH   1  12
ATOM     12  C   UNL     1      -5.713 -24.181  -4.693  1.00  0.00     0.000 C 
BRANCH  12  13
ATOM     13  C   UNL     1      -6.382 -23.300  -3.627  1.00  0.00    -0.000 C 
BRANCH  13  14
ATOM     14  C   UNL     1      -5.523 -22.069  -3.316  1.00  0.00    -0.000 C 
BRANCH  14  15
ATOM     15  C   UNL     1      -4.286 -22.451  -2.497  1.00  0.00    -0.000 C 
BRANCH  15  16
ATOM     16  C   UNL     1      -3.012 -21.843  -3.102  1.00  0.00    -0.000 C 
BRANCH  16  17
ATOM     17  C   UNL     1      -3.261 -21.228  -4.497  1.00  0.00    -0.000 C 
BRANCH  17  18
ATOM     18  C   UNL     1      -2.432 -21.880  -5.619  1.00  0.00    -0.000 C 
BRANCH  18  19
ATOM     19  C   UNL     1      -2.081 -23.358  -5.385  1.00  0.00    -0.003 C 
ATOM     20  C   UNL     1      -0.647 -23.700  -5.788  1.00  0.00     0.004 C 
ENDBRANCH  18  19
ENDBRANCH  17  18
ENDBRANCH  16  17
ENDBRANCH  15  16
ENDBRANCH  14  15
ENDBRANCH  13  14
ENDBRANCH  12  13
ENDBRANCH   1  12
TORSDOF 16
ENDMDL
MODEL 3
REMARK VINA RESULT:    -4.028      1.515      4.112
REMARK INTER + INTRA:         -10.407
REMARK INTER:                  -8.008
REMARK INTRA:                  -2.399
REMARK UNBOUND:                -2.612
REMARK SMILES CCCCCCCCCCCCCCCCCC(=O)[O-]
REMARK SMILES IDX 10 1 11 2 12 3 13 4 14 5 15 6 16 7 17 8 18 9 19 10 20 11
REMARK SMILES IDX 9 12 8 13 7 14 6 15 5 16 4 17 3 18 2 19 1 20
REMARK H PARENT
REMARK Flexibility Score: inf
ROOT
ATOM      1  C   UNL     1      -1.039 -25.273 -14.107  1.00  0.00     0.000 C 
ENDROOT
BRANCH   1   2
ATOM      2  C   UNL     1      -0.571 -24.606 -12.800  1.00  0.00     0.000 C 
BRANCH   2   3
ATOM      3  C   UNL     1       0.681 -25.262 -12.180  1.00  0.00     0.000 C 
BRANCH   3   4
ATOM      4  C   UNL     1       1.510 -24.265 -11.351  1.00  0.00     0.000 C 
BRANCH   4   5
ATOM      5  C   UNL     1       0.729 -22.988 -11.001  1.00  0.00     0.000 C 
BRANCH   5   6
ATOM      6  C   UNL     1       1.477 -21.707 -11.405  1.00  0.00     0.000 C 
BRANCH   6   7
ATOM      7  C   UNL     1       2.824 -21.542 -10.678  1.00  0.00     0.006 C 
BRANCH   7   8
ATOM      8  C   UNL     1       3.641 -20.321 -11.141  1.00  0.00     0.053 C 
BRANCH   8   9
ATOM      9  C   UNL     1       4.492 -20.616 -12.340  1.00  0.00     0.041 C 
ATOM     10  O   UNL     1       5.399 -21.488 -12.276  1.00  0.00    -0.550 OA
ATOM     11  O   UNL     1       4.306 -19.903 -13.518  1.00  0.00    -0.550 OA
ENDBRANCH   8   9
ENDBRANCH   7   8
ENDBRANCH   6   7
ENDBRANCH   5   6
ENDBRANCH   4   5
ENDBRANCH   3   4
ENDBRANCH   2   3
ENDBRANCH   1   2
BRANCH   1  12
ATOM     12  C   UNL     1      -0.969 -24.372 -15.352  1.00  0.00     0.000 C 
BRANCH  12  13
ATOM     13  C   UNL     1       0.469 -23.986 -15.726  1.00  0.00    -0.000 C 
BRANCH  13  14
ATOM     14  C   UNL     1       0.543 -22.523 -16.181  1.00  0.00    -0.000 C 
BRANCH  14  15
ATOM     15  C   UNL     1       1.199 -21.645 -15.110  1.00  0.00    -0.000 C 
BRANCH  15  16
ATOM     16  C   UNL     1       0.295 -20.460 -14.737  1.00  0.00    -0.000 C 
BRANCH  16  17
ATOM     17  C   UNL     1      -0.970 -20.906 -13.971  1.00  0.00    -0.000 C 
BRANCH  17  18
ATOM     18  C   UNL     1      -2.287 -20.526 -14.674  1.00  0.00    -0.000 C 
BRANCH  18  19
ATOM     19  C   UNL     1      -3.317 -21.664 -14.770  1.00  0.00    -0.003 C 
ATOM     20  C   UNL     1      -3.888 -21.831 -16.178  1.00  0.00     0.004 C 
ENDBRANCH  18  19
ENDBRANCH  17  18
ENDBRANCH  16  17
ENDBRANCH  15  16
ENDBRANCH  14  15
ENDBRANCH  13  14
ENDBRANCH  12  13
ENDBRANCH   1  12
TORSDOF 16
ENDMDL
MODEL 4
REMARK VINA RESULT:    -3.961      2.493      3.794
REMARK INTER + INTRA:         -10.279
REMARK INTER:                  -8.577
REMARK INTRA:                  -1.701
REMARK UNBOUND:                -2.612
REMARK SMILES CCCCCCCCCCCCCCCCCC(=O)[O-]
REMARK SMILES IDX 10 1 11 2 12 3 13 4 14 5 15 6 16 7 17 8 18 9 19 10 20 11
REMARK SMILES IDX 9 12 8 13 7 14 6 15 5 16 4 17 3 18 2 19 1 20
REMARK H PARENT
REMARK Flexibility Score: inf
ROOT
ATOM      1  C   UNL     1       0.377 -24.709 -15.017  1.00  0.00     0.000 C 
ENDROOT
BRANCH   1   2
ATOM      2  C   UNL     1      -0.752 -23.904 -15.687  1.00  0.00     0.000 C 
BRANCH   2   3
ATOM      3  C   UNL     1      -0.301 -22.530 -16.229  1.00  0.00     0.000 C 
BRANCH   3   4
ATOM      4  C   UNL     1       1.110 -22.150 -15.745  1.00  0.00     0.000 C 
BRANCH   4   5
ATOM      5  C   UNL     1       1.103 -20.965 -14.765  1.00  0.00     0.000 C 
BRANCH   5   6
ATOM      6  C   UNL     1       0.999 -21.411 -13.298  1.00  0.00     0.000 C 
BRANCH   6   7
ATOM      7  C   UNL     1       2.064 -20.763 -12.395  1.00  0.00     0.006 C 
BRANCH   7   8
ATOM      8  C   UNL     1       3.426 -20.554 -13.083  1.00  0.00     0.053 C 
BRANCH   8   9
ATOM      9  C   UNL     1       4.579 -20.986 -12.227  1.00  0.00     0.041 C 
ATOM     10  O   UNL     1       4.420 -21.873 -11.346  1.00  0.00    -0.550 OA
ATOM     11  O   UNL     1       5.822 -20.384 -12.379  1.00  0.00    -0.550 OA
ENDBRANCH   8   9
ENDBRANCH   7   8
ENDBRANCH   6   7
ENDBRANCH   5   6
ENDBRANCH   4   5
ENDBRANCH   3   4
ENDBRANCH   2   3
ENDBRANCH   1   2
BRANCH   1  12
ATOM     12  C   UNL     1      -0.045 -25.489 -13.760  1.00  0.00     0.000 C 
BRANCH  12  13
ATOM     13  C   UNL     1       0.719 -25.048 -12.503  1.00  0.00    -0.000 C 
BRANCH  13  14
ATOM     14  C   UNL     1      -0.248 -24.752 -11.350  1.00  0.00    -0.000 C 
BRANCH  14  15
ATOM     15  C   UNL     1       0.238 -23.563 -10.515  1.00  0.00    -0.000 C 
BRANCH  15  16
ATOM     16  C   UNL     1       1.730 -23.698 -10.176  1.00  0.00    -0.000 C 
BRANCH  16  17
ATOM     17  C   UNL     1       2.002 -23.564  -8.662  1.00  0.00    -0.000 C 
BRANCH  17  18
ATOM     18  C   UNL     1       3.500 -23.532  -8.302  1.00  0.00    -0.000 C 
BRANCH  18  19
ATOM     19  C   UNL     1       3.799 -23.300  -6.812  1.00  0.00    -0.003 C 
ATOM     20  C   UNL     1       3.702 -24.579  -5.981  1.00  0.00     0.004 C 
ENDBRANCH  18  19
ENDBRANCH  17  18
ENDBRANCH  16  17
ENDBRANCH  15  16
ENDBRANCH  14  15
ENDBRANCH  13  14
ENDBRANCH  12  13
ENDBRANCH   1  12
TORSDOF 16
ENDMDL
MODEL 5
REMARK VINA RESULT:    -3.944      1.846      3.740
REMARK INTER + INTRA:         -10.244
REMARK INTER:                  -8.606
REMARK INTRA:                  -1.638
REMARK UNBOUND:                -2.612
REMARK SMILES CCCCCCCCCCCCCCCCCC(=O)[O-]
REMARK SMILES IDX 10 1 11 2 12 3 13 4 14 5 15 6 16 7 17 8 18 9 19 10 20 11
REMARK SMILES IDX 9 12 8 13 7 14 6 15 5 16 4 17 3 18 2 19 1 20
REMARK H PARENT
REMARK Flexibility Score: inf
ROOT
ATOM      1  C   UNL     1      -0.042 -25.292 -13.696  1.00  0.00     0.000 C 
ENDROOT
BRANCH   1   2
ATOM      2  C   UNL     1       0.578 -24.755 -15.000  1.00  0.00     0.000 C 
BRANCH   2   3
ATOM      3  C   UNL     1      -0.215 -23.591 -15.632  1.00  0.00     0.000 C 
BRANCH   3   4
ATOM      4  C   UNL     1       0.659 -22.343 -15.851  1.00  0.00     0.000 C 
BRANCH   4   5
ATOM      5  C   UNL     1       0.904 -21.552 -14.556  1.00  0.00     0.000 C 
BRANCH   5   6
ATOM      6  C   UNL     1       2.180 -20.697 -14.617  1.00  0.00     0.000 C 
BRANCH   6   7
ATOM      7  C   UNL     1       2.701 -20.293 -13.226  1.00  0.00     0.006 C 
BRANCH   7   8
ATOM      8  C   UNL     1       2.671 -21.433 -12.190  1.00  0.00     0.053 C 
BRANCH   8   9
ATOM      9  C   UNL     1       4.026 -21.734 -11.622  1.00  0.00     0.041 C 
ATOM     10  O   UNL     1       4.135 -22.249 -10.477  1.00  0.00    -0.550 OA
ATOM     11  O   UNL     1       5.169 -21.414 -12.343  1.00  0.00    -0.550 OA
ENDBRANCH   8   9
ENDBRANCH   7   8
ENDBRANCH   6   7
ENDBRANCH   5   6
ENDBRANCH   4   5
ENDBRANCH   3   4
ENDBRANCH   2   3
ENDBRANCH   1   2
BRANCH   1  12
ATOM     12  C   UNL     1       0.411 -24.565 -12.418  1.00  0.00     0.000 C 
BRANCH  12  13
ATOM     13  C   UNL     1       0.755 -25.531 -11.275  1.00  0.00    -0.000 C 
BRANCH  13  14
ATOM     14  C   UNL     1       0.211 -26.936 -11.562  1.00  0.00    -0.000 C 
BRANCH  14  15
ATOM     15  C   UNL     1       0.014 -27.727 -10.265  1.00  0.00    -0.000 C 
BRANCH  15  16
ATOM     16  C   UNL     1      -0.864 -28.965 -10.501  1.00  0.00    -0.000 C 
BRANCH  16  17
ATOM     17  C   UNL     1      -2.371 -28.636 -10.441  1.00  0.00    -0.000 C 
BRANCH  17  18
ATOM     18  C   UNL     1      -2.730 -27.558  -9.400  1.00  0.00    -0.000 C 
BRANCH  18  19
ATOM     19  C   UNL     1      -3.519 -26.362  -9.958  1.00  0.00    -0.003 C 
ATOM     20  C   UNL     1      -3.333 -26.177 -11.464  1.00  0.00     0.004 C 
ENDBRANCH  18  19
ENDBRANCH  17  18
ENDBRANCH  16  17
ENDBRANCH  15  16
ENDBRANCH  14  15
ENDBRANCH  13  14
ENDBRANCH  12  13
ENDBRANCH   1  12
TORSDOF 16
ENDMDL
MODEL 6
REMARK VINA RESULT:    -3.923      8.872     10.449
REMARK INTER + INTRA:         -10.205
REMARK INTER:                  -7.944
REMARK INTRA:                  -2.262
REMARK UNBOUND:                -2.612
REMARK SMILES CCCCCCCCCCCCCCCCCC(=O)[O-]
REMARK SMILES IDX 10 1 11 2 12 3 13 4 14 5 15 6 16 7 17 8 18 9 19 10 20 11
REMARK SMILES IDX 9 12 8 13 7 14 6 15 5 16 4 17 3 18 2 19 1 20
REMARK H PARENT
REMARK Flexibility Score: inf
ROOT
ATOM      1  C   UNL     1      -9.734 -26.061 -18.234  1.00  0.00     0.000 C 
ENDROOT
BRANCH   1   2
ATOM      2  C   UNL     1      -9.400 -24.951 -17.219  1.00  0.00     0.000 C 
BRANCH   2   3
ATOM      3  C   UNL     1      -7.892 -24.812 -16.922  1.00  0.00     0.000 C 
BRANCH   3   4
ATOM      4  C   UNL     1      -7.625 -24.311 -15.491  1.00  0.00     0.000 C 
BRANCH   4   5
ATOM      5  C   UNL     1      -8.628 -23.237 -15.040  1.00  0.00     0.000 C 
BRANCH   5   6
ATOM      6  C   UNL     1      -8.174 -22.499 -13.770  1.00  0.00     0.000 C 
BRANCH   6   7
ATOM      7  C   UNL     1      -8.211 -20.968 -13.918  1.00  0.00     0.006 C 
BRANCH   7   8
ATOM      8  C   UNL     1      -8.135 -20.477 -15.376  1.00  0.00     0.053 C 
BRANCH   8   9
ATOM      9  C   UNL     1      -7.541 -19.105 -15.495  1.00  0.00     0.041 C 
ATOM     10  O   UNL     1      -6.746 -18.679 -14.615  1.00  0.00    -0.550 OA
ATOM     11  O   UNL     1      -7.891 -18.285 -16.560  1.00  0.00    -0.550 OA
ENDBRANCH   8   9
ENDBRANCH   7   8
ENDBRANCH   6   7
ENDBRANCH   5   6
ENDBRANCH   4   5
ENDBRANCH   3   4
ENDBRANCH   2   3
ENDBRANCH   1   2
BRANCH   1  12
ATOM     12  C   UNL     1      -8.525 -26.601 -19.018  1.00  0.00     0.000 C 
BRANCH  12  13
ATOM     13  C   UNL     1      -8.443 -28.135 -19.001  1.00  0.00    -0.000 C 
BRANCH  13  14
ATOM     14  C   UNL     1      -9.717 -28.745 -18.405  1.00  0.00    -0.000 C 
BRANCH  14  15
ATOM     15  C   UNL     1      -9.383 -29.893 -17.447  1.00  0.00    -0.000 C 
BRANCH  15  16
ATOM     16  C   UNL     1      -8.879 -29.358 -16.098  1.00  0.00    -0.000 C 
BRANCH  16  17
ATOM     17  C   UNL     1      -9.900 -28.418 -15.422  1.00  0.00    -0.000 C 
BRANCH  17  18
ATOM     18  C   UNL     1      -9.292 -27.536 -14.315  1.00  0.00    -0.000 C 
BRANCH  18  19
ATOM     19  C   UNL     1     -10.212 -26.412 -13.809  1.00  0.00    -0.003 C 
ATOM     20  C   UNL     1      -9.709 -25.770 -12.516  1.00  0.00     0.004 C 
ENDBRANCH  18  19
ENDBRANCH  17  18
ENDBRANCH  16  17
ENDBRANCH  15  16
ENDBRANCH  14  15
ENDBRANCH  13  14
ENDBRANCH  12  13
ENDBRANCH   1  12
TORSDOF 16
ENDMDL
MODEL 7
REMARK VINA RESULT:    -3.913     10.239     13.737
REMARK INTER + INTRA:         -10.185
REMARK INTER:                  -7.255
REMARK INTRA:                  -2.930
REMARK UNBOUND:                -2.612
REMARK SMILES CCCCCCCCCCCCCCCCCC(=O)[O-]
REMARK SMILES IDX 10 1 11 2 12 3 13 4 14 5 15 6 16 7 17 8 18 9 19 10 20 11
REMARK SMILES IDX 9 12 8 13 7 14 6 15 5 16 4 17 3 18 2 19 1 20
REMARK H PARENT
REMARK Flexibility Score: inf
ROOT
ATOM      1  C   UNL     1      -0.111 -29.908  -2.545  1.00  0.00     0.000 C 
ENDROOT
BRANCH   1   2
ATOM      2  C   UNL     1       0.293 -31.391  -2.650  1.00  0.00     0.000 C 
BRANCH   2   3
ATOM      3  C   UNL     1       1.441 -31.654  -3.648  1.00  0.00     0.000 C 
BRANCH   3   4
ATOM      4  C   UNL     1       2.765 -31.985  -2.936  1.00  0.00     0.000 C 
BRANCH   4   5
ATOM      5  C   UNL     1       3.665 -30.752  -2.748  1.00  0.00     0.000 C 
BRANCH   5   6
ATOM      6  C   UNL     1       3.830 -29.938  -4.042  1.00  0.00     0.000 C 
BRANCH   6   7
ATOM      7  C   UNL     1       3.536 -28.439  -3.850  1.00  0.00     0.006 C 
BRANCH   7   8
ATOM      8  C   UNL     1       2.250 -27.958  -4.547  1.00  0.00     0.053 C 
BRANCH   8   9
ATOM      9  C   UNL     1       2.436 -26.659  -5.272  1.00  0.00     0.041 C 
ATOM     10  O   UNL     1       3.583 -26.304  -5.656  1.00  0.00    -0.550 OA
ATOM     11  O   UNL     1       1.348 -25.825  -5.495  1.00  0.00    -0.550 OA
ENDBRANCH   8   9
ENDBRANCH   7   8
ENDBRANCH   6   7
ENDBRANCH   5   6
ENDBRANCH   4   5
ENDBRANCH   3   4
ENDBRANCH   2   3
ENDBRANCH   1   2
BRANCH   1  12
ATOM     12  C   UNL     1       0.485 -29.162  -1.339  1.00  0.00     0.000 C 
BRANCH  12  13
ATOM     13  C   UNL     1       0.963 -30.111  -0.230  1.00  0.00    -0.000 C 
BRANCH  13  14
ATOM     14  C   UNL     1       1.993 -29.422   0.673  1.00  0.00    -0.000 C 
BRANCH  14  15
ATOM     15  C   UNL     1       2.690 -28.272  -0.061  1.00  0.00    -0.000 C 
BRANCH  15  16
ATOM     16  C   UNL     1       4.218 -28.411   0.018  1.00  0.00    -0.000 C 
BRANCH  16  17
ATOM     17  C   UNL     1       4.950 -27.264  -0.712  1.00  0.00    -0.000 C 
BRANCH  17  18
ATOM     18  C   UNL     1       4.847 -25.906   0.009  1.00  0.00    -0.000 C 
BRANCH  18  19
ATOM     19  C   UNL     1       4.172 -24.793  -0.808  1.00  0.00    -0.003 C 
ATOM     20  C   UNL     1       4.171 -25.075  -2.310  1.00  0.00     0.004 C 
ENDBRANCH  18  19
ENDBRANCH  17  18
ENDBRANCH  16  17
ENDBRANCH  15  16
ENDBRANCH  14  15
ENDBRANCH  13  14
ENDBRANCH  12  13
ENDBRANCH   1  12
TORSDOF 16
ENDMDL
MODEL 8
REMARK VINA RESULT:    -3.873     11.193     14.031
REMARK INTER + INTRA:         -10.107
REMARK INTER:                  -7.901
REMARK INTRA:                  -2.206
REMARK UNBOUND:                -2.612
REMARK SMILES CCCCCCCCCCCCCCCCCC(=O)[O-]
REMARK SMILES IDX 10 1 11 2 12 3 13 4 14 5 15 6 16 7 17 8 18 9 19 10 20 11
REMARK SMILES IDX 9 12 8 13 7 14 6 15 5 16 4 17 3 18 2 19 1 20
REMARK H PARENT
REMARK Flexibility Score: inf
ROOT
ATOM      1  C   UNL     1       5.643 -25.753   0.291  1.00  0.00     0.000 C 
ENDROOT
BRANCH   1   2
ATOM      2  C   UNL     1       4.585 -25.005   1.125  1.00  0.00     0.000 C 
BRANCH   2   3
ATOM      3  C   UNL     1       4.478 -23.501   0.791  1.00  0.00     0.000 C 
BRANCH   3   4
ATOM      4  C   UNL     1       3.025 -23.065   0.534  1.00  0.00     0.000 C 
BRANCH   4   5
ATOM      5  C   UNL     1       2.583 -23.293  -0.921  1.00  0.00     0.000 C 
BRANCH   5   6
ATOM      6  C   UNL     1       3.719 -23.054  -1.929  1.00  0.00     0.000 C 
BRANCH   6   7
ATOM      7  C   UNL     1       4.065 -24.306  -2.753  1.00  0.00     0.006 C 
BRANCH   7   8
ATOM      8  C   UNL     1       3.375 -24.362  -4.129  1.00  0.00     0.053 C 
BRANCH   8   9
ATOM      9  C   UNL     1       3.215 -25.763  -4.641  1.00  0.00     0.041 C 
ATOM     10  O   UNL     1       2.339 -26.523  -4.149  1.00  0.00    -0.550 OA
ATOM     11  O   UNL     1       4.058 -26.240  -5.637  1.00  0.00    -0.550 OA
ENDBRANCH   8   9
ENDBRANCH   7   8
ENDBRANCH   6   7
ENDBRANCH   5   6
ENDBRANCH   4   5
ENDBRANCH   3   4
ENDBRANCH   2   3
ENDBRANCH   1   2
BRANCH   1  12
ATOM     12  C   UNL     1       5.141 -27.044  -0.378  1.00  0.00     0.000 C 
BRANCH  12  13
ATOM     13  C   UNL     1       3.664 -27.335  -0.074  1.00  0.00    -0.000 C 
BRANCH  13  14
ATOM     14  C   UNL     1       3.529 -28.308   1.103  1.00  0.00    -0.000 C 
BRANCH  14  15
ATOM     15  C   UNL     1       4.325 -29.593   0.851  1.00  0.00    -0.000 C 
BRANCH  15  16
ATOM     16  C   UNL     1       3.388 -30.800   0.688  1.00  0.00    -0.000 C 
BRANCH  16  17
ATOM     17  C   UNL     1       3.284 -31.267  -0.780  1.00  0.00    -0.000 C 
BRANCH  17  18
ATOM     18  C   UNL     1       2.005 -30.788  -1.493  1.00  0.00    -0.000 C 
BRANCH  18  19
ATOM     19  C   UNL     1       2.237 -29.755  -2.608  1.00  0.00    -0.003 C 
ATOM     20  C   UNL     1       3.695 -29.691  -3.063  1.00  0.00     0.004 C 
ENDBRANCH  18  19
ENDBRANCH  17  18
ENDBRANCH  16  17
ENDBRANCH  15  16
ENDBRANCH  14  15
ENDBRANCH  13  14
ENDBRANCH  12  13
ENDBRANCH   1  12
TORSDOF 16
ENDMDL
MODEL 9
REMARK VINA RESULT:    -3.855     10.802     14.099
REMARK INTER + INTRA:         -10.072
REMARK INTER:                  -8.123
REMARK INTRA:                  -1.949
REMARK UNBOUND:                -2.612
REMARK SMILES CCCCCCCCCCCCCCCCCC(=O)[O-]
REMARK SMILES IDX 10 1 11 2 12 3 13 4 14 5 15 6 16 7 17 8 18 9 19 10 20 11
REMARK SMILES IDX 9 12 8 13 7 14 6 15 5 16 4 17 3 18 2 19 1 20
REMARK H PARENT
REMARK Flexibility Score: inf
ROOT
ATOM      1  C   UNL     1       4.108 -28.647   0.482  1.00  0.00     0.000 C 
ENDROOT
BRANCH   1   2
ATOM      2  C   UNL     1       2.645 -29.128   0.480  1.00  0.00     0.000 C 
BRANCH   2   3
ATOM      3  C   UNL     1       1.966 -29.054  -0.905  1.00  0.00     0.000 C 
BRANCH   3   4
ATOM      4  C   UNL     1       0.990 -30.221  -1.136  1.00  0.00     0.000 C 
BRANCH   4   5
ATOM      5  C   UNL     1       0.441 -30.263  -2.572  1.00  0.00     0.000 C 
BRANCH   5   6
ATOM      6  C   UNL     1       0.569 -28.912  -3.294  1.00  0.00     0.000 C 
BRANCH   6   7
ATOM      7  C   UNL     1       1.355 -29.007  -4.614  1.00  0.00     0.006 C 
BRANCH   7   8
ATOM      8  C   UNL     1       2.815 -28.529  -4.511  1.00  0.00     0.053 C 
BRANCH   8   9
ATOM      9  C   UNL     1       3.802 -29.649  -4.656  1.00  0.00     0.041 C 
ATOM     10  O   UNL     1       4.631 -29.646  -5.605  1.00  0.00    -0.550 OA
ATOM     11  O   UNL     1       3.785 -30.712  -3.762  1.00  0.00    -0.550 OA
ENDBRANCH   8   9
ENDBRANCH   7   8
ENDBRANCH   6   7
ENDBRANCH   5   6
ENDBRANCH   4   5
ENDBRANCH   3   4
ENDBRANCH   2   3
ENDBRANCH   1   2
BRANCH   1  12
ATOM     12  C   UNL     1       4.612 -28.111  -0.870  1.00  0.00     0.000 C 
BRANCH  12  13
ATOM     13  C   UNL     1       5.094 -26.655  -0.789  1.00  0.00    -0.000 C 
BRANCH  13  14
ATOM     14  C   UNL     1       3.940 -25.715  -0.422  1.00  0.00    -0.000 C 
BRANCH  14  15
ATOM     15  C   UNL     1       4.388 -24.664   0.599  1.00  0.00    -0.000 C 
BRANCH  15  16
ATOM     16  C   UNL     1       4.042 -23.246   0.122  1.00  0.00    -0.000 C 
BRANCH  16  17
ATOM     17  C   UNL     1       3.143 -23.253  -1.135  1.00  0.00    -0.000 C 
BRANCH  17  18
ATOM     18  C   UNL     1       3.757 -22.516  -2.340  1.00  0.00    -0.000 C 
BRANCH  18  19
ATOM     19  C   UNL     1       3.668 -23.276  -3.673  1.00  0.00    -0.003 C 
ATOM     20  C   UNL     1       4.733 -24.364  -3.809  1.00  0.00     0.004 C 
ENDBRANCH  18  19
ENDBRANCH  17  18
ENDBRANCH  16  17
ENDBRANCH  15  16
ENDBRANCH  14  15
ENDBRANCH  13  14
ENDBRANCH  12  13
ENDBRANCH   1  12
TORSDOF 16
ENDMDL
