MODEL 1
REMARK VINA RESULT:    -2.476      0.000      0.000
REMARK INTER + INTRA:          -3.786
REMARK INTER:                  -3.345
REMARK INTRA:                  -0.442
REMARK UNBOUND:                -0.442
REMARK SMILES CCCCCCCC(=O)[O-]
REMARK SMILES IDX 5 1 6 2 7 3 8 4 9 5 10 6 4 7 3 8 2 9 1 10
REMARK H PARENT
REMARK Flexibility Score: inf
ROOT
ATOM      1  C   UNL     1      14.757  27.500  20.211  1.00  0.00     0.000 C 
ENDROOT
BRANCH   1   2
ATOM      2  C   UNL     1      14.549  29.010  20.392  1.00  0.00     0.006 C 
BRANCH   2   3
ATOM      3  C   UNL     1      13.083  29.421  20.204  1.00  0.00     0.053 C 
BRANCH   3   4
ATOM      4  C   UNL     1      12.570  30.199  21.377  1.00  0.00     0.041 C 
ATOM      5  O   UNL     1      13.243  30.264  22.440  1.00  0.00    -0.550 OA
ATOM      6  O   UNL     1      11.332  30.825  21.308  1.00  0.00    -0.550 OA
ENDBRANCH   3   4
ENDBRANCH   2   3
ENDBRANCH   1   2
BRANCH   1   7
ATOM      7  C   UNL     1      13.969  26.707  21.261  1.00  0.00     0.000 C 
BRANCH   7   8
ATOM      8  C   UNL     1      14.512  26.969  22.671  1.00  0.00    -0.000 C 
BRANCH   8   9
ATOM      9  C   UNL     1      13.385  26.938  23.709  1.00  0.00    -0.003 C 
ATOM     10  C   UNL     1      13.642  25.874  24.771  1.00  0.00     0.004 C 
ENDBRANCH   8   9
ENDBRANCH   7   8
ENDBRANCH   1   7
TORSDOF 6
ENDMDL
MODEL 2
REMARK VINA RESULT:    -2.462      1.238      1.713
REMARK INTER + INTRA:          -3.768
REMARK INTER:                  -3.288
REMARK INTRA:                  -0.480
REMARK UNBOUND:                -0.442
REMARK SMILES CCCCCCCC(=O)[O-]
REMARK SMILES IDX 5 1 6 2 7 3 8 4 9 5 10 6 4 7 3 8 2 9 1 10
REMARK H PARENT
REMARK Flexibility Score: inf
ROOT
ATOM      1  C   UNL     1      13.982  26.915  21.014  1.00  0.00     0.000 C 
ENDROOT
BRANCH   1   2
ATOM      2  C   UNL     1      14.378  28.194  20.263  1.00  0.00     0.006 C 
BRANCH   2   3
ATOM      3  C   UNL     1      13.950  29.463  21.013  1.00  0.00     0.053 C 
BRANCH   3   4
ATOM      4  C   UNL     1      12.636  29.983  20.517  1.00  0.00     0.041 C 
ATOM      5  O   UNL     1      11.778  30.419  21.330  1.00  0.00    -0.550 OA
ATOM      6  O   UNL     1      12.345  29.957  19.160  1.00  0.00    -0.550 OA
ENDBRANCH   3   4
ENDBRANCH   2   3
ENDBRANCH   1   2
BRANCH   1   7
ATOM      7  C   UNL     1      14.569  26.905  22.431  1.00  0.00     0.000 C 
BRANCH   7   8
ATOM      8  C   UNL     1      13.478  26.651  23.478  1.00  0.00    -0.000 C 
BRANCH   8   9
ATOM      9  C   UNL     1      13.516  27.715  24.581  1.00  0.00    -0.003 C 
ATOM     10  C   UNL     1      12.454  28.786  24.351  1.00  0.00     0.004 C 
ENDBRANCH   8   9
ENDBRANCH   7   8
ENDBRANCH   1   7
TORSDOF 6
ENDMDL
MODEL 3
REMARK VINA RESULT:    -2.411      1.490      3.860
REMARK INTER + INTRA:          -3.698
REMARK INTER:                  -3.240
REMARK INTRA:                  -0.458
REMARK UNBOUND:                -0.442
REMARK SMILES CCCCCCCC(=O)[O-]
REMARK SMILES IDX 5 1 6 2 7 3 8 4 9 5 10 6 4 7 3 8 2 9 1 10
REMARK H PARENT
REMARK Flexibility Score: inf
ROOT
ATOM      1  C   UNL     1      14.112  26.887  20.972  1.00  0.00     0.000 C 
ENDROOT
BRANCH   1   2
ATOM      2  C   UNL     1      14.506  27.019  22.450  1.00  0.00     0.006 C 
BRANCH   2   3
ATOM      3  C   UNL     1      13.322  26.761  23.392  1.00  0.00     0.053 C 
BRANCH   3   4
ATOM      4  C   UNL     1      13.008  27.961  24.231  1.00  0.00     0.041 C 
ATOM      5  O   UNL     1      12.142  28.792  23.851  1.00  0.00    -0.550 OA
ATOM      6  O   UNL     1      13.697  28.178  25.417  1.00  0.00    -0.550 OA
ENDBRANCH   3   4
ENDBRANCH   2   3
ENDBRANCH   1   2
BRANCH   1   7
ATOM      7  C   UNL     1      14.666  28.057  20.150  1.00  0.00     0.000 C 
BRANCH   7   8
ATOM      8  C   UNL     1      14.143  29.398  20.677  1.00  0.00    -0.000 C 
BRANCH   8   9
ATOM      9  C   UNL     1      12.691  29.632  20.245  1.00  0.00    -0.003 C 
ATOM     10  C   UNL     1      12.063  30.784  21.022  1.00  0.00     0.004 C 
ENDBRANCH   8   9
ENDBRANCH   7   8
ENDBRANCH   1   7
TORSDOF 6
ENDMDL
MODEL 4
REMARK VINA RESULT:    -2.393      2.176      4.761
REMARK INTER + INTRA:          -3.674
REMARK INTER:                  -3.400
REMARK INTRA:                  -0.274
REMARK UNBOUND:                -0.442
REMARK SMILES CCCCCCCC(=O)[O-]
REMARK SMILES IDX 5 1 6 2 7 3 8 4 9 5 10 6 4 7 3 8 2 9 1 10
REMARK H PARENT
REMARK Flexibility Score: inf
ROOT
ATOM      1  C   UNL     1      14.153  28.297  20.356  1.00  0.00     0.000 C 
ENDROOT
BRANCH   1   2
ATOM      2  C   UNL     1      13.981  27.101  21.303  1.00  0.00     0.006 C 
BRANCH   2   3
ATOM      3  C   UNL     1      14.396  27.435  22.742  1.00  0.00     0.053 C 
BRANCH   3   4
ATOM      4  C   UNL     1      13.282  27.186  23.713  1.00  0.00     0.041 C 
ATOM      5  O   UNL     1      12.391  28.058  23.894  1.00  0.00    -0.550 OA
ATOM      6  O   UNL     1      13.246  26.004  24.440  1.00  0.00    -0.550 OA
ENDBRANCH   3   4
ENDBRANCH   2   3
ENDBRANCH   1   2
BRANCH   1   7
ATOM      7  C   UNL     1      13.023  29.316  20.547  1.00  0.00     0.000 C 
BRANCH   7   8
ATOM      8  C   UNL     1      13.198  30.516  19.610  1.00  0.00    -0.000 C 
BRANCH   8   9
ATOM      9  C   UNL     1      12.243  30.424  18.414  1.00  0.00    -0.003 C 
ATOM     10  C   UNL     1      12.988  30.032  17.142  1.00  0.00     0.004 C 
ENDBRANCH   8   9
ENDBRANCH   7   8
ENDBRANCH   1   7
TORSDOF 6
ENDMDL
MODEL 5
REMARK VINA RESULT:    -2.368      1.761      2.256
REMARK INTER + INTRA:          -3.641
REMARK INTER:                  -3.180
REMARK INTRA:                  -0.462
REMARK UNBOUND:                -0.442
REMARK SMILES CCCCCCCC(=O)[O-]
REMARK SMILES IDX 5 1 6 2 7 3 8 4 9 5 10 6 4 7 3 8 2 9 1 10
REMARK H PARENT
REMARK Flexibility Score: inf
ROOT
ATOM      1  C   UNL     1      14.007  26.951  21.012  1.00  0.00     0.000 C 
ENDROOT
BRANCH   1   2
ATOM      2  C   UNL     1      14.335  28.258  20.277  1.00  0.00     0.006 C 
BRANCH   2   3
ATOM      3  C   UNL     1      13.208  29.292  20.401  1.00  0.00     0.053 C 
BRANCH   3   4
ATOM      4  C   UNL     1      12.912  29.949  19.088  1.00  0.00     0.041 C 
ATOM      5  O   UNL     1      11.973  30.783  18.993  1.00  0.00    -0.550 OA
ATOM      6  O   UNL     1      13.651  29.615  17.961  1.00  0.00    -0.550 OA
ENDBRANCH   3   4
ENDBRANCH   2   3
ENDBRANCH   1   2
BRANCH   1   7
ATOM      7  C   UNL     1      15.040  26.661  22.108  1.00  0.00     0.000 C 
BRANCH   7   8
ATOM      8  C   UNL     1      14.610  27.273  23.447  1.00  0.00    -0.000 C 
BRANCH   8   9
ATOM      9  C   UNL     1      13.097  27.137  23.653  1.00  0.00    -0.003 C 
ATOM     10  C   UNL     1      12.464  28.480  24.001  1.00  0.00     0.004 C 
ENDBRANCH   8   9
ENDBRANCH   7   8
ENDBRANCH   1   7
TORSDOF 6
ENDMDL
MODEL 6
REMARK VINA RESULT:    -2.307     11.708     12.419
REMARK INTER + INTRA:          -3.558
REMARK INTER:                  -2.974
REMARK INTRA:                  -0.584
REMARK UNBOUND:                -0.442
REMARK SMILES CCCCCCCC(=O)[O-]
REMARK SMILES IDX 5 1 6 2 7 3 8 4 9 5 10 6 4 7 3 8 2 9 1 10
REMARK H PARENT
REMARK Flexibility Score: inf
ROOT
ATOM      1  C   UNL     1      14.953  29.368  10.488  1.00  0.00     0.000 C 
ENDROOT
BRANCH   1   2
ATOM      2  C   UNL     1      13.806  30.381  10.366  1.00  0.00     0.006 C 
BRANCH   2   3
ATOM      3  C   UNL     1      12.926  30.116   9.137  1.00  0.00     0.053 C 
BRANCH   3   4
ATOM      4  C   UNL     1      11.515  29.794   9.524  1.00  0.00     0.041 C 
ATOM      5  O   UNL     1      10.562  30.488   9.083  1.00  0.00    -0.550 OA
ATOM      6  O   UNL     1      11.256  28.746  10.397  1.00  0.00    -0.550 OA
ENDBRANCH   3   4
ENDBRANCH   2   3
ENDBRANCH   1   2
BRANCH   1   7
ATOM      7  C   UNL     1      14.819  28.257   9.440  1.00  0.00     0.000 C 
BRANCH   7   8
ATOM      8  C   UNL     1      14.758  26.877  10.104  1.00  0.00    -0.000 C 
BRANCH   8   9
ATOM      9  C   UNL     1      13.452  26.154   9.753  1.00  0.00    -0.003 C 
ATOM     10  C   UNL     1      13.023  26.457   8.321  1.00  0.00     0.004 C 
ENDBRANCH   8   9
ENDBRANCH   7   8
ENDBRANCH   1   7
TORSDOF 6
ENDMDL
MODEL 7
REMARK VINA RESULT:    -2.287     23.692     24.537
REMARK INTER + INTRA:          -3.531
REMARK INTER:                  -3.234
REMARK INTRA:                  -0.297
REMARK UNBOUND:                -0.442
REMARK SMILES CCCCCCCC(=O)[O-]
REMARK SMILES IDX 5 1 6 2 7 3 8 4 9 5 10 6 4 7 3 8 2 9 1 10
REMARK H PARENT
REMARK Flexibility Score: inf
ROOT
ATOM      1  C   UNL     1      -3.907  15.130   9.447  1.00  0.00     0.000 C 
ENDROOT
BRANCH   1   2
ATOM      2  C   UNL     1      -3.237  13.771   9.200  1.00  0.00     0.006 C 
BRANCH   2   3
ATOM      3  C   UNL     1      -2.749  13.119  10.501  1.00  0.00     0.053 C 
BRANCH   3   4
ATOM      4  C   UNL     1      -1.267  13.254  10.667  1.00  0.00     0.041 C 
ATOM      5  O   UNL     1      -0.522  12.243  10.568  1.00  0.00    -0.550 OA
ATOM      6  O   UNL     1      -0.711  14.490  10.965  1.00  0.00    -0.550 OA
ENDBRANCH   3   4
ENDBRANCH   2   3
ENDBRANCH   1   2
BRANCH   1   7
ATOM      7  C   UNL     1      -3.201  16.242   8.661  1.00  0.00     0.000 C 
BRANCH   7   8
ATOM      8  C   UNL     1      -3.841  17.606   8.942  1.00  0.00    -0.000 C 
BRANCH   8   9
ATOM      9  C   UNL     1      -4.787  17.533  10.146  1.00  0.00    -0.003 C 
ATOM     10  C   UNL     1      -4.636  18.759  11.041  1.00  0.00     0.004 C 
ENDBRANCH   8   9
ENDBRANCH   7   8
ENDBRANCH   1   7
TORSDOF 6
ENDMDL
MODEL 8
REMARK VINA RESULT:    -2.278     23.768     24.533
REMARK INTER + INTRA:          -3.518
REMARK INTER:                  -3.095
REMARK INTRA:                  -0.423
REMARK UNBOUND:                -0.442
REMARK SMILES CCCCCCCC(=O)[O-]
REMARK SMILES IDX 5 1 6 2 7 3 8 4 9 5 10 6 4 7 3 8 2 9 1 10
REMARK H PARENT
REMARK Flexibility Score: inf
ROOT
ATOM      1  C   UNL     1      -4.237  13.773   9.991  1.00  0.00     0.000 C 
ENDROOT
BRANCH   1   2
ATOM      2  C   UNL     1      -4.803  15.193   9.849  1.00  0.00     0.006 C 
BRANCH   2   3
ATOM      3  C   UNL     1      -3.785  16.165   9.238  1.00  0.00     0.053 C 
BRANCH   3   4
ATOM      4  C   UNL     1      -4.274  17.580   9.280  1.00  0.00     0.041 C 
ATOM      5  O   UNL     1      -4.596  18.173   8.217  1.00  0.00    -0.550 OA
ATOM      6  O   UNL     1      -4.343  18.256  10.491  1.00  0.00    -0.550 OA
ENDBRANCH   3   4
ENDBRANCH   2   3
ENDBRANCH   1   2
BRANCH   1   7
ATOM      7  C   UNL     1      -2.916  13.628   9.225  1.00  0.00     0.000 C 
BRANCH   7   8
ATOM      8  C   UNL     1      -1.988  12.621   9.913  1.00  0.00    -0.000 C 
BRANCH   8   9
ATOM      9  C   UNL     1      -1.324  13.238  11.149  1.00  0.00    -0.003 C 
ATOM     10  C   UNL     1      -0.733  14.608  10.831  1.00  0.00     0.004 C 
ENDBRANCH   8   9
ENDBRANCH   7   8
ENDBRANCH   1   7
TORSDOF 6
ENDMDL
MODEL 9
REMARK VINA RESULT:    -2.192     21.337     22.791
REMARK INTER + INTRA:          -3.403
REMARK INTER:                  -3.118
REMARK INTRA:                  -0.285
REMARK UNBOUND:                -0.442
REMARK SMILES CCCCCCCC(=O)[O-]
REMARK SMILES IDX 5 1 6 2 7 3 8 4 9 5 10 6 4 7 3 8 2 9 1 10
REMARK H PARENT
REMARK Flexibility Score: inf
ROOT
ATOM      1  C   UNL     1      -3.528  15.056  26.667  1.00  0.00     0.000 C 
ENDROOT
BRANCH   1   2
ATOM      2  C   UNL     1      -4.774  14.617  25.885  1.00  0.00     0.006 C 
BRANCH   2   3
ATOM      3  C   UNL     1      -4.890  13.090  25.787  1.00  0.00     0.053 C 
BRANCH   3   4
ATOM      4  C   UNL     1      -4.193  12.557  24.574  1.00  0.00     0.041 C 
ATOM      5  O   UNL     1      -3.289  11.687  24.692  1.00  0.00    -0.550 OA
ATOM      6  O   UNL     1      -4.518  13.044  23.315  1.00  0.00    -0.550 OA
ENDBRANCH   3   4
ENDBRANCH   2   3
ENDBRANCH   1   2
BRANCH   1   7
ATOM      7  C   UNL     1      -3.646  16.518  27.114  1.00  0.00     0.000 C 
BRANCH   7   8
ATOM      8  C   UNL     1      -4.620  17.292  26.217  1.00  0.00    -0.000 C 
BRANCH   8   9
ATOM      9  C   UNL     1      -4.293  18.789  26.212  1.00  0.00    -0.003 C 
ATOM     10  C   UNL     1      -3.014  19.076  26.993  1.00  0.00     0.004 C 
ENDBRANCH   8   9
ENDBRANCH   7   8
ENDBRANCH   1   7
TORSDOF 6
ENDMDL
