MODEL 1
REMARK VINA RESULT:    -4.812      0.000      0.000
REMARK INTER + INTRA:          -7.187
REMARK INTER:                  -6.499
REMARK INTRA:                  -0.687
REMARK UNBOUND:                -0.687
REMARK SMILES COc1ccc(-c2cc(=O)c3c(OC)c(OC)c(OC)c(OC)c3o2)cc1
REMARK SMILES IDX 7 1 8 2 9 3 10 4 11 5 24 6 25 7 21 8 18 9 15 10 12 11 6 12
REMARK SMILES IDX 3 13 4 14 27 15 5 16 26 17 2 18 1 19 22 20 23 21 13 22 14 23
REMARK SMILES IDX 19 24 20 25 16 26 17 27
REMARK H PARENT
REMARK Flexibility Score: inf
ROOT
ATOM      1  C   UNL     1      15.179  48.317  31.314  1.00  0.00     0.138 A 
ATOM      2  C   UNL     1      16.009  47.720  30.359  1.00  0.00     0.100 A 
ATOM      3  C   UNL     1      16.544  48.500  29.337  1.00  0.00     0.197 A 
ATOM      4  O   UNL     1      17.265  47.943  28.467  1.00  0.00    -0.289 OA
ATOM      5  C   UNL     1      16.254  49.882  29.285  1.00  0.00     0.115 A 
ATOM      6  C   UNL     1      15.387  50.411  30.270  1.00  0.00     0.188 A 
ATOM      7  O   UNL     1      14.900  49.614  31.219  1.00  0.00    -0.452 OA
ATOM      8  C   UNL     1      15.051  51.785  30.254  1.00  0.00     0.209 A 
ATOM      9  C   UNL     1      15.553  52.618  29.242  1.00  0.00     0.211 A 
ATOM     10  C   UNL     1      16.395  52.092  28.233  1.00  0.00     0.208 A 
ATOM     11  C   UNL     1      16.796  50.738  28.299  1.00  0.00     0.179 A 
ENDROOT
BRANCH   1  12
ATOM     12  C   UNL     1      14.592  47.531  32.427  1.00  0.00     0.018 A 
ATOM     13  C   UNL     1      13.443  46.073  34.555  1.00  0.00     0.118 A 
ATOM     14  C   UNL     1      14.821  46.020  34.322  1.00  0.00     0.047 A 
ATOM     15  C   UNL     1      12.638  46.867  33.720  1.00  0.00     0.047 A 
ATOM     16  C   UNL     1      15.394  46.741  33.272  1.00  0.00     0.016 A 
ATOM     17  C   UNL     1      13.209  47.591  32.669  1.00  0.00     0.016 A 
BRANCH  13  18
ATOM     18  O   UNL     1      12.918  45.328  35.621  1.00  0.00    -0.497 OA
ATOM     19  C   UNL     1      11.557  45.371  36.038  1.00  0.00     0.278 C 
ENDBRANCH  13  18
ENDBRANCH   1  12
BRANCH   8  20
ATOM     20  O   UNL     1      14.220  52.395  31.214  1.00  0.00    -0.490 OA
ATOM     21  C   UNL     1      14.589  52.799  32.527  1.00  0.00     0.278 C 
ENDBRANCH   8  20
BRANCH  11  22
ATOM     22  O   UNL     1      17.760  50.256  27.412  1.00  0.00    -0.492 OA
ATOM     23  C   UNL     1      19.107  50.709  27.476  1.00  0.00     0.278 C 
ENDBRANCH  11  22
BRANCH   9  24
ATOM     24  O   UNL     1      15.158  53.971  29.299  1.00  0.00    -0.490 OA
ATOM     25  C   UNL     1      15.933  55.073  29.756  1.00  0.00     0.279 C 
ENDBRANCH   9  24
BRANCH  10  26
ATOM     26  O   UNL     1      16.813  52.935  27.188  1.00  0.00    -0.490 OA
ATOM     27  C   UNL     1      16.117  53.154  25.964  1.00  0.00     0.278 C 
ENDBRANCH  10  26
TORSDOF 6
ENDMDL
MODEL 2
REMARK VINA RESULT:    -4.660      2.306      3.757
REMARK INTER + INTRA:          -6.982
REMARK INTER:                  -6.295
REMARK INTRA:                  -0.688
REMARK UNBOUND:                -0.687
REMARK SMILES COc1ccc(-c2cc(=O)c3c(OC)c(OC)c(OC)c(OC)c3o2)cc1
REMARK SMILES IDX 7 1 8 2 9 3 10 4 11 5 24 6 25 7 21 8 18 9 15 10 12 11 6 12
REMARK SMILES IDX 3 13 4 14 27 15 5 16 26 17 2 18 1 19 22 20 23 21 13 22 14 23
REMARK SMILES IDX 19 24 20 25 16 26 17 27
REMARK H PARENT
REMARK Flexibility Score: inf
ROOT
ATOM      1  C   UNL     1      14.711  50.084  31.527  1.00  0.00     0.138 A 
ATOM      2  C   UNL     1      14.595  50.386  30.166  1.00  0.00     0.100 A 
ATOM      3  C   UNL     1      14.693  51.711  29.750  1.00  0.00     0.197 A 
ATOM      4  O   UNL     1      14.556  51.971  28.525  1.00  0.00    -0.289 OA
ATOM      5  C   UNL     1      14.923  52.730  30.703  1.00  0.00     0.115 A 
ATOM      6  C   UNL     1      15.005  52.353  32.064  1.00  0.00     0.188 A 
ATOM      7  O   UNL     1      14.895  51.070  32.402  1.00  0.00    -0.452 OA
ATOM      8  C   UNL     1      15.215  53.335  33.059  1.00  0.00     0.209 A 
ATOM      9  C   UNL     1      15.314  54.688  32.701  1.00  0.00     0.211 A 
ATOM     10  C   UNL     1      15.200  55.079  31.345  1.00  0.00     0.208 A 
ATOM     11  C   UNL     1      15.072  54.089  30.345  1.00  0.00     0.179 A 
ENDROOT
BRANCH   1  12
ATOM     12  C   UNL     1      14.622  48.688  32.020  1.00  0.00     0.018 A 
ATOM     13  C   UNL     1      14.476  46.015  32.920  1.00  0.00     0.118 A 
ATOM     14  C   UNL     1      13.390  46.880  33.089  1.00  0.00     0.047 A 
ATOM     15  C   UNL     1      15.639  46.492  32.289  1.00  0.00     0.047 A 
ATOM     16  C   UNL     1      13.457  48.203  32.644  1.00  0.00     0.016 A 
ATOM     17  C   UNL     1      15.708  47.814  31.842  1.00  0.00     0.016 A 
BRANCH  13  18
ATOM     18  O   UNL     1      14.359  44.698  33.387  1.00  0.00    -0.497 OA
ATOM     19  C   UNL     1      13.446  44.281  34.397  1.00  0.00     0.278 C 
ENDBRANCH  13  18
ENDBRANCH   1  12
BRANCH   8  20
ATOM     20  O   UNL     1      15.338  53.040  34.432  1.00  0.00    -0.490 OA
ATOM     21  C   UNL     1      14.277  52.823  35.354  1.00  0.00     0.278 C 
ENDBRANCH   8  20
BRANCH  11  22
ATOM     22  O   UNL     1      15.134  54.452  28.998  1.00  0.00    -0.492 OA
ATOM     23  C   UNL     1      16.371  54.808  28.391  1.00  0.00     0.278 C 
ENDBRANCH  11  22
BRANCH   9  24
ATOM     24  O   UNL     1      15.514  55.599  33.760  1.00  0.00    -0.490 OA
ATOM     25  C   UNL     1      14.527  56.400  34.399  1.00  0.00     0.279 C 
ENDBRANCH   9  24
BRANCH  10  26
ATOM     26  O   UNL     1      15.220  56.449  31.029  1.00  0.00    -0.490 OA
ATOM     27  C   UNL     1      14.076  57.272  30.816  1.00  0.00     0.278 C 
ENDBRANCH  10  26
TORSDOF 6
ENDMDL
MODEL 3
REMARK VINA RESULT:    -4.643      9.035     12.688
REMARK INTER + INTRA:          -6.959
REMARK INTER:                  -6.252
REMARK INTRA:                  -0.707
REMARK UNBOUND:                -0.687
REMARK SMILES COc1ccc(-c2cc(=O)c3c(OC)c(OC)c(OC)c(OC)c3o2)cc1
REMARK SMILES IDX 7 1 8 2 9 3 10 4 11 5 24 6 25 7 21 8 18 9 15 10 12 11 6 12
REMARK SMILES IDX 3 13 4 14 27 15 5 16 26 17 2 18 1 19 22 20 23 21 13 22 14 23
REMARK SMILES IDX 19 24 20 25 16 26 17 27
REMARK H PARENT
REMARK Flexibility Score: inf
ROOT
ATOM      1  C   UNL     1      25.936  55.665  30.754  1.00  0.00     0.138 A 
ATOM      2  C   UNL     1      26.680  54.497  30.950  1.00  0.00     0.100 A 
ATOM      3  C   UNL     1      26.413  53.379  30.164  1.00  0.00     0.197 A 
ATOM      4  O   UNL     1      27.070  52.324  30.373  1.00  0.00    -0.289 OA
ATOM      5  C   UNL     1      25.408  53.442  29.173  1.00  0.00     0.115 A 
ATOM      6  C   UNL     1      24.680  54.649  29.049  1.00  0.00     0.188 A 
ATOM      7  O   UNL     1      24.975  55.683  29.835  1.00  0.00    -0.452 OA
ATOM      8  C   UNL     1      23.652  54.759  28.084  1.00  0.00     0.209 A 
ATOM      9  C   UNL     1      23.332  53.662  27.269  1.00  0.00     0.211 A 
ATOM     10  C   UNL     1      24.033  52.440  27.408  1.00  0.00     0.208 A 
ATOM     11  C   UNL     1      25.114  52.358  28.315  1.00  0.00     0.179 A 
ENDROOT
BRANCH   1  12
ATOM     12  C   UNL     1      26.187  56.886  31.560  1.00  0.00     0.018 A 
ATOM     13  C   UNL     1      26.670  59.234  33.052  1.00  0.00     0.118 A 
ATOM     14  C   UNL     1      27.201  58.009  33.467  1.00  0.00     0.047 A 
ATOM     15  C   UNL     1      25.897  59.282  31.878  1.00  0.00     0.047 A 
ATOM     16  C   UNL     1      26.967  56.845  32.731  1.00  0.00     0.016 A 
ATOM     17  C   UNL     1      25.662  58.119  31.139  1.00  0.00     0.016 A 
BRANCH  13  18
ATOM     18  O   UNL     1      26.932  60.372  33.828  1.00  0.00    -0.497 OA
ATOM     19  C   UNL     1      26.922  60.395  35.251  1.00  0.00     0.278 C 
ENDBRANCH  13  18
ENDBRANCH   1  12
BRANCH   8  20
ATOM     20  O   UNL     1      22.901  55.934  27.877  1.00  0.00    -0.490 OA
ATOM     21  C   UNL     1      23.294  57.074  27.123  1.00  0.00     0.278 C 
ENDBRANCH   8  20
BRANCH  11  22
ATOM     22  O   UNL     1      25.918  51.217  28.334  1.00  0.00    -0.492 OA
ATOM     23  C   UNL     1      26.878  50.979  27.311  1.00  0.00     0.278 C 
ENDBRANCH  11  22
BRANCH   9  24
ATOM     24  O   UNL     1      22.287  53.860  26.343  1.00  0.00    -0.490 OA
ATOM     25  C   UNL     1      20.920  53.500  26.503  1.00  0.00     0.279 C 
ENDBRANCH   9  24
BRANCH  10  26
ATOM     26  O   UNL     1      23.633  51.336  26.635  1.00  0.00    -0.490 OA
ATOM     27  C   UNL     1      22.797  50.268  27.075  1.00  0.00     0.278 C 
ENDBRANCH  10  26
TORSDOF 6
ENDMDL
MODEL 4
REMARK VINA RESULT:    -4.641      3.006      6.102
REMARK INTER + INTRA:          -6.957
REMARK INTER:                  -6.239
REMARK INTRA:                  -0.718
REMARK UNBOUND:                -0.687
REMARK SMILES COc1ccc(-c2cc(=O)c3c(OC)c(OC)c(OC)c(OC)c3o2)cc1
REMARK SMILES IDX 7 1 8 2 9 3 10 4 11 5 24 6 25 7 21 8 18 9 15 10 12 11 6 12
REMARK SMILES IDX 3 13 4 14 27 15 5 16 26 17 2 18 1 19 22 20 23 21 13 22 14 23
REMARK SMILES IDX 19 24 20 25 16 26 17 27
REMARK H PARENT
REMARK Flexibility Score: inf
ROOT
ATOM      1  C   UNL     1      14.776  51.804  32.538  1.00  0.00     0.138 A 
ATOM      2  C   UNL     1      14.238  52.105  33.794  1.00  0.00     0.100 A 
ATOM      3  C   UNL     1      14.130  53.436  34.188  1.00  0.00     0.197 A 
ATOM      4  O   UNL     1      13.672  53.692  35.333  1.00  0.00    -0.289 OA
ATOM      5  C   UNL     1      14.551  54.463  33.313  1.00  0.00     0.115 A 
ATOM      6  C   UNL     1      15.109  54.082  32.069  1.00  0.00     0.188 A 
ATOM      7  O   UNL     1      15.194  52.792  31.751  1.00  0.00    -0.452 OA
ATOM      8  C   UNL     1      15.562  55.069  31.164  1.00  0.00     0.209 A 
ATOM      9  C   UNL     1      15.487  56.427  31.511  1.00  0.00     0.211 A 
ATOM     10  C   UNL     1      14.961  56.817  32.766  1.00  0.00     0.208 A 
ATOM     11  C   UNL     1      14.434  55.834  33.634  1.00  0.00     0.179 A 
ENDROOT
BRANCH   1  12
ATOM     12  C   UNL     1      14.905  50.402  32.068  1.00  0.00     0.018 A 
ATOM     13  C   UNL     1      15.125  47.721  31.211  1.00  0.00     0.118 A 
ATOM     14  C   UNL     1      16.197  48.605  31.054  1.00  0.00     0.047 A 
ATOM     15  C   UNL     1      13.938  48.183  31.808  1.00  0.00     0.047 A 
ATOM     16  C   UNL     1      16.093  49.932  31.478  1.00  0.00     0.016 A 
ATOM     17  C   UNL     1      13.833  49.510  32.234  1.00  0.00     0.016 A 
BRANCH  13  18
ATOM     18  O   UNL     1      15.280  46.400  30.767  1.00  0.00    -0.497 OA
ATOM     19  C   UNL     1      16.533  45.738  30.633  1.00  0.00     0.278 C 
ENDBRANCH  13  18
ENDBRANCH   1  12
BRANCH   8  20
ATOM     20  O   UNL     1      16.102  54.775  29.896  1.00  0.00    -0.490 OA
ATOM     21  C   UNL     1      15.375  54.457  28.715  1.00  0.00     0.278 C 
ENDBRANCH   8  20
BRANCH  11  22
ATOM     22  O   UNL     1      13.758  56.223  34.792  1.00  0.00    -0.492 OA
ATOM     23  C   UNL     1      12.438  56.750  34.729  1.00  0.00     0.278 C 
ENDBRANCH  11  22
BRANCH   9  24
ATOM     24  O   UNL     1      15.971  57.341  30.551  1.00  0.00    -0.490 OA
ATOM     25  C   UNL     1      15.200  58.137  29.660  1.00  0.00     0.279 C 
ENDBRANCH   9  24
BRANCH  10  26
ATOM     26  O   UNL     1      14.977  58.179  33.116  1.00  0.00    -0.490 OA
ATOM     27  C   UNL     1      16.004  58.840  33.850  1.00  0.00     0.278 C 
ENDBRANCH  10  26
TORSDOF 6
ENDMDL
MODEL 5
REMARK VINA RESULT:    -4.569      3.288      7.924
REMARK INTER + INTRA:          -6.859
REMARK INTER:                  -6.169
REMARK INTRA:                  -0.690
REMARK UNBOUND:                -0.687
REMARK SMILES COc1ccc(-c2cc(=O)c3c(OC)c(OC)c(OC)c(OC)c3o2)cc1
REMARK SMILES IDX 7 1 8 2 9 3 10 4 11 5 24 6 25 7 21 8 18 9 15 10 12 11 6 12
REMARK SMILES IDX 3 13 4 14 27 15 5 16 26 17 2 18 1 19 22 20 23 21 13 22 14 23
REMARK SMILES IDX 19 24 20 25 16 26 17 27
REMARK H PARENT
REMARK Flexibility Score: inf
ROOT
ATOM      1  C   UNL     1      15.448  54.816  32.305  1.00  0.00     0.138 A 
ATOM      2  C   UNL     1      15.054  53.802  33.185  1.00  0.00     0.100 A 
ATOM      3  C   UNL     1      14.727  52.547  32.677  1.00  0.00     0.197 A 
ATOM      4  O   UNL     1      14.344  51.653  33.478  1.00  0.00    -0.289 OA
ATOM      5  C   UNL     1      14.810  52.310  31.287  1.00  0.00     0.115 A 
ATOM      6  C   UNL     1      15.192  53.390  30.455  1.00  0.00     0.188 A 
ATOM      7  O   UNL     1      15.485  54.570  30.998  1.00  0.00    -0.452 OA
ATOM      8  C   UNL     1      15.274  53.211  29.055  1.00  0.00     0.209 A 
ATOM      9  C   UNL     1      14.948  51.970  28.486  1.00  0.00     0.211 A 
ATOM     10  C   UNL     1      14.533  50.893  29.305  1.00  0.00     0.208 A 
ATOM     11  C   UNL     1      14.531  51.050  30.710  1.00  0.00     0.179 A 
ENDROOT
BRANCH   1  12
ATOM     12  C   UNL     1      15.814  56.167  32.796  1.00  0.00     0.018 A 
ATOM     13  C   UNL     1      16.557  58.724  33.735  1.00  0.00     0.118 A 
ATOM     14  C   UNL     1      15.349  58.145  34.138  1.00  0.00     0.047 A 
ATOM     15  C   UNL     1      17.399  58.014  32.861  1.00  0.00     0.047 A 
ATOM     16  C   UNL     1      14.979  56.879  33.678  1.00  0.00     0.016 A 
ATOM     17  C   UNL     1      17.031  56.747  32.401  1.00  0.00     0.016 A 
BRANCH  13  18
ATOM     18  O   UNL     1      16.881  59.998  34.224  1.00  0.00    -0.497 OA
ATOM     19  C   UNL     1      17.181  61.122  33.403  1.00  0.00     0.278 C 
ENDBRANCH  13  18
ENDBRANCH   1  12
BRANCH   8  20
ATOM     20  O   UNL     1      15.674  54.225  28.162  1.00  0.00    -0.490 OA
ATOM     21  C   UNL     1      17.008  54.608  27.853  1.00  0.00     0.278 C 
ENDBRANCH   8  20
BRANCH  11  22
ATOM     22  O   UNL     1      14.293  49.946  31.531  1.00  0.00    -0.492 OA
ATOM     23  C   UNL     1      15.256  48.907  31.660  1.00  0.00     0.278 C 
ENDBRANCH  11  22
BRANCH   9  24
ATOM     24  O   UNL     1      15.049  51.886  27.081  1.00  0.00    -0.490 OA
ATOM     25  C   UNL     1      16.053  51.210  26.333  1.00  0.00     0.279 C 
ENDBRANCH   9  24
BRANCH  10  26
ATOM     26  O   UNL     1      14.134  49.690  28.697  1.00  0.00    -0.490 OA
ATOM     27  C   UNL     1      12.802  49.345  28.326  1.00  0.00     0.278 C 
ENDBRANCH  10  26
TORSDOF 6
ENDMDL
MODEL 6
REMARK VINA RESULT:    -4.563      2.511      6.207
REMARK INTER + INTRA:          -6.851
REMARK INTER:                  -6.163
REMARK INTRA:                  -0.689
REMARK UNBOUND:                -0.687
REMARK SMILES COc1ccc(-c2cc(=O)c3c(OC)c(OC)c(OC)c(OC)c3o2)cc1
REMARK SMILES IDX 7 1 8 2 9 3 10 4 11 5 24 6 25 7 21 8 18 9 15 10 12 11 6 12
REMARK SMILES IDX 3 13 4 14 27 15 5 16 26 17 2 18 1 19 22 20 23 21 13 22 14 23
REMARK SMILES IDX 19 24 20 25 16 26 17 27
REMARK H PARENT
REMARK Flexibility Score: inf
ROOT
ATOM      1  C   UNL     1      14.582  50.944  32.040  1.00  0.00     0.138 A 
ATOM      2  C   UNL     1      15.274  51.284  30.873  1.00  0.00     0.100 A 
ATOM      3  C   UNL     1      15.790  50.272  30.067  1.00  0.00     0.197 A 
ATOM      4  O   UNL     1      16.437  50.593  29.035  1.00  0.00    -0.289 OA
ATOM      5  C   UNL     1      15.598  48.920  30.430  1.00  0.00     0.115 A 
ATOM      6  C   UNL     1      14.910  48.653  31.638  1.00  0.00     0.188 A 
ATOM      7  O   UNL     1      14.446  49.663  32.371  1.00  0.00    -0.452 OA
ATOM      8  C   UNL     1      14.706  47.318  32.056  1.00  0.00     0.209 A 
ATOM      9  C   UNL     1      15.212  46.256  31.289  1.00  0.00     0.211 A 
ATOM     10  C   UNL     1      15.930  46.514  30.097  1.00  0.00     0.208 A 
ATOM     11  C   UNL     1      16.061  47.845  29.638  1.00  0.00     0.179 A 
ENDROOT
BRANCH   1  12
ATOM     12  C   UNL     1      14.005  51.984  32.928  1.00  0.00     0.018 A 
ATOM     13  C   UNL     1      12.895  53.988  34.578  1.00  0.00     0.118 A 
ATOM     14  C   UNL     1      14.098  53.367  34.930  1.00  0.00     0.047 A 
ATOM     15  C   UNL     1      12.249  53.607  33.389  1.00  0.00     0.047 A 
ATOM     16  C   UNL     1      14.652  52.376  34.115  1.00  0.00     0.016 A 
ATOM     17  C   UNL     1      12.803  52.617  32.572  1.00  0.00     0.016 A 
BRANCH  13  18
ATOM     18  O   UNL     1      12.380  54.975  35.432  1.00  0.00    -0.497 OA
ATOM     19  C   UNL     1      12.078  54.770  36.808  1.00  0.00     0.278 C 
ENDBRANCH  13  18
ENDBRANCH   1  12
BRANCH   8  20
ATOM     20  O   UNL     1      14.007  46.967  33.228  1.00  0.00    -0.490 OA
ATOM     21  C   UNL     1      12.598  46.840  33.373  1.00  0.00     0.278 C 
ENDBRANCH   8  20
BRANCH  11  22
ATOM     22  O   UNL     1      16.613  48.093  28.380  1.00  0.00    -0.492 OA
ATOM     23  C   UNL     1      15.883  47.816  27.191  1.00  0.00     0.278 C 
ENDBRANCH  11  22
BRANCH   9  24
ATOM     24  O   UNL     1      14.970  44.959  31.788  1.00  0.00    -0.490 OA
ATOM     25  C   UNL     1      14.019  44.018  31.303  1.00  0.00     0.279 C 
ENDBRANCH   9  24
BRANCH  10  26
ATOM     26  O   UNL     1      16.495  45.433  29.396  1.00  0.00    -0.490 OA
ATOM     27  C   UNL     1      17.844  44.987  29.499  1.00  0.00     0.278 C 
ENDBRANCH  10  26
TORSDOF 6
ENDMDL
MODEL 7
REMARK VINA RESULT:    -4.503      3.031      5.540
REMARK INTER + INTRA:          -6.770
REMARK INTER:                  -6.143
REMARK INTRA:                  -0.627
REMARK UNBOUND:                -0.687
REMARK SMILES COc1ccc(-c2cc(=O)c3c(OC)c(OC)c(OC)c(OC)c3o2)cc1
REMARK SMILES IDX 7 1 8 2 9 3 10 4 11 5 24 6 25 7 21 8 18 9 15 10 12 11 6 12
REMARK SMILES IDX 3 13 4 14 27 15 5 16 26 17 2 18 1 19 22 20 23 21 13 22 14 23
REMARK SMILES IDX 19 24 20 25 16 26 17 27
REMARK H PARENT
REMARK Flexibility Score: inf
ROOT
ATOM      1  C   UNL     1      14.736  51.469  31.723  1.00  0.00     0.138 A 
ATOM      2  C   UNL     1      14.971  52.205  30.557  1.00  0.00     0.100 A 
ATOM      3  C   UNL     1      14.762  53.582  30.565  1.00  0.00     0.197 A 
ATOM      4  O   UNL     1      14.949  54.227  29.499  1.00  0.00    -0.289 OA
ATOM      5  C   UNL     1      14.330  54.218  31.751  1.00  0.00     0.115 A 
ATOM      6  C   UNL     1      14.089  53.407  32.885  1.00  0.00     0.188 A 
ATOM      7  O   UNL     1      14.299  52.093  32.814  1.00  0.00    -0.452 OA
ATOM      8  C   UNL     1      13.639  53.991  34.091  1.00  0.00     0.209 A 
ATOM      9  C   UNL     1      13.402  55.373  34.156  1.00  0.00     0.211 A 
ATOM     10  C   UNL     1      13.610  56.189  33.018  1.00  0.00     0.208 A 
ATOM     11  C   UNL     1      14.137  55.616  31.839  1.00  0.00     0.179 A 
ENDROOT
BRANCH   1  12
ATOM     12  C   UNL     1      14.951  50.002  31.769  1.00  0.00     0.018 A 
ATOM     13  C   UNL     1      15.342  47.208  31.899  1.00  0.00     0.118 A 
ATOM     14  C   UNL     1      16.317  48.034  31.331  1.00  0.00     0.047 A 
ATOM     15  C   UNL     1      14.167  47.788  32.410  1.00  0.00     0.047 A 
ATOM     16  C   UNL     1      16.129  49.417  31.267  1.00  0.00     0.016 A 
ATOM     17  C   UNL     1      13.977  49.171  32.348  1.00  0.00     0.016 A 
BRANCH  13  18
ATOM     18  O   UNL     1      15.578  45.826  31.938  1.00  0.00    -0.497 OA
ATOM     19  C   UNL     1      14.640  44.863  32.406  1.00  0.00     0.278 C 
ENDBRANCH  13  18
ENDBRANCH   1  12
BRANCH   8  20
ATOM     20  O   UNL     1      13.404  53.258  35.271  1.00  0.00    -0.490 OA
ATOM     21  C   UNL     1      14.379  52.817  36.208  1.00  0.00     0.278 C 
ENDBRANCH   8  20
BRANCH  11  22
ATOM     22  O   UNL     1      14.508  56.438  30.773  1.00  0.00    -0.492 OA
ATOM     23  C   UNL     1      15.745  57.141  30.785  1.00  0.00     0.278 C 
ENDBRANCH  11  22
BRANCH   9  24
ATOM     24  O   UNL     1      12.946  55.867  35.396  1.00  0.00    -0.490 OA
ATOM     25  C   UNL     1      11.601  56.154  35.762  1.00  0.00     0.279 C 
ENDBRANCH   9  24
BRANCH  10  26
ATOM     26  O   UNL     1      13.284  57.555  33.093  1.00  0.00    -0.490 OA
ATOM     27  C   UNL     1      14.061  58.564  33.731  1.00  0.00     0.278 C 
ENDBRANCH  10  26
TORSDOF 6
ENDMDL
MODEL 8
REMARK VINA RESULT:    -4.497      2.533      5.762
REMARK INTER + INTRA:          -6.761
REMARK INTER:                  -6.269
REMARK INTRA:                  -0.493
REMARK UNBOUND:                -0.687
REMARK SMILES COc1ccc(-c2cc(=O)c3c(OC)c(OC)c(OC)c(OC)c3o2)cc1
REMARK SMILES IDX 7 1 8 2 9 3 10 4 11 5 24 6 25 7 21 8 18 9 15 10 12 11 6 12
REMARK SMILES IDX 3 13 4 14 27 15 5 16 26 17 2 18 1 19 22 20 23 21 13 22 14 23
REMARK SMILES IDX 19 24 20 25 16 26 17 27
REMARK H PARENT
REMARK Flexibility Score: inf
ROOT
ATOM      1  C   UNL     1      14.341  52.187  32.340  1.00  0.00     0.138 A 
ATOM      2  C   UNL     1      14.676  52.942  31.211  1.00  0.00     0.100 A 
ATOM      3  C   UNL     1      15.222  52.303  30.100  1.00  0.00     0.197 A 
ATOM      4  O   UNL     1      15.547  52.999  29.102  1.00  0.00    -0.289 OA
ATOM      5  C   UNL     1      15.416  50.903  30.122  1.00  0.00     0.115 A 
ATOM      6  C   UNL     1      15.078  50.209  31.308  1.00  0.00     0.188 A 
ATOM      7  O   UNL     1      14.567  50.876  32.341  1.00  0.00    -0.452 OA
ATOM      8  C   UNL     1      15.270  48.810  31.389  1.00  0.00     0.209 A 
ATOM      9  C   UNL     1      15.824  48.113  30.304  1.00  0.00     0.211 A 
ATOM     10  C   UNL     1      16.197  48.804  29.126  1.00  0.00     0.208 A 
ATOM     11  C   UNL     1      15.929  50.187  29.016  1.00  0.00     0.179 A 
ENDROOT
BRANCH   1  12
ATOM     12  C   UNL     1      13.749  52.819  33.545  1.00  0.00     0.018 A 
ATOM     13  C   UNL     1      12.637  53.983  35.864  1.00  0.00     0.118 A 
ATOM     14  C   UNL     1      11.975  54.079  34.636  1.00  0.00     0.047 A 
ATOM     15  C   UNL     1      13.861  53.294  35.930  1.00  0.00     0.047 A 
ATOM     16  C   UNL     1      12.520  53.503  33.486  1.00  0.00     0.016 A 
ATOM     17  C   UNL     1      14.407  52.715  34.781  1.00  0.00     0.016 A 
BRANCH  13  18
ATOM     18  O   UNL     1      12.048  54.582  36.988  1.00  0.00    -0.497 OA
ATOM     19  C   UNL     1      11.261  55.767  36.948  1.00  0.00     0.278 C 
ENDBRANCH  13  18
ENDBRANCH   1  12
BRANCH   8  20
ATOM     20  O   UNL     1      14.931  48.042  32.520  1.00  0.00    -0.490 OA
ATOM     21  C   UNL     1      13.642  47.544  32.857  1.00  0.00     0.278 C 
ENDBRANCH   8  20
BRANCH  11  22
ATOM     22  O   UNL     1      16.132  50.839  27.798  1.00  0.00    -0.492 OA
ATOM     23  C   UNL     1      17.444  51.117  27.325  1.00  0.00     0.278 C 
ENDBRANCH  11  22
BRANCH   9  24
ATOM     24  O   UNL     1      15.988  46.723  30.477  1.00  0.00    -0.490 OA
ATOM     25  C   UNL     1      17.196  46.033  30.776  1.00  0.00     0.279 C 
ENDBRANCH   9  24
BRANCH  10  26
ATOM     26  O   UNL     1      16.826  48.090  28.090  1.00  0.00    -0.490 OA
ATOM     27  C   UNL     1      16.167  47.395  27.035  1.00  0.00     0.278 C 
ENDBRANCH  10  26
TORSDOF 6
ENDMDL
MODEL 9
REMARK VINA RESULT:    -4.443      3.161      6.996
REMARK INTER + INTRA:          -6.689
REMARK INTER:                  -6.070
REMARK INTRA:                  -0.619
REMARK UNBOUND:                -0.687
REMARK SMILES COc1ccc(-c2cc(=O)c3c(OC)c(OC)c(OC)c(OC)c3o2)cc1
REMARK SMILES IDX 7 1 8 2 9 3 10 4 11 5 24 6 25 7 21 8 18 9 15 10 12 11 6 12
REMARK SMILES IDX 3 13 4 14 27 15 5 16 26 17 2 18 1 19 22 20 23 21 13 22 14 23
REMARK SMILES IDX 19 24 20 25 16 26 17 27
REMARK H PARENT
REMARK Flexibility Score: inf
ROOT
ATOM      1  C   UNL     1      14.625  50.050  32.218  1.00  0.00     0.138 A 
ATOM      2  C   UNL     1      15.774  49.871  31.440  1.00  0.00     0.100 A 
ATOM      3  C   UNL     1      16.152  48.584  31.067  1.00  0.00     0.197 A 
ATOM      4  O   UNL     1      17.206  48.436  30.393  1.00  0.00    -0.289 OA
ATOM      5  C   UNL     1      15.365  47.479  31.464  1.00  0.00     0.115 A 
ATOM      6  C   UNL     1      14.230  47.734  32.271  1.00  0.00     0.188 A 
ATOM      7  O   UNL     1      13.923  48.986  32.603  1.00  0.00    -0.452 OA
ATOM      8  C   UNL     1      13.419  46.663  32.710  1.00  0.00     0.209 A 
ATOM      9  C   UNL     1      13.755  45.343  32.372  1.00  0.00     0.211 A 
ATOM     10  C   UNL     1      14.907  45.075  31.593  1.00  0.00     0.208 A 
ATOM     11  C   UNL     1      15.669  46.152  31.087  1.00  0.00     0.179 A 
ENDROOT
BRANCH   1  12
ATOM     12  C   UNL     1      14.175  51.401  32.635  1.00  0.00     0.018 A 
ATOM     13  C   UNL     1      13.306  53.981  33.384  1.00  0.00     0.118 A 
ATOM     14  C   UNL     1      14.480  53.444  33.923  1.00  0.00     0.047 A 
ATOM     15  C   UNL     1      12.568  53.221  32.459  1.00  0.00     0.047 A 
ATOM     16  C   UNL     1      14.915  52.169  33.554  1.00  0.00     0.016 A 
ATOM     17  C   UNL     1      13.002  51.946  32.087  1.00  0.00     0.016 A 
BRANCH  13  18
ATOM     18  O   UNL     1      12.912  55.264  33.789  1.00  0.00    -0.497 OA
ATOM     19  C   UNL     1      12.718  55.656  35.144  1.00  0.00     0.278 C 
ENDBRANCH  13  18
ENDBRANCH   1  12
BRANCH   8  20
ATOM     20  O   UNL     1      12.258  46.833  33.489  1.00  0.00    -0.490 OA
ATOM     21  C   UNL     1      10.965  47.200  33.022  1.00  0.00     0.278 C 
ENDBRANCH   8  20
BRANCH  11  22
ATOM     22  O   UNL     1      16.700  45.905  30.178  1.00  0.00    -0.492 OA
ATOM     23  C   UNL     1      16.424  45.669  28.802  1.00  0.00     0.278 C 
ENDBRANCH  11  22
BRANCH   9  24
ATOM     24  O   UNL     1      12.895  44.337  32.862  1.00  0.00    -0.490 OA
ATOM     25  C   UNL     1      13.092  43.528  34.015  1.00  0.00     0.279 C 
ENDBRANCH   9  24
BRANCH  10  26
ATOM     26  O   UNL     1      15.262  43.737  31.343  1.00  0.00    -0.490 OA
ATOM     27  C   UNL     1      14.672  42.887  30.363  1.00  0.00     0.278 C 
ENDBRANCH  10  26
TORSDOF 6
ENDMDL
