MODEL 1
REMARK VINA RESULT:    -0.846      0.000      0.000
REMARK INTER + INTRA:          -1.273
REMARK INTER:                  -0.994
REMARK INTRA:                  -0.279
REMARK UNBOUND:                -0.279
REMARK SMILES O=c1cc(-c2ccc(O)c(O)c2)oc2cc(O)cc(O)c12
REMARK SMILES IDX 4 1 3 2 2 3 1 4 21 5 19 6 18 7 16 8 15 9 14 10 13 11 5 12
REMARK SMILES IDX 6 13 7 14 8 15 12 16 10 17 9 18 11 20 20 22 17 24
REMARK H PARENT 9 19 11 21 20 23 17 25
REMARK Flexibility Score: inf
ROOT
ATOM      1  C   UNL     1      13.905  39.169 -11.290  1.00  0.00     0.138 A 
ATOM      2  C   UNL     1      14.245  37.879 -11.718  1.00  0.00     0.100 A 
ATOM      3  C   UNL     1      15.356  37.695 -12.543  1.00  0.00     0.197 A 
ATOM      4  O   UNL     1      15.600  36.534 -12.962  1.00  0.00    -0.289 OA
ATOM      5  C   UNL     1      16.148  38.808 -12.915  1.00  0.00     0.107 A 
ATOM      6  C   UNL     1      17.325  38.735 -13.718  1.00  0.00     0.134 A 
ATOM      7  C   UNL     1      17.961  39.917 -14.118  1.00  0.00     0.093 A 
ATOM      8  C   UNL     1      17.500  41.162 -13.695  1.00  0.00     0.123 A 
ATOM      9  C   UNL     1      16.381  41.243 -12.866  1.00  0.00     0.094 A 
ATOM     10  C   UNL     1      15.703  40.084 -12.478  1.00  0.00     0.146 A 
ATOM     11  O   UNL     1      14.634  40.204 -11.699  1.00  0.00    -0.456 OA
ENDROOT
BRANCH   1  12
ATOM     12  C   UNL     1      12.735  39.421 -10.412  1.00  0.00     0.021 A 
ATOM     13  C   UNL     1      12.860  40.313  -9.332  1.00  0.00     0.016 A 
ATOM     14  C   UNL     1      11.776  40.560  -8.487  1.00  0.00     0.051 A 
ATOM     15  C   UNL     1      10.551  39.915  -8.699  1.00  0.00     0.157 A 
ATOM     16  C   UNL     1      11.505  38.765 -10.611  1.00  0.00     0.062 A 
ATOM     17  C   UNL     1      10.418  39.010  -9.765  1.00  0.00     0.158 A 
BRANCH  15  18
ATOM     18  O   UNL     1       9.471  40.166  -7.854  1.00  0.00    -0.504 OA
ATOM     19  H   UNL     1       8.663  40.692  -8.169  1.00  0.00     0.293 HD
ENDBRANCH  15  18
BRANCH  17  20
ATOM     20  O   UNL     1       9.215  38.343  -9.996  1.00  0.00    -0.504 OA
ATOM     21  H   UNL     1       9.113  37.659 -10.736  1.00  0.00     0.293 HD
ENDBRANCH  17  20
ENDBRANCH   1  12
BRANCH   6  22
ATOM     22  O   UNL     1      17.921  37.537 -14.125  1.00  0.00    -0.507 OA
ATOM     23  H   UNL     1      18.897  37.313 -14.016  1.00  0.00     0.293 HD
ENDBRANCH   6  22
BRANCH   8  24
ATOM     24  O   UNL     1      18.167  42.316 -14.101  1.00  0.00    -0.508 OA
ATOM     25  H   UNL     1      18.077  43.187 -13.592  1.00  0.00     0.293 HD
ENDBRANCH   8  24
TORSDOF 5
ENDMDL
MODEL 2
REMARK VINA RESULT:     1.468      1.403      6.940
REMARK INTER + INTRA:           1.447
REMARK INTER:                   1.724
REMARK INTRA:                  -0.277
REMARK UNBOUND:                -0.279
REMARK SMILES O=c1cc(-c2ccc(O)c(O)c2)oc2cc(O)cc(O)c12
REMARK SMILES IDX 4 1 3 2 2 3 1 4 21 5 19 6 18 7 16 8 15 9 14 10 13 11 5 12
REMARK SMILES IDX 6 13 7 14 8 15 12 16 10 17 9 18 11 20 20 22 17 24
REMARK H PARENT 9 19 11 21 20 23 17 25
REMARK Flexibility Score: inf
ROOT
ATOM      1  C   UNL     1      14.653  39.865 -11.920  1.00  0.00     0.138 A 
ATOM      2  C   UNL     1      13.800  38.976 -12.587  1.00  0.00     0.100 A 
ATOM      3  C   UNL     1      12.571  38.640 -12.018  1.00  0.00     0.197 A 
ATOM      4  O   UNL     1      11.853  37.792 -12.609  1.00  0.00    -0.289 OA
ATOM      5  C   UNL     1      12.183  39.223 -10.787  1.00  0.00     0.107 A 
ATOM      6  C   UNL     1      10.936  38.986 -10.133  1.00  0.00     0.134 A 
ATOM      7  C   UNL     1      10.711  39.527  -8.862  1.00  0.00     0.093 A 
ATOM      8  C   UNL     1      11.659  40.346  -8.249  1.00  0.00     0.123 A 
ATOM      9  C   UNL     1      12.858  40.628  -8.902  1.00  0.00     0.094 A 
ATOM     10  C   UNL     1      13.128  40.074 -10.156  1.00  0.00     0.146 A 
ATOM     11  O   UNL     1      14.288  40.356 -10.740  1.00  0.00    -0.456 OA
ENDROOT
BRANCH   1  12
ATOM     12  C   UNL     1      15.970  40.258 -12.481  1.00  0.00     0.021 A 
ATOM     13  C   UNL     1      16.346  41.612 -12.482  1.00  0.00     0.016 A 
ATOM     14  C   UNL     1      17.576  42.008 -13.011  1.00  0.00     0.051 A 
ATOM     15  C   UNL     1      18.450  41.059 -13.558  1.00  0.00     0.157 A 
ATOM     16  C   UNL     1      16.847  39.310 -13.045  1.00  0.00     0.062 A 
ATOM     17  C   UNL     1      18.079  39.704 -13.578  1.00  0.00     0.158 A 
BRANCH  15  18
ATOM     18  O   UNL     1      19.678  41.456 -14.083  1.00  0.00    -0.504 OA
ATOM     19  H   UNL     1      19.974  41.176 -15.011  1.00  0.00     0.293 HD
ENDBRANCH  15  18
BRANCH  17  20
ATOM     20  O   UNL     1      18.921  38.736 -14.125  1.00  0.00    -0.504 OA
ATOM     21  H   UNL     1      18.653  38.182 -14.930  1.00  0.00     0.293 HD
ENDBRANCH  17  20
ENDBRANCH   1  12
BRANCH   6  22
ATOM     22  O   UNL     1       9.886  38.253 -10.695  1.00  0.00    -0.507 OA
ATOM     23  H   UNL     1       9.915  37.265 -10.895  1.00  0.00     0.293 HD
ENDBRANCH   6  22
BRANCH   8  24
ATOM     24  O   UNL     1      11.393  40.879  -6.989  1.00  0.00    -0.508 OA
ATOM     25  H   UNL     1      10.467  41.207  -6.737  1.00  0.00     0.293 HD
ENDBRANCH   8  24
TORSDOF 5
ENDMDL
