MODEL 1
REMARK VINA RESULT:    -4.547      0.000      0.000
REMARK INTER + INTRA:          -7.116
REMARK INTER:                  -6.674
REMARK INTRA:                  -0.442
REMARK UNBOUND:                -0.442
REMARK SMILES O=C([O-])CCCCCCCC(=O)[O-]
REMARK SMILES IDX 7 1 6 2 5 3 4 4 2 5 1 6 3 7 8 8 9 9 10 10 11 11 12 12 13 13
REMARK H PARENT
REMARK Flexibility Score: inf
ROOT
ATOM      1  C   UNL     1      -6.173  -3.275   5.565  1.00  0.00     0.000 C 
ENDROOT
BRANCH   1   2
ATOM      2  C   UNL     1      -6.734  -1.849   5.670  1.00  0.00     0.000 C 
BRANCH   2   3
ATOM      3  C   UNL     1      -7.079  -1.453   7.115  1.00  0.00     0.006 C 
BRANCH   3   4
ATOM      4  C   UNL     1      -5.922  -0.734   7.821  1.00  0.00     0.053 C 
BRANCH   4   5
ATOM      5  C   UNL     1      -5.927   0.723   7.479  1.00  0.00     0.041 C 
ATOM      6  O   UNL     1      -4.848   1.317   7.222  1.00  0.00    -0.550 OA
ATOM      7  O   UNL     1      -7.120   1.435   7.493  1.00  0.00    -0.550 OA
ENDBRANCH   4   5
ENDBRANCH   3   4
ENDBRANCH   2   3
ENDBRANCH   1   2
BRANCH   1   8
ATOM      8  C   UNL     1      -4.772  -3.267   4.934  1.00  0.00     0.000 C 
BRANCH   8   9
ATOM      9  C   UNL     1      -3.724  -2.580   5.824  1.00  0.00     0.006 C 
BRANCH   9  10
ATOM     10  C   UNL     1      -2.416  -3.376   5.918  1.00  0.00     0.053 C 
BRANCH  10  11
ATOM     11  C   UNL     1      -2.701  -4.807   6.250  1.00  0.00     0.041 C 
ATOM     12  O   UNL     1      -3.236  -5.107   7.350  1.00  0.00    -0.550 OA
ATOM     13  O   UNL     1      -2.421  -5.806   5.326  1.00  0.00    -0.550 OA
ENDBRANCH  10  11
ENDBRANCH   9  10
ENDBRANCH   8   9
ENDBRANCH   1   8
TORSDOF 8
ENDMDL
MODEL 2
REMARK VINA RESULT:    -4.542      0.148      5.617
REMARK INTER + INTRA:          -7.108
REMARK INTER:                  -6.676
REMARK INTRA:                  -0.432
REMARK UNBOUND:                -0.442
REMARK SMILES O=C([O-])CCCCCCCC(=O)[O-]
REMARK SMILES IDX 7 1 6 2 5 3 4 4 2 5 1 6 3 7 8 8 9 9 10 10 11 11 12 12 13 13
REMARK H PARENT
REMARK Flexibility Score: inf
ROOT
ATOM      1  C   UNL     1      -6.083  -3.255   5.472  1.00  0.00     0.000 C 
ENDROOT
BRANCH   1   2
ATOM      2  C   UNL     1      -4.654  -3.292   4.912  1.00  0.00     0.000 C 
BRANCH   2   3
ATOM      3  C   UNL     1      -3.660  -2.492   5.769  1.00  0.00     0.006 C 
BRANCH   3   4
ATOM      4  C   UNL     1      -2.381  -3.282   6.082  1.00  0.00     0.053 C 
BRANCH   4   5
ATOM      5  C   UNL     1      -2.703  -4.723   6.321  1.00  0.00     0.041 C 
ATOM      6  O   UNL     1      -3.249  -5.080   7.398  1.00  0.00    -0.550 OA
ATOM      7  O   UNL     1      -2.355  -5.679   5.375  1.00  0.00    -0.550 OA
ENDBRANCH   4   5
ENDBRANCH   3   4
ENDBRANCH   2   3
ENDBRANCH   1   2
BRANCH   1   8
ATOM      8  C   UNL     1      -6.533  -1.808   5.730  1.00  0.00     0.000 C 
BRANCH   8   9
ATOM      9  C   UNL     1      -6.917  -1.559   7.197  1.00  0.00     0.006 C 
BRANCH   9  10
ATOM     10  C   UNL     1      -5.900  -0.674   7.931  1.00  0.00     0.053 C 
BRANCH  10  11
ATOM     11  C   UNL     1      -6.011   0.743   7.465  1.00  0.00     0.041 C 
ATOM     12  O   UNL     1      -7.129   1.323   7.461  1.00  0.00    -0.550 OA
ATOM     13  O   UNL     1      -4.873   1.440   7.080  1.00  0.00    -0.550 OA
ENDBRANCH  10  11
ENDBRANCH   9  10
ENDBRANCH   8   9
ENDBRANCH   1   8
TORSDOF 8
ENDMDL
MODEL 3
REMARK VINA RESULT:    -4.500      1.616      5.181
REMARK INTER + INTRA:          -7.047
REMARK INTER:                  -6.424
REMARK INTRA:                  -0.623
REMARK UNBOUND:                -0.442
REMARK SMILES O=C([O-])CCCCCCCC(=O)[O-]
REMARK SMILES IDX 7 1 6 2 5 3 4 4 2 5 1 6 3 7 8 8 9 9 10 10 11 11 12 12 13 13
REMARK H PARENT
REMARK Flexibility Score: inf
ROOT
ATOM      1  C   UNL     1      -5.151  -3.480   4.895  1.00  0.00     0.000 C 
ENDROOT
BRANCH   1   2
ATOM      2  C   UNL     1      -4.862  -4.638   5.862  1.00  0.00     0.000 C 
BRANCH   2   3
ATOM      3  C   UNL     1      -3.365  -4.791   6.173  1.00  0.00     0.006 C 
BRANCH   3   4
ATOM      4  C   UNL     1      -2.897  -3.855   7.296  1.00  0.00     0.053 C 
BRANCH   4   5
ATOM      5  C   UNL     1      -1.909  -2.862   6.770  1.00  0.00     0.041 C 
ATOM      6  O   UNL     1      -1.625  -2.839   5.544  1.00  0.00    -0.550 OA
ATOM      7  O   UNL     1      -1.266  -1.993   7.643  1.00  0.00    -0.550 OA
ENDBRANCH   4   5
ENDBRANCH   3   4
ENDBRANCH   2   3
ENDBRANCH   1   2
BRANCH   1   8
ATOM      8  C   UNL     1      -6.095  -2.452   5.538  1.00  0.00     0.000 C 
BRANCH   8   9
ATOM      9  C   UNL     1      -5.431  -1.081   5.739  1.00  0.00     0.006 C 
BRANCH   9  10
ATOM     10  C   UNL     1      -5.374  -0.664   7.214  1.00  0.00     0.053 C 
BRANCH  10  11
ATOM     11  C   UNL     1      -5.638   0.802   7.352  1.00  0.00     0.041 C 
ATOM     12  O   UNL     1      -6.815   1.221   7.517  1.00  0.00    -0.550 OA
ATOM     13  O   UNL     1      -4.581   1.704   7.349  1.00  0.00    -0.550 OA
ENDBRANCH  10  11
ENDBRANCH   9  10
ENDBRANCH   8   9
ENDBRANCH   1   8
TORSDOF 8
ENDMDL
MODEL 4
REMARK VINA RESULT:    -4.359      1.103      1.553
REMARK INTER + INTRA:          -6.839
REMARK INTER:                  -6.195
REMARK INTRA:                  -0.644
REMARK UNBOUND:                -0.442
REMARK SMILES O=C([O-])CCCCCCCC(=O)[O-]
REMARK SMILES IDX 7 1 6 2 5 3 4 4 2 5 1 6 3 7 8 8 9 9 10 10 11 11 12 12 13 13
REMARK H PARENT
REMARK Flexibility Score: inf
ROOT
ATOM      1  C   UNL     1      -5.756  -2.488   5.358  1.00  0.00     0.000 C 
ENDROOT
BRANCH   1   2
ATOM      2  C   UNL     1      -7.179  -2.131   5.812  1.00  0.00     0.000 C 
BRANCH   2   3
ATOM      3  C   UNL     1      -7.202  -1.379   7.152  1.00  0.00     0.006 C 
BRANCH   3   4
ATOM      4  C   UNL     1      -5.851  -0.733   7.490  1.00  0.00     0.053 C 
BRANCH   4   5
ATOM      5  C   UNL     1      -5.948   0.758   7.396  1.00  0.00     0.041 C 
ATOM      6  O   UNL     1      -7.068   1.326   7.476  1.00  0.00    -0.550 OA
ATOM      7  O   UNL     1      -4.805   1.514   7.170  1.00  0.00    -0.550 OA
ENDBRANCH   4   5
ENDBRANCH   3   4
ENDBRANCH   2   3
ENDBRANCH   1   2
BRANCH   1   8
ATOM      8  C   UNL     1      -5.616  -4.002   5.135  1.00  0.00     0.000 C 
BRANCH   8   9
ATOM      9  C   UNL     1      -5.040  -4.732   6.358  1.00  0.00     0.006 C 
BRANCH   9  10
ATOM     10  C   UNL     1      -3.788  -4.045   6.920  1.00  0.00     0.053 C 
BRANCH  10  11
ATOM     11  C   UNL     1      -2.622  -4.263   6.009  1.00  0.00     0.041 C 
ATOM     12  O   UNL     1      -1.873  -3.300   5.696  1.00  0.00    -0.550 OA
ATOM     13  O   UNL     1      -2.332  -5.539   5.542  1.00  0.00    -0.550 OA
ENDBRANCH  10  11
ENDBRANCH   9  10
ENDBRANCH   8   9
ENDBRANCH   1   8
TORSDOF 8
ENDMDL
MODEL 5
REMARK VINA RESULT:    -4.303      1.304      1.662
REMARK INTER + INTRA:          -6.757
REMARK INTER:                  -6.077
REMARK INTRA:                  -0.680
REMARK UNBOUND:                -0.442
REMARK SMILES O=C([O-])CCCCCCCC(=O)[O-]
REMARK SMILES IDX 7 1 6 2 5 3 4 4 2 5 1 6 3 7 8 8 9 9 10 10 11 11 12 12 13 13
REMARK H PARENT
REMARK Flexibility Score: inf
ROOT
ATOM      1  C   UNL     1      -6.632  -3.200   6.505  1.00  0.00     0.000 C 
ENDROOT
BRANCH   1   2
ATOM      2  C   UNL     1      -6.511  -2.048   5.495  1.00  0.00     0.000 C 
BRANCH   2   3
ATOM      3  C   UNL     1      -5.311  -1.131   5.783  1.00  0.00     0.006 C 
BRANCH   3   4
ATOM      4  C   UNL     1      -5.265  -0.661   7.243  1.00  0.00     0.053 C 
BRANCH   4   5
ATOM      5  C   UNL     1      -5.599   0.795   7.332  1.00  0.00     0.041 C 
ATOM      6  O   UNL     1      -4.687   1.660   7.278  1.00  0.00    -0.550 OA
ATOM      7  O   UNL     1      -6.916   1.194   7.525  1.00  0.00    -0.550 OA
ENDBRANCH   4   5
ENDBRANCH   3   4
ENDBRANCH   2   3
ENDBRANCH   1   2
BRANCH   1   8
ATOM      8  C   UNL     1      -5.996  -4.484   5.950  1.00  0.00     0.000 C 
BRANCH   8   9
ATOM      9  C   UNL     1      -5.017  -5.136   6.938  1.00  0.00     0.006 C 
BRANCH   9  10
ATOM     10  C   UNL     1      -3.788  -4.259   7.217  1.00  0.00     0.053 C 
BRANCH  10  11
ATOM     11  C   UNL     1      -2.807  -4.366   6.093  1.00  0.00     0.041 C 
ATOM     12  O   UNL     1      -2.541  -5.490   5.589  1.00  0.00    -0.550 OA
ATOM     13  O   UNL     1      -2.221  -3.221   5.568  1.00  0.00    -0.550 OA
ENDBRANCH  10  11
ENDBRANCH   9  10
ENDBRANCH   8   9
ENDBRANCH   1   8
TORSDOF 8
ENDMDL
MODEL 6
REMARK VINA RESULT:    -4.284      1.302      5.373
REMARK INTER + INTRA:          -6.729
REMARK INTER:                  -6.012
REMARK INTRA:                  -0.717
REMARK UNBOUND:                -0.442
REMARK SMILES O=C([O-])CCCCCCCC(=O)[O-]
REMARK SMILES IDX 7 1 6 2 5 3 4 4 2 5 1 6 3 7 8 8 9 9 10 10 11 11 12 12 13 13
REMARK H PARENT
REMARK Flexibility Score: inf
ROOT
ATOM      1  C   UNL     1      -6.747  -3.045   6.529  1.00  0.00     0.000 C 
ENDROOT
BRANCH   1   2
ATOM      2  C   UNL     1      -6.235  -4.395   6.005  1.00  0.00     0.000 C 
BRANCH   2   3
ATOM      3  C   UNL     1      -5.239  -5.064   6.966  1.00  0.00     0.006 C 
BRANCH   3   4
ATOM      4  C   UNL     1      -3.940  -4.261   7.123  1.00  0.00     0.053 C 
BRANCH   4   5
ATOM      5  C   UNL     1      -3.105  -4.372   5.887  1.00  0.00     0.041 C 
ATOM      6  O   UNL     1      -2.911  -3.362   5.161  1.00  0.00    -0.550 OA
ATOM      7  O   UNL     1      -2.582  -5.602   5.510  1.00  0.00    -0.550 OA
ENDBRANCH   4   5
ENDBRANCH   3   4
ENDBRANCH   2   3
ENDBRANCH   1   2
BRANCH   1   8
ATOM      8  C   UNL     1      -6.549  -1.939   5.481  1.00  0.00     0.000 C 
BRANCH   8   9
ATOM      9  C   UNL     1      -5.350  -1.030   5.796  1.00  0.00     0.006 C 
BRANCH   9  10
ATOM     10  C   UNL     1      -5.304  -0.607   7.271  1.00  0.00     0.053 C 
BRANCH  10  11
ATOM     11  C   UNL     1      -5.564   0.861   7.399  1.00  0.00     0.041 C 
ATOM     12  O   UNL     1      -4.615   1.683   7.301  1.00  0.00    -0.550 OA
ATOM     13  O   UNL     1      -6.861   1.325   7.580  1.00  0.00    -0.550 OA
ENDBRANCH  10  11
ENDBRANCH   9  10
ENDBRANCH   8   9
ENDBRANCH   1   8
TORSDOF 8
ENDMDL
MODEL 7
REMARK VINA RESULT:    -4.044      3.150      4.782
REMARK INTER + INTRA:          -6.377
REMARK INTER:                  -5.720
REMARK INTRA:                  -0.657
REMARK UNBOUND:                -0.442
REMARK SMILES O=C([O-])CCCCCCCC(=O)[O-]
REMARK SMILES IDX 7 1 6 2 5 3 4 4 2 5 1 6 3 7 8 8 9 9 10 10 11 11 12 12 13 13
REMARK H PARENT
REMARK Flexibility Score: inf
ROOT
ATOM      1  C   UNL     1      -4.974  -3.317   5.052  1.00  0.00     0.000 C 
ENDROOT
BRANCH   1   2
ATOM      2  C   UNL     1      -5.588  -4.425   5.920  1.00  0.00     0.000 C 
BRANCH   2   3
ATOM      3  C   UNL     1      -7.124  -4.442   5.860  1.00  0.00     0.006 C 
BRANCH   3   4
ATOM      4  C   UNL     1      -7.770  -3.719   7.050  1.00  0.00     0.053 C 
BRANCH   4   5
ATOM      5  C   UNL     1      -8.888  -2.841   6.582  1.00  0.00     0.041 C 
ATOM      6  O   UNL     1      -8.886  -1.613   6.855  1.00  0.00    -0.550 OA
ATOM      7  O   UNL     1      -9.957  -3.391   5.886  1.00  0.00    -0.550 OA
ENDBRANCH   4   5
ENDBRANCH   3   4
ENDBRANCH   2   3
ENDBRANCH   1   2
BRANCH   1   8
ATOM      8  C   UNL     1      -4.005  -2.451   5.872  1.00  0.00     0.000 C 
BRANCH   8   9
ATOM      9  C   UNL     1      -4.728  -1.536   6.872  1.00  0.00     0.006 C 
BRANCH   9  10
ATOM     10  C   UNL     1      -5.596  -0.475   6.180  1.00  0.00     0.053 C 
BRANCH  10  11
ATOM     11  C   UNL     1      -5.718   0.741   7.043  1.00  0.00     0.041 C 
ATOM     12  O   UNL     1      -4.694   1.409   7.344  1.00  0.00    -0.550 OA
ATOM     13  O   UNL     1      -6.968   1.165   7.475  1.00  0.00    -0.550 OA
ENDBRANCH  10  11
ENDBRANCH   9  10
ENDBRANCH   8   9
ENDBRANCH   1   8
TORSDOF 8
ENDMDL
MODEL 8
REMARK VINA RESULT:    -3.863      3.050      3.944
REMARK INTER + INTRA:          -6.111
REMARK INTER:                  -5.523
REMARK INTRA:                  -0.588
REMARK UNBOUND:                -0.442
REMARK SMILES O=C([O-])CCCCCCCC(=O)[O-]
REMARK SMILES IDX 7 1 6 2 5 3 4 4 2 5 1 6 3 7 8 8 9 9 10 10 11 11 12 12 13 13
REMARK H PARENT
REMARK Flexibility Score: inf
ROOT
ATOM      1  C   UNL     1      -5.253  -3.231   5.116  1.00  0.00     0.000 C 
ENDROOT
BRANCH   1   2
ATOM      2  C   UNL     1      -4.124  -2.497   5.856  1.00  0.00     0.000 C 
BRANCH   2   3
ATOM      3  C   UNL     1      -4.651  -1.465   6.866  1.00  0.00     0.006 C 
BRANCH   3   4
ATOM      4  C   UNL     1      -5.614  -0.454   6.229  1.00  0.00     0.053 C 
BRANCH   4   5
ATOM      5  C   UNL     1      -5.721   0.772   7.080  1.00  0.00     0.041 C 
ATOM      6  O   UNL     1      -4.682   1.369   7.465  1.00  0.00    -0.550 OA
ATOM      7  O   UNL     1      -6.968   1.227   7.488  1.00  0.00    -0.550 OA
ENDBRANCH   4   5
ENDBRANCH   3   4
ENDBRANCH   2   3
ENDBRANCH   1   2
BRANCH   1   8
ATOM      8  C   UNL     1      -5.425  -4.659   5.656  1.00  0.00     0.000 C 
BRANCH   8   9
ATOM      9  C   UNL     1      -6.883  -4.986   6.016  1.00  0.00     0.006 C 
BRANCH   9  10
ATOM     10  C   UNL     1      -7.496  -3.962   6.980  1.00  0.00     0.053 C 
BRANCH  10  11
ATOM     11  C   UNL     1      -8.695  -3.316   6.361  1.00  0.00     0.041 C 
ATOM     12  O   UNL     1      -9.644  -4.024   5.931  1.00  0.00    -0.550 OA
ATOM     13  O   UNL     1      -8.788  -1.931   6.302  1.00  0.00    -0.550 OA
ENDBRANCH  10  11
ENDBRANCH   9  10
ENDBRANCH   8   9
ENDBRANCH   1   8
TORSDOF 8
ENDMDL
