MODEL 1
REMARK VINA RESULT:    -2.565      0.000      0.000
REMARK INTER + INTRA:          -3.099
REMARK INTER:                  -3.015
REMARK INTRA:                  -0.084
REMARK UNBOUND:                -0.084
REMARK SMILES O=C([O-])CCC(=O)[O-]
REMARK SMILES IDX 4 1 2 2 1 3 3 4 5 5 6 6 7 7 8 8
REMARK H PARENT
REMARK Flexibility Score: inf
ROOT
ATOM      1  C   UNL     1      -2.322   8.024  40.547  1.00  0.00     0.059 C 
ENDROOT
BRANCH   1   2
ATOM      2  C   UNL     1      -3.598   7.466  41.098  1.00  0.00     0.042 C 
ATOM      3  O   UNL     1      -4.309   6.699  40.396  1.00  0.00    -0.550 OA
ATOM      4  O   UNL     1      -4.023   7.826  42.370  1.00  0.00    -0.550 OA
ENDBRANCH   1   2
BRANCH   1   5
ATOM      5  C   UNL     1      -2.549   8.749  39.216  1.00  0.00     0.059 C 
BRANCH   5   6
ATOM      6  C   UNL     1      -1.760   8.125  38.106  1.00  0.00     0.042 C 
ATOM      7  O   UNL     1      -0.837   7.308  38.366  1.00  0.00    -0.550 OA
ATOM      8  O   UNL     1      -2.017   8.474  36.786  1.00  0.00    -0.550 OA
ENDBRANCH   5   6
ENDBRANCH   1   5
TORSDOF 3
ENDMDL
MODEL 2
REMARK VINA RESULT:    -2.557      1.262      1.509
REMARK INTER + INTRA:          -3.089
REMARK INTER:                  -2.966
REMARK INTRA:                  -0.123
REMARK UNBOUND:                -0.084
REMARK SMILES O=C([O-])CCC(=O)[O-]
REMARK SMILES IDX 4 1 2 2 1 3 3 4 5 5 6 6 7 7 8 8
REMARK H PARENT
REMARK Flexibility Score: inf
ROOT
ATOM      1  C   UNL     1      -3.694   7.545  40.520  1.00  0.00     0.059 C 
ENDROOT
BRANCH   1   2
ATOM      2  C   UNL     1      -3.448   7.743  41.984  1.00  0.00     0.042 C 
ATOM      3  O   UNL     1      -4.410   7.723  42.797  1.00  0.00    -0.550 OA
ATOM      4  O   UNL     1      -2.162   7.992  42.446  1.00  0.00    -0.550 OA
ENDBRANCH   1   2
BRANCH   1   5
ATOM      5  C   UNL     1      -2.704   8.344  39.666  1.00  0.00     0.059 C 
BRANCH   5   6
ATOM      6  C   UNL     1      -1.794   7.444  38.889  1.00  0.00     0.042 C 
ATOM      7  O   UNL     1      -1.221   6.477  39.458  1.00  0.00    -0.550 OA
ATOM      8  O   UNL     1      -1.546   7.695  37.546  1.00  0.00    -0.550 OA
ENDBRANCH   5   6
ENDBRANCH   1   5
TORSDOF 3
ENDMDL
MODEL 3
REMARK VINA RESULT:    -2.534      1.299      4.026
REMARK INTER + INTRA:          -3.062
REMARK INTER:                  -2.943
REMARK INTRA:                  -0.120
REMARK UNBOUND:                -0.084
REMARK SMILES O=C([O-])CCC(=O)[O-]
REMARK SMILES IDX 4 1 2 2 1 3 3 4 5 5 6 6 7 7 8 8
REMARK H PARENT
REMARK Flexibility Score: inf
ROOT
ATOM      1  C   UNL     1      -2.778   8.323  39.676  1.00  0.00     0.059 C 
ENDROOT
BRANCH   1   2
ATOM      2  C   UNL     1      -1.976   7.342  38.878  1.00  0.00     0.042 C 
ATOM      3  O   UNL     1      -1.609   7.627  37.707  1.00  0.00    -0.550 OA
ATOM      4  O   UNL     1      -1.670   6.096  39.411  1.00  0.00    -0.550 OA
ENDBRANCH   1   2
BRANCH   1   5
ATOM      5  C   UNL     1      -3.834   7.624  40.538  1.00  0.00     0.059 C 
BRANCH   5   6
ATOM      6  C   UNL     1      -3.519   7.739  41.998  1.00  0.00     0.042 C 
ATOM      7  O   UNL     1      -4.446   7.705  42.850  1.00  0.00    -0.550 OA
ATOM      8  O   UNL     1      -2.207   7.923  42.415  1.00  0.00    -0.550 OA
ENDBRANCH   5   6
ENDBRANCH   1   5
TORSDOF 3
ENDMDL
MODEL 4
REMARK VINA RESULT:    -2.520      0.272      4.064
REMARK INTER + INTRA:          -3.046
REMARK INTER:                  -2.939
REMARK INTRA:                  -0.106
REMARK UNBOUND:                -0.084
REMARK SMILES O=C([O-])CCC(=O)[O-]
REMARK SMILES IDX 4 1 2 2 1 3 3 4 5 5 6 6 7 7 8 8
REMARK H PARENT
REMARK Flexibility Score: inf
ROOT
ATOM      1  C   UNL     1      -2.276   8.747  39.358  1.00  0.00     0.059 C 
ENDROOT
BRANCH   1   2
ATOM      2  C   UNL     1      -1.640   7.988  38.234  1.00  0.00     0.042 C 
ATOM      3  O   UNL     1      -1.025   6.913  38.463  1.00  0.00    -0.550 OA
ATOM      4  O   UNL     1      -1.690   8.489  36.940  1.00  0.00    -0.550 OA
ENDBRANCH   1   2
BRANCH   1   5
ATOM      5  C   UNL     1      -2.161   7.993  40.687  1.00  0.00     0.059 C 
BRANCH   5   6
ATOM      6  C   UNL     1      -3.499   7.530  41.176  1.00  0.00     0.042 C 
ATOM      7  O   UNL     1      -4.258   6.873  40.415  1.00  0.00    -0.550 OA
ATOM      8  O   UNL     1      -3.923   7.857  42.457  1.00  0.00    -0.550 OA
ENDBRANCH   5   6
ENDBRANCH   1   5
TORSDOF 3
ENDMDL
MODEL 5
REMARK VINA RESULT:    -2.463      1.320      1.898
REMARK INTER + INTRA:          -2.979
REMARK INTER:                  -2.862
REMARK INTRA:                  -0.117
REMARK UNBOUND:                -0.084
REMARK SMILES O=C([O-])CCC(=O)[O-]
REMARK SMILES IDX 4 1 2 2 1 3 3 4 5 5 6 6 7 7 8 8
REMARK H PARENT
REMARK Flexibility Score: inf
ROOT
ATOM      1  C   UNL     1      -2.923   7.995  39.839  1.00  0.00     0.059 C 
ENDROOT
BRANCH   1   2
ATOM      2  C   UNL     1      -2.286   8.032  41.194  1.00  0.00     0.042 C 
ATOM      3  O   UNL     1      -1.067   8.327  41.312  1.00  0.00    -0.550 OA
ATOM      4  O   UNL     1      -3.026   7.701  42.321  1.00  0.00    -0.550 OA
ENDBRANCH   1   2
BRANCH   1   5
ATOM      5  C   UNL     1      -2.393   9.111  38.932  1.00  0.00     0.059 C 
BRANCH   5   6
ATOM      6  C   UNL     1      -1.561   8.564  37.814  1.00  0.00     0.042 C 
ATOM      7  O   UNL     1      -2.070   8.380  36.676  1.00  0.00    -0.550 OA
ATOM      8  O   UNL     1      -0.233   8.220  38.037  1.00  0.00    -0.550 OA
ENDBRANCH   5   6
ENDBRANCH   1   5
TORSDOF 3
ENDMDL
MODEL 6
REMARK VINA RESULT:    -2.438      2.355      4.016
REMARK INTER + INTRA:          -2.949
REMARK INTER:                  -2.828
REMARK INTRA:                  -0.121
REMARK UNBOUND:                -0.084
REMARK SMILES O=C([O-])CCC(=O)[O-]
REMARK SMILES IDX 4 1 2 2 1 3 3 4 5 5 6 6 7 7 8 8
REMARK H PARENT
REMARK Flexibility Score: inf
ROOT
ATOM      1  C   UNL     1      -3.691   5.823  40.308  1.00  0.00     0.059 C 
ENDROOT
BRANCH   1   2
ATOM      2  C   UNL     1      -2.574   5.586  39.338  1.00  0.00     0.042 C 
ATOM      3  O   UNL     1      -2.804   5.034  38.229  1.00  0.00    -0.550 OA
ATOM      4  O   UNL     1      -1.273   5.936  39.675  1.00  0.00    -0.550 OA
ENDBRANCH   1   2
BRANCH   1   5
ATOM      5  C   UNL     1      -3.890   7.316  40.589  1.00  0.00     0.059 C 
BRANCH   5   6
ATOM      6  C   UNL     1      -3.477   7.675  41.983  1.00  0.00     0.042 C 
ATOM      7  O   UNL     1      -2.273   7.945  42.237  1.00  0.00    -0.550 OA
ATOM      8  O   UNL     1      -4.413   7.673  43.009  1.00  0.00    -0.550 OA
ENDBRANCH   5   6
ENDBRANCH   1   5
TORSDOF 3
ENDMDL
MODEL 7
REMARK VINA RESULT:    -2.431      1.705      4.440
REMARK INTER + INTRA:          -2.941
REMARK INTER:                  -2.821
REMARK INTRA:                  -0.120
REMARK UNBOUND:                -0.084
REMARK SMILES O=C([O-])CCC(=O)[O-]
REMARK SMILES IDX 4 1 2 2 1 3 3 4 5 5 6 6 7 7 8 8
REMARK H PARENT
REMARK Flexibility Score: inf
ROOT
ATOM      1  C   UNL     1      -1.711   8.269  37.535  1.00  0.00     0.059 C 
ENDROOT
BRANCH   1   2
ATOM      2  C   UNL     1      -0.355   8.790  37.172  1.00  0.00     0.042 C 
ATOM      3  O   UNL     1       0.467   9.101  38.075  1.00  0.00    -0.550 OA
ATOM      4  O   UNL     1      -0.012   8.973  35.839  1.00  0.00    -0.550 OA
ENDBRANCH   1   2
BRANCH   1   5
ATOM      5  C   UNL     1      -2.375   9.125  38.619  1.00  0.00     0.059 C 
BRANCH   5   6
ATOM      6  C   UNL     1      -2.496   8.380  39.912  1.00  0.00     0.042 C 
ATOM      7  O   UNL     1      -1.513   8.306  40.696  1.00  0.00    -0.550 OA
ATOM      8  O   UNL     1      -3.683   7.733  40.235  1.00  0.00    -0.550 OA
ENDBRANCH   5   6
ENDBRANCH   1   5
TORSDOF 3
ENDMDL
MODEL 8
REMARK VINA RESULT:    -2.295      9.948     11.970
REMARK INTER + INTRA:          -2.782
REMARK INTER:                  -2.663
REMARK INTRA:                  -0.118
REMARK UNBOUND:                -0.084
REMARK SMILES O=C([O-])CCC(=O)[O-]
REMARK SMILES IDX 4 1 2 2 1 3 3 4 5 5 6 6 7 7 8 8
REMARK H PARENT
REMARK Flexibility Score: inf
ROOT
ATOM      1  C   UNL     1       1.377   7.088  28.883  1.00  0.00     0.059 C 
ENDROOT
BRANCH   1   2
ATOM      2  C   UNL     1       1.173   7.825  30.170  1.00  0.00     0.042 C 
ATOM      3  O   UNL     1       0.824   9.036  30.159  1.00  0.00    -0.550 OA
ATOM      4  O   UNL     1       1.408   7.188  31.382  1.00  0.00    -0.550 OA
ENDBRANCH   1   2
BRANCH   1   5
ATOM      5  C   UNL     1       1.385   8.039  27.681  1.00  0.00     0.059 C 
BRANCH   5   6
ATOM      6  C   UNL     1       2.776   8.289  27.184  1.00  0.00     0.042 C 
ATOM      7  O   UNL     1       3.189   7.715  26.142  1.00  0.00    -0.550 OA
ATOM      8  O   UNL     1       3.629   9.125  27.894  1.00  0.00    -0.550 OA
ENDBRANCH   5   6
ENDBRANCH   1   5
TORSDOF 3
ENDMDL
MODEL 9
REMARK VINA RESULT:    -2.246     10.930     13.394
REMARK INTER + INTRA:          -2.723
REMARK INTER:                  -2.596
REMARK INTRA:                  -0.127
REMARK UNBOUND:                -0.084
REMARK SMILES O=C([O-])CCC(=O)[O-]
REMARK SMILES IDX 4 1 2 2 1 3 3 4 5 5 6 6 7 7 8 8
REMARK H PARENT
REMARK Flexibility Score: inf
ROOT
ATOM      1  C   UNL     1       2.507   6.656  27.307  1.00  0.00     0.059 C 
ENDROOT
BRANCH   1   2
ATOM      2  C   UNL     1       3.647   7.407  26.691  1.00  0.00     0.042 C 
ATOM      3  O   UNL     1       4.785   6.874  26.607  1.00  0.00    -0.550 OA
ATOM      4  O   UNL     1       3.463   8.711  26.247  1.00  0.00    -0.550 OA
ENDBRANCH   1   2
BRANCH   1   5
ATOM      5  C   UNL     1       1.390   7.599  27.766  1.00  0.00     0.059 C 
BRANCH   5   6
ATOM      6  C   UNL     1       1.578   8.025  29.190  1.00  0.00     0.042 C 
ATOM      7  O   UNL     1       2.132   9.125  29.455  1.00  0.00    -0.550 OA
ATOM      8  O   UNL     1       1.177   7.190  30.225  1.00  0.00    -0.550 OA
ENDBRANCH   5   6
ENDBRANCH   1   5
TORSDOF 3
ENDMDL
