MODEL 1
REMARK VINA RESULT:    -3.322      0.000      0.000
REMARK INTER + INTRA:          -4.067
REMARK INTER:                  -3.808
REMARK INTRA:                  -0.259
REMARK UNBOUND:                -0.259
REMARK SMILES CC=Cc1ccc(O)c(OC)c1
REMARK SMILES IDX 4 1 12 2 9 3 7 4 6 5 5 6 3 7 1 8 2 9 10 10 11 11 8 12
REMARK H PARENT 8 13
REMARK Flexibility Score: inf
ROOT
ATOM      1  C   UNL     1     141.021 144.024 143.116  1.00  0.00    -0.022 A 
ATOM      2  C   UNL     1     141.544 143.072 142.229  1.00  0.00     0.058 A 
ATOM      3  C   UNL     1     142.917 142.756 142.244  1.00  0.00     0.161 A 
ATOM      4  C   UNL     1     143.757 143.388 143.172  1.00  0.00     0.157 A 
ATOM      5  C   UNL     1     143.230 144.317 144.079  1.00  0.00     0.051 A 
ATOM      6  C   UNL     1     141.869 144.626 144.058  1.00  0.00     0.012 A 
ENDROOT
BRANCH   1   7
ATOM      7  C   UNL     1     139.572 144.312 143.093  1.00  0.00     0.003 C 
ATOM      8  C   UNL     1     139.759 146.208 141.459  1.00  0.00     0.035 C 
ATOM      9  C   UNL     1     139.004 145.293 142.377  1.00  0.00    -0.030 C 
ENDBRANCH   1   7
BRANCH   3  10
ATOM     10  O   UNL     1     143.480 141.823 141.359  1.00  0.00    -0.493 OA
ATOM     11  C   UNL     1     143.426 140.411 141.535  1.00  0.00     0.278 C 
ENDBRANCH   3  10
BRANCH   4  12
ATOM     12  O   UNL     1     145.117 143.081 143.191  1.00  0.00    -0.504 OA
ATOM     13  H   UNL     1     145.451 142.168 143.480  1.00  0.00     0.293 HD
ENDBRANCH   4  12
TORSDOF 3
ENDMDL
MODEL 2
REMARK VINA RESULT:    -3.316      5.260      7.693
REMARK INTER + INTRA:          -4.060
REMARK INTER:                  -3.802
REMARK INTRA:                  -0.258
REMARK UNBOUND:                -0.259
REMARK SMILES CC=Cc1ccc(O)c(OC)c1
REMARK SMILES IDX 4 1 12 2 9 3 7 4 6 5 5 6 3 7 1 8 2 9 10 10 11 11 8 12
REMARK H PARENT 8 13
REMARK Flexibility Score: inf
ROOT
ATOM      1  C   UNL     1     140.593 137.588 143.190  1.00  0.00    -0.022 A 
ATOM      2  C   UNL     1     140.106 138.692 142.475  1.00  0.00     0.058 A 
ATOM      3  C   UNL     1     138.749 139.060 142.562  1.00  0.00     0.161 A 
ATOM      4  C   UNL     1     137.889 138.324 143.388  1.00  0.00     0.157 A 
ATOM      5  C   UNL     1     138.381 137.238 144.125  1.00  0.00     0.051 A 
ATOM      6  C   UNL     1     139.726 136.878 144.035  1.00  0.00     0.012 A 
ENDROOT
BRANCH   1   7
ATOM      7  C   UNL     1     142.028 137.246 143.099  1.00  0.00     0.003 C 
ATOM      8  C   UNL     1     141.721 135.526 141.298  1.00  0.00     0.035 C 
ATOM      9  C   UNL     1     142.536 136.316 142.278  1.00  0.00    -0.030 C 
ENDBRANCH   1   7
BRANCH   3  10
ATOM     10  O   UNL     1     138.221 140.148 141.847  1.00  0.00    -0.493 OA
ATOM     11  C   UNL     1     138.387 141.513 142.218  1.00  0.00     0.278 C 
ENDBRANCH   3  10
BRANCH   4  12
ATOM     12  O   UNL     1     136.545 138.681 143.476  1.00  0.00    -0.504 OA
ATOM     13  H   UNL     1     135.912 138.213 144.115  1.00  0.00     0.293 HD
ENDBRANCH   4  12
TORSDOF 3
ENDMDL
MODEL 3
REMARK VINA RESULT:    -3.298      4.132      5.363
REMARK INTER + INTRA:          -4.039
REMARK INTER:                  -3.783
REMARK INTRA:                  -0.256
REMARK UNBOUND:                -0.259
REMARK SMILES CC=Cc1ccc(O)c(OC)c1
REMARK SMILES IDX 4 1 12 2 9 3 7 4 6 5 5 6 3 7 1 8 2 9 10 10 11 11 8 12
REMARK H PARENT 8 13
REMARK Flexibility Score: inf
ROOT
ATOM      1  C   UNL     1     137.675 141.036 143.175  1.00  0.00    -0.022 A 
ATOM      2  C   UNL     1     138.712 141.542 142.378  1.00  0.00     0.058 A 
ATOM      3  C   UNL     1     139.058 142.906 142.432  1.00  0.00     0.161 A 
ATOM      4  C   UNL     1     138.368 143.756 143.307  1.00  0.00     0.157 A 
ATOM      5  C   UNL     1     137.350 143.246 144.125  1.00  0.00     0.051 A 
ATOM      6  C   UNL     1     137.012 141.893 144.067  1.00  0.00     0.012 A 
ENDROOT
BRANCH   1   7
ATOM      7  C   UNL     1     137.356 139.594 143.115  1.00  0.00     0.003 C 
ATOM      8  C   UNL     1     135.522 139.854 141.422  1.00  0.00     0.035 C 
ATOM      9  C   UNL     1     136.387 139.062 142.356  1.00  0.00    -0.030 C 
ENDBRANCH   1   7
BRANCH   3  10
ATOM     10  O   UNL     1     140.079 143.452 141.636  1.00  0.00    -0.493 OA
ATOM     11  C   UNL     1     141.466 143.397 141.955  1.00  0.00     0.278 C 
ENDBRANCH   3  10
BRANCH   4  12
ATOM     12  O   UNL     1     138.703 145.107 143.364  1.00  0.00    -0.504 OA
ATOM     13  H   UNL     1     139.651 145.426 143.198  1.00  0.00     0.293 HD
ENDBRANCH   4  12
TORSDOF 3
ENDMDL
MODEL 4
REMARK VINA RESULT:    -3.252      2.464      5.135
REMARK INTER + INTRA:          -3.986
REMARK INTER:                  -3.761
REMARK INTRA:                  -0.225
REMARK UNBOUND:                -0.259
REMARK SMILES CC=Cc1ccc(O)c(OC)c1
REMARK SMILES IDX 4 1 12 2 9 3 7 4 6 5 5 6 3 7 1 8 2 9 10 10 11 11 8 12
REMARK H PARENT 8 13
REMARK Flexibility Score: inf
ROOT
ATOM      1  C   UNL     1     143.581 139.790 143.952  1.00  0.00    -0.022 A 
ATOM      2  C   UNL     1     142.433 140.594 143.998  1.00  0.00     0.058 A 
ATOM      3  C   UNL     1     142.542 141.998 144.049  1.00  0.00     0.161 A 
ATOM      4  C   UNL     1     143.813 142.589 144.033  1.00  0.00     0.157 A 
ATOM      5  C   UNL     1     144.960 141.788 143.958  1.00  0.00     0.051 A 
ATOM      6  C   UNL     1     144.845 140.398 143.908  1.00  0.00     0.012 A 
ENDROOT
BRANCH   1   7
ATOM      7  C   UNL     1     143.431 138.322 143.871  1.00  0.00     0.003 C 
ATOM      8  C   UNL     1     143.403 138.251 141.363  1.00  0.00     0.035 C 
ATOM      9  C   UNL     1     143.330 137.632 142.726  1.00  0.00    -0.030 C 
ENDBRANCH   1   7
BRANCH   3  10
ATOM     10  O   UNL     1     141.416 142.835 144.114  1.00  0.00    -0.493 OA
ATOM     11  C   UNL     1     140.264 142.701 143.288  1.00  0.00     0.278 C 
ENDBRANCH   3  10
BRANCH   4  12
ATOM     12  O   UNL     1     143.928 143.977 144.086  1.00  0.00    -0.504 OA
ATOM     13  H   UNL     1     144.243 144.514 143.285  1.00  0.00     0.293 HD
ENDBRANCH   4  12
TORSDOF 3
ENDMDL
MODEL 5
REMARK VINA RESULT:    -3.247      4.323      5.096
REMARK INTER + INTRA:          -3.980
REMARK INTER:                  -3.721
REMARK INTRA:                  -0.259
REMARK UNBOUND:                -0.259
REMARK SMILES CC=Cc1ccc(O)c(OC)c1
REMARK SMILES IDX 4 1 12 2 9 3 7 4 6 5 5 6 3 7 1 8 2 9 10 10 11 11 8 12
REMARK H PARENT 8 13
REMARK Flexibility Score: inf
ROOT
ATOM      1  C   UNL     1     144.058 139.216 143.005  1.00  0.00    -0.022 A 
ATOM      2  C   UNL     1     144.073 139.758 141.711  1.00  0.00     0.058 A 
ATOM      3  C   UNL     1     144.641 141.024 141.472  1.00  0.00     0.161 A 
ATOM      4  C   UNL     1     145.212 141.734 142.537  1.00  0.00     0.157 A 
ATOM      5  C   UNL     1     145.223 141.181 143.824  1.00  0.00     0.051 A 
ATOM      6  C   UNL     1     144.659 139.926 144.056  1.00  0.00     0.012 A 
ENDROOT
BRANCH   1   7
ATOM      7  C   UNL     1     143.479 137.872 143.218  1.00  0.00     0.003 C 
ATOM      8  C   UNL     1     141.200 138.719 143.837  1.00  0.00     0.035 C 
ATOM      9  C   UNL     1     142.218 137.642 143.608  1.00  0.00    -0.030 C 
ENDBRANCH   1   7
BRANCH   3  10
ATOM     10  O   UNL     1     144.658 141.607 140.194  1.00  0.00    -0.493 OA
ATOM     11  C   UNL     1     145.605 141.293 139.178  1.00  0.00     0.278 C 
ENDBRANCH   3  10
BRANCH   4  12
ATOM     12  O   UNL     1     145.773 142.989 142.307  1.00  0.00    -0.504 OA
ATOM     13  H   UNL     1     146.651 143.095 141.810  1.00  0.00     0.293 HD
ENDBRANCH   4  12
TORSDOF 3
ENDMDL
MODEL 6
REMARK VINA RESULT:    -3.244      5.331      6.646
REMARK INTER + INTRA:          -3.977
REMARK INTER:                  -3.719
REMARK INTRA:                  -0.259
REMARK UNBOUND:                -0.259
REMARK SMILES CC=Cc1ccc(O)c(OC)c1
REMARK SMILES IDX 4 1 12 2 9 3 7 4 6 5 5 6 3 7 1 8 2 9 10 10 11 11 8 12
REMARK H PARENT 8 13
REMARK Flexibility Score: inf
ROOT
ATOM      1  C   UNL     1     139.230 137.580 143.048  1.00  0.00    -0.022 A 
ATOM      2  C   UNL     1     139.791 137.627 141.763  1.00  0.00     0.058 A 
ATOM      3  C   UNL     1     141.051 137.050 141.509  1.00  0.00     0.161 A 
ATOM      4  C   UNL     1     141.734 136.407 142.550  1.00  0.00     0.157 A 
ATOM      5  C   UNL     1     141.162 136.334 143.827  1.00  0.00     0.051 A 
ATOM      6  C   UNL     1     139.914 136.908 144.073  1.00  0.00     0.012 A 
ENDROOT
BRANCH   1   7
ATOM      7  C   UNL     1     137.894 138.170 143.275  1.00  0.00     0.003 C 
ATOM      8  C   UNL     1     138.769 140.434 143.912  1.00  0.00     0.035 C 
ATOM      9  C   UNL     1     137.680 139.430 143.679  1.00  0.00    -0.030 C 
ENDBRANCH   1   7
BRANCH   3  10
ATOM     10  O   UNL     1     141.652 137.094 140.241  1.00  0.00    -0.493 OA
ATOM     11  C   UNL     1     141.316 136.230 139.160  1.00  0.00     0.278 C 
ENDBRANCH   3  10
BRANCH   4  12
ATOM     12  O   UNL     1     142.982 135.836 142.306  1.00  0.00    -0.504 OA
ATOM     13  H   UNL     1     143.223 134.916 142.657  1.00  0.00     0.293 HD
ENDBRANCH   4  12
TORSDOF 3
ENDMDL
MODEL 7
REMARK VINA RESULT:    -3.243      4.845      6.289
REMARK INTER + INTRA:          -3.976
REMARK INTER:                  -3.715
REMARK INTRA:                  -0.261
REMARK UNBOUND:                -0.259
REMARK SMILES CC=Cc1ccc(O)c(OC)c1
REMARK SMILES IDX 4 1 12 2 9 3 7 4 6 5 5 6 3 7 1 8 2 9 10 10 11 11 8 12
REMARK H PARENT 8 13
REMARK Flexibility Score: inf
ROOT
ATOM      1  C   UNL     1     137.544 142.335 143.083  1.00  0.00    -0.022 A 
ATOM      2  C   UNL     1     137.570 141.782 141.795  1.00  0.00     0.058 A 
ATOM      3  C   UNL     1     136.995 140.520 141.545  1.00  0.00     0.161 A 
ATOM      4  C   UNL     1     136.376 139.827 142.594  1.00  0.00     0.157 A 
ATOM      5  C   UNL     1     136.323 140.392 143.875  1.00  0.00     0.051 A 
ATOM      6  C   UNL     1     136.895 141.642 144.117  1.00  0.00     0.012 A 
ENDROOT
BRANCH   1   7
ATOM      7  C   UNL     1     138.130 143.673 143.306  1.00  0.00     0.003 C 
ATOM      8  C   UNL     1     140.383 142.805 143.992  1.00  0.00     0.035 C 
ATOM      9  C   UNL     1     139.383 143.892 143.731  1.00  0.00    -0.030 C 
ENDBRANCH   1   7
BRANCH   3  10
ATOM     10  O   UNL     1     137.019 139.926 140.272  1.00  0.00    -0.493 OA
ATOM     11  C   UNL     1     136.166 140.298 139.194  1.00  0.00     0.278 C 
ENDBRANCH   3  10
BRANCH   4  12
ATOM     12  O   UNL     1     135.808 138.577 142.353  1.00  0.00    -0.504 OA
ATOM     13  H   UNL     1     136.349 137.724 142.436  1.00  0.00     0.293 HD
ENDBRANCH   4  12
TORSDOF 3
ENDMDL
MODEL 8
REMARK VINA RESULT:    -3.241      2.639      4.522
REMARK INTER + INTRA:          -3.974
REMARK INTER:                  -3.713
REMARK INTRA:                  -0.260
REMARK UNBOUND:                -0.259
REMARK SMILES CC=Cc1ccc(O)c(OC)c1
REMARK SMILES IDX 4 1 12 2 9 3 7 4 6 5 5 6 3 7 1 8 2 9 10 10 11 11 8 12
REMARK H PARENT 8 13
REMARK Flexibility Score: inf
ROOT
ATOM      1  C   UNL     1     142.352 144.036 143.083  1.00  0.00    -0.022 A 
ATOM      2  C   UNL     1     141.811 143.997 141.789  1.00  0.00     0.058 A 
ATOM      3  C   UNL     1     140.553 144.569 141.521  1.00  0.00     0.161 A 
ATOM      4  C   UNL     1     139.849 145.199 142.557  1.00  0.00     0.157 A 
ATOM      5  C   UNL     1     140.401 145.265 143.843  1.00  0.00     0.051 A 
ATOM      6  C   UNL     1     141.649 144.696 144.103  1.00  0.00     0.012 A 
ENDROOT
BRANCH   1   7
ATOM      7  C   UNL     1     143.688 143.452 143.325  1.00  0.00     0.003 C 
ATOM      8  C   UNL     1     142.812 141.204 144.017  1.00  0.00     0.035 C 
ATOM      9  C   UNL     1     143.901 142.202 143.761  1.00  0.00    -0.030 C 
ENDBRANCH   1   7
BRANCH   3  10
ATOM     10  O   UNL     1     139.971 144.533 140.243  1.00  0.00    -0.493 OA
ATOM     11  C   UNL     1     140.358 145.370 139.157  1.00  0.00     0.278 C 
ENDBRANCH   3  10
BRANCH   4  12
ATOM     12  O   UNL     1     138.602 145.765 142.298  1.00  0.00    -0.504 OA
ATOM     13  H   UNL     1     137.781 145.191 142.140  1.00  0.00     0.293 HD
ENDBRANCH   4  12
TORSDOF 3
ENDMDL
