MODEL 1
REMARK VINA RESULT:   133.442      0.000      0.000
REMARK INTER + INTRA:         145.148
REMARK INTER:                 145.144
REMARK INTRA:                   0.005
REMARK UNBOUND:                 0.005
REMARK SMILES CC1(C)CC[C@]2(C(=O)[O-])CC[C@]3(C)C(=CC[C@@H]4[C@]5(C)CC[C@@H](O)C(C)(C)[C@@H]5CC[C@@]43C)[C@@H]2C1
REMARK SMILES IDX 6 1 5 2 10 3 32 4 4 5 11 6 14 7 33 8 2 9 12 10 15 11 1 12
REMARK SMILES IDX 3 13 13 14 30 15 16 16 17 17 29 18 31 19 18 20 28 21 27 22
REMARK SMILES IDX 20 23 19 24 24 25 21 26 22 27 25 28 26 29 7 30 8 31 9 32
REMARK SMILES IDX 23 33
REMARK H PARENT 23 34
REMARK Flexibility Score: inf
ROOT
ATOM      1  C   UNL     1      -4.689  -0.027   3.350  1.00  0.00     0.017 C 
ATOM      2  C   UNL     1      -5.603  -1.152   2.780  1.00  0.00     0.014 C 
ATOM      3  C   UNL     1      -5.470   0.700   4.498  1.00  0.00     0.014 C 
ATOM      4  C   UNL     1      -4.273   0.954   2.183  1.00  0.00     0.028 C 
ATOM      5  C   UNL     1      -4.958  -1.933   1.627  1.00  0.00     0.007 C 
ATOM      6  C   UNL     1      -5.439   2.227   4.381  1.00  0.00     0.013 C 
ATOM      7  C   UNL     1      -5.349   2.014   1.871  1.00  0.00    -0.064 C 
ATOM      8  C   UNL     1      -3.675   0.159   0.977  1.00  0.00     0.015 C 
ATOM      9  C   UNL     1      -4.538  -1.023   0.449  1.00  0.00    -0.035 C 
ATOM     10  C   UNL     1      -6.064   2.734   3.035  1.00  0.00    -0.006 C 
ATOM     11  C   UNL     1      -5.508   2.526   0.633  1.00  0.00    -0.027 C 
ATOM     12  C   UNL     1      -3.679  -1.855  -0.529  1.00  0.00     0.011 C 
ATOM     13  C   UNL     1      -5.782  -0.536  -0.329  1.00  0.00     0.011 C 
ATOM     14  C   UNL     1      -7.572   2.310   3.044  1.00  0.00     0.017 C 
ATOM     15  C   UNL     1      -5.917   4.335   2.848  1.00  0.00    -0.020 C 
ATOM     16  C   UNL     1      -6.503   3.607   0.378  1.00  0.00     0.032 C 
ATOM     17  C   UNL     1      -6.318   4.798   1.368  1.00  0.00     0.006 C 
ATOM     18  C   UNL     1      -4.459   4.770   3.119  1.00  0.00     0.008 C 
ATOM     19  C   UNL     1      -6.818   5.065   3.899  1.00  0.00     0.012 C 
ATOM     20  C   UNL     1      -5.497   6.008   0.693  1.00  0.00    -0.025 C 
ATOM     21  C   UNL     1      -4.179   6.262   2.923  1.00  0.00     0.005 C 
ATOM     22  C   UNL     1      -4.956   7.008   1.789  1.00  0.00     0.003 C 
ATOM     23  C   UNL     1      -4.269   5.530  -0.160  1.00  0.00     0.010 C 
ATOM     24  C   UNL     1      -6.530   6.715  -0.254  1.00  0.00     0.012 C 
ATOM     25  C   UNL     1      -4.084   8.224   1.232  1.00  0.00    -0.006 C 
ATOM     26  C   UNL     1      -3.412   6.675  -0.739  1.00  0.00     0.033 C 
ATOM     27  C   UNL     1      -2.930   7.675   0.330  1.00  0.00     0.120 C 
ATOM     28  C   UNL     1      -4.957   9.261   0.463  1.00  0.00     0.014 C 
ATOM     29  C   UNL     1      -3.456   9.029   2.411  1.00  0.00     0.014 C 
ENDROOT
BRANCH   1  30
ATOM     30  C   UNL     1      -3.443  -0.650   3.980  1.00  0.00     0.048 C 
ATOM     31  O   UNL     1      -3.433  -1.863   4.325  1.00  0.00    -0.550 OA
ATOM     32  O   UNL     1      -2.258   0.075   4.067  1.00  0.00    -0.550 OA
ENDBRANCH   1  30
BRANCH  27  33
ATOM     33  O   UNL     1      -2.187   8.719  -0.255  1.00  0.00    -0.393 OA
ATOM     34  H   UNL     1      -2.752   9.162  -0.940  1.00  0.00     0.210 HD
ENDBRANCH  27  33
TORSDOF 2
ENDMDL
MODEL 2
REMARK VINA RESULT:   133.486      2.542      4.625
REMARK INTER + INTRA:         145.196
REMARK INTER:                 144.632
REMARK INTRA:                   0.564
REMARK UNBOUND:                 0.005
REMARK SMILES CC1(C)CC[C@]2(C(=O)[O-])CC[C@]3(C)C(=CC[C@@H]4[C@]5(C)CC[C@@H](O)C(C)(C)[C@@H]5CC[C@@]43C)[C@@H]2C1
REMARK SMILES IDX 6 1 5 2 10 3 32 4 4 5 11 6 14 7 33 8 2 9 12 10 15 11 1 12
REMARK SMILES IDX 3 13 13 14 30 15 16 16 17 17 29 18 31 19 18 20 28 21 27 22
REMARK SMILES IDX 20 23 19 24 24 25 21 26 22 27 25 28 26 29 7 30 8 31 9 32
REMARK SMILES IDX 23 33
REMARK H PARENT 23 34
REMARK Flexibility Score: inf
ROOT
ATOM      1  C   UNL     1      -2.006  -1.622   3.808  1.00  0.00     0.017 C 
ATOM      2  C   UNL     1      -0.890  -2.060   2.813  1.00  0.00     0.014 C 
ATOM      3  C   UNL     1      -3.309  -2.421   3.461  1.00  0.00     0.014 C 
ATOM      4  C   UNL     1      -2.209  -0.057   3.713  1.00  0.00     0.028 C 
ATOM      5  C   UNL     1       0.443  -1.332   3.035  1.00  0.00     0.007 C 
ATOM      6  C   UNL     1      -4.555  -1.536   3.361  1.00  0.00     0.013 C 
ATOM      7  C   UNL     1      -3.117   0.364   2.539  1.00  0.00    -0.064 C 
ATOM      8  C   UNL     1      -0.846   0.690   3.871  1.00  0.00     0.015 C 
ATOM      9  C   UNL     1       0.306   0.206   2.943  1.00  0.00    -0.035 C 
ATOM     10  C   UNL     1      -4.412  -0.428   2.259  1.00  0.00    -0.006 C 
ATOM     11  C   UNL     1      -2.965   1.549   1.911  1.00  0.00    -0.027 C 
ATOM     12  C   UNL     1       1.626   0.843   3.431  1.00  0.00     0.011 C 
ATOM     13  C   UNL     1       0.096   0.644   1.476  1.00  0.00     0.011 C 
ATOM     14  C   UNL     1      -4.270  -1.166   0.887  1.00  0.00     0.017 C 
ATOM     15  C   UNL     1      -5.671   0.591   2.238  1.00  0.00    -0.020 C 
ATOM     16  C   UNL     1      -3.908   1.964   0.832  1.00  0.00     0.032 C 
ATOM     17  C   UNL     1      -5.392   1.857   1.299  1.00  0.00     0.006 C 
ATOM     18  C   UNL     1      -5.969   1.096   3.667  1.00  0.00     0.008 C 
ATOM     19  C   UNL     1      -6.946  -0.171   1.745  1.00  0.00     0.012 C 
ATOM     20  C   UNL     1      -5.978   3.289   1.746  1.00  0.00    -0.025 C 
ATOM     21  C   UNL     1      -7.111   2.111   3.772  1.00  0.00     0.005 C 
ATOM     22  C   UNL     1      -7.300   3.122   2.594  1.00  0.00     0.003 C 
ATOM     23  C   UNL     1      -4.970   4.136   2.603  1.00  0.00     0.010 C 
ATOM     24  C   UNL     1      -6.262   4.044   0.401  1.00  0.00     0.012 C 
ATOM     25  C   UNL     1      -7.941   4.481   3.133  1.00  0.00    -0.006 C 
ATOM     26  C   UNL     1      -5.541   5.470   3.124  1.00  0.00     0.033 C 
ATOM     27  C   UNL     1      -6.859   5.305   3.906  1.00  0.00     0.120 C 
ATOM     28  C   UNL     1      -8.574   5.321   1.982  1.00  0.00     0.014 C 
ATOM     29  C   UNL     1      -9.125   4.178   4.102  1.00  0.00     0.014 C 
ENDROOT
BRANCH   1  30
ATOM     30  C   UNL     1      -1.605  -2.012   5.231  1.00  0.00     0.048 C 
ATOM     31  O   UNL     1      -2.356  -2.739   5.936  1.00  0.00    -0.550 OA
ATOM     32  O   UNL     1      -0.349  -1.677   5.727  1.00  0.00    -0.550 OA
ENDBRANCH   1  30
BRANCH  27  33
ATOM     33  O   UNL     1      -7.358   6.554   4.324  1.00  0.00    -0.393 OA
ATOM     34  H   UNL     1      -8.021   6.403   5.046  1.00  0.00     0.210 HD
ENDBRANCH  27  33
TORSDOF 2
ENDMDL
MODEL 3
REMARK VINA RESULT:   135.307      2.669      7.409
REMARK INTER + INTRA:         147.176
REMARK INTER:                 146.746
REMARK INTRA:                   0.431
REMARK UNBOUND:                 0.005
REMARK SMILES CC1(C)CC[C@]2(C(=O)[O-])CC[C@]3(C)C(=CC[C@@H]4[C@]5(C)CC[C@@H](O)C(C)(C)[C@@H]5CC[C@@]43C)[C@@H]2C1
REMARK SMILES IDX 6 1 5 2 10 3 32 4 4 5 11 6 14 7 33 8 2 9 12 10 15 11 1 12
REMARK SMILES IDX 3 13 13 14 30 15 16 16 17 17 29 18 31 19 18 20 28 21 27 22
REMARK SMILES IDX 20 23 19 24 24 25 21 26 22 27 25 28 26 29 7 30 8 31 9 32
REMARK SMILES IDX 23 33
REMARK H PARENT 23 34
REMARK Flexibility Score: inf
ROOT
ATOM      1  C   UNL     1      -6.350   3.517   0.740  1.00  0.00     0.017 C 
ATOM      2  C   UNL     1      -7.763   3.572   1.393  1.00  0.00     0.014 C 
ATOM      3  C   UNL     1      -6.334   2.329  -0.283  1.00  0.00     0.014 C 
ATOM      4  C   UNL     1      -5.256   3.362   1.869  1.00  0.00     0.028 C 
ATOM      5  C   UNL     1      -7.907   4.689   2.437  1.00  0.00     0.007 C 
ATOM      6  C   UNL     1      -5.112   1.417  -0.134  1.00  0.00     0.013 C 
ATOM      7  C   UNL     1      -5.074   1.903   2.339  1.00  0.00    -0.064 C 
ATOM      8  C   UNL     1      -5.436   4.455   2.971  1.00  0.00     0.015 C 
ATOM      9  C   UNL     1      -6.865   4.582   3.575  1.00  0.00    -0.035 C 
ATOM     10  C   UNL     1      -5.023   0.770   1.292  1.00  0.00    -0.006 C 
ATOM     11  C   UNL     1      -4.698   1.602   3.600  1.00  0.00    -0.027 C 
ATOM     12  C   UNL     1      -6.926   5.876   4.416  1.00  0.00     0.011 C 
ATOM     13  C   UNL     1      -7.208   3.402   4.514  1.00  0.00     0.011 C 
ATOM     14  C   UNL     1      -6.288  -0.136   1.462  1.00  0.00     0.017 C 
ATOM     15  C   UNL     1      -3.666  -0.091   1.498  1.00  0.00    -0.020 C 
ATOM     16  C   UNL     1      -4.453   0.188   4.003  1.00  0.00     0.032 C 
ATOM     17  C   UNL     1      -3.465  -0.521   3.027  1.00  0.00     0.006 C 
ATOM     18  C   UNL     1      -2.439   0.738   1.056  1.00  0.00     0.008 C 
ATOM     19  C   UNL     1      -3.715  -1.361   0.586  1.00  0.00     0.012 C 
ATOM     20  C   UNL     1      -1.969  -0.562   3.623  1.00  0.00    -0.025 C 
ATOM     21  C   UNL     1      -1.086   0.050   1.252  1.00  0.00     0.005 C 
ATOM     22  C   UNL     1      -0.916  -0.888   2.492  1.00  0.00     0.003 C 
ATOM     23  C   UNL     1      -1.532   0.784   4.304  1.00  0.00     0.010 C 
ATOM     24  C   UNL     1      -2.000  -1.694   4.708  1.00  0.00     0.012 C 
ATOM     25  C   UNL     1       0.609  -0.905   2.964  1.00  0.00    -0.006 C 
ATOM     26  C   UNL     1      -0.071   0.803   4.797  1.00  0.00     0.033 C 
ATOM     27  C   UNL     1       0.948   0.433   3.701  1.00  0.00     0.120 C 
ATOM     28  C   UNL     1       0.926  -2.139   3.862  1.00  0.00     0.014 C 
ATOM     29  C   UNL     1       1.558  -1.052   1.736  1.00  0.00     0.014 C 
ENDROOT
BRANCH   1  30
ATOM     30  C   UNL     1      -6.104   4.799  -0.056  1.00  0.00     0.048 C 
ATOM     31  O   UNL     1      -5.436   4.776  -1.125  1.00  0.00    -0.550 OA
ATOM     32  O   UNL     1      -6.717   5.991   0.318  1.00  0.00    -0.550 OA
ENDBRANCH   1  30
BRANCH  27  33
ATOM     33  O   UNL     1       2.260   0.426   4.214  1.00  0.00    -0.393 OA
ATOM     34  H   UNL     1       2.330  -0.297   4.889  1.00  0.00     0.210 HD
ENDBRANCH  27  33
TORSDOF 2
ENDMDL
