MODEL 1
REMARK VINA RESULT:    -6.809      0.000      0.000
REMARK INTER + INTRA:          -8.178
REMARK INTER:                  -8.203
REMARK INTRA:                   0.024
REMARK UNBOUND:                 0.024
REMARK SMILES O=c1c(O)c(-c2ccc(O)c(O)c2)oc2cc(O)cc(O)c12
REMARK SMILES IDX 5 1 3 2 2 3 1 4 22 5 20 6 19 7 17 8 16 9 15 10 14 11 6 12
REMARK SMILES IDX 7 13 8 14 9 15 13 16 11 17 10 18 12 20 4 22 21 24 18 26
REMARK H PARENT 10 19 12 21 4 23 21 25 18 27
REMARK Flexibility Score: inf
ROOT
ATOM      1  C   UNL     1     116.805 116.855  99.805  1.00  0.00     0.180 A 
ATOM      2  C   UNL     1     116.362 116.878  98.471  1.00  0.00     0.208 A 
ATOM      3  C   UNL     1     115.393 115.949  98.059  1.00  0.00     0.238 A 
ATOM      4  O   UNL     1     114.961 116.010  96.878  1.00  0.00    -0.285 OA
ATOM      5  C   UNL     1     114.891 115.000  98.981  1.00  0.00     0.111 A 
ATOM      6  C   UNL     1     113.937 113.987  98.663  1.00  0.00     0.134 A 
ATOM      7  C   UNL     1     113.413 113.185  99.685  1.00  0.00     0.093 A 
ATOM      8  C   UNL     1     113.858 113.316 101.003  1.00  0.00     0.123 A 
ATOM      9  C   UNL     1     114.833 114.261 101.313  1.00  0.00     0.094 A 
ATOM     10  C   UNL     1     115.348 115.100 100.321  1.00  0.00     0.146 A 
ATOM     11  O   UNL     1     116.267 115.995 100.662  1.00  0.00    -0.452 OA
ENDROOT
BRANCH   1  12
ATOM     12  C   UNL     1     117.843 117.786 100.306  1.00  0.00     0.025 A 
ATOM     13  C   UNL     1     117.663 118.416 101.547  1.00  0.00     0.016 A 
ATOM     14  C   UNL     1     118.638 119.281 102.049  1.00  0.00     0.051 A 
ATOM     15  C   UNL     1     119.812 119.518 101.329  1.00  0.00     0.157 A 
ATOM     16  C   UNL     1     119.033 118.008  99.593  1.00  0.00     0.062 A 
ATOM     17  C   UNL     1     120.015 118.876 100.096  1.00  0.00     0.158 A 
BRANCH  15  18
ATOM     18  O   UNL     1     120.767 120.388 101.854  1.00  0.00    -0.504 OA
ATOM     19  H   UNL     1     120.672 121.394 101.788  1.00  0.00     0.293 HD
ENDBRANCH  15  18
BRANCH  17  20
ATOM     20  O   UNL     1     121.189 119.096  99.379  1.00  0.00    -0.504 OA
ATOM     21  H   UNL     1     121.199 119.107  98.366  1.00  0.00     0.293 HD
ENDBRANCH  17  20
ENDBRANCH   1  12
BRANCH   2  22
ATOM     22  O   UNL     1     116.855 117.838  97.583  1.00  0.00    -0.502 OA
ATOM     23  H   UNL     1     117.379 117.592  96.752  1.00  0.00     0.293 HD
ENDBRANCH   2  22
BRANCH   6  24
ATOM     24  O   UNL     1     113.494 113.711  97.365  1.00  0.00    -0.507 OA
ATOM     25  H   UNL     1     112.716 114.169  96.914  1.00  0.00     0.293 HD
ENDBRANCH   6  24
BRANCH   8  26
ATOM     26  O   UNL     1     113.345 112.504 102.010  1.00  0.00    -0.508 OA
ATOM     27  H   UNL     1     113.397 111.493 101.956  1.00  0.00     0.293 HD
ENDBRANCH   8  26
TORSDOF 6
ENDMDL
MODEL 2
REMARK VINA RESULT:    -6.432     13.143     15.695
REMARK INTER + INTRA:          -7.724
REMARK INTER:                  -7.478
REMARK INTRA:                  -0.245
REMARK UNBOUND:                 0.024
REMARK SMILES O=c1c(O)c(-c2ccc(O)c(O)c2)oc2cc(O)cc(O)c12
REMARK SMILES IDX 5 1 3 2 2 3 1 4 22 5 20 6 19 7 17 8 16 9 15 10 14 11 6 12
REMARK SMILES IDX 7 13 8 14 9 15 13 16 11 17 10 18 12 20 4 22 21 24 18 26
REMARK H PARENT 10 19 12 21 4 23 21 25 18 27
REMARK Flexibility Score: inf
ROOT
ATOM      1  C   UNL     1     108.341 112.571 110.536  1.00  0.00     0.180 A 
ATOM      2  C   UNL     1     109.677 112.966 110.347  1.00  0.00     0.208 A 
ATOM      3  C   UNL     1     110.201 114.000 111.139  1.00  0.00     0.238 A 
ATOM      4  O   UNL     1     111.413 114.311 111.003  1.00  0.00    -0.285 OA
ATOM      5  C   UNL     1     109.378 114.637 112.099  1.00  0.00     0.111 A 
ATOM      6  C   UNL     1     109.791 115.722 112.929  1.00  0.00     0.134 A 
ATOM      7  C   UNL     1     108.936 116.189 113.935  1.00  0.00     0.093 A 
ATOM      8  C   UNL     1     107.656 115.652 114.097  1.00  0.00     0.123 A 
ATOM      9  C   UNL     1     107.221 114.634 113.253  1.00  0.00     0.094 A 
ATOM     10  C   UNL     1     108.065 114.123 112.264  1.00  0.00     0.146 A 
ATOM     11  O   UNL     1     107.615 113.144 111.489  1.00  0.00    -0.452 OA
ENDROOT
BRANCH   1  12
ATOM     12  C   UNL     1     107.712 111.506 109.722  1.00  0.00     0.025 A 
ATOM     13  C   UNL     1     108.032 110.164 109.975  1.00  0.00     0.016 A 
ATOM     14  C   UNL     1     107.434 109.142 109.234  1.00  0.00     0.051 A 
ATOM     15  C   UNL     1     106.498 109.443 108.240  1.00  0.00     0.157 A 
ATOM     16  C   UNL     1     106.755 111.807 108.737  1.00  0.00     0.062 A 
ATOM     17  C   UNL     1     106.152 110.781 107.992  1.00  0.00     0.158 A 
BRANCH  15  18
ATOM     18  O   UNL     1     105.920 108.402 107.514  1.00  0.00    -0.504 OA
ATOM     19  H   UNL     1     105.003 108.485 107.092  1.00  0.00     0.293 HD
ENDBRANCH  15  18
BRANCH  17  20
ATOM     20  O   UNL     1     105.209 111.089 107.012  1.00  0.00    -0.504 OA
ATOM     21  H   UNL     1     105.414 111.739 106.263  1.00  0.00     0.293 HD
ENDBRANCH  17  20
ENDBRANCH   1  12
BRANCH   2  22
ATOM     22  O   UNL     1     110.478 112.308 109.409  1.00  0.00    -0.502 OA
ATOM     23  H   UNL     1     111.481 112.445 109.359  1.00  0.00     0.293 HD
ENDBRANCH   2  22
BRANCH   6  24
ATOM     24  O   UNL     1     111.013 116.390 112.789  1.00  0.00    -0.507 OA
ATOM     25  H   UNL     1     111.317 116.862 111.951  1.00  0.00     0.293 HD
ENDBRANCH   6  24
BRANCH   8  26
ATOM     26  O   UNL     1     106.805 116.133 115.088  1.00  0.00    -0.508 OA
ATOM     27  H   UNL     1     106.171 116.906 114.916  1.00  0.00     0.293 HD
ENDBRANCH   8  26
TORSDOF 6
ENDMDL
MODEL 3
REMARK VINA RESULT:    -6.294     10.111     12.332
REMARK INTER + INTRA:          -7.558
REMARK INTER:                  -7.270
REMARK INTRA:                  -0.288
REMARK UNBOUND:                 0.024
REMARK SMILES O=c1c(O)c(-c2ccc(O)c(O)c2)oc2cc(O)cc(O)c12
REMARK SMILES IDX 5 1 3 2 2 3 1 4 22 5 20 6 19 7 17 8 16 9 15 10 14 11 6 12
REMARK SMILES IDX 7 13 8 14 9 15 13 16 11 17 10 18 12 20 4 22 21 24 18 26
REMARK H PARENT 10 19 12 21 4 23 21 25 18 27
REMARK Flexibility Score: inf
ROOT
ATOM      1  C   UNL     1     114.373 114.943 110.531  1.00  0.00     0.180 A 
ATOM      2  C   UNL     1     114.053 113.587 110.342  1.00  0.00     0.208 A 
ATOM      3  C   UNL     1     114.681 112.620 111.142  1.00  0.00     0.238 A 
ATOM      4  O   UNL     1     114.350 111.413 111.006  1.00  0.00    -0.285 OA
ATOM      5  C   UNL     1     115.633 113.019 112.111  1.00  0.00     0.111 A 
ATOM      6  C   UNL     1     116.361 112.122 112.950  1.00  0.00     0.134 A 
ATOM      7  C   UNL     1     117.182 112.634 113.963  1.00  0.00     0.093 A 
ATOM      8  C   UNL     1     117.352 114.012 114.123  1.00  0.00     0.123 A 
ATOM      9  C   UNL     1     116.693 114.895 113.271  1.00  0.00     0.094 A 
ATOM     10  C   UNL     1     115.839 114.414 112.275  1.00  0.00     0.146 A 
ATOM     11  O   UNL     1     115.222 115.290 111.491  1.00  0.00    -0.452 OA
ENDROOT
BRANCH   1  12
ATOM     12  C   UNL     1     113.771 116.016 109.708  1.00  0.00     0.025 A 
ATOM     13  C   UNL     1     112.483 116.481 110.016  1.00  0.00     0.016 A 
ATOM     14  C   UNL     1     111.903 117.508 109.267  1.00  0.00     0.051 A 
ATOM     15  C   UNL     1     112.605 118.096 108.210  1.00  0.00     0.157 A 
ATOM     16  C   UNL     1     114.484 116.622 108.659  1.00  0.00     0.062 A 
ATOM     17  C   UNL     1     113.903 117.655 107.906  1.00  0.00     0.158 A 
BRANCH  15  18
ATOM     18  O   UNL     1     112.000 119.117 107.478  1.00  0.00    -0.504 OA
ATOM     19  H   UNL     1     112.061 119.164 106.468  1.00  0.00     0.293 HD
ENDBRANCH  15  18
BRANCH  17  20
ATOM     20  O   UNL     1     114.615 118.246 106.863  1.00  0.00    -0.504 OA
ATOM     21  H   UNL     1     114.328 119.129 106.457  1.00  0.00     0.293 HD
ENDBRANCH  17  20
ENDBRANCH   1  12
BRANCH   2  22
ATOM     22  O   UNL     1     113.093 113.217 109.395  1.00  0.00    -0.502 OA
ATOM     23  H   UNL     1     112.787 113.843 108.658  1.00  0.00     0.293 HD
ENDBRANCH   2  22
BRANCH   6  24
ATOM     24  O   UNL     1     116.334 110.730 112.813  1.00  0.00    -0.507 OA
ATOM     25  H   UNL     1     116.773 110.082 113.450  1.00  0.00     0.293 HD
ENDBRANCH   6  24
BRANCH   8  26
ATOM     26  O   UNL     1     118.182 114.513 115.122  1.00  0.00    -0.508 OA
ATOM     27  H   UNL     1     117.820 115.088 115.875  1.00  0.00     0.293 HD
ENDBRANCH   8  26
TORSDOF 6
ENDMDL
MODEL 4
REMARK VINA RESULT:    -6.189      7.904     10.258
REMARK INTER + INTRA:          -7.432
REMARK INTER:                  -7.097
REMARK INTRA:                  -0.335
REMARK UNBOUND:                 0.024
REMARK SMILES O=c1c(O)c(-c2ccc(O)c(O)c2)oc2cc(O)cc(O)c12
REMARK SMILES IDX 5 1 3 2 2 3 1 4 22 5 20 6 19 7 17 8 16 9 15 10 14 11 6 12
REMARK SMILES IDX 7 13 8 14 9 15 13 16 11 17 10 18 12 20 4 22 21 24 18 26
REMARK H PARENT 10 19 12 21 4 23 21 25 18 27
REMARK Flexibility Score: inf
ROOT
ATOM      1  C   UNL     1     107.919 113.490 101.230  1.00  0.00     0.180 A 
ATOM      2  C   UNL     1     108.160 113.193  99.877  1.00  0.00     0.208 A 
ATOM      3  C   UNL     1     107.082 113.191  98.978  1.00  0.00     0.238 A 
ATOM      4  O   UNL     1     107.311 112.979  97.759  1.00  0.00    -0.285 OA
ATOM      5  C   UNL     1     105.775 113.471  99.445  1.00  0.00     0.111 A 
ATOM      6  C   UNL     1     104.602 113.458  98.631  1.00  0.00     0.134 A 
ATOM      7  C   UNL     1     103.380 113.877  99.171  1.00  0.00     0.093 A 
ATOM      8  C   UNL     1     103.277 114.247 100.514  1.00  0.00     0.123 A 
ATOM      9  C   UNL     1     104.403 114.206 101.333  1.00  0.00     0.094 A 
ATOM     10  C   UNL     1     105.643 113.827 100.813  1.00  0.00     0.146 A 
ATOM     11  O   UNL     1     106.693 113.812 101.624  1.00  0.00    -0.452 OA
ENDROOT
BRANCH   1  12
ATOM     12  C   UNL     1     109.002 113.486 102.241  1.00  0.00     0.025 A 
ATOM     13  C   UNL     1     109.670 114.683 102.540  1.00  0.00     0.016 A 
ATOM     14  C   UNL     1     110.679 114.708 103.506  1.00  0.00     0.051 A 
ATOM     15  C   UNL     1     111.025 113.543 104.197  1.00  0.00     0.157 A 
ATOM     16  C   UNL     1     109.336 112.320 102.952  1.00  0.00     0.062 A 
ATOM     17  C   UNL     1     110.348 112.343 103.923  1.00  0.00     0.158 A 
BRANCH  15  18
ATOM     18  O   UNL     1     112.038 113.597 105.154  1.00  0.00    -0.504 OA
ATOM     19  H   UNL     1     112.182 114.410 105.740  1.00  0.00     0.293 HD
ENDBRANCH  15  18
BRANCH  17  20
ATOM     20  O   UNL     1     110.678 111.181 104.618  1.00  0.00    -0.504 OA
ATOM     21  H   UNL     1     110.265 110.286 104.383  1.00  0.00     0.293 HD
ENDBRANCH  17  20
ENDBRANCH   1  12
BRANCH   2  22
ATOM     22  O   UNL     1     109.461 112.942  99.433  1.00  0.00    -0.502 OA
ATOM     23  H   UNL     1     109.805 113.275  98.540  1.00  0.00     0.293 HD
ENDBRANCH   2  22
BRANCH   6  24
ATOM     24  O   UNL     1     104.580 113.018  97.303  1.00  0.00    -0.507 OA
ATOM     25  H   UNL     1     104.185 112.142  96.994  1.00  0.00     0.293 HD
ENDBRANCH   6  24
BRANCH   8  26
ATOM     26  O   UNL     1     102.054 114.648 101.048  1.00  0.00    -0.508 OA
ATOM     27  H   UNL     1     101.843 114.536 102.033  1.00  0.00     0.293 HD
ENDBRANCH   8  26
TORSDOF 6
ENDMDL
MODEL 5
REMARK VINA RESULT:    -6.106     10.918     12.553
REMARK INTER + INTRA:          -7.331
REMARK INTER:                  -7.028
REMARK INTRA:                  -0.304
REMARK UNBOUND:                 0.024
REMARK SMILES O=c1c(O)c(-c2ccc(O)c(O)c2)oc2cc(O)cc(O)c12
REMARK SMILES IDX 5 1 3 2 2 3 1 4 22 5 20 6 19 7 17 8 16 9 15 10 14 11 6 12
REMARK SMILES IDX 7 13 8 14 9 15 13 16 11 17 10 18 12 20 4 22 21 24 18 26
REMARK H PARENT 10 19 12 21 4 23 21 25 18 27
REMARK Flexibility Score: inf
ROOT
ATOM      1  C   UNL     1     111.278 108.982 107.034  1.00  0.00     0.180 A 
ATOM      2  C   UNL     1     111.124 110.328 106.656  1.00  0.00     0.208 A 
ATOM      3  C   UNL     1     109.833 110.873 106.587  1.00  0.00     0.238 A 
ATOM      4  O   UNL     1     109.706 112.093 106.302  1.00  0.00    -0.285 OA
ATOM      5  C   UNL     1     108.710 110.063 106.882  1.00  0.00     0.111 A 
ATOM      6  C   UNL     1     107.353 110.499 106.805  1.00  0.00     0.134 A 
ATOM      7  C   UNL     1     106.328 109.651 107.245  1.00  0.00     0.093 A 
ATOM      8  C   UNL     1     106.607 108.358 107.696  1.00  0.00     0.123 A 
ATOM      9  C   UNL     1     107.923 107.902 107.717  1.00  0.00     0.094 A 
ATOM     10  C   UNL     1     108.970 108.738 107.319  1.00  0.00     0.146 A 
ATOM     11  O   UNL     1     110.210 108.267 107.366  1.00  0.00    -0.452 OA
ENDROOT
BRANCH   1  12
ATOM     12  C   UNL     1     112.606 108.331 107.104  1.00  0.00     0.025 A 
ATOM     13  C   UNL     1     113.207 107.861 105.926  1.00  0.00     0.016 A 
ATOM     14  C   UNL     1     114.469 107.263 105.965  1.00  0.00     0.051 A 
ATOM     15  C   UNL     1     115.155 107.138 107.177  1.00  0.00     0.157 A 
ATOM     16  C   UNL     1     113.306 108.224 108.318  1.00  0.00     0.062 A 
ATOM     17  C   UNL     1     114.574 107.624 108.359  1.00  0.00     0.158 A 
BRANCH  15  18
ATOM     18  O   UNL     1     116.412 106.534 107.186  1.00  0.00    -0.504 OA
ATOM     19  H   UNL     1     116.528 105.534 107.295  1.00  0.00     0.293 HD
ENDBRANCH  15  18
BRANCH  17  20
ATOM     20  O   UNL     1     115.259 107.516 109.569  1.00  0.00    -0.504 OA
ATOM     21  H   UNL     1     115.918 106.767 109.742  1.00  0.00     0.293 HD
ENDBRANCH  17  20
ENDBRANCH   1  12
BRANCH   2  22
ATOM     22  O   UNL     1     112.248 111.116 106.392  1.00  0.00    -0.502 OA
ATOM     23  H   UNL     1     112.215 111.921 105.777  1.00  0.00     0.293 HD
ENDBRANCH   2  22
BRANCH   6  24
ATOM     24  O   UNL     1     106.959 111.736 106.284  1.00  0.00    -0.507 OA
ATOM     25  H   UNL     1     106.708 111.900 105.321  1.00  0.00     0.293 HD
ENDBRANCH   6  24
BRANCH   8  26
ATOM     26  O   UNL     1     105.581 107.516 108.115  1.00  0.00    -0.508 OA
ATOM     27  H   UNL     1     104.629 107.849 108.218  1.00  0.00     0.293 HD
ENDBRANCH   8  26
TORSDOF 6
ENDMDL
MODEL 6
REMARK VINA RESULT:    -6.092      8.411     10.755
REMARK INTER + INTRA:          -7.314
REMARK INTER:                  -7.012
REMARK INTRA:                  -0.302
REMARK UNBOUND:                 0.024
REMARK SMILES O=c1c(O)c(-c2ccc(O)c(O)c2)oc2cc(O)cc(O)c12
REMARK SMILES IDX 5 1 3 2 2 3 1 4 22 5 20 6 19 7 17 8 16 9 15 10 14 11 6 12
REMARK SMILES IDX 7 13 8 14 9 15 13 16 11 17 10 18 12 20 4 22 21 24 18 26
REMARK H PARENT 10 19 12 21 4 23 21 25 18 27
REMARK Flexibility Score: inf
ROOT
ATOM      1  C   UNL     1     109.805 113.435 106.571  1.00  0.00     0.180 A 
ATOM      2  C   UNL     1     110.451 112.214 106.307  1.00  0.00     0.208 A 
ATOM      3  C   UNL     1     109.692 111.034 106.281  1.00  0.00     0.238 A 
ATOM      4  O   UNL     1     110.267 109.952 105.989  1.00  0.00    -0.285 OA
ATOM      5  C   UNL     1     108.300 111.085 106.533  1.00  0.00     0.111 A 
ATOM      6  C   UNL     1     107.440 109.947 106.571  1.00  0.00     0.134 A 
ATOM      7  C   UNL     1     106.058 110.128 106.701  1.00  0.00     0.093 A 
ATOM      8  C   UNL     1     105.511 111.405 106.860  1.00  0.00     0.123 A 
ATOM      9  C   UNL     1     106.348 112.518 106.885  1.00  0.00     0.094 A 
ATOM     10  C   UNL     1     107.728 112.371 106.721  1.00  0.00     0.146 A 
ATOM     11  O   UNL     1     108.488 113.459 106.740  1.00  0.00    -0.452 OA
ENDROOT
BRANCH   1  12
ATOM     12  C   UNL     1     110.542 114.717 106.640  1.00  0.00     0.025 A 
ATOM     13  C   UNL     1     110.824 115.416 105.456  1.00  0.00     0.016 A 
ATOM     14  C   UNL     1     111.499 116.639 105.499  1.00  0.00     0.051 A 
ATOM     15  C   UNL     1     111.890 117.188 106.724  1.00  0.00     0.157 A 
ATOM     16  C   UNL     1     110.917 115.281 107.872  1.00  0.00     0.062 A 
ATOM     17  C   UNL     1     111.594 116.509 107.917  1.00  0.00     0.158 A 
BRANCH  15  18
ATOM     18  O   UNL     1     112.565 118.408 106.736  1.00  0.00    -0.504 OA
ATOM     19  H   UNL     1     113.575 118.465 106.688  1.00  0.00     0.293 HD
ENDBRANCH  15  18
BRANCH  17  20
ATOM     20  O   UNL     1     111.968 117.058 109.143  1.00  0.00    -0.504 OA
ATOM     21  H   UNL     1     111.375 116.984 109.961  1.00  0.00     0.293 HD
ENDBRANCH  17  20
ENDBRANCH   1  12
BRANCH   2  22
ATOM     22  O   UNL     1     111.822 112.189 106.038  1.00  0.00    -0.502 OA
ATOM     23  H   UNL     1     112.363 111.332 106.051  1.00  0.00     0.293 HD
ENDBRANCH   2  22
BRANCH   6  24
ATOM     24  O   UNL     1     107.893 108.624 106.513  1.00  0.00    -0.507 OA
ATOM     25  H   UNL     1     108.161 108.073 107.315  1.00  0.00     0.293 HD
ENDBRANCH   6  24
BRANCH   8  26
ATOM     26  O   UNL     1     104.137 111.576 107.005  1.00  0.00    -0.508 OA
ATOM     27  H   UNL     1     103.729 112.491 107.158  1.00  0.00     0.293 HD
ENDBRANCH   8  26
TORSDOF 6
ENDMDL
MODEL 7
REMARK VINA RESULT:    -6.088      7.640      9.833
REMARK INTER + INTRA:          -7.310
REMARK INTER:                  -6.993
REMARK INTRA:                  -0.317
REMARK UNBOUND:                 0.024
REMARK SMILES O=c1c(O)c(-c2ccc(O)c(O)c2)oc2cc(O)cc(O)c12
REMARK SMILES IDX 5 1 3 2 2 3 1 4 22 5 20 6 19 7 17 8 16 9 15 10 14 11 6 12
REMARK SMILES IDX 7 13 8 14 9 15 13 16 11 17 10 18 12 20 4 22 21 24 18 26
REMARK H PARENT 10 19 12 21 4 23 21 25 18 27
REMARK Flexibility Score: inf
ROOT
ATOM      1  C   UNL     1     114.475 113.139 106.762  1.00  0.00     0.180 A 
ATOM      2  C   UNL     1     113.095 113.174 106.499  1.00  0.00     0.208 A 
ATOM      3  C   UNL     1     112.445 114.416 106.433  1.00  0.00     0.238 A 
ATOM      4  O   UNL     1     111.220 114.444 106.143  1.00  0.00    -0.285 OA
ATOM      5  C   UNL     1     113.180 115.607 106.645  1.00  0.00     0.111 A 
ATOM      6  C   UNL     1     112.617 116.919 106.640  1.00  0.00     0.134 A 
ATOM      7  C   UNL     1     113.460 118.034 106.731  1.00  0.00     0.093 A 
ATOM      8  C   UNL     1     114.840 117.881 106.893  1.00  0.00     0.123 A 
ATOM      9  C   UNL     1     115.392 116.605 106.959  1.00  0.00     0.094 A 
ATOM     10  C   UNL     1     114.580 115.474 106.835  1.00  0.00     0.146 A 
ATOM     11  O   UNL     1     115.149 114.276 106.893  1.00  0.00    -0.452 OA
ENDROOT
BRANCH   1  12
ATOM     12  C   UNL     1     115.224 111.866 106.873  1.00  0.00     0.025 A 
ATOM     13  C   UNL     1     115.748 111.271 105.715  1.00  0.00     0.016 A 
ATOM     14  C   UNL     1     116.476 110.081 105.799  1.00  0.00     0.051 A 
ATOM     15  C   UNL     1     116.704 109.477 107.038  1.00  0.00     0.157 A 
ATOM     16  C   UNL     1     115.472 111.268 108.121  1.00  0.00     0.062 A 
ATOM     17  C   UNL     1     116.204 110.074 108.207  1.00  0.00     0.158 A 
BRANCH  15  18
ATOM     18  O   UNL     1     117.432 108.288 107.090  1.00  0.00    -0.504 OA
ATOM     19  H   UNL     1     117.085 107.465 107.567  1.00  0.00     0.293 HD
ENDBRANCH  15  18
BRANCH  17  20
ATOM     20  O   UNL     1     116.440 109.484 109.448  1.00  0.00    -0.504 OA
ATOM     21  H   UNL     1     116.289 109.990 110.313  1.00  0.00     0.293 HD
ENDBRANCH  17  20
ENDBRANCH   1  12
BRANCH   2  22
ATOM     22  O   UNL     1     112.393 111.987 106.271  1.00  0.00    -0.502 OA
ATOM     23  H   UNL     1     112.130 111.681 105.341  1.00  0.00     0.293 HD
ENDBRANCH   2  22
BRANCH   6  24
ATOM     24  O   UNL     1     111.244 117.179 106.576  1.00  0.00    -0.507 OA
ATOM     25  H   UNL     1     110.773 117.587 105.782  1.00  0.00     0.293 HD
ENDBRANCH   6  24
BRANCH   8  26
ATOM     26  O   UNL     1     115.670 118.994 107.000  1.00  0.00    -0.508 OA
ATOM     27  H   UNL     1     116.193 119.345 106.205  1.00  0.00     0.293 HD
ENDBRANCH   8  26
TORSDOF 6
ENDMDL
MODEL 8
REMARK VINA RESULT:    -6.060      7.497      9.434
REMARK INTER + INTRA:          -7.276
REMARK INTER:                  -6.982
REMARK INTRA:                  -0.294
REMARK UNBOUND:                 0.024
REMARK SMILES O=c1c(O)c(-c2ccc(O)c(O)c2)oc2cc(O)cc(O)c12
REMARK SMILES IDX 5 1 3 2 2 3 1 4 22 5 20 6 19 7 17 8 16 9 15 10 14 11 6 12
REMARK SMILES IDX 7 13 8 14 9 15 13 16 11 17 10 18 12 20 4 22 21 24 18 26
REMARK H PARENT 10 19 12 21 4 23 21 25 18 27
REMARK Flexibility Score: inf
ROOT
ATOM      1  C   UNL     1     114.932 112.744 107.087  1.00  0.00     0.180 A 
ATOM      2  C   UNL     1     113.837 111.920 106.772  1.00  0.00     0.208 A 
ATOM      3  C   UNL     1     114.020 110.529 106.732  1.00  0.00     0.238 A 
ATOM      4  O   UNL     1     113.024 109.794 106.503  1.00  0.00    -0.285 OA
ATOM      5  C   UNL     1     115.298 109.979 106.994  1.00  0.00     0.111 A 
ATOM      6  C   UNL     1     115.607 108.587 106.943  1.00  0.00     0.134 A 
ATOM      7  C   UNL     1     116.873 108.144 107.347  1.00  0.00     0.093 A 
ATOM      8  C   UNL     1     117.861 109.051 107.738  1.00  0.00     0.123 A 
ATOM      9  C   UNL     1     117.588 110.417 107.734  1.00  0.00     0.094 A 
ATOM     10  C   UNL     1     116.323 110.885 107.370  1.00  0.00     0.146 A 
ATOM     11  O   UNL     1     116.102 112.194 107.391  1.00  0.00    -0.452 OA
ENDROOT
BRANCH   1  12
ATOM     12  C   UNL     1     114.822 114.220 107.123  1.00  0.00     0.025 A 
ATOM     13  C   UNL     1     114.843 114.942 105.920  1.00  0.00     0.016 A 
ATOM     14  C   UNL     1     114.719 116.334 105.928  1.00  0.00     0.051 A 
ATOM     15  C   UNL     1     114.558 117.023 107.134  1.00  0.00     0.157 A 
ATOM     16  C   UNL     1     114.638 114.912 108.333  1.00  0.00     0.062 A 
ATOM     17  C   UNL     1     114.512 116.310 108.343  1.00  0.00     0.158 A 
BRANCH  15  18
ATOM     18  O   UNL     1     114.439 118.412 107.111  1.00  0.00    -0.504 OA
ATOM     19  H   UNL     1     113.557 118.880 107.284  1.00  0.00     0.293 HD
ENDBRANCH  15  18
BRANCH  17  20
ATOM     20  O   UNL     1     114.337 116.988 109.548  1.00  0.00    -0.504 OA
ATOM     21  H   UNL     1     113.474 117.472 109.765  1.00  0.00     0.293 HD
ENDBRANCH  17  20
ENDBRANCH   1  12
BRANCH   2  22
ATOM     22  O   UNL     1     112.579 112.483 106.539  1.00  0.00    -0.502 OA
ATOM     23  H   UNL     1     112.408 113.140 105.786  1.00  0.00     0.293 HD
ENDBRANCH   2  22
BRANCH   6  24
ATOM     24  O   UNL     1     114.722 107.607 106.480  1.00  0.00    -0.507 OA
ATOM     25  H   UNL     1     113.717 107.668 106.535  1.00  0.00     0.293 HD
ENDBRANCH   6  24
BRANCH   8  26
ATOM     26  O   UNL     1     119.123 108.604 108.123  1.00  0.00    -0.508 OA
ATOM     27  H   UNL     1     119.292 107.634 108.362  1.00  0.00     0.293 HD
ENDBRANCH   8  26
TORSDOF 6
ENDMDL
MODEL 9
REMARK VINA RESULT:    -6.028      9.834     12.908
REMARK INTER + INTRA:          -7.237
REMARK INTER:                  -6.920
REMARK INTRA:                  -0.317
REMARK UNBOUND:                 0.024
REMARK SMILES O=c1c(O)c(-c2ccc(O)c(O)c2)oc2cc(O)cc(O)c12
REMARK SMILES IDX 5 1 3 2 2 3 1 4 22 5 20 6 19 7 17 8 16 9 15 10 14 11 6 12
REMARK SMILES IDX 7 13 8 14 9 15 13 16 11 17 10 18 12 20 4 22 21 24 18 26
REMARK H PARENT 10 19 12 21 4 23 21 25 18 27
REMARK Flexibility Score: inf
ROOT
ATOM      1  C   UNL     1     111.654 109.242 106.868  1.00  0.00     0.180 A 
ATOM      2  C   UNL     1     112.355 110.435 106.622  1.00  0.00     0.208 A 
ATOM      3  C   UNL     1     113.756 110.400 106.545  1.00  0.00     0.238 A 
ATOM      4  O   UNL     1     114.374 111.461 106.269  1.00  0.00    -0.285 OA
ATOM      5  C   UNL     1     114.440 109.174 106.729  1.00  0.00     0.111 A 
ATOM      6  C   UNL     1     115.860 109.027 106.712  1.00  0.00     0.134 A 
ATOM      7  C   UNL     1     116.423 107.747 106.776  1.00  0.00     0.093 A 
ATOM      8  C   UNL     1     115.620 106.613 106.922  1.00  0.00     0.123 A 
ATOM      9  C   UNL     1     114.236 106.751 107.001  1.00  0.00     0.094 A 
ATOM     10  C   UNL     1     113.643 108.012 106.904  1.00  0.00     0.146 A 
ATOM     11  O   UNL     1     112.320 108.098 106.972  1.00  0.00    -0.452 OA
ENDROOT
BRANCH   1  12
ATOM     12  C   UNL     1     110.178 109.205 106.988  1.00  0.00     0.025 A 
ATOM     13  C   UNL     1     109.395 109.061 105.833  1.00  0.00     0.016 A 
ATOM     14  C   UNL     1     108.002 109.003 105.925  1.00  0.00     0.051 A 
ATOM     15  C   UNL     1     107.372 109.072 107.170  1.00  0.00     0.157 A 
ATOM     16  C   UNL     1     109.544 109.254 108.242  1.00  0.00     0.062 A 
ATOM     17  C   UNL     1     108.145 109.194 108.336  1.00  0.00     0.158 A 
BRANCH  15  18
ATOM     18  O   UNL     1     105.980 109.014 107.231  1.00  0.00    -0.504 OA
ATOM     19  H   UNL     1     105.470 109.199 108.087  1.00  0.00     0.293 HD
ENDBRANCH  15  18
BRANCH  17  20
ATOM     20  O   UNL     1     107.525 109.249 109.583  1.00  0.00    -0.504 OA
ATOM     21  H   UNL     1     106.564 109.555 109.686  1.00  0.00     0.293 HD
ENDBRANCH  17  20
ENDBRANCH   1  12
BRANCH   2  22
ATOM     22  O   UNL     1     111.658 111.630 106.420  1.00  0.00    -0.502 OA
ATOM     23  H   UNL     1     112.023 112.383 105.848  1.00  0.00     0.293 HD
ENDBRANCH   2  22
BRANCH   6  24
ATOM     24  O   UNL     1     116.755 110.101 106.661  1.00  0.00    -0.507 OA
ATOM     25  H   UNL     1     117.236 110.409 105.829  1.00  0.00     0.293 HD
ENDBRANCH   6  24
BRANCH   8  26
ATOM     26  O   UNL     1     116.189 105.345 107.002  1.00  0.00    -0.508 OA
ATOM     27  H   UNL     1     116.947 105.064 106.390  1.00  0.00     0.293 HD
ENDBRANCH   8  26
TORSDOF 6
ENDMDL
