MODEL 1
REMARK VINA RESULT:    -4.052      0.000      0.000
REMARK INTER + INTRA:          -6.367
REMARK INTER:                  -6.184
REMARK INTRA:                  -0.183
REMARK UNBOUND:                -0.183
REMARK SMILES CC1=CCC[C@@H](C)C(=O)C[C@H](C(C)C)C(=O)C1
REMARK SMILES IDX 8 1 9 2 6 3 7 4 5 5 4 6 3 7 2 8 1 9 10 11 11 12 15 13 16 14
REMARK SMILES IDX 17 15 12 17 13 18 14 19
REMARK H PARENT
REMARK Flexibility Score: 70.00
ROOT
ATOM      1  C   UNL     1      16.724 -31.112  21.859  1.00  0.00     0.136 C 
ATOM      2  O   UNL     1      17.081 -30.755  22.971  1.00  0.00    -0.299 OA
ENDROOT
BRANCH   1   3
ATOM      3  C   UNL     1      15.247 -31.369  21.619  1.00  0.00     0.053 C 
ATOM      4  C   UNL     1      14.395 -30.367  22.408  1.00  0.00     0.016 C 
BRANCH   3   5
ATOM      5  C   UNL     1      14.853 -32.821  21.958  1.00  0.00     0.015 C 
BRANCH   5   6
ATOM      6  C   UNL     1      14.546 -33.650  20.697  1.00  0.00     0.028 C 
BRANCH   6   7
ATOM      7  C   UNL     1      15.250 -34.980  20.735  1.00  0.00    -0.028 C 
ATOM      8  C   UNL     1      16.466 -35.223  20.197  1.00  0.00    -0.070 CG0
ATOM      9  C   UNL     1      17.039 -36.611  20.346  1.00  0.00     0.039 C 
ATOM     10  G   UNL     1      17.267 -34.187  19.422  1.00  0.00     0.000 G0
ENDBRANCH   6   7
ENDBRANCH   5   6
ENDBRANCH   3   5
ENDBRANCH   1   3
BRANCH   1  11
ATOM     11  C   UNL     1      17.767 -31.470  20.823  1.00  0.00     0.087 C 
BRANCH  11  12
ATOM     12  C   UNL     1      18.681 -32.698  21.107  1.00  0.00     0.066 C 
BRANCH  12  13
ATOM     13  C   UNL     1      18.556 -33.815  20.072  1.00  0.00     0.140 C 
ATOM     14  O   UNL     1      19.576 -34.389  19.715  1.00  0.00    -0.299 OA
BRANCH  13  15
ATOM     15  C   UNL     1      17.249 -34.200  19.415  1.00  0.00     0.106 CG0
ATOM     16  G   UNL     1      16.465 -35.229  20.217  1.00  0.00     0.000 G0
ENDBRANCH  13  15
ENDBRANCH  12  13
BRANCH  12  17
ATOM     17  C   UNL     1      20.138 -32.439  21.637  1.00  0.00    -0.006 C 
ATOM     18  C   UNL     1      20.181 -32.225  23.159  1.00  0.00     0.008 C 
ATOM     19  C   UNL     1      20.949 -31.341  20.926  1.00  0.00     0.008 C 
ENDBRANCH  12  17
ENDBRANCH  11  12
ENDBRANCH   1  11
TORSDOF 1
ENDMDL
MODEL 2
REMARK VINA RESULT:    -4.046      2.404      4.356
REMARK INTER + INTRA:          -6.357
REMARK INTER:                  -6.151
REMARK INTRA:                  -0.206
REMARK UNBOUND:                -0.183
REMARK SMILES CC1=CCC[C@@H](C)C(=O)C[C@H](C(C)C)C(=O)C1
REMARK SMILES IDX 8 1 9 2 6 3 7 4 5 5 4 6 3 7 2 8 1 9 10 11 11 12 15 13 16 14
REMARK SMILES IDX 17 15 12 17 13 18 14 19
REMARK H PARENT
REMARK Flexibility Score: 70.00
ROOT
ATOM      1  C   UNL     1      17.597 -31.981  24.117  1.00  0.00     0.136 C 
ATOM      2  O   UNL     1      17.950 -30.982  24.723  1.00  0.00    -0.299 OA
ENDROOT
BRANCH   1   3
ATOM      3  C   UNL     1      17.969 -33.342  24.680  1.00  0.00     0.053 C 
ATOM      4  C   UNL     1      18.711 -33.183  26.014  1.00  0.00     0.016 C 
BRANCH   3   5
ATOM      5  C   UNL     1      18.799 -34.171  23.679  1.00  0.00     0.015 C 
BRANCH   5   6
ATOM      6  C   UNL     1      18.071 -35.456  23.245  1.00  0.00     0.028 C 
BRANCH   6   7
ATOM      7  C   UNL     1      17.725 -35.417  21.780  1.00  0.00    -0.028 C 
ATOM      8  C   UNL     1      16.547 -34.982  21.279  1.00  0.00    -0.070 CG0
ATOM      9  C   UNL     1      16.374 -34.988  19.780  1.00  0.00     0.039 C 
ATOM     10  G   UNL     1      15.381 -34.525  22.143  1.00  0.00     0.000 G0
ENDBRANCH   6   7
ENDBRANCH   5   6
ENDBRANCH   3   5
ENDBRANCH   1   3
BRANCH   1  11
ATOM     11  C   UNL     1      16.977 -31.837  22.745  1.00  0.00     0.087 C 
BRANCH  11  12
ATOM     12  C   UNL     1      15.424 -31.893  22.640  1.00  0.00     0.066 C 
BRANCH  12  13
ATOM     13  C   UNL     1      14.899 -33.109  21.878  1.00  0.00     0.140 C 
ATOM     14  O   UNL     1      14.029 -32.932  21.037  1.00  0.00    -0.299 OA
BRANCH  13  15
ATOM     15  C   UNL     1      15.350 -34.525  22.157  1.00  0.00     0.106 CG0
ATOM     16  G   UNL     1      16.533 -34.949  21.299  1.00  0.00     0.000 G0
ENDBRANCH  13  15
ENDBRANCH  12  13
BRANCH  12  17
ATOM     17  C   UNL     1      14.575 -31.472  23.893  1.00  0.00    -0.006 C 
ATOM     18  C   UNL     1      13.940 -32.676  24.607  1.00  0.00     0.008 C 
ATOM     19  C   UNL     1      13.521 -30.371  23.677  1.00  0.00     0.008 C 
ENDBRANCH  12  17
ENDBRANCH  11  12
ENDBRANCH   1  11
TORSDOF 1
ENDMDL
MODEL 3
REMARK VINA RESULT:    -3.909      2.696      4.244
REMARK INTER + INTRA:          -6.148
REMARK INTER:                  -5.941
REMARK INTRA:                  -0.207
REMARK UNBOUND:                -0.183
REMARK SMILES CC1=CCC[C@@H](C)C(=O)C[C@H](C(C)C)C(=O)C1
REMARK SMILES IDX 8 1 9 2 6 3 7 4 5 5 4 6 3 7 2 8 1 9 10 11 11 12 15 13 16 14
REMARK SMILES IDX 17 15 12 17 13 18 14 19
REMARK H PARENT
REMARK Flexibility Score: 70.00
ROOT
ATOM      1  C   UNL     1      15.063 -33.348  22.218  1.00  0.00     0.136 C 
ATOM      2  O   UNL     1      14.278 -33.104  21.316  1.00  0.00    -0.299 OA
ENDROOT
BRANCH   1   3
ATOM      3  C   UNL     1      15.212 -32.337  23.343  1.00  0.00     0.053 C 
ATOM      4  C   UNL     1      13.876 -32.148  24.072  1.00  0.00     0.016 C 
BRANCH   3   5
ATOM      5  C   UNL     1      15.764 -30.989  22.835  1.00  0.00     0.015 C 
BRANCH   5   6
ATOM      6  C   UNL     1      17.223 -30.758  23.268  1.00  0.00     0.028 C 
BRANCH   6   7
ATOM      7  C   UNL     1      17.537 -31.500  24.540  1.00  0.00    -0.028 C 
ATOM      8  C   UNL     1      18.408 -32.529  24.637  1.00  0.00    -0.070 CG0
ATOM      9  C   UNL     1      18.623 -33.147  25.997  1.00  0.00     0.039 C 
ATOM     10  G   UNL     1      19.151 -33.118  23.446  1.00  0.00     0.000 G0
ENDBRANCH   6   7
ENDBRANCH   5   6
ENDBRANCH   3   5
ENDBRANCH   1   3
BRANCH   1  11
ATOM     11  C   UNL     1      15.991 -34.536  22.096  1.00  0.00     0.087 C 
BRANCH  11  12
ATOM     12  C   UNL     1      17.472 -34.264  21.701  1.00  0.00     0.066 C 
BRANCH  12  13
ATOM     13  C   UNL     1      18.450 -34.342  22.872  1.00  0.00     0.140 C 
ATOM     14  O   UNL     1      18.630 -35.430  23.402  1.00  0.00    -0.299 OA
BRANCH  13  15
ATOM     15  C   UNL     1      19.153 -33.136  23.452  1.00  0.00     0.106 CG0
ATOM     16  G   UNL     1      18.417 -32.539  24.643  1.00  0.00     0.000 G0
ENDBRANCH  13  15
ENDBRANCH  12  13
BRANCH  12  17
ATOM     17  C   UNL     1      18.004 -34.855  20.345  1.00  0.00    -0.006 C 
ATOM     18  C   UNL     1      19.389 -34.307  19.967  1.00  0.00     0.008 C 
ATOM     19  C   UNL     1      17.056 -34.776  19.135  1.00  0.00     0.008 C 
ENDBRANCH  12  17
ENDBRANCH  11  12
ENDBRANCH   1  11
TORSDOF 1
ENDMDL
MODEL 4
REMARK VINA RESULT:    -3.858      2.497      4.700
REMARK INTER + INTRA:          -6.071
REMARK INTER:                  -5.995
REMARK INTRA:                  -0.076
REMARK UNBOUND:                -0.183
REMARK SMILES CC1=CCC[C@@H](C)C(=O)C[C@H](C(C)C)C(=O)C1
REMARK SMILES IDX 8 1 9 2 6 3 7 4 5 5 4 6 3 7 2 8 1 9 10 11 11 12 15 13 16 14
REMARK SMILES IDX 17 15 12 17 13 18 14 19
REMARK H PARENT
REMARK Flexibility Score: 70.00
ROOT
ATOM      1  C   UNL     1      17.021 -30.384  22.461  1.00  0.00     0.136 C 
ATOM      2  O   UNL     1      16.774 -29.334  21.890  1.00  0.00    -0.299 OA
ENDROOT
BRANCH   1   3
ATOM      3  C   UNL     1      18.138 -31.260  21.920  1.00  0.00     0.053 C 
ATOM      4  C   UNL     1      19.405 -30.426  21.689  1.00  0.00     0.016 C 
BRANCH   3   5
ATOM      5  C   UNL     1      17.717 -31.999  20.633  1.00  0.00     0.015 C 
BRANCH   5   6
ATOM      6  C   UNL     1      17.983 -33.513  20.720  1.00  0.00     0.028 C 
BRANCH   6   7
ATOM      7  C   UNL     1      18.305 -33.929  22.131  1.00  0.00    -0.028 C 
ATOM      8  C   UNL     1      17.389 -34.309  23.050  1.00  0.00    -0.070 CG0
ATOM      9  C   UNL     1      17.886 -34.718  24.414  1.00  0.00     0.039 C 
ATOM     10  G   UNL     1      15.889 -34.310  22.793  1.00  0.00     0.000 G0
ENDBRANCH   6   7
ENDBRANCH   5   6
ENDBRANCH   3   5
ENDBRANCH   1   3
BRANCH   1  11
ATOM     11  C   UNL     1      16.097 -30.870  23.556  1.00  0.00     0.087 C 
BRANCH  11  12
ATOM     12  C   UNL     1      14.940 -31.833  23.156  1.00  0.00     0.066 C 
BRANCH  12  13
ATOM     13  C   UNL     1      15.144 -33.273  23.624  1.00  0.00     0.140 C 
ATOM     14  O   UNL     1      14.743 -33.581  24.738  1.00  0.00    -0.299 OA
BRANCH  13  15
ATOM     15  C   UNL     1      15.875 -34.317  22.811  1.00  0.00     0.106 CG0
ATOM     16  G   UNL     1      17.378 -34.305  23.047  1.00  0.00     0.000 G0
ENDBRANCH  13  15
ENDBRANCH  12  13
BRANCH  12  17
ATOM     17  C   UNL     1      13.463 -31.303  23.246  1.00  0.00    -0.006 C 
ATOM     18  C   UNL     1      12.724 -31.389  21.901  1.00  0.00     0.008 C 
ATOM     19  C   UNL     1      13.263 -29.912  23.872  1.00  0.00     0.008 C 
ENDBRANCH  12  17
ENDBRANCH  11  12
ENDBRANCH   1  11
TORSDOF 1
ENDMDL
MODEL 5
REMARK VINA RESULT:    -3.822      2.168      4.716
REMARK INTER + INTRA:          -6.016
REMARK INTER:                  -5.846
REMARK INTRA:                  -0.170
REMARK UNBOUND:                -0.183
REMARK SMILES CC1=CCC[C@@H](C)C(=O)C[C@H](C(C)C)C(=O)C1
REMARK SMILES IDX 8 1 9 2 6 3 7 4 5 5 4 6 3 7 2 8 1 9 10 11 11 12 15 13 16 14
REMARK SMILES IDX 17 15 12 17 13 18 14 19
REMARK H PARENT
REMARK Flexibility Score: 70.00
ROOT
ATOM      1  C   UNL     1      15.866 -33.929  20.633  1.00  0.00     0.136 C 
ATOM      2  O   UNL     1      14.705 -34.234  20.850  1.00  0.00    -0.299 OA
ENDROOT
BRANCH   1   3
ATOM      3  C   UNL     1      16.735 -34.893  19.843  1.00  0.00     0.053 C 
ATOM      4  C   UNL     1      17.156 -36.076  20.725  1.00  0.00     0.016 C 
BRANCH   3   5
ATOM      5  C   UNL     1      17.964 -34.191  19.231  1.00  0.00     0.015 C 
BRANCH   5   6
ATOM      6  C   UNL     1      19.275 -34.605  19.924  1.00  0.00     0.028 C 
BRANCH   6   7
ATOM      7  C   UNL     1      20.006 -33.406  20.468  1.00  0.00    -0.028 C 
ATOM      8  C   UNL     1      19.941 -32.981  21.749  1.00  0.00    -0.070 CG0
ATOM      9  C   UNL     1      20.757 -31.771  22.133  1.00  0.00     0.039 C 
ATOM     10  G   UNL     1      19.063 -33.630  22.809  1.00  0.00     0.000 G0
ENDBRANCH   6   7
ENDBRANCH   5   6
ENDBRANCH   3   5
ENDBRANCH   1   3
BRANCH   1  11
ATOM     11  C   UNL     1      16.454 -32.710  21.311  1.00  0.00     0.087 C 
BRANCH  11  12
ATOM     12  C   UNL     1      16.563 -32.725  22.864  1.00  0.00     0.066 C 
BRANCH  12  13
ATOM     13  C   UNL     1      17.999 -32.748  23.383  1.00  0.00     0.140 C 
ATOM     14  O   UNL     1      18.309 -31.955  24.262  1.00  0.00    -0.299 OA
BRANCH  13  15
ATOM     15  C   UNL     1      19.074 -33.652  22.822  1.00  0.00     0.106 CG0
ATOM     16  G   UNL     1      19.919 -32.972  21.755  1.00  0.00     0.000 G0
ENDBRANCH  13  15
ENDBRANCH  12  13
BRANCH  12  17
ATOM     17  C   UNL     1      15.567 -31.833  23.691  1.00  0.00    -0.006 C 
ATOM     18  C   UNL     1      14.365 -32.629  24.222  1.00  0.00     0.008 C 
ATOM     19  C   UNL     1      15.086 -30.532  23.025  1.00  0.00     0.008 C 
ENDBRANCH  12  17
ENDBRANCH  11  12
ENDBRANCH   1  11
TORSDOF 1
ENDMDL
MODEL 6
REMARK VINA RESULT:    -3.822      1.949      4.358
REMARK INTER + INTRA:          -6.016
REMARK INTER:                  -5.849
REMARK INTRA:                  -0.166
REMARK UNBOUND:                -0.183
REMARK SMILES CC1=CCC[C@@H](C)C(=O)C[C@H](C(C)C)C(=O)C1
REMARK SMILES IDX 8 1 9 2 6 3 7 4 5 5 4 6 3 7 2 8 1 9 10 11 11 12 15 13 16 14
REMARK SMILES IDX 17 15 12 17 13 18 14 19
REMARK H PARENT
REMARK Flexibility Score: 70.00
ROOT
ATOM      1  C   UNL     1      19.027 -33.042  20.815  1.00  0.00     0.136 C 
ATOM      2  O   UNL     1      20.205 -33.351  20.728  1.00  0.00    -0.299 OA
ENDROOT
BRANCH   1   3
ATOM      3  C   UNL     1      18.633 -31.950  21.795  1.00  0.00     0.053 C 
ATOM      4  C   UNL     1      19.578 -30.748  21.663  1.00  0.00     0.016 C 
BRANCH   3   5
ATOM      5  C   UNL     1      18.593 -32.468  23.248  1.00  0.00     0.015 C 
BRANCH   5   6
ATOM      6  C   UNL     1      17.238 -32.193  23.925  1.00  0.00     0.028 C 
BRANCH   6   7
ATOM      7  C   UNL     1      16.295 -31.488  22.988  1.00  0.00    -0.028 C 
ATOM      8  C   UNL     1      15.326 -32.097  22.268  1.00  0.00    -0.070 CG0
ATOM      9  C   UNL     1      14.450 -31.235  21.392  1.00  0.00     0.039 C 
ATOM     10  G   UNL     1      15.097 -33.601  22.267  1.00  0.00     0.000 G0
ENDBRANCH   6   7
ENDBRANCH   5   6
ENDBRANCH   3   5
ENDBRANCH   1   3
BRANCH   1  11
ATOM     11  C   UNL     1      17.986 -33.874  20.099  1.00  0.00     0.087 C 
BRANCH  11  12
ATOM     12  C   UNL     1      17.080 -34.803  20.961  1.00  0.00     0.066 C 
BRANCH  12  13
ATOM     13  C   UNL     1      15.632 -34.330  21.067  1.00  0.00     0.140 C 
ATOM     14  O   UNL     1      14.900 -34.490  20.100  1.00  0.00    -0.299 OA
BRANCH  13  15
ATOM     15  C   UNL     1      15.076 -33.613  22.277  1.00  0.00     0.106 CG0
ATOM     16  G   UNL     1      15.322 -32.112  22.240  1.00  0.00     0.000 G0
ENDBRANCH  13  15
ENDBRANCH  12  13
BRANCH  12  17
ATOM     17  C   UNL     1      17.268 -36.358  20.831  1.00  0.00    -0.006 C 
ATOM     18  C   UNL     1      18.384 -36.895  21.741  1.00  0.00     0.008 C 
ATOM     19  C   UNL     1      17.431 -36.920  19.407  1.00  0.00     0.008 C 
ENDBRANCH  12  17
ENDBRANCH  11  12
ENDBRANCH   1  11
TORSDOF 1
ENDMDL
MODEL 7
REMARK VINA RESULT:    -3.806      3.340      4.298
REMARK INTER + INTRA:          -5.991
REMARK INTER:                  -5.749
REMARK INTRA:                  -0.243
REMARK UNBOUND:                -0.183
REMARK SMILES CC1=CCC[C@@H](C)C(=O)C[C@H](C(C)C)C(=O)C1
REMARK SMILES IDX 8 1 9 2 6 3 7 4 5 5 4 6 3 7 2 8 1 9 10 11 11 12 15 13 16 14
REMARK SMILES IDX 17 15 12 17 13 18 14 19
REMARK H PARENT
REMARK Flexibility Score: 70.00
ROOT
ATOM      1  C   UNL     1      15.468 -34.150  22.426  1.00  0.00     0.136 C 
ATOM      2  O   UNL     1      14.787 -33.497  21.652  1.00  0.00    -0.299 OA
ENDROOT
BRANCH   1   3
ATOM      3  C   UNL     1      15.596 -33.671  23.862  1.00  0.00     0.053 C 
ATOM      4  C   UNL     1      14.244 -33.162  24.378  1.00  0.00     0.016 C 
BRANCH   3   5
ATOM      5  C   UNL     1      16.690 -32.594  24.014  1.00  0.00     0.015 C 
BRANCH   5   6
ATOM      6  C   UNL     1      17.768 -33.000  25.036  1.00  0.00     0.028 C 
BRANCH   6   7
ATOM      7  C   UNL     1      17.491 -34.367  25.603  1.00  0.00    -0.028 C 
ATOM      8  C   UNL     1      18.121 -35.501  25.222  1.00  0.00    -0.070 CG0
ATOM      9  C   UNL     1      17.738 -36.787  25.912  1.00  0.00     0.039 C 
ATOM     10  G   UNL     1      19.163 -35.554  24.114  1.00  0.00     0.000 G0
ENDBRANCH   6   7
ENDBRANCH   5   6
ENDBRANCH   3   5
ENDBRANCH   1   3
BRANCH   1  11
ATOM     11  C   UNL     1      16.308 -35.291  21.896  1.00  0.00     0.087 C 
BRANCH  11  12
ATOM     12  C   UNL     1      17.851 -35.090  21.835  1.00  0.00     0.066 C 
BRANCH  12  13
ATOM     13  C   UNL     1      18.632 -36.006  22.776  1.00  0.00     0.140 C 
ATOM     14  O   UNL     1      18.775 -37.178  22.454  1.00  0.00    -0.299 OA
BRANCH  13  15
ATOM     15  C   UNL     1      19.176 -35.558  24.114  1.00  0.00     0.106 CG0
ATOM     16  G   UNL     1      18.111 -35.507  25.199  1.00  0.00     0.000 G0
ENDBRANCH  13  15
ENDBRANCH  12  13
BRANCH  12  17
ATOM     17  C   UNL     1      18.518 -34.845  20.434  1.00  0.00    -0.006 C 
ATOM     18  C   UNL     1      19.880 -34.141  20.544  1.00  0.00     0.008 C 
ATOM     19  C   UNL     1      17.652 -34.156  19.365  1.00  0.00     0.008 C 
ENDBRANCH  12  17
ENDBRANCH  11  12
ENDBRANCH   1  11
TORSDOF 1
ENDMDL
MODEL 8
REMARK VINA RESULT:    -3.781      1.839      3.969
REMARK INTER + INTRA:          -5.953
REMARK INTER:                  -6.065
REMARK INTRA:                   0.112
REMARK UNBOUND:                -0.183
REMARK SMILES CC1=CCC[C@@H](C)C(=O)C[C@H](C(C)C)C(=O)C1
REMARK SMILES IDX 8 1 9 2 6 3 7 4 5 5 4 6 3 7 2 8 1 9 10 11 11 12 15 13 16 14
REMARK SMILES IDX 17 15 12 17 13 18 14 19
REMARK H PARENT
REMARK Flexibility Score: 70.00
ROOT
ATOM      1  C   UNL     1      15.300 -34.396  21.185  1.00  0.00     0.136 C 
ATOM      2  O   UNL     1      14.755 -34.560  20.105  1.00  0.00    -0.299 OA
ENDROOT
BRANCH   1   3
ATOM      3  C   UNL     1      14.727 -33.361  22.137  1.00  0.00     0.053 C 
ATOM      4  C   UNL     1      14.270 -32.118  21.363  1.00  0.00     0.016 C 
BRANCH   3   5
ATOM      5  C   UNL     1      15.728 -32.986  23.250  1.00  0.00     0.015 C 
BRANCH   5   6
ATOM      6  C   UNL     1      16.579 -31.759  22.875  1.00  0.00     0.028 C 
BRANCH   6   7
ATOM      7  C   UNL     1      18.049 -32.080  22.929  1.00  0.00    -0.028 C 
ATOM      8  C   UNL     1      18.790 -32.474  21.870  1.00  0.00    -0.070 CG0
ATOM      9  C   UNL     1      20.260 -32.733  22.095  1.00  0.00     0.039 C 
ATOM     10  G   UNL     1      18.217 -32.705  20.480  1.00  0.00     0.000 G0
ENDBRANCH   6   7
ENDBRANCH   5   6
ENDBRANCH   3   5
ENDBRANCH   1   3
BRANCH   1  11
ATOM     11  C   UNL     1      16.622 -35.077  21.461  1.00  0.00     0.087 C 
BRANCH  11  12
ATOM     12  C   UNL     1      17.586 -35.306  20.260  1.00  0.00     0.066 C 
BRANCH  12  13
ATOM     13  C   UNL     1      18.486 -34.110  19.952  1.00  0.00     0.140 C 
ATOM     14  O   UNL     1      19.503 -34.305  19.300  1.00  0.00    -0.299 OA
BRANCH  13  15
ATOM     15  C   UNL     1      18.221 -32.713  20.468  1.00  0.00     0.106 CG0
ATOM     16  G   UNL     1      18.767 -32.488  21.871  1.00  0.00     0.000 G0
ENDBRANCH  13  15
ENDBRANCH  12  13
BRANCH  12  17
ATOM     17  C   UNL     1      18.270 -36.713  20.108  1.00  0.00    -0.006 C 
ATOM     18  C   UNL     1      17.615 -37.571  19.013  1.00  0.00     0.008 C 
ATOM     19  C   UNL     1      18.444 -37.541  21.394  1.00  0.00     0.008 C 
ENDBRANCH  12  17
ENDBRANCH  11  12
ENDBRANCH   1  11
TORSDOF 1
ENDMDL
MODEL 9
REMARK VINA RESULT:    -3.690      2.240      4.484
REMARK INTER + INTRA:          -5.815
REMARK INTER:                  -5.579
REMARK INTRA:                  -0.236
REMARK UNBOUND:                -0.183
REMARK SMILES CC1=CCC[C@@H](C)C(=O)C[C@H](C(C)C)C(=O)C1
REMARK SMILES IDX 8 1 9 2 6 3 7 4 5 5 4 6 3 7 2 8 1 9 10 11 11 12 15 13 16 14
REMARK SMILES IDX 17 15 12 17 13 18 14 19
REMARK H PARENT
REMARK Flexibility Score: 70.00
ROOT
ATOM      1  C   UNL     1      18.332 -31.684  21.560  1.00  0.00     0.136 C 
ATOM      2  O   UNL     1      18.252 -30.682  20.868  1.00  0.00    -0.299 OA
ENDROOT
BRANCH   1   3
ATOM      3  C   UNL     1      19.536 -32.593  21.385  1.00  0.00     0.053 C 
ATOM      4  C   UNL     1      20.832 -31.772  21.399  1.00  0.00     0.016 C 
BRANCH   3   5
ATOM      5  C   UNL     1      19.433 -33.446  20.104  1.00  0.00     0.015 C 
BRANCH   5   6
ATOM      6  C   UNL     1      19.336 -34.951  20.414  1.00  0.00     0.028 C 
BRANCH   6   7
ATOM      7  C   UNL     1      19.700 -35.236  21.846  1.00  0.00    -0.028 C 
ATOM      8  C   UNL     1      18.826 -35.634  22.798  1.00  0.00    -0.070 CG0
ATOM      9  C   UNL     1      19.364 -35.900  24.183  1.00  0.00     0.039 C 
ATOM     10  G   UNL     1      17.332 -35.791  22.558  1.00  0.00     0.000 G0
ENDBRANCH   6   7
ENDBRANCH   5   6
ENDBRANCH   3   5
ENDBRANCH   1   3
BRANCH   1  11
ATOM     11  C   UNL     1      17.155 -32.089  22.420  1.00  0.00     0.087 C 
BRANCH  11  12
ATOM     12  C   UNL     1      16.346 -33.350  21.997  1.00  0.00     0.066 C 
BRANCH  12  13
ATOM     13  C   UNL     1      16.529 -34.545  22.932  1.00  0.00     0.140 C 
ATOM     14  O   UNL     1      16.060 -34.474  24.059  1.00  0.00    -0.299 OA
BRANCH  13  15
ATOM     15  C   UNL     1      17.318 -35.780  22.559  1.00  0.00     0.106 CG0
ATOM     16  G   UNL     1      18.811 -35.624  22.804  1.00  0.00     0.000 G0
ENDBRANCH  13  15
ENDBRANCH  12  13
BRANCH  12  17
ATOM     17  C   UNL     1      14.888 -33.152  21.444  1.00  0.00    -0.006 C 
ATOM     18  C   UNL     1      14.620 -33.982  20.179  1.00  0.00     0.008 C 
ATOM     19  C   UNL     1      14.419 -31.701  21.233  1.00  0.00     0.008 C 
ENDBRANCH  12  17
ENDBRANCH  11  12
ENDBRANCH   1  11
TORSDOF 1
ENDMDL
