MODEL 1
REMARK VINA RESULT:    -8.168      0.000      0.000
REMARK INTER + INTRA:          -8.168
REMARK INTER:                  -8.168
REMARK INTRA:                   0.000
REMARK UNBOUND:                 0.000
REMARK SMILES C=C1CCC[C@@]2(C)C=C3OC(=O)C(C)=C3C[C@H]12
REMARK SMILES IDX 14 1 13 2 15 3 16 4 17 5 2 6 1 7 3 8 4 9 5 10 6 11 8 12 9 13
REMARK SMILES IDX 10 14 11 15 12 16 7 17
REMARK H PARENT
REMARK Flexibility Score: inf
ROOT
ATOM      1  C   UNL     1      14.679 -45.898  36.387  1.00  0.00     0.053 C 
ATOM      2  C   UNL     1      13.859 -46.384  37.539  1.00  0.00     0.041 C 
ATOM      3  C   UNL     1      12.534 -46.485  37.581  1.00  0.00     0.005 C 
ATOM      4  C   UNL     1      11.518 -46.087  36.551  1.00  0.00     0.049 C 
ATOM      5  C   UNL     1      10.198 -46.858  36.832  1.00  0.00     0.029 C 
ATOM      6  C   UNL     1       9.019 -46.519  35.929  1.00  0.00    -0.073 C 
ATOM      7  C   UNL     1       9.072 -45.611  34.938  1.00  0.00     0.008 C 
ATOM      8  C   UNL     1       7.762 -47.331  36.146  1.00  0.00     0.031 C 
ATOM      9  C   UNL     1       7.352 -47.321  37.626  1.00  0.00     0.005 C 
ATOM     10  C   UNL     1       8.523 -47.685  38.559  1.00  0.00     0.012 C 
ATOM     11  C   UNL     1       9.767 -46.779  38.343  1.00  0.00    -0.004 C 
ATOM     12  C   UNL     1      10.901 -47.276  39.231  1.00  0.00     0.027 C 
ATOM     13  C   UNL     1      12.164 -47.069  38.861  1.00  0.00     0.131 C 
ATOM     14  O   UNL     1      13.301 -47.370  39.597  1.00  0.00    -0.423 OA
ATOM     15  C   UNL     1      14.358 -46.957  38.793  1.00  0.00     0.339 C 
ATOM     16  O   UNL     1      15.569 -47.073  39.114  1.00  0.00    -0.246 OA
ATOM     17  C   UNL     1       9.448 -45.324  38.768  1.00  0.00     0.016 C 
ENDROOT
TORSDOF 0
ENDMDL
MODEL 2
REMARK VINA RESULT:    -7.736      4.373      6.040
REMARK INTER + INTRA:          -7.736
REMARK INTER:                  -7.736
REMARK INTRA:                   0.000
REMARK UNBOUND:                 0.000
REMARK SMILES C=C1CCC[C@@]2(C)C=C3OC(=O)C(C)=C3C[C@H]12
REMARK SMILES IDX 14 1 13 2 15 3 16 4 17 5 2 6 1 7 3 8 4 9 5 10 6 11 8 12 9 13
REMARK SMILES IDX 10 14 11 15 12 16 7 17
REMARK H PARENT
REMARK Flexibility Score: inf
ROOT
ATOM      1  C   UNL     1      10.073 -44.169  33.258  1.00  0.00     0.053 C 
ATOM      2  C   UNL     1       9.023 -45.209  33.040  1.00  0.00     0.041 C 
ATOM      3  C   UNL     1       8.623 -46.127  33.916  1.00  0.00     0.005 C 
ATOM      4  C   UNL     1       9.144 -46.415  35.294  1.00  0.00     0.049 C 
ATOM      5  C   UNL     1       8.052 -47.188  36.085  1.00  0.00     0.029 C 
ATOM      6  C   UNL     1       8.436 -47.640  37.489  1.00  0.00    -0.073 C 
ATOM      7  C   UNL     1       9.637 -47.407  38.047  1.00  0.00     0.008 C 
ATOM      8  C   UNL     1       7.346 -48.317  38.289  1.00  0.00     0.031 C 
ATOM      9  C   UNL     1       6.708 -49.462  37.490  1.00  0.00     0.005 C 
ATOM     10  C   UNL     1       6.289 -49.022  36.073  1.00  0.00     0.012 C 
ATOM     11  C   UNL     1       7.460 -48.395  35.267  1.00  0.00    -0.004 C 
ATOM     12  C   UNL     1       6.930 -47.901  33.927  1.00  0.00     0.027 C 
ATOM     13  C   UNL     1       7.535 -46.883  33.317  1.00  0.00     0.131 C 
ATOM     14  O   UNL     1       7.238 -46.380  32.058  1.00  0.00    -0.423 OA
ATOM     15  C   UNL     1       8.145 -45.343  31.873  1.00  0.00     0.339 C 
ATOM     16  O   UNL     1       8.189 -44.625  30.840  1.00  0.00    -0.246 OA
ATOM     17  C   UNL     1       8.540 -49.466  34.974  1.00  0.00     0.016 C 
ENDROOT
TORSDOF 0
ENDMDL
MODEL 3
REMARK VINA RESULT:    -7.668      1.296      2.053
REMARK INTER + INTRA:          -7.668
REMARK INTER:                  -7.668
REMARK INTRA:                   0.000
REMARK UNBOUND:                 0.000
REMARK SMILES C=C1CCC[C@@]2(C)C=C3OC(=O)C(C)=C3C[C@H]12
REMARK SMILES IDX 14 1 13 2 15 3 16 4 17 5 2 6 1 7 3 8 4 9 5 10 6 11 8 12 9 13
REMARK SMILES IDX 10 14 11 15 12 16 7 17
REMARK H PARENT
REMARK Flexibility Score: inf
ROOT
ATOM      1  C   UNL     1      14.039 -45.796  37.762  1.00  0.00     0.053 C 
ATOM      2  C   UNL     1      12.734 -46.392  38.179  1.00  0.00     0.041 C 
ATOM      3  C   UNL     1      11.615 -46.433  37.460  1.00  0.00     0.005 C 
ATOM      4  C   UNL     1      11.336 -45.849  36.106  1.00  0.00     0.049 C 
ATOM      5  C   UNL     1      10.113 -46.585  35.491  1.00  0.00     0.029 C 
ATOM      6  C   UNL     1       9.629 -46.070  34.142  1.00  0.00    -0.073 C 
ATOM      7  C   UNL     1      10.195 -45.040  33.488  1.00  0.00     0.008 C 
ATOM      8  C   UNL     1       8.494 -46.840  33.505  1.00  0.00     0.031 C 
ATOM      9  C   UNL     1       7.327 -47.010  34.488  1.00  0.00     0.005 C 
ATOM     10  C   UNL     1       7.788 -47.554  35.854  1.00  0.00     0.012 C 
ATOM     11  C   UNL     1       8.908 -46.690  36.498  1.00  0.00    -0.004 C 
ATOM     12  C   UNL     1       9.368 -47.358  37.788  1.00  0.00     0.027 C 
ATOM     13  C   UNL     1      10.614 -47.165  38.219  1.00  0.00     0.131 C 
ATOM     14  O   UNL     1      11.155 -47.619  39.413  1.00  0.00    -0.423 OA
ATOM     15  C   UNL     1      12.465 -47.154  39.403  1.00  0.00     0.339 C 
ATOM     16  O   UNL     1      13.293 -47.371  40.325  1.00  0.00    -0.246 OA
ATOM     17  C   UNL     1       8.355 -45.291  36.870  1.00  0.00     0.016 C 
ENDROOT
TORSDOF 0
ENDMDL
MODEL 4
REMARK VINA RESULT:    -7.576      2.324      4.325
REMARK INTER + INTRA:          -7.576
REMARK INTER:                  -7.576
REMARK INTRA:                   0.000
REMARK UNBOUND:                 0.000
REMARK SMILES C=C1CCC[C@@]2(C)C=C3OC(=O)C(C)=C3C[C@H]12
REMARK SMILES IDX 14 1 13 2 15 3 16 4 17 5 2 6 1 7 3 8 4 9 5 10 6 11 8 12 9 13
REMARK SMILES IDX 10 14 11 15 12 16 7 17
REMARK H PARENT
REMARK Flexibility Score: inf
ROOT
ATOM      1  C   UNL     1      10.941 -46.823  39.429  1.00  0.00     0.053 C 
ATOM      2  C   UNL     1      10.607 -46.825  37.972  1.00  0.00     0.041 C 
ATOM      3  C   UNL     1       9.554 -47.404  37.401  1.00  0.00     0.005 C 
ATOM      4  C   UNL     1       8.483 -48.251  38.024  1.00  0.00     0.049 C 
ATOM      5  C   UNL     1       7.243 -48.250  37.087  1.00  0.00     0.029 C 
ATOM      6  C   UNL     1       6.076 -49.128  37.519  1.00  0.00    -0.073 C 
ATOM      7  C   UNL     1       6.077 -49.878  38.636  1.00  0.00     0.008 C 
ATOM      8  C   UNL     1       4.838 -49.061  36.653  1.00  0.00     0.031 C 
ATOM      9  C   UNL     1       5.189 -49.288  35.176  1.00  0.00     0.005 C 
ATOM     10  C   UNL     1       6.353 -48.392  34.708  1.00  0.00     0.012 C 
ATOM     11  C   UNL     1       7.623 -48.548  35.589  1.00  0.00    -0.004 C 
ATOM     12  C   UNL     1       8.679 -47.556  35.116  1.00  0.00     0.027 C 
ATOM     13  C   UNL     1       9.582 -47.096  35.980  1.00  0.00     0.131 C 
ATOM     14  O   UNL     1      10.659 -46.271  35.689  1.00  0.00    -0.423 OA
ATOM     15  C   UNL     1      11.300 -46.089  36.909  1.00  0.00     0.339 C 
ATOM     16  O   UNL     1      12.331 -45.383  37.062  1.00  0.00    -0.246 OA
ATOM     17  C   UNL     1       8.216 -49.970  35.425  1.00  0.00     0.016 C 
ENDROOT
TORSDOF 0
ENDMDL
MODEL 5
REMARK VINA RESULT:    -7.371      3.456      5.901
REMARK INTER + INTRA:          -7.371
REMARK INTER:                  -7.371
REMARK INTRA:                   0.000
REMARK UNBOUND:                 0.000
REMARK SMILES C=C1CCC[C@@]2(C)C=C3OC(=O)C(C)=C3C[C@H]12
REMARK SMILES IDX 14 1 13 2 15 3 16 4 17 5 2 6 1 7 3 8 4 9 5 10 6 11 8 12 9 13
REMARK SMILES IDX 10 14 11 15 12 16 7 17
REMARK H PARENT
REMARK Flexibility Score: inf
ROOT
ATOM      1  C   UNL     1       6.101 -48.402  33.604  1.00  0.00     0.053 C 
ATOM      2  C   UNL     1       7.329 -47.552  33.630  1.00  0.00     0.041 C 
ATOM      3  C   UNL     1       8.044 -47.224  34.703  1.00  0.00     0.005 C 
ATOM      4  C   UNL     1       7.787 -47.541  36.147  1.00  0.00     0.049 C 
ATOM      5  C   UNL     1       9.123 -47.403  36.930  1.00  0.00     0.029 C 
ATOM      6  C   UNL     1       9.040 -47.610  38.437  1.00  0.00    -0.073 C 
ATOM      7  C   UNL     1       7.900 -47.895  39.092  1.00  0.00     0.008 C 
ATOM      8  C   UNL     1      10.353 -47.560  39.187  1.00  0.00     0.031 C 
ATOM      9  C   UNL     1      11.133 -46.284  38.842  1.00  0.00     0.005 C 
ATOM     10  C   UNL     1      11.251 -46.065  37.321  1.00  0.00     0.012 C 
ATOM     11  C   UNL     1       9.871 -46.057  36.606  1.00  0.00    -0.004 C 
ATOM     12  C   UNL     1      10.093 -45.938  35.103  1.00  0.00     0.027 C 
ATOM     13  C   UNL     1       9.192 -46.447  34.264  1.00  0.00     0.131 C 
ATOM     14  O   UNL     1       9.197 -46.339  32.881  1.00  0.00    -0.423 OA
ATOM     15  C   UNL     1       8.056 -47.019  32.472  1.00  0.00     0.339 C 
ATOM     16  O   UNL     1       7.712 -47.153  31.269  1.00  0.00    -0.246 OA
ATOM     17  C   UNL     1       9.045 -44.825  37.053  1.00  0.00     0.016 C 
ENDROOT
TORSDOF 0
ENDMDL
MODEL 6
REMARK VINA RESULT:    -7.076      2.583      4.775
REMARK INTER + INTRA:          -7.076
REMARK INTER:                  -7.076
REMARK INTRA:                   0.000
REMARK UNBOUND:                 0.000
REMARK SMILES C=C1CCC[C@@]2(C)C=C3OC(=O)C(C)=C3C[C@H]12
REMARK SMILES IDX 14 1 13 2 15 3 16 4 17 5 2 6 1 7 3 8 4 9 5 10 6 11 8 12 9 13
REMARK SMILES IDX 10 14 11 15 12 16 7 17
REMARK H PARENT
REMARK Flexibility Score: inf
ROOT
ATOM      1  C   UNL     1       9.471 -47.538  38.847  1.00  0.00     0.053 C 
ATOM      2  C   UNL     1       9.888 -47.051  37.497  1.00  0.00     0.041 C 
ATOM      3  C   UNL     1       9.211 -47.189  36.360  1.00  0.00     0.005 C 
ATOM      4  C   UNL     1       7.919 -47.909  36.107  1.00  0.00     0.049 C 
ATOM      5  C   UNL     1       7.294 -47.360  34.794  1.00  0.00     0.029 C 
ATOM      6  C   UNL     1       6.009 -48.034  34.331  1.00  0.00    -0.073 C 
ATOM      7  C   UNL     1       5.418 -49.049  34.987  1.00  0.00     0.008 C 
ATOM      8  C   UNL     1       5.356 -47.444  33.101  1.00  0.00     0.031 C 
ATOM      9  C   UNL     1       6.365 -47.317  31.951  1.00  0.00     0.005 C 
ATOM     10  C   UNL     1       7.665 -46.616  32.390  1.00  0.00     0.012 C 
ATOM     11  C   UNL     1       8.333 -47.300  33.614  1.00  0.00    -0.004 C 
ATOM     12  C   UNL     1       9.548 -46.482  34.037  1.00  0.00     0.027 C 
ATOM     13  C   UNL     1       9.946 -46.506  35.308  1.00  0.00     0.131 C 
ATOM     14  O   UNL     1      11.079 -45.900  35.830  1.00  0.00    -0.423 OA
ATOM     15  C   UNL     1      11.057 -46.223  37.182  1.00  0.00     0.339 C 
ATOM     16  O   UNL     1      11.928 -45.844  38.008  1.00  0.00    -0.246 OA
ATOM     17  C   UNL     1       8.836 -48.714  33.228  1.00  0.00     0.016 C 
ENDROOT
TORSDOF 0
ENDMDL
MODEL 7
REMARK VINA RESULT:    -6.940      3.441      5.707
REMARK INTER + INTRA:          -6.940
REMARK INTER:                  -6.940
REMARK INTRA:                   0.000
REMARK UNBOUND:                 0.000
REMARK SMILES C=C1CCC[C@@]2(C)C=C3OC(=O)C(C)=C3C[C@H]12
REMARK SMILES IDX 14 1 13 2 15 3 16 4 17 5 2 6 1 7 3 8 4 9 5 10 6 11 8 12 9 13
REMARK SMILES IDX 10 14 11 15 12 16 7 17
REMARK H PARENT
REMARK Flexibility Score: inf
ROOT
ATOM      1  C   UNL     1       7.760 -49.581  36.355  1.00  0.00     0.053 C 
ATOM      2  C   UNL     1       8.368 -48.219  36.262  1.00  0.00     0.041 C 
ATOM      3  C   UNL     1       8.254 -47.368  35.246  1.00  0.00     0.005 C 
ATOM      4  C   UNL     1       7.570 -47.554  33.924  1.00  0.00     0.049 C 
ATOM      5  C   UNL     1       7.268 -46.154  33.320  1.00  0.00     0.029 C 
ATOM      6  C   UNL     1       6.642 -46.144  31.931  1.00  0.00    -0.073 C 
ATOM      7  C   UNL     1       6.355 -47.257  31.232  1.00  0.00     0.008 C 
ATOM      8  C   UNL     1       6.271 -44.786  31.380  1.00  0.00     0.031 C 
ATOM      9  C   UNL     1       7.458 -43.817  31.463  1.00  0.00     0.005 C 
ATOM     10  C   UNL     1       8.093 -43.791  32.867  1.00  0.00     0.012 C 
ATOM     11  C   UNL     1       8.520 -45.201  33.360  1.00  0.00    -0.004 C 
ATOM     12  C   UNL     1       9.040 -45.091  34.788  1.00  0.00     0.027 C 
ATOM     13  C   UNL     1       8.941 -46.138  35.606  1.00  0.00     0.131 C 
ATOM     14  O   UNL     1       9.449 -46.231  36.893  1.00  0.00    -0.423 OA
ATOM     15  C   UNL     1       9.100 -47.509  37.316  1.00  0.00     0.339 C 
ATOM     16  O   UNL     1       9.379 -47.973  38.452  1.00  0.00    -0.246 OA
ATOM     17  C   UNL     1       9.677 -45.746  32.485  1.00  0.00     0.016 C 
ENDROOT
TORSDOF 0
ENDMDL
MODEL 8
REMARK VINA RESULT:    -6.752      4.986      6.953
REMARK INTER + INTRA:          -6.752
REMARK INTER:                  -6.752
REMARK INTRA:                   0.000
REMARK UNBOUND:                 0.000
REMARK SMILES C=C1CCC[C@@]2(C)C=C3OC(=O)C(C)=C3C[C@H]12
REMARK SMILES IDX 14 1 13 2 15 3 16 4 17 5 2 6 1 7 3 8 4 9 5 10 6 11 8 12 9 13
REMARK SMILES IDX 10 14 11 15 12 16 7 17
REMARK H PARENT
REMARK Flexibility Score: inf
ROOT
ATOM      1  C   UNL     1       5.619 -50.513  34.748  1.00  0.00     0.053 C 
ATOM      2  C   UNL     1       6.670 -49.464  34.921  1.00  0.00     0.041 C 
ATOM      3  C   UNL     1       6.830 -48.372  34.179  1.00  0.00     0.005 C 
ATOM      4  C   UNL     1       6.075 -47.936  32.958  1.00  0.00     0.049 C 
ATOM      5  C   UNL     1       6.270 -46.404  32.775  1.00  0.00     0.029 C 
ATOM      6  C   UNL     1       5.638 -45.792  31.531  1.00  0.00    -0.073 C 
ATOM      7  C   UNL     1       4.945 -46.498  30.620  1.00  0.00     0.008 C 
ATOM      8  C   UNL     1       5.756 -44.291  31.398  1.00  0.00     0.031 C 
ATOM      9  C   UNL     1       7.214 -43.838  31.562  1.00  0.00     0.005 C 
ATOM     10  C   UNL     1       7.869 -44.426  32.827  1.00  0.00     0.012 C 
ATOM     11  C   UNL     1       7.781 -45.976  32.884  1.00  0.00    -0.004 C 
ATOM     12  C   UNL     1       8.360 -46.456  34.210  1.00  0.00     0.027 C 
ATOM     13  C   UNL     1       7.924 -47.597  34.741  1.00  0.00     0.131 C 
ATOM     14  O   UNL     1       8.413 -48.217  35.882  1.00  0.00    -0.423 OA
ATOM     15  C   UNL     1       7.647 -49.369  36.011  1.00  0.00     0.339 C 
ATOM     16  O   UNL     1       7.784 -50.203  36.944  1.00  0.00    -0.246 OA
ATOM     17  C   UNL     1       8.633 -46.602  31.751  1.00  0.00     0.016 C 
ENDROOT
TORSDOF 0
ENDMDL
MODEL 9
REMARK VINA RESULT:    -6.504     12.573     14.671
REMARK INTER + INTRA:          -6.504
REMARK INTER:                  -6.504
REMARK INTRA:                   0.000
REMARK UNBOUND:                 0.000
REMARK SMILES C=C1CCC[C@@]2(C)C=C3OC(=O)C(C)=C3C[C@H]12
REMARK SMILES IDX 14 1 13 2 15 3 16 4 17 5 2 6 1 7 3 8 4 9 5 10 6 11 8 12 9 13
REMARK SMILES IDX 10 14 11 15 12 16 7 17
REMARK H PARENT
REMARK Flexibility Score: inf
ROOT
ATOM      1  C   UNL     1       4.719 -35.150  43.402  1.00  0.00     0.053 C 
ATOM      2  C   UNL     1       5.299 -35.364  44.763  1.00  0.00     0.041 C 
ATOM      3  C   UNL     1       6.568 -35.646  45.048  1.00  0.00     0.005 C 
ATOM      4  C   UNL     1       7.718 -35.891  44.117  1.00  0.00     0.049 C 
ATOM      5  C   UNL     1       9.044 -35.663  44.896  1.00  0.00     0.029 C 
ATOM      6  C   UNL     1      10.329 -35.947  44.128  1.00  0.00    -0.073 C 
ATOM      7  C   UNL     1      10.360 -36.373  42.853  1.00  0.00     0.008 C 
ATOM      8  C   UNL     1      11.618 -35.643  44.857  1.00  0.00     0.031 C 
ATOM      9  C   UNL     1      11.636 -36.309  46.240  1.00  0.00     0.005 C 
ATOM     10  C   UNL     1      10.356 -36.017  47.046  1.00  0.00     0.012 C 
ATOM     11  C   UNL     1       9.061 -36.409  46.281  1.00  0.00    -0.004 C 
ATOM     12  C   UNL     1       7.852 -35.991  47.109  1.00  0.00     0.027 C 
ATOM     13  C   UNL     1       6.706 -35.699  46.495  1.00  0.00     0.131 C 
ATOM     14  O   UNL     1       5.496 -35.399  47.104  1.00  0.00    -0.423 OA
ATOM     15  C   UNL     1       4.617 -35.185  46.048  1.00  0.00     0.339 C 
ATOM     16  O   UNL     1       3.406 -34.876  46.196  1.00  0.00    -0.246 OA
ATOM     17  C   UNL     1       8.992 -37.946  46.100  1.00  0.00     0.016 C 
ENDROOT
TORSDOF 0
ENDMDL
