MODEL 1
REMARK VINA RESULT:    -2.061      0.000      0.000
REMARK INTER + INTRA:          -2.061
REMARK INTER:                  -2.061
REMARK INTRA:                   0.000
REMARK UNBOUND:                 0.000
REMARK SMILES CC(=O)[O-]
REMARK SMILES IDX 1 1 2 2 3 3 4 4
REMARK H PARENT
REMARK Flexibility Score: inf
ROOT
ATOM      1  C   UNL     1      10.204 -14.802  23.723  1.00  0.00     0.063 C 
ATOM      2  C   UNL     1       8.848 -14.776  24.345  1.00  0.00     0.038 C 
ATOM      3  O   UNL     1       7.851 -14.411  23.670  1.00  0.00    -0.550 OA
ATOM      4  O   UNL     1       8.692 -15.103  25.686  1.00  0.00    -0.550 OA
ENDROOT
TORSDOF 0
ENDMDL
MODEL 2
REMARK VINA RESULT:    -2.038     11.324     11.881
REMARK INTER + INTRA:          -2.038
REMARK INTER:                  -2.038
REMARK INTRA:                   0.000
REMARK UNBOUND:                 0.000
REMARK SMILES CC(=O)[O-]
REMARK SMILES IDX 1 1 2 2 3 3 4 4
REMARK H PARENT
REMARK Flexibility Score: inf
ROOT
ATOM      1  C   UNL     1      20.208 -18.211  21.384  1.00  0.00     0.063 C 
ATOM      2  C   UNL     1      19.767 -18.967  22.592  1.00  0.00     0.038 C 
ATOM      3  O   UNL     1      20.616 -19.545  23.321  1.00  0.00    -0.550 OA
ATOM      4  O   UNL     1      18.414 -19.082  22.885  1.00  0.00    -0.550 OA
ENDROOT
TORSDOF 0
ENDMDL
MODEL 3
REMARK VINA RESULT:    -2.032      1.357      2.067
REMARK INTER + INTRA:          -2.032
REMARK INTER:                  -2.032
REMARK INTRA:                   0.000
REMARK UNBOUND:                 0.000
REMARK SMILES CC(=O)[O-]
REMARK SMILES IDX 1 1 2 2 3 3 4 4
REMARK H PARENT
REMARK Flexibility Score: inf
ROOT
ATOM      1  C   UNL     1       8.664 -15.423  25.701  1.00  0.00     0.063 C 
ATOM      2  C   UNL     1       8.849 -14.783  24.366  1.00  0.00     0.038 C 
ATOM      3  O   UNL     1      10.007 -14.536  23.939  1.00  0.00    -0.550 OA
ATOM      4  O   UNL     1       7.743 -14.408  23.614  1.00  0.00    -0.550 OA
ENDROOT
TORSDOF 0
ENDMDL
MODEL 4
REMARK VINA RESULT:    -2.030      1.417      1.829
REMARK INTER + INTRA:          -2.030
REMARK INTER:                  -2.030
REMARK INTRA:                   0.000
REMARK UNBOUND:                 0.000
REMARK SMILES CC(=O)[O-]
REMARK SMILES IDX 1 1 2 2 3 3 4 4
REMARK H PARENT
REMARK Flexibility Score: inf
ROOT
ATOM      1  C   UNL     1       9.594 -14.776  24.076  1.00  0.00     0.063 C 
ATOM      2  C   UNL     1       9.399 -15.526  25.350  1.00  0.00     0.038 C 
ATOM      3  O   UNL     1       8.302 -15.456  25.963  1.00  0.00    -0.550 OA
ATOM      4  O   UNL     1      10.446 -16.260  25.893  1.00  0.00    -0.550 OA
ENDROOT
TORSDOF 0
ENDMDL
MODEL 5
REMARK VINA RESULT:    -1.990     12.503     12.944
REMARK INTER + INTRA:          -1.990
REMARK INTER:                  -1.990
REMARK INTRA:                   0.000
REMARK UNBOUND:                 0.000
REMARK SMILES CC(=O)[O-]
REMARK SMILES IDX 1 1 2 2 3 3 4 4
REMARK H PARENT
REMARK Flexibility Score: inf
ROOT
ATOM      1  C   UNL     1      19.500 -18.922  22.770  1.00  0.00     0.063 C 
ATOM      2  C   UNL     1      20.730 -19.159  21.960  1.00  0.00     0.038 C 
ATOM      3  O   UNL     1      21.015 -18.391  21.004  1.00  0.00    -0.550 OA
ATOM      4  O   UNL     1      21.535 -20.260  22.223  1.00  0.00    -0.550 OA
ENDROOT
TORSDOF 0
ENDMDL
MODEL 6
REMARK VINA RESULT:    -1.988     12.667     13.084
REMARK INTER + INTRA:          -1.988
REMARK INTER:                  -1.988
REMARK INTRA:                   0.000
REMARK UNBOUND:                 0.000
REMARK SMILES CC(=O)[O-]
REMARK SMILES IDX 1 1 2 2 3 3 4 4
REMARK H PARENT
REMARK Flexibility Score: inf
ROOT
ATOM      1  C   UNL     1      20.167 -18.258  21.396  1.00  0.00     0.063 C 
ATOM      2  C   UNL     1      20.951 -17.448  20.420  1.00  0.00     0.038 C 
ATOM      3  O   UNL     1      21.851 -17.991  19.727  1.00  0.00    -0.550 OA
ATOM      4  O   UNL     1      20.729 -16.081  20.312  1.00  0.00    -0.550 OA
ENDROOT
TORSDOF 0
ENDMDL
MODEL 7
REMARK VINA RESULT:    -1.985      1.626      1.683
REMARK INTER + INTRA:          -1.985
REMARK INTER:                  -1.985
REMARK INTRA:                   0.000
REMARK UNBOUND:                 0.000
REMARK SMILES CC(=O)[O-]
REMARK SMILES IDX 1 1 2 2 3 3 4 4
REMARK H PARENT
REMARK Flexibility Score: inf
ROOT
ATOM      1  C   UNL     1      10.253 -16.268  25.539  1.00  0.00     0.063 C 
ATOM      2  C   UNL     1       8.950 -15.543  25.498  1.00  0.00     0.038 C 
ATOM      3  O   UNL     1       8.822 -14.514  24.784  1.00  0.00    -0.550 OA
ATOM      4  O   UNL     1       7.891 -15.969  26.289  1.00  0.00    -0.550 OA
ENDROOT
TORSDOF 0
ENDMDL
MODEL 8
REMARK VINA RESULT:    -1.963     12.009     12.501
REMARK INTER + INTRA:          -1.963
REMARK INTER:                  -1.963
REMARK INTRA:                   0.000
REMARK UNBOUND:                 0.000
REMARK SMILES CC(=O)[O-]
REMARK SMILES IDX 1 1 2 2 3 3 4 4
REMARK H PARENT
REMARK Flexibility Score: inf
ROOT
ATOM      1  C   UNL     1      21.041 -20.361  22.958  1.00  0.00     0.063 C 
ATOM      2  C   UNL     1      20.247 -19.213  22.432  1.00  0.00     0.038 C 
ATOM      3  O   UNL     1      19.122 -18.942  22.930  1.00  0.00    -0.550 OA
ATOM      4  O   UNL     1      20.720 -18.474  21.355  1.00  0.00    -0.550 OA
ENDROOT
TORSDOF 0
ENDMDL
MODEL 9
REMARK VINA RESULT:    -1.926     12.649     13.158
REMARK INTER + INTRA:          -1.926
REMARK INTER:                  -1.926
REMARK INTRA:                   0.000
REMARK UNBOUND:                 0.000
REMARK SMILES CC(=O)[O-]
REMARK SMILES IDX 1 1 2 2 3 3 4 4
REMARK H PARENT
REMARK Flexibility Score: inf
ROOT
ATOM      1  C   UNL     1      19.892 -19.031  22.800  1.00  0.00     0.063 C 
ATOM      2  C   UNL     1      20.703 -20.275  22.946  1.00  0.00     0.038 C 
ATOM      3  O   UNL     1      21.714 -20.458  22.219  1.00  0.00    -0.550 OA
ATOM      4  O   UNL     1      20.313 -21.258  23.846  1.00  0.00    -0.550 OA
ENDROOT
TORSDOF 0
ENDMDL
