MODEL 1
REMARK VINA RESULT:     1.172      0.000      0.000
REMARK INTER + INTRA:           1.362
REMARK INTER:                   1.377
REMARK INTRA:                  -0.016
REMARK UNBOUND:                -0.016
REMARK SMILES CCCCC(=O)[O-]
REMARK SMILES IDX 4 1 5 2 6 3 7 4 3 5 2 6 1 7
REMARK H PARENT
REMARK Flexibility Score: inf
ROOT
ATOM      1  C   UNL     1      10.127  11.840  16.498  1.00  0.00     0.053 C 
ENDROOT
BRANCH   1   2
ATOM      2  C   UNL     1       8.972  12.347  15.695  1.00  0.00     0.041 C 
ATOM      3  O   UNL     1       8.046  12.993  16.254  1.00  0.00    -0.550 OA
ATOM      4  O   UNL     1       8.890  12.064  14.338  1.00  0.00    -0.550 OA
ENDBRANCH   1   2
BRANCH   1   5
ATOM      5  C   UNL     1      11.325  12.790  16.368  1.00  0.00     0.006 C 
BRANCH   5   6
ATOM      6  C   UNL     1      12.531  12.335  17.207  1.00  0.00    -0.003 C 
ATOM      7  C   UNL     1      13.736  13.264  17.061  1.00  0.00     0.004 C 
ENDBRANCH   5   6
ENDBRANCH   1   5
TORSDOF 3
ENDMDL
MODEL 2
REMARK VINA RESULT:     1.899      3.223      4.396
REMARK INTER + INTRA:           2.216
REMARK INTER:                   2.232
REMARK INTRA:                  -0.016
REMARK UNBOUND:                -0.016
REMARK SMILES CCCCC(=O)[O-]
REMARK SMILES IDX 4 1 5 2 6 3 7 4 3 5 2 6 1 7
REMARK H PARENT
REMARK Flexibility Score: inf
ROOT
ATOM      1  C   UNL     1      12.106  12.297  17.406  1.00  0.00     0.053 C 
ENDROOT
BRANCH   1   2
ATOM      2  C   UNL     1      13.507  12.677  17.048  1.00  0.00     0.041 C 
ATOM      3  O   UNL     1      13.836  13.890  16.973  1.00  0.00    -0.550 OA
ATOM      4  O   UNL     1      14.441  11.692  16.748  1.00  0.00    -0.550 OA
ENDBRANCH   1   2
BRANCH   1   5
ATOM      5  C   UNL     1      11.135  12.738  16.303  1.00  0.00     0.006 C 
BRANCH   5   6
ATOM      6  C   UNL     1       9.812  11.955  16.335  1.00  0.00    -0.003 C 
ATOM      7  C   UNL     1       8.969  12.168  15.078  1.00  0.00     0.004 C 
ENDBRANCH   5   6
ENDBRANCH   1   5
TORSDOF 3
ENDMDL
MODEL 3
REMARK VINA RESULT:     2.918      3.751      4.712
REMARK INTER + INTRA:           3.413
REMARK INTER:                   3.448
REMARK INTRA:                  -0.035
REMARK UNBOUND:                -0.016
REMARK SMILES CCCCC(=O)[O-]
REMARK SMILES IDX 4 1 5 2 6 3 7 4 3 5 2 6 1 7
REMARK H PARENT
REMARK Flexibility Score: inf
ROOT
ATOM      1  C   UNL     1      13.888  14.024  16.673  1.00  0.00     0.053 C 
ENDROOT
BRANCH   1   2
ATOM      2  C   UNL     1      13.662  12.617  17.129  1.00  0.00     0.041 C 
ATOM      3  O   UNL     1      12.733  12.355  17.937  1.00  0.00    -0.550 OA
ATOM      4  O   UNL     1      14.507  11.602  16.699  1.00  0.00    -0.550 OA
ENDBRANCH   1   2
BRANCH   1   5
ATOM      5  C   UNL     1      14.744  14.785  17.694  1.00  0.00     0.006 C 
BRANCH   5   6
ATOM      6  C   UNL     1      14.553  16.307  17.606  1.00  0.00    -0.003 C 
ATOM      7  C   UNL     1      13.635  16.721  16.456  1.00  0.00     0.004 C 
ENDBRANCH   5   6
ENDBRANCH   1   5
TORSDOF 3
ENDMDL
MODEL 4
REMARK VINA RESULT:     3.005      4.095      5.069
REMARK INTER + INTRA:           3.517
REMARK INTER:                   3.543
REMARK INTRA:                  -0.026
REMARK UNBOUND:                -0.016
REMARK SMILES CCCCC(=O)[O-]
REMARK SMILES IDX 4 1 5 2 6 3 7 4 3 5 2 6 1 7
REMARK H PARENT
REMARK Flexibility Score: inf
ROOT
ATOM      1  C   UNL     1      14.567  14.192  17.034  1.00  0.00     0.053 C 
ENDROOT
BRANCH   1   2
ATOM      2  C   UNL     1      14.102  15.611  17.122  1.00  0.00     0.041 C 
ATOM      3  O   UNL     1      13.277  16.061  16.283  1.00  0.00    -0.550 OA
ATOM      4  O   UNL     1      14.615  16.452  18.101  1.00  0.00    -0.550 OA
ENDBRANCH   1   2
BRANCH   1   5
ATOM      5  C   UNL     1      13.373  13.232  17.110  1.00  0.00     0.006 C 
BRANCH   5   6
ATOM      6  C   UNL     1      13.803  11.757  17.142  1.00  0.00    -0.003 C 
ATOM      7  C   UNL     1      15.068  11.493  16.324  1.00  0.00     0.004 C 
ENDBRANCH   5   6
ENDBRANCH   1   5
TORSDOF 3
ENDMDL
