MODEL 1
REMARK VINA RESULT:    -6.101      0.000      0.000
REMARK INTER + INTRA:          -7.607
REMARK INTER:                  -7.349
REMARK INTRA:                  -0.258
REMARK UNBOUND:                -0.258
REMARK SMILES Oc1cc(O)c2c(c1)O[C@@H](c1ccc(O)c(O)c1)[C@H](O)C2
REMARK SMILES IDX 21 1 19 2 10 3 9 4 7 5 8 6 2 7 3 8 4 9 6 10 20 11 11 13
REMARK SMILES IDX 18 14 12 15 16 16 13 17 14 18 17 19 15 21 5 23 1 25
REMARK H PARENT 20 12 17 20 15 22 5 24 1 26
REMARK Flexibility Score: inf
ROOT
ATOM      1  C   UNL     1     -30.865  21.250 -43.775  1.00  0.00     0.079 C 
ATOM      2  C   UNL     1     -31.349  19.910 -43.189  1.00  0.00     0.164 C 
ATOM      3  C   UNL     1     -30.643  18.733 -43.892  1.00  0.00     0.232 C 
ATOM      4  O   UNL     1     -29.228  18.884 -43.777  1.00  0.00    -0.482 OA
ATOM      5  C   UNL     1     -28.598  20.130 -43.868  1.00  0.00     0.131 A 
ATOM      6  C   UNL     1     -27.203  20.180 -43.937  1.00  0.00     0.093 A 
ATOM      7  C   UNL     1     -26.546  21.409 -44.043  1.00  0.00     0.122 A 
ATOM      8  C   UNL     1     -27.287  22.591 -44.092  1.00  0.00     0.092 A 
ATOM      9  C   UNL     1     -28.685  22.561 -44.026  1.00  0.00     0.126 A 
ATOM     10  C   UNL     1     -29.355  21.324 -43.874  1.00  0.00     0.039 A 
ENDROOT
BRANCH   2  11
ATOM     11  O   UNL     1     -32.747  19.804 -43.288  1.00  0.00    -0.389 OA
ATOM     12  H   UNL     1     -33.021  18.971 -42.821  1.00  0.00     0.211 HD
ENDBRANCH   2  11
BRANCH   3  13
ATOM     13  C   UNL     1     -31.065  17.410 -43.298  1.00  0.00    -0.001 A 
ATOM     14  C   UNL     1     -31.199  17.270 -41.907  1.00  0.00     0.057 A 
ATOM     15  C   UNL     1     -31.279  16.293 -44.124  1.00  0.00     0.012 A 
ATOM     16  C   UNL     1     -31.561  16.035 -41.348  1.00  0.00     0.157 A 
ATOM     17  C   UNL     1     -31.642  15.064 -43.568  1.00  0.00     0.050 A 
ATOM     18  C   UNL     1     -31.785  14.931 -42.181  1.00  0.00     0.157 A 
BRANCH  16  19
ATOM     19  O   UNL     1     -31.701  15.898 -39.968  1.00  0.00    -0.504 OA
ATOM     20  H   UNL     1     -30.894  15.886 -39.353  1.00  0.00     0.293 HD
ENDBRANCH  16  19
BRANCH  18  21
ATOM     21  O   UNL     1     -32.148  13.706 -41.622  1.00  0.00    -0.504 OA
ATOM     22  H   UNL     1     -32.103  12.847 -42.156  1.00  0.00     0.293 HD
ENDBRANCH  18  21
ENDBRANCH   3  13
BRANCH   9  23
ATOM     23  O   UNL     1     -29.373  23.773 -44.125  1.00  0.00    -0.507 OA
ATOM     24  H   UNL     1     -29.655  24.182 -45.006  1.00  0.00     0.293 HD
ENDBRANCH   9  23
BRANCH   7  25
ATOM     25  O   UNL     1     -25.156  21.467 -44.110  1.00  0.00    -0.508 OA
ATOM     26  H   UNL     1     -24.574  20.757 -43.679  1.00  0.00     0.293 HD
ENDBRANCH   7  25
TORSDOF 6
ENDMDL
MODEL 2
REMARK VINA RESULT:    -5.602      2.569      5.089
REMARK INTER + INTRA:          -7.006
REMARK INTER:                  -6.749
REMARK INTRA:                  -0.257
REMARK UNBOUND:                -0.258
REMARK SMILES Oc1cc(O)c2c(c1)O[C@@H](c1ccc(O)c(O)c1)[C@H](O)C2
REMARK SMILES IDX 21 1 19 2 10 3 9 4 7 5 8 6 2 7 3 8 4 9 6 10 20 11 11 13
REMARK SMILES IDX 18 14 12 15 16 16 13 17 14 18 17 19 15 21 5 23 1 25
REMARK H PARENT 20 12 17 20 15 22 5 24 1 26
REMARK Flexibility Score: inf
ROOT
ATOM      1  C   UNL     1     -24.747  18.918 -43.830  1.00  0.00     0.079 C 
ATOM      2  C   UNL     1     -26.276  18.972 -44.007  1.00  0.00     0.164 C 
ATOM      3  C   UNL     1     -26.922  19.741 -42.837  1.00  0.00     0.232 C 
ATOM      4  O   UNL     1     -26.351  21.046 -42.747  1.00  0.00    -0.482 OA
ATOM      5  C   UNL     1     -24.990  21.285 -42.970  1.00  0.00     0.131 A 
ATOM      6  C   UNL     1     -24.468  22.548 -42.679  1.00  0.00     0.093 A 
ATOM      7  C   UNL     1     -23.109  22.812 -42.878  1.00  0.00     0.122 A 
ATOM      8  C   UNL     1     -22.270  21.806 -43.359  1.00  0.00     0.092 A 
ATOM      9  C   UNL     1     -22.774  20.535 -43.656  1.00  0.00     0.126 A 
ATOM     10  C   UNL     1     -24.157  20.273 -43.499  1.00  0.00     0.039 A 
ENDROOT
BRANCH   2  11
ATOM     11  O   UNL     1     -26.806  17.674 -44.125  1.00  0.00    -0.389 OA
ATOM     12  H   UNL     1     -26.386  17.112 -43.421  1.00  0.00     0.211 HD
ENDBRANCH   2  11
BRANCH   3  13
ATOM     13  C   UNL     1     -28.418  19.851 -43.017  1.00  0.00    -0.001 A 
ATOM     14  C   UNL     1     -29.273  18.913 -42.414  1.00  0.00     0.057 A 
ATOM     15  C   UNL     1     -28.968  20.860 -43.827  1.00  0.00     0.012 A 
ATOM     16  C   UNL     1     -30.661  18.994 -42.602  1.00  0.00     0.157 A 
ATOM     17  C   UNL     1     -30.350  20.940 -44.013  1.00  0.00     0.050 A 
ATOM     18  C   UNL     1     -31.200  20.011 -43.401  1.00  0.00     0.157 A 
BRANCH  16  19
ATOM     19  O   UNL     1     -31.510  18.067 -41.999  1.00  0.00    -0.504 OA
ATOM     20  H   UNL     1     -31.347  17.737 -41.054  1.00  0.00     0.293 HD
ENDBRANCH  16  19
BRANCH  18  21
ATOM     21  O   UNL     1     -32.580  20.088 -43.583  1.00  0.00    -0.504 OA
ATOM     22  H   UNL     1     -32.997  20.798 -44.174  1.00  0.00     0.293 HD
ENDBRANCH  18  21
ENDBRANCH   3  13
BRANCH   9  23
ATOM     23  O   UNL     1     -21.876  19.557 -44.091  1.00  0.00    -0.507 OA
ATOM     24  H   UNL     1     -22.062  18.565 -44.030  1.00  0.00     0.293 HD
ENDBRANCH   9  23
BRANCH   7  25
ATOM     25  O   UNL     1     -22.582  24.069 -42.592  1.00  0.00    -0.508 OA
ATOM     26  H   UNL     1     -22.384  24.741 -43.325  1.00  0.00     0.293 HD
ENDBRANCH   7  25
TORSDOF 6
ENDMDL
MODEL 3
REMARK VINA RESULT:    -5.097      2.533      7.578
REMARK INTER + INTRA:          -6.398
REMARK INTER:                  -6.106
REMARK INTRA:                  -0.292
REMARK UNBOUND:                -0.258
REMARK SMILES Oc1cc(O)c2c(c1)O[C@@H](c1ccc(O)c(O)c1)[C@H](O)C2
REMARK SMILES IDX 21 1 19 2 10 3 9 4 7 5 8 6 2 7 3 8 4 9 6 10 20 11 11 13
REMARK SMILES IDX 18 14 12 15 16 16 13 17 14 18 17 19 15 21 5 23 1 25
REMARK H PARENT 20 12 17 20 15 22 5 24 1 26
REMARK Flexibility Score: inf
ROOT
ATOM      1  C   UNL     1     -27.681  18.493 -43.690  1.00  0.00     0.079 C 
ATOM      2  C   UNL     1     -26.396  19.263 -43.330  1.00  0.00     0.164 C 
ATOM      3  C   UNL     1     -26.562  20.761 -43.658  1.00  0.00     0.232 C 
ATOM      4  O   UNL     1     -27.702  21.278 -42.972  1.00  0.00    -0.482 OA
ATOM      5  C   UNL     1     -28.882  20.542 -42.820  1.00  0.00     0.131 A 
ATOM      6  C   UNL     1     -30.016  21.179 -42.308  1.00  0.00     0.093 A 
ATOM      7  C   UNL     1     -31.214  20.473 -42.157  1.00  0.00     0.122 A 
ATOM      8  C   UNL     1     -31.279  19.130 -42.530  1.00  0.00     0.092 A 
ATOM      9  C   UNL     1     -30.154  18.475 -43.045  1.00  0.00     0.126 A 
ATOM     10  C   UNL     1     -28.927  19.171 -43.159  1.00  0.00     0.039 A 
ENDROOT
BRANCH   2  11
ATOM     11  O   UNL     1     -25.287  18.711 -43.995  1.00  0.00    -0.389 OA
ATOM     12  H   UNL     1     -25.509  18.660 -44.962  1.00  0.00     0.211 HD
ENDBRANCH   2  11
BRANCH   3  13
ATOM     13  C   UNL     1     -25.332  21.545 -43.265  1.00  0.00    -0.001 A 
ATOM     14  C   UNL     1     -24.729  21.335 -42.014  1.00  0.00     0.057 A 
ATOM     15  C   UNL     1     -24.806  22.525 -44.125  1.00  0.00     0.012 A 
ATOM     16  C   UNL     1     -23.604  22.082 -41.633  1.00  0.00     0.157 A 
ATOM     17  C   UNL     1     -23.685  23.268 -43.746  1.00  0.00     0.050 A 
ATOM     18  C   UNL     1     -23.080  23.048 -42.502  1.00  0.00     0.157 A 
BRANCH  16  19
ATOM     19  O   UNL     1     -23.002  21.869 -40.394  1.00  0.00    -0.504 OA
ATOM     20  H   UNL     1     -23.224  21.056 -39.830  1.00  0.00     0.293 HD
ENDBRANCH  16  19
BRANCH  18  21
ATOM     21  O   UNL     1     -21.961  23.787 -42.121  1.00  0.00    -0.504 OA
ATOM     22  H   UNL     1     -21.763  24.695 -42.523  1.00  0.00     0.293 HD
ENDBRANCH  18  21
ENDBRANCH   3  13
BRANCH   9  23
ATOM     23  O   UNL     1     -30.294  17.143 -43.442  1.00  0.00    -0.507 OA
ATOM     24  H   UNL     1     -29.702  16.704 -44.134  1.00  0.00     0.293 HD
ENDBRANCH   9  23
BRANCH   7  25
ATOM     25  O   UNL     1     -32.347  21.101 -41.646  1.00  0.00    -0.508 OA
ATOM     26  H   UNL     1     -32.910  20.671 -40.921  1.00  0.00     0.293 HD
ENDBRANCH   7  25
TORSDOF 6
ENDMDL
MODEL 4
REMARK VINA RESULT:    -4.593      3.141      6.369
REMARK INTER + INTRA:          -5.791
REMARK INTER:                  -5.723
REMARK INTRA:                  -0.068
REMARK UNBOUND:                -0.258
REMARK SMILES Oc1cc(O)c2c(c1)O[C@@H](c1ccc(O)c(O)c1)[C@H](O)C2
REMARK SMILES IDX 21 1 19 2 10 3 9 4 7 5 8 6 2 7 3 8 4 9 6 10 20 11 11 13
REMARK SMILES IDX 18 14 12 15 16 16 13 17 14 18 17 19 15 21 5 23 1 25
REMARK H PARENT 20 12 17 20 15 22 5 24 1 26
REMARK Flexibility Score: inf
ROOT
ATOM      1  C   UNL     1     -29.701  19.769 -42.428  1.00  0.00     0.079 C 
ATOM      2  C   UNL     1     -28.176  19.552 -42.459  1.00  0.00     0.164 C 
ATOM      3  C   UNL     1     -27.594  20.035 -43.802  1.00  0.00     0.232 C 
ATOM      4  O   UNL     1     -27.941  21.404 -44.010  1.00  0.00    -0.482 OA
ATOM      5  C   UNL     1     -29.190  21.924 -43.652  1.00  0.00     0.131 A 
ATOM      6  C   UNL     1     -29.526  23.218 -44.057  1.00  0.00     0.093 A 
ATOM      7  C   UNL     1     -30.772  23.759 -43.726  1.00  0.00     0.122 A 
ATOM      8  C   UNL     1     -31.688  22.997 -42.998  1.00  0.00     0.092 A 
ATOM      9  C   UNL     1     -31.370  21.699 -42.584  1.00  0.00     0.126 A 
ATOM     10  C   UNL     1     -30.093  21.161 -42.877  1.00  0.00     0.039 A 
ENDROOT
BRANCH   2  11
ATOM     11  O   UNL     1     -27.865  18.201 -42.219  1.00  0.00    -0.389 OA
ATOM     12  H   UNL     1     -28.567  17.649 -42.653  1.00  0.00     0.211 HD
ENDBRANCH   2  11
BRANCH   3  13
ATOM     13  C   UNL     1     -26.092  19.879 -43.834  1.00  0.00    -0.001 A 
ATOM     14  C   UNL     1     -25.261  21.002 -43.693  1.00  0.00     0.057 A 
ATOM     15  C   UNL     1     -25.510  18.618 -44.055  1.00  0.00     0.012 A 
ATOM     16  C   UNL     1     -23.866  20.866 -43.752  1.00  0.00     0.157 A 
ATOM     17  C   UNL     1     -24.121  18.483 -44.112  1.00  0.00     0.050 A 
ATOM     18  C   UNL     1     -23.296  19.604 -43.960  1.00  0.00     0.157 A 
BRANCH  16  19
ATOM     19  O   UNL     1     -23.041  21.980 -43.606  1.00  0.00    -0.504 OA
ATOM     20  H   UNL     1     -22.046  21.884 -43.434  1.00  0.00     0.293 HD
ENDBRANCH  16  19
BRANCH  18  21
ATOM     21  O   UNL     1     -21.908  19.472 -44.016  1.00  0.00    -0.504 OA
ATOM     22  H   UNL     1     -21.341  19.488 -43.177  1.00  0.00     0.293 HD
ENDBRANCH  18  21
ENDBRANCH   3  13
BRANCH   9  23
ATOM     23  O   UNL     1     -32.344  20.971 -41.897  1.00  0.00    -0.507 OA
ATOM     24  H   UNL     1     -32.872  21.345 -41.120  1.00  0.00     0.293 HD
ENDBRANCH   9  23
BRANCH   7  25
ATOM     25  O   UNL     1     -31.114  25.049 -44.125  1.00  0.00    -0.508 OA
ATOM     26  H   UNL     1     -31.519  25.715 -43.477  1.00  0.00     0.293 HD
ENDBRANCH   7  25
TORSDOF 6
ENDMDL
MODEL 5
REMARK VINA RESULT:    -4.586      2.412      4.562
REMARK INTER + INTRA:          -5.783
REMARK INTER:                  -5.975
REMARK INTRA:                   0.192
REMARK UNBOUND:                -0.258
REMARK SMILES Oc1cc(O)c2c(c1)O[C@@H](c1ccc(O)c(O)c1)[C@H](O)C2
REMARK SMILES IDX 21 1 19 2 10 3 9 4 7 5 8 6 2 7 3 8 4 9 6 10 20 11 11 13
REMARK SMILES IDX 18 14 12 15 16 16 13 17 14 18 17 19 15 21 5 23 1 25
REMARK H PARENT 20 12 17 20 15 22 5 24 1 26
REMARK Flexibility Score: inf
ROOT
ATOM      1  C   UNL     1     -25.663  22.251 -43.896  1.00  0.00     0.079 C 
ATOM      2  C   UNL     1     -27.061  21.876 -43.368  1.00  0.00     0.164 C 
ATOM      3  C   UNL     1     -27.590  20.626 -44.098  1.00  0.00     0.232 C 
ATOM      4  O   UNL     1     -26.660  19.553 -43.949  1.00  0.00    -0.482 OA
ATOM      5  C   UNL     1     -25.276  19.752 -43.983  1.00  0.00     0.131 A 
ATOM      6  C   UNL     1     -24.433  18.639 -44.021  1.00  0.00     0.093 A 
ATOM      7  C   UNL     1     -23.045  18.806 -44.070  1.00  0.00     0.122 A 
ATOM      8  C   UNL     1     -22.502  20.091 -44.093  1.00  0.00     0.092 A 
ATOM      9  C   UNL     1     -23.330  21.219 -44.055  1.00  0.00     0.126 A 
ATOM     10  C   UNL     1     -24.733  21.057 -43.961  1.00  0.00     0.039 A 
ENDROOT
BRANCH   2  11
ATOM     11  O   UNL     1     -27.946  22.961 -43.499  1.00  0.00    -0.389 OA
ATOM     12  H   UNL     1     -28.322  22.934 -44.418  1.00  0.00     0.211 HD
ENDBRANCH   2  11
BRANCH   3  13
ATOM     13  C   UNL     1     -28.939  20.209 -43.561  1.00  0.00    -0.001 A 
ATOM     14  C   UNL     1     -29.135  18.906 -43.074  1.00  0.00     0.057 A 
ATOM     15  C   UNL     1     -30.025  21.103 -43.587  1.00  0.00     0.012 A 
ATOM     16  C   UNL     1     -30.394  18.506 -42.601  1.00  0.00     0.157 A 
ATOM     17  C   UNL     1     -31.278  20.704 -43.114  1.00  0.00     0.050 A 
ATOM     18  C   UNL     1     -31.466  19.408 -42.619  1.00  0.00     0.157 A 
BRANCH  16  19
ATOM     19  O   UNL     1     -30.586  17.215 -42.113  1.00  0.00    -0.504 OA
ATOM     20  H   UNL     1     -30.917  16.466 -42.711  1.00  0.00     0.293 HD
ENDBRANCH  16  19
BRANCH  18  21
ATOM     21  O   UNL     1     -32.715  19.007 -42.146  1.00  0.00    -0.504 OA
ATOM     22  H   UNL     1     -32.857  18.754 -41.176  1.00  0.00     0.293 HD
ENDBRANCH  18  21
ENDBRANCH   3  13
BRANCH   9  23
ATOM     23  O   UNL     1     -22.729  22.478 -44.125  1.00  0.00    -0.507 OA
ATOM     24  H   UNL     1     -23.026  23.267 -43.567  1.00  0.00     0.293 HD
ENDBRANCH   9  23
BRANCH   7  25
ATOM     25  O   UNL     1     -22.198  17.700 -44.107  1.00  0.00    -0.508 OA
ATOM     26  H   UNL     1     -22.499  16.791 -43.776  1.00  0.00     0.293 HD
ENDBRANCH   7  25
TORSDOF 6
ENDMDL
MODEL 6
REMARK VINA RESULT:    -4.538      2.406      4.516
REMARK INTER + INTRA:          -5.725
REMARK INTER:                  -6.113
REMARK INTRA:                   0.389
REMARK UNBOUND:                -0.258
REMARK SMILES Oc1cc(O)c2c(c1)O[C@@H](c1ccc(O)c(O)c1)[C@H](O)C2
REMARK SMILES IDX 21 1 19 2 10 3 9 4 7 5 8 6 2 7 3 8 4 9 6 10 20 11 11 13
REMARK SMILES IDX 18 14 12 15 16 16 13 17 14 18 17 19 15 21 5 23 1 25
REMARK H PARENT 20 12 17 20 15 22 5 24 1 26
REMARK Flexibility Score: inf
ROOT
ATOM      1  C   UNL     1     -25.767  22.228 -43.883  1.00  0.00     0.079 C 
ATOM      2  C   UNL     1     -27.148  21.798 -43.350  1.00  0.00     0.164 C 
ATOM      3  C   UNL     1     -27.619  20.515 -44.064  1.00  0.00     0.232 C 
ATOM      4  O   UNL     1     -26.642  19.488 -43.900  1.00  0.00    -0.482 OA
ATOM      5  C   UNL     1     -25.267  19.748 -43.936  1.00  0.00     0.131 A 
ATOM      6  C   UNL     1     -24.375  18.674 -43.959  1.00  0.00     0.093 A 
ATOM      7  C   UNL     1     -22.997  18.903 -44.009  1.00  0.00     0.122 A 
ATOM      8  C   UNL     1     -22.511  20.211 -44.049  1.00  0.00     0.092 A 
ATOM      9  C   UNL     1     -23.390  21.300 -44.027  1.00  0.00     0.126 A 
ATOM     10  C   UNL     1     -24.784  21.077 -43.932  1.00  0.00     0.039 A 
ENDROOT
BRANCH   2  11
ATOM     11  O   UNL     1     -28.080  22.841 -43.497  1.00  0.00    -0.389 OA
ATOM     12  H   UNL     1     -28.417  22.815 -44.431  1.00  0.00     0.211 HD
ENDBRANCH   2  11
BRANCH   3  13
ATOM     13  C   UNL     1     -28.948  20.046 -43.521  1.00  0.00    -0.001 A 
ATOM     14  C   UNL     1     -29.713  20.889 -42.698  1.00  0.00     0.057 A 
ATOM     15  C   UNL     1     -29.412  18.747 -43.792  1.00  0.00     0.012 A 
ATOM     16  C   UNL     1     -30.935  20.447 -42.167  1.00  0.00     0.157 A 
ATOM     17  C   UNL     1     -30.629  18.307 -43.265  1.00  0.00     0.050 A 
ATOM     18  C   UNL     1     -31.393  19.155 -42.453  1.00  0.00     0.157 A 
BRANCH  16  19
ATOM     19  O   UNL     1     -31.696  21.286 -41.356  1.00  0.00    -0.504 OA
ATOM     20  H   UNL     1     -31.866  22.254 -41.606  1.00  0.00     0.293 HD
ENDBRANCH  16  19
BRANCH  18  21
ATOM     21  O   UNL     1     -32.609  18.720 -41.926  1.00  0.00    -0.504 OA
ATOM     22  H   UNL     1     -32.824  17.735 -41.835  1.00  0.00     0.293 HD
ENDBRANCH  18  21
ENDBRANCH   3  13
BRANCH   9  23
ATOM     23  O   UNL     1     -22.846  22.584 -44.114  1.00  0.00    -0.507 OA
ATOM     24  H   UNL     1     -22.592  23.136 -43.306  1.00  0.00     0.293 HD
ENDBRANCH   9  23
BRANCH   7  25
ATOM     25  O   UNL     1     -22.101  17.836 -44.031  1.00  0.00    -0.508 OA
ATOM     26  H   UNL     1     -21.313  17.818 -44.668  1.00  0.00     0.293 HD
ENDBRANCH   7  25
TORSDOF 6
ENDMDL
MODEL 7
REMARK VINA RESULT:    -4.262      2.034      6.818
REMARK INTER + INTRA:          -5.391
REMARK INTER:                  -5.097
REMARK INTRA:                  -0.294
REMARK UNBOUND:                -0.258
REMARK SMILES Oc1cc(O)c2c(c1)O[C@@H](c1ccc(O)c(O)c1)[C@H](O)C2
REMARK SMILES IDX 21 1 19 2 10 3 9 4 7 5 8 6 2 7 3 8 4 9 6 10 20 11 11 13
REMARK SMILES IDX 18 14 12 15 16 16 13 17 14 18 17 19 15 21 5 23 1 25
REMARK H PARENT 20 12 17 20 15 22 5 24 1 26
REMARK Flexibility Score: inf
ROOT
ATOM      1  C   UNL     1     -29.759  21.355 -43.666  1.00  0.00     0.079 C 
ATOM      2  C   UNL     1     -28.240  21.362 -43.921  1.00  0.00     0.164 C 
ATOM      3  C   UNL     1     -27.499  20.679 -42.754  1.00  0.00     0.232 C 
ATOM      4  O   UNL     1     -28.003  19.355 -42.576  1.00  0.00    -0.482 OA
ATOM      5  C   UNL     1     -29.360  19.045 -42.716  1.00  0.00     0.131 A 
ATOM      6  C   UNL     1     -29.806  17.775 -42.342  1.00  0.00     0.093 A 
ATOM      7  C   UNL     1     -31.159  17.440 -42.457  1.00  0.00     0.122 A 
ATOM      8  C   UNL     1     -32.069  18.384 -42.937  1.00  0.00     0.092 A 
ATOM      9  C   UNL     1     -31.641  19.661 -43.316  1.00  0.00     0.126 A 
ATOM     10  C   UNL     1     -30.266  19.992 -43.244  1.00  0.00     0.039 A 
ENDROOT
BRANCH   2  11
ATOM     11  O   UNL     1     -27.779  22.675 -44.124  1.00  0.00    -0.389 OA
ATOM     12  H   UNL     1     -28.546  23.290 -43.980  1.00  0.00     0.211 HD
ENDBRANCH   2  11
BRANCH   3  13
ATOM     13  C   UNL     1     -26.011  20.628 -43.007  1.00  0.00    -0.001 A 
ATOM     14  C   UNL     1     -25.161  21.579 -42.419  1.00  0.00     0.057 A 
ATOM     15  C   UNL     1     -25.466  19.662 -43.872  1.00  0.00     0.012 A 
ATOM     16  C   UNL     1     -23.781  21.554 -42.674  1.00  0.00     0.157 A 
ATOM     17  C   UNL     1     -24.092  19.637 -44.125  1.00  0.00     0.050 A 
ATOM     18  C   UNL     1     -23.247  20.580 -43.527  1.00  0.00     0.157 A 
BRANCH  16  19
ATOM     19  O   UNL     1     -22.938  22.494 -42.085  1.00  0.00    -0.504 OA
ATOM     20  H   UNL     1     -22.459  23.197 -42.638  1.00  0.00     0.293 HD
ENDBRANCH  16  19
BRANCH  18  21
ATOM     21  O   UNL     1     -21.875  20.557 -43.777  1.00  0.00    -0.504 OA
ATOM     22  H   UNL     1     -21.471  19.920 -44.452  1.00  0.00     0.293 HD
ENDBRANCH  18  21
ENDBRANCH   3  13
BRANCH   9  23
ATOM     23  O   UNL     1     -32.605  20.576 -43.747  1.00  0.00    -0.507 OA
ATOM     24  H   UNL     1     -33.062  20.519 -44.647  1.00  0.00     0.293 HD
ENDBRANCH   9  23
BRANCH   7  25
ATOM     25  O   UNL     1     -31.611  16.175 -42.088  1.00  0.00    -0.508 OA
ATOM     26  H   UNL     1     -32.339  16.054 -41.393  1.00  0.00     0.293 HD
ENDBRANCH   7  25
TORSDOF 6
ENDMDL
MODEL 8
REMARK VINA RESULT:    -4.064      2.065      6.762
REMARK INTER + INTRA:          -5.154
REMARK INTER:                  -5.097
REMARK INTRA:                  -0.057
REMARK UNBOUND:                -0.258
REMARK SMILES Oc1cc(O)c2c(c1)O[C@@H](c1ccc(O)c(O)c1)[C@H](O)C2
REMARK SMILES IDX 21 1 19 2 10 3 9 4 7 5 8 6 2 7 3 8 4 9 6 10 20 11 11 13
REMARK SMILES IDX 18 14 12 15 16 16 13 17 14 18 17 19 15 21 5 23 1 25
REMARK H PARENT 20 12 17 20 15 22 5 24 1 26
REMARK Flexibility Score: inf
ROOT
ATOM      1  C   UNL     1     -29.782  21.335 -43.536  1.00  0.00     0.079 C 
ATOM      2  C   UNL     1     -28.275  21.358 -43.855  1.00  0.00     0.164 C 
ATOM      3  C   UNL     1     -27.481  20.661 -42.731  1.00  0.00     0.232 C 
ATOM      4  O   UNL     1     -27.968  19.331 -42.554  1.00  0.00    -0.482 OA
ATOM      5  C   UNL     1     -29.328  19.012 -42.642  1.00  0.00     0.131 A 
ATOM      6  C   UNL     1     -29.749  17.733 -42.271  1.00  0.00     0.093 A 
ATOM      7  C   UNL     1     -31.104  17.391 -42.335  1.00  0.00     0.122 A 
ATOM      8  C   UNL     1     -32.039  18.335 -42.761  1.00  0.00     0.092 A 
ATOM      9  C   UNL     1     -31.636  19.622 -43.137  1.00  0.00     0.126 A 
ATOM     10  C   UNL     1     -30.262  19.961 -43.116  1.00  0.00     0.039 A 
ENDROOT
BRANCH   2  11
ATOM     11  O   UNL     1     -27.832  22.677 -44.055  1.00  0.00    -0.389 OA
ATOM     12  H   UNL     1     -28.181  22.982 -44.934  1.00  0.00     0.211 HD
ENDBRANCH   2  11
BRANCH   3  13
ATOM     13  C   UNL     1     -26.005  20.626 -43.047  1.00  0.00    -0.001 A 
ATOM     14  C   UNL     1     -25.396  19.426 -43.452  1.00  0.00     0.057 A 
ATOM     15  C   UNL     1     -25.214  21.778 -42.892  1.00  0.00     0.012 A 
ATOM     16  C   UNL     1     -24.020  19.381 -43.717  1.00  0.00     0.157 A 
ATOM     17  C   UNL     1     -23.843  21.733 -43.159  1.00  0.00     0.050 A 
ATOM     18  C   UNL     1     -23.243  20.538 -43.573  1.00  0.00     0.157 A 
BRANCH  16  19
ATOM     19  O   UNL     1     -23.418  18.192 -44.125  1.00  0.00    -0.504 OA
ATOM     20  H   UNL     1     -23.088  17.507 -43.453  1.00  0.00     0.293 HD
ENDBRANCH  16  19
BRANCH  18  21
ATOM     21  O   UNL     1     -21.875  20.490 -43.840  1.00  0.00    -0.504 OA
ATOM     22  H   UNL     1     -21.434  21.153 -44.466  1.00  0.00     0.293 HD
ENDBRANCH  18  21
ENDBRANCH   3  13
BRANCH   9  23
ATOM     23  O   UNL     1     -32.624  20.536 -43.511  1.00  0.00    -0.507 OA
ATOM     24  H   UNL     1     -33.036  21.202 -42.872  1.00  0.00     0.293 HD
ENDBRANCH   9  23
BRANCH   7  25
ATOM     25  O   UNL     1     -31.531  16.117 -41.968  1.00  0.00    -0.508 OA
ATOM     26  H   UNL     1     -31.105  15.616 -41.197  1.00  0.00     0.293 HD
ENDBRANCH   7  25
TORSDOF 6
ENDMDL
