MODEL 1
REMARK VINA RESULT:    -3.632      0.000      0.000
REMARK INTER + INTRA:          -4.324
REMARK INTER:                  -4.269
REMARK INTRA:                  -0.055
REMARK UNBOUND:                -0.055
REMARK SMILES O=C([O-])CCC(=O)[O-]
REMARK SMILES IDX 4 1 2 2 1 3 3 4 5 5 6 6 7 7 8 8
REMARK H PARENT
REMARK Flexibility Score: inf
ROOT
ATOM      1  C   UNL     1      41.143   5.497  33.503  1.00  0.00     0.059 C 
ENDROOT
BRANCH   1   2
ATOM      2  C   UNL     1      41.555   4.119  33.910  1.00  0.00     0.042 C 
ATOM      3  O   UNL     1      42.416   3.489  33.240  1.00  0.00    -0.550 OA
ATOM      4  O   UNL     1      40.954   3.507  35.002  1.00  0.00    -0.550 OA
ENDBRANCH   1   2
BRANCH   1   5
ATOM      5  C   UNL     1      41.192   6.447  34.701  1.00  0.00     0.059 C 
BRANCH   5   6
ATOM      6  C   UNL     1      42.002   7.661  34.375  1.00  0.00     0.042 C 
ATOM      7  O   UNL     1      42.487   7.809  33.223  1.00  0.00    -0.550 OA
ATOM      8  O   UNL     1      42.182   8.653  35.329  1.00  0.00    -0.550 OA
ENDBRANCH   5   6
ENDBRANCH   1   5
TORSDOF 3
ENDMDL
MODEL 2
REMARK VINA RESULT:    -3.421      1.105      3.892
REMARK INTER + INTRA:          -4.076
REMARK INTER:                  -3.997
REMARK INTRA:                  -0.079
REMARK UNBOUND:                -0.055
REMARK SMILES O=C([O-])CCC(=O)[O-]
REMARK SMILES IDX 4 1 2 2 1 3 3 4 5 5 6 6 7 7 8 8
REMARK H PARENT
REMARK Flexibility Score: inf
ROOT
ATOM      1  C   UNL     1      41.807   6.462  33.889  1.00  0.00     0.059 C 
ENDROOT
BRANCH   1   2
ATOM      2  C   UNL     1      41.151   7.399  34.853  1.00  0.00     0.042 C 
ATOM      3  O   UNL     1      40.881   8.579  34.508  1.00  0.00    -0.550 OA
ATOM      4  O   UNL     1      40.882   6.985  36.151  1.00  0.00    -0.550 OA
ENDBRANCH   1   2
BRANCH   1   5
ATOM      5  C   UNL     1      40.875   5.295  33.558  1.00  0.00     0.059 C 
BRANCH   5   6
ATOM      6  C   UNL     1      41.539   3.991  33.867  1.00  0.00     0.042 C 
ATOM      7  O   UNL     1      42.409   3.521  33.087  1.00  0.00    -0.550 OA
ATOM      8  O   UNL     1      41.234   3.317  35.042  1.00  0.00    -0.550 OA
ENDBRANCH   5   6
ENDBRANCH   1   5
TORSDOF 3
ENDMDL
MODEL 3
REMARK VINA RESULT:    -3.366      2.784      4.065
REMARK INTER + INTRA:          -4.011
REMARK INTER:                  -3.901
REMARK INTRA:                  -0.111
REMARK UNBOUND:                -0.055
REMARK SMILES O=C([O-])CCC(=O)[O-]
REMARK SMILES IDX 4 1 2 2 1 3 3 4 5 5 6 6 7 7 8 8
REMARK H PARENT
REMARK Flexibility Score: inf
ROOT
ATOM      1  C   UNL     1      42.684   8.719  32.801  1.00  0.00     0.059 C 
ENDROOT
BRANCH   1   2
ATOM      2  C   UNL     1      42.118   7.870  33.894  1.00  0.00     0.042 C 
ATOM      3  O   UNL     1      42.086   8.298  35.078  1.00  0.00    -0.550 OA
ATOM      4  O   UNL     1      41.669   6.586  33.616  1.00  0.00    -0.550 OA
ENDBRANCH   1   2
BRANCH   1   5
ATOM      5  C   UNL     1      41.998  10.086  32.774  1.00  0.00     0.059 C 
BRANCH   5   6
ATOM      6  C   UNL     1      42.980  11.170  33.089  1.00  0.00     0.042 C 
ATOM      7  O   UNL     1      42.627  12.378  33.044  1.00  0.00    -0.550 OA
ATOM      8  O   UNL     1      44.272  10.846  33.480  1.00  0.00    -0.550 OA
ENDBRANCH   5   6
ENDBRANCH   1   5
TORSDOF 3
ENDMDL
MODEL 4
REMARK VINA RESULT:    -3.349      2.823      5.568
REMARK INTER + INTRA:          -3.992
REMARK INTER:                  -3.884
REMARK INTRA:                  -0.108
REMARK UNBOUND:                -0.055
REMARK SMILES O=C([O-])CCC(=O)[O-]
REMARK SMILES IDX 4 1 2 2 1 3 3 4 5 5 6 6 7 7 8 8
REMARK H PARENT
REMARK Flexibility Score: inf
ROOT
ATOM      1  C   UNL     1      42.012  10.161  32.746  1.00  0.00     0.059 C 
ENDROOT
BRANCH   1   2
ATOM      2  C   UNL     1      42.990  11.233  33.108  1.00  0.00     0.042 C 
ATOM      3  O   UNL     1      42.639  12.442  33.095  1.00  0.00    -0.550 OA
ATOM      4  O   UNL     1      44.303  10.902  33.414  1.00  0.00    -0.550 OA
ENDBRANCH   1   2
BRANCH   1   5
ATOM      5  C   UNL     1      42.697   8.793  32.734  1.00  0.00     0.059 C 
BRANCH   5   6
ATOM      6  C   UNL     1      42.188   7.943  33.854  1.00  0.00     0.042 C 
ATOM      7  O   UNL     1      42.138   8.400  35.026  1.00  0.00    -0.550 OA
ATOM      8  O   UNL     1      41.721   6.660  33.597  1.00  0.00    -0.550 OA
ENDBRANCH   5   6
ENDBRANCH   1   5
TORSDOF 3
ENDMDL
MODEL 5
REMARK VINA RESULT:    -3.340      2.759      3.992
REMARK INTER + INTRA:          -3.981
REMARK INTER:                  -3.870
REMARK INTRA:                  -0.111
REMARK UNBOUND:                -0.055
REMARK SMILES O=C([O-])CCC(=O)[O-]
REMARK SMILES IDX 4 1 2 2 1 3 3 4 5 5 6 6 7 7 8 8
REMARK H PARENT
REMARK Flexibility Score: inf
ROOT
ATOM      1  C   UNL     1      42.635   8.682  32.805  1.00  0.00     0.059 C 
ENDROOT
BRANCH   1   2
ATOM      2  C   UNL     1      42.084   7.823  33.898  1.00  0.00     0.042 C 
ATOM      3  O   UNL     1      42.088   8.231  35.090  1.00  0.00    -0.550 OA
ATOM      4  O   UNL     1      41.610   6.550  33.610  1.00  0.00    -0.550 OA
ENDBRANCH   1   2
BRANCH   1   5
ATOM      5  C   UNL     1      41.973  10.061  32.824  1.00  0.00     0.059 C 
BRANCH   5   6
ATOM      6  C   UNL     1      42.978  11.120  33.147  1.00  0.00     0.042 C 
ATOM      7  O   UNL     1      44.174  10.807  33.392  1.00  0.00    -0.550 OA
ATOM      8  O   UNL     1      42.608  12.459  33.132  1.00  0.00    -0.550 OA
ENDBRANCH   5   6
ENDBRANCH   1   5
TORSDOF 3
ENDMDL
MODEL 6
REMARK VINA RESULT:    -3.275      3.387      5.621
REMARK INTER + INTRA:          -3.904
REMARK INTER:                  -3.718
REMARK INTRA:                  -0.187
REMARK UNBOUND:                -0.055
REMARK SMILES O=C([O-])CCC(=O)[O-]
REMARK SMILES IDX 4 1 2 2 1 3 3 4 5 5 6 6 7 7 8 8
REMARK H PARENT
REMARK Flexibility Score: inf
ROOT
ATOM      1  C   UNL     1      42.693  10.940  32.783  1.00  0.00     0.059 C 
ENDROOT
BRANCH   1   2
ATOM      2  C   UNL     1      43.713  11.433  33.758  1.00  0.00     0.042 C 
ATOM      3  O   UNL     1      44.938  11.223  33.555  1.00  0.00    -0.550 OA
ATOM      4  O   UNL     1      43.311  12.083  34.917  1.00  0.00    -0.550 OA
ENDBRANCH   1   2
BRANCH   1   5
ATOM      5  C   UNL     1      41.630  10.102  33.497  1.00  0.00     0.059 C 
BRANCH   5   6
ATOM      6  C   UNL     1      42.224   8.829  34.009  1.00  0.00     0.042 C 
ATOM      7  O   UNL     1      42.784   8.026  33.217  1.00  0.00    -0.550 OA
ATOM      8  O   UNL     1      42.205   8.550  35.370  1.00  0.00    -0.550 OA
ENDBRANCH   5   6
ENDBRANCH   1   5
TORSDOF 3
ENDMDL
MODEL 7
REMARK VINA RESULT:    -3.235      3.433      4.760
REMARK INTER + INTRA:          -3.858
REMARK INTER:                  -3.671
REMARK INTRA:                  -0.187
REMARK UNBOUND:                -0.055
REMARK SMILES O=C([O-])CCC(=O)[O-]
REMARK SMILES IDX 4 1 2 2 1 3 3 4 5 5 6 6 7 7 8 8
REMARK H PARENT
REMARK Flexibility Score: inf
ROOT
ATOM      1  C   UNL     1      41.636  10.208  33.577  1.00  0.00     0.059 C 
ENDROOT
BRANCH   1   2
ATOM      2  C   UNL     1      42.216   8.919  34.066  1.00  0.00     0.042 C 
ATOM      3  O   UNL     1      42.215   8.649  35.296  1.00  0.00    -0.550 OA
ATOM      4  O   UNL     1      42.804   8.036  33.170  1.00  0.00    -0.550 OA
ENDBRANCH   1   2
BRANCH   1   5
ATOM      5  C   UNL     1      42.689  11.012  32.811  1.00  0.00     0.059 C 
BRANCH   5   6
ATOM      6  C   UNL     1      43.774  11.466  33.734  1.00  0.00     0.042 C 
ATOM      7  O   UNL     1      44.976  11.182  33.489  1.00  0.00    -0.550 OA
ATOM      8  O   UNL     1      43.465  12.247  34.840  1.00  0.00    -0.550 OA
ENDBRANCH   5   6
ENDBRANCH   1   5
TORSDOF 3
ENDMDL
MODEL 8
REMARK VINA RESULT:    -3.009      2.978      4.274
REMARK INTER + INTRA:          -3.591
REMARK INTER:                  -3.491
REMARK INTRA:                  -0.100
REMARK UNBOUND:                -0.055
REMARK SMILES O=C([O-])CCC(=O)[O-]
REMARK SMILES IDX 4 1 2 2 1 3 3 4 5 5 6 6 7 7 8 8
REMARK H PARENT
REMARK Flexibility Score: inf
ROOT
ATOM      1  C   UNL     1      41.164   9.641  34.008  1.00  0.00     0.059 C 
ENDROOT
BRANCH   1   2
ATOM      2  C   UNL     1      41.719   8.493  34.791  1.00  0.00     0.042 C 
ATOM      3  O   UNL     1      41.727   7.334  34.298  1.00  0.00    -0.550 OA
ATOM      4  O   UNL     1      42.184   8.693  36.084  1.00  0.00    -0.550 OA
ENDBRANCH   1   2
BRANCH   1   5
ATOM      5  C   UNL     1      42.028   9.917  32.776  1.00  0.00     0.059 C 
BRANCH   5   6
ATOM      6  C   UNL     1      42.951  11.066  33.031  1.00  0.00     0.042 C 
ATOM      7  O   UNL     1      42.557  12.248  32.850  1.00  0.00    -0.550 OA
ATOM      8  O   UNL     1      44.232  10.835  33.514  1.00  0.00    -0.550 OA
ENDBRANCH   5   6
ENDBRANCH   1   5
TORSDOF 3
ENDMDL
MODEL 9
REMARK VINA RESULT:    -2.722      4.504      7.096
REMARK INTER + INTRA:          -3.255
REMARK INTER:                  -3.203
REMARK INTRA:                  -0.052
REMARK UNBOUND:                -0.055
REMARK SMILES O=C([O-])CCC(=O)[O-]
REMARK SMILES IDX 4 1 2 2 1 3 3 4 5 5 6 6 7 7 8 8
REMARK H PARENT
REMARK Flexibility Score: inf
ROOT
ATOM      1  C   UNL     1      43.312  11.867  34.106  1.00  0.00     0.059 C 
ENDROOT
BRANCH   1   2
ATOM      2  C   UNL     1      43.049  13.320  34.345  1.00  0.00     0.042 C 
ATOM      3  O   UNL     1      42.702  14.067  33.392  1.00  0.00    -0.550 OA
ATOM      4  O   UNL     1      43.234  13.861  35.610  1.00  0.00    -0.550 OA
ENDBRANCH   1   2
BRANCH   1   5
ATOM      5  C   UNL     1      42.645  11.408  32.808  1.00  0.00     0.059 C 
BRANCH   5   6
ATOM      6  C   UNL     1      42.020  10.062  32.988  1.00  0.00     0.042 C 
ATOM      7  O   UNL     1      42.439   9.074  32.329  1.00  0.00    -0.550 OA
ATOM      8  O   UNL     1      41.006   9.885  33.920  1.00  0.00    -0.550 OA
ENDBRANCH   5   6
ENDBRANCH   1   5
TORSDOF 3
ENDMDL
