MODEL 1
REMARK VINA RESULT:    -5.921      0.000      0.000
REMARK INTER + INTRA:          -6.730
REMARK INTER:                  -6.613
REMARK INTRA:                  -0.116
REMARK UNBOUND:                -0.116
REMARK SMILES COc1cc2ccc(=O)oc2cc1OC
REMARK SMILES IDX 3 1 13 2 12 3 11 4 5 5 4 6 6 7 7 8 8 9 9 10 10 11 2 12 1 13
REMARK SMILES IDX 14 14 15 15
REMARK H PARENT
REMARK Flexibility Score: inf
ROOT
ATOM      1  C   UNL     1      -8.774  -4.458   6.039  1.00  0.00     0.161 A 
ATOM      2  C   UNL     1      -7.874  -5.169   6.852  1.00  0.00     0.164 A 
ATOM      3  C   UNL     1      -7.403  -6.430   6.438  1.00  0.00     0.098 A 
ATOM      4  C   UNL     1      -7.824  -6.979   5.224  1.00  0.00     0.142 A 
ATOM      5  C   UNL     1      -8.727  -6.266   4.408  1.00  0.00     0.022 A 
ATOM      6  C   UNL     1      -9.199  -5.012   4.815  1.00  0.00     0.062 A 
ATOM      7  C   UNL     1      -9.130  -6.843   3.199  1.00  0.00     0.019 A 
ATOM      8  C   UNL     1      -8.632  -8.094   2.837  1.00  0.00     0.094 A 
ATOM      9  C   UNL     1      -7.739  -8.742   3.697  1.00  0.00     0.336 A 
ATOM     10  O   UNL     1      -7.279  -9.872   3.390  1.00  0.00    -0.246 OA
ATOM     11  O   UNL     1      -7.373  -8.171   4.842  1.00  0.00    -0.423 OA
ENDROOT
BRANCH   1  12
ATOM     12  O   UNL     1      -9.223  -3.203   6.484  1.00  0.00    -0.493 OA
ATOM     13  C   UNL     1     -10.094  -2.351   5.748  1.00  0.00     0.278 C 
ENDBRANCH   1  12
BRANCH   2  14
ATOM     14  O   UNL     1      -7.471  -4.587   8.065  1.00  0.00    -0.493 OA
ATOM     15  C   UNL     1      -7.992  -4.939   9.341  1.00  0.00     0.278 C 
ENDBRANCH   2  14
TORSDOF 2
ENDMDL
MODEL 2
REMARK VINA RESULT:    -5.892      1.296      4.790
REMARK INTER + INTRA:          -6.698
REMARK INTER:                  -6.592
REMARK INTRA:                  -0.106
REMARK UNBOUND:                -0.116
REMARK SMILES COc1cc2ccc(=O)oc2cc1OC
REMARK SMILES IDX 3 1 13 2 12 3 11 4 5 5 4 6 6 7 7 8 8 9 9 10 10 11 2 12 1 13
REMARK SMILES IDX 14 14 15 15
REMARK H PARENT
REMARK Flexibility Score: inf
ROOT
ATOM      1  C   UNL     1      -8.037  -6.605   5.522  1.00  0.00     0.161 A 
ATOM      2  C   UNL     1      -7.673  -6.043   6.758  1.00  0.00     0.164 A 
ATOM      3  C   UNL     1      -8.135  -4.759   7.106  1.00  0.00     0.098 A 
ATOM      4  C   UNL     1      -8.953  -4.040   6.231  1.00  0.00     0.142 A 
ATOM      5  C   UNL     1      -9.319  -4.603   4.991  1.00  0.00     0.022 A 
ATOM      6  C   UNL     1      -8.862  -5.879   4.640  1.00  0.00     0.062 A 
ATOM      7  C   UNL     1     -10.138  -3.858   4.137  1.00  0.00     0.019 A 
ATOM      8  C   UNL     1     -10.567  -2.592   4.531  1.00  0.00     0.094 A 
ATOM      9  C   UNL     1     -10.165  -2.097   5.776  1.00  0.00     0.336 A 
ATOM     10  O   UNL     1     -10.541  -0.956   6.151  1.00  0.00    -0.246 OA
ATOM     11  O   UNL     1      -9.384  -2.827   6.570  1.00  0.00    -0.423 OA
ENDROOT
BRANCH   1  12
ATOM     12  O   UNL     1      -7.558  -7.887   5.209  1.00  0.00    -0.493 OA
ATOM     13  C   UNL     1      -7.991  -8.660   4.094  1.00  0.00     0.278 C 
ENDBRANCH   1  12
BRANCH   2  14
ATOM     14  O   UNL     1      -6.850  -6.794   7.614  1.00  0.00    -0.493 OA
ATOM     15  C   UNL     1      -6.982  -6.835   9.030  1.00  0.00     0.278 C 
ENDBRANCH   2  14
TORSDOF 2
ENDMDL
MODEL 3
REMARK VINA RESULT:    -5.602      2.007      3.278
REMARK INTER + INTRA:          -6.373
REMARK INTER:                  -6.272
REMARK INTRA:                  -0.101
REMARK UNBOUND:                -0.116
REMARK SMILES COc1cc2ccc(=O)oc2cc1OC
REMARK SMILES IDX 3 1 13 2 12 3 11 4 5 5 4 6 6 7 7 8 8 9 9 10 10 11 2 12 1 13
REMARK SMILES IDX 14 14 15 15
REMARK H PARENT
REMARK Flexibility Score: inf
ROOT
ATOM      1  C   UNL     1      -8.317  -4.759   6.266  1.00  0.00     0.161 A 
ATOM      2  C   UNL     1      -9.249  -3.839   5.756  1.00  0.00     0.164 A 
ATOM      3  C   UNL     1      -9.876  -4.090   4.520  1.00  0.00     0.098 A 
ATOM      4  C   UNL     1      -9.578  -5.249   3.798  1.00  0.00     0.142 A 
ATOM      5  C   UNL     1      -8.643  -6.172   4.309  1.00  0.00     0.022 A 
ATOM      6  C   UNL     1      -8.016  -5.927   5.537  1.00  0.00     0.062 A 
ATOM      7  C   UNL     1      -8.366  -7.322   3.562  1.00  0.00     0.019 A 
ATOM      8  C   UNL     1      -9.015  -7.521   2.345  1.00  0.00     0.094 A 
ATOM      9  C   UNL     1      -9.931  -6.562   1.901  1.00  0.00     0.336 A 
ATOM     10  O   UNL     1     -10.528  -6.722   0.805  1.00  0.00    -0.246 OA
ATOM     11  O   UNL     1     -10.176  -5.476   2.631  1.00  0.00    -0.423 OA
ENDROOT
BRANCH   1  12
ATOM     12  O   UNL     1      -7.711  -4.476   7.501  1.00  0.00    -0.493 OA
ATOM     13  C   UNL     1      -6.877  -5.381   8.217  1.00  0.00     0.278 C 
ENDBRANCH   1  12
BRANCH   2  14
ATOM     14  O   UNL     1      -9.525  -2.686   6.508  1.00  0.00    -0.493 OA
ATOM     15  C   UNL     1     -10.319  -1.596   6.053  1.00  0.00     0.278 C 
ENDBRANCH   2  14
TORSDOF 2
ENDMDL
MODEL 4
REMARK VINA RESULT:    -5.414      1.511      5.749
REMARK INTER + INTRA:          -6.164
REMARK INTER:                  -6.004
REMARK INTRA:                  -0.159
REMARK UNBOUND:                -0.116
REMARK SMILES COc1cc2ccc(=O)oc2cc1OC
REMARK SMILES IDX 3 1 13 2 12 3 11 4 5 5 4 6 6 7 7 8 8 9 9 10 10 11 2 12 1 13
REMARK SMILES IDX 14 14 15 15
REMARK H PARENT
REMARK Flexibility Score: inf
ROOT
ATOM      1  C   UNL     1      -8.484  -8.524   3.971  1.00  0.00     0.161 A 
ATOM      2  C   UNL     1      -9.656  -7.947   3.450  1.00  0.00     0.164 A 
ATOM      3  C   UNL     1     -10.031  -6.648   3.844  1.00  0.00     0.098 A 
ATOM      4  C   UNL     1      -9.246  -5.929   4.750  1.00  0.00     0.142 A 
ATOM      5  C   UNL     1      -8.071  -6.507   5.272  1.00  0.00     0.022 A 
ATOM      6  C   UNL     1      -7.693  -7.798   4.884  1.00  0.00     0.062 A 
ATOM      7  C   UNL     1      -7.307  -5.762   6.177  1.00  0.00     0.019 A 
ATOM      8  C   UNL     1      -7.725  -4.481   6.533  1.00  0.00     0.094 A 
ATOM      9  C   UNL     1      -8.902  -3.972   5.975  1.00  0.00     0.336 A 
ATOM     10  O   UNL     1      -9.297  -2.818   6.283  1.00  0.00    -0.246 OA
ATOM     11  O   UNL     1      -9.610  -4.702   5.117  1.00  0.00    -0.423 OA
ENDROOT
BRANCH   1  12
ATOM     12  O   UNL     1      -8.140  -9.820   3.554  1.00  0.00    -0.493 OA
ATOM     13  C   UNL     1      -7.223 -10.115   2.506  1.00  0.00     0.278 C 
ENDBRANCH   1  12
BRANCH   2  14
ATOM     14  O   UNL     1     -10.420  -8.697   2.542  1.00  0.00    -0.493 OA
ATOM     15  C   UNL     1     -10.456  -8.471   1.137  1.00  0.00     0.278 C 
ENDBRANCH   2  14
TORSDOF 2
ENDMDL
MODEL 5
REMARK VINA RESULT:    -5.219      1.680      4.995
REMARK INTER + INTRA:          -5.946
REMARK INTER:                  -5.839
REMARK INTRA:                  -0.107
REMARK UNBOUND:                -0.116
REMARK SMILES COc1cc2ccc(=O)oc2cc1OC
REMARK SMILES IDX 3 1 13 2 12 3 11 4 5 5 4 6 6 7 7 8 8 9 9 10 10 11 2 12 1 13
REMARK SMILES IDX 14 14 15 15
REMARK H PARENT
REMARK Flexibility Score: inf
ROOT
ATOM      1  C   UNL     1      -9.428  -7.146   2.939  1.00  0.00     0.161 A 
ATOM      2  C   UNL     1      -8.535  -8.152   3.349  1.00  0.00     0.164 A 
ATOM      3  C   UNL     1      -7.773  -7.977   4.520  1.00  0.00     0.098 A 
ATOM      4  C   UNL     1      -7.899  -6.810   5.278  1.00  0.00     0.142 A 
ATOM      5  C   UNL     1      -8.795  -5.801   4.868  1.00  0.00     0.022 A 
ATOM      6  C   UNL     1      -9.555  -5.970   3.703  1.00  0.00     0.062 A 
ATOM      7  C   UNL     1      -8.898  -4.644   5.647  1.00  0.00     0.019 A 
ATOM      8  C   UNL     1      -8.120  -4.522   6.798  1.00  0.00     0.094 A 
ATOM      9  C   UNL     1      -7.254  -5.564   7.144  1.00  0.00     0.336 A 
ATOM     10  O   UNL     1      -6.542  -5.474   8.177  1.00  0.00    -0.246 OA
ATOM     11  O   UNL     1      -7.174  -6.653   6.383  1.00  0.00    -0.423 OA
ENDROOT
BRANCH   1  12
ATOM     12  O   UNL     1     -10.172  -7.356   1.766  1.00  0.00    -0.493 OA
ATOM     13  C   UNL     1      -9.789  -6.896   0.474  1.00  0.00     0.278 C 
ENDBRANCH   1  12
BRANCH   2  14
ATOM     14  O   UNL     1      -8.434  -9.312   2.563  1.00  0.00    -0.493 OA
ATOM     15  C   UNL     1      -7.270 -10.125   2.470  1.00  0.00     0.278 C 
ENDBRANCH   2  14
TORSDOF 2
ENDMDL
MODEL 6
REMARK VINA RESULT:    -5.152      2.172      5.527
REMARK INTER + INTRA:          -5.871
REMARK INTER:                  -5.766
REMARK INTRA:                  -0.105
REMARK UNBOUND:                -0.116
REMARK SMILES COc1cc2ccc(=O)oc2cc1OC
REMARK SMILES IDX 3 1 13 2 12 3 11 4 5 5 4 6 6 7 7 8 8 9 9 10 10 11 2 12 1 13
REMARK SMILES IDX 14 14 15 15
REMARK H PARENT
REMARK Flexibility Score: inf
ROOT
ATOM      1  C   UNL     1      -9.429  -5.242   4.150  1.00  0.00     0.161 A 
ATOM      2  C   UNL     1      -8.763  -5.335   5.385  1.00  0.00     0.164 A 
ATOM      3  C   UNL     1      -8.837  -4.268   6.301  1.00  0.00     0.098 A 
ATOM      4  C   UNL     1      -9.567  -3.118   5.991  1.00  0.00     0.142 A 
ATOM      5  C   UNL     1     -10.236  -3.024   4.753  1.00  0.00     0.022 A 
ATOM      6  C   UNL     1     -10.166  -4.082   3.838  1.00  0.00     0.062 A 
ATOM      7  C   UNL     1     -10.958  -1.860   4.472  1.00  0.00     0.019 A 
ATOM      8  C   UNL     1     -10.998  -0.834   5.415  1.00  0.00     0.094 A 
ATOM      9  C   UNL     1     -10.310  -0.997   6.622  1.00  0.00     0.336 A 
ATOM     10  O   UNL     1     -10.332  -0.083   7.487  1.00  0.00    -0.246 OA
ATOM     11  O   UNL     1      -9.630  -2.115   6.864  1.00  0.00    -0.423 OA
ENDROOT
BRANCH   1  12
ATOM     12  O   UNL     1      -9.335  -6.326   3.261  1.00  0.00    -0.493 OA
ATOM     13  C   UNL     1      -9.440  -6.220   1.845  1.00  0.00     0.278 C 
ENDBRANCH   1  12
BRANCH   2  14
ATOM     14  O   UNL     1      -8.039  -6.505   5.664  1.00  0.00    -0.493 OA
ATOM     15  C   UNL     1      -6.938  -6.578   6.563  1.00  0.00     0.278 C 
ENDBRANCH   2  14
TORSDOF 2
ENDMDL
MODEL 7
REMARK VINA RESULT:    -5.144      2.191      5.814
REMARK INTER + INTRA:          -5.862
REMARK INTER:                  -5.733
REMARK INTRA:                  -0.128
REMARK UNBOUND:                -0.116
REMARK SMILES COc1cc2ccc(=O)oc2cc1OC
REMARK SMILES IDX 3 1 13 2 12 3 11 4 5 5 4 6 6 7 7 8 8 9 9 10 10 11 2 12 1 13
REMARK SMILES IDX 14 14 15 15
REMARK H PARENT
REMARK Flexibility Score: inf
ROOT
ATOM      1  C   UNL     1      -9.142  -7.629   2.290  1.00  0.00     0.161 A 
ATOM      2  C   UNL     1     -10.184  -6.687   2.228  1.00  0.00     0.164 A 
ATOM      3  C   UNL     1     -10.308  -5.714   3.239  1.00  0.00     0.098 A 
ATOM      4  C   UNL     1      -9.402  -5.678   4.302  1.00  0.00     0.142 A 
ATOM      5  C   UNL     1      -8.357  -6.622   4.364  1.00  0.00     0.022 A 
ATOM      6  C   UNL     1      -8.229  -7.593   3.362  1.00  0.00     0.062 A 
ATOM      7  C   UNL     1      -7.466  -6.561   5.441  1.00  0.00     0.019 A 
ATOM      8  C   UNL     1      -7.635  -5.577   6.414  1.00  0.00     0.094 A 
ATOM      9  C   UNL     1      -8.695  -4.673   6.287  1.00  0.00     0.336 A 
ATOM     10  O   UNL     1      -8.866  -3.777   7.154  1.00  0.00    -0.246 OA
ATOM     11  O   UNL     1      -9.528  -4.755   5.252  1.00  0.00    -0.423 OA
ENDROOT
BRANCH   1  12
ATOM     12  O   UNL     1      -9.049  -8.584   1.264  1.00  0.00    -0.493 OA
ATOM     13  C   UNL     1      -9.222  -9.986   1.449  1.00  0.00     0.278 C 
ENDBRANCH   1  12
BRANCH   2  14
ATOM     14  O   UNL     1     -11.076  -6.752   1.145  1.00  0.00    -0.493 OA
ATOM     15  C   UNL     1     -10.982  -5.950  -0.027  1.00  0.00     0.278 C 
ENDBRANCH   2  14
TORSDOF 2
ENDMDL
MODEL 8
REMARK VINA RESULT:    -5.106      1.978      5.927
REMARK INTER + INTRA:          -5.820
REMARK INTER:                  -5.702
REMARK INTRA:                  -0.117
REMARK UNBOUND:                -0.116
REMARK SMILES COc1cc2ccc(=O)oc2cc1OC
REMARK SMILES IDX 3 1 13 2 12 3 11 4 5 5 4 6 6 7 7 8 8 9 9 10 10 11 2 12 1 13
REMARK SMILES IDX 14 14 15 15
REMARK H PARENT
REMARK Flexibility Score: inf
ROOT
ATOM      1  C   UNL     1      -8.543  -7.231   3.613  1.00  0.00     0.161 A 
ATOM      2  C   UNL     1      -9.334  -6.709   2.575  1.00  0.00     0.164 A 
ATOM      3  C   UNL     1      -9.947  -5.450   2.728  1.00  0.00     0.098 A 
ATOM      4  C   UNL     1      -9.773  -4.717   3.905  1.00  0.00     0.142 A 
ATOM      5  C   UNL     1      -8.980  -5.241   4.946  1.00  0.00     0.022 A 
ATOM      6  C   UNL     1      -8.368  -6.492   4.799  1.00  0.00     0.062 A 
ATOM      7  C   UNL     1      -8.825  -4.483   6.112  1.00  0.00     0.019 A 
ATOM      8  C   UNL     1      -9.454  -3.243   6.211  1.00  0.00     0.094 A 
ATOM      9  C   UNL     1     -10.227  -2.787   5.138  1.00  0.00     0.336 A 
ATOM     10  O   UNL     1     -10.803  -1.671   5.207  1.00  0.00    -0.246 OA
ATOM     11  O   UNL     1     -10.357  -3.529   4.040  1.00  0.00    -0.423 OA
ENDROOT
BRANCH   1  12
ATOM     12  O   UNL     1      -7.946  -8.489   3.425  1.00  0.00    -0.493 OA
ATOM     13  C   UNL     1      -8.271  -9.656   4.173  1.00  0.00     0.278 C 
ENDBRANCH   1  12
BRANCH   2  14
ATOM     14  O   UNL     1      -9.486  -7.472   1.406  1.00  0.00    -0.493 OA
ATOM     15  C   UNL     1     -10.110  -7.007   0.214  1.00  0.00     0.278 C 
ENDBRANCH   2  14
TORSDOF 2
ENDMDL
MODEL 9
REMARK VINA RESULT:    -4.955      2.157      5.064
REMARK INTER + INTRA:          -5.651
REMARK INTER:                  -5.487
REMARK INTRA:                  -0.164
REMARK UNBOUND:                -0.116
REMARK SMILES COc1cc2ccc(=O)oc2cc1OC
REMARK SMILES IDX 3 1 13 2 12 3 11 4 5 5 4 6 6 7 7 8 8 9 9 10 10 11 2 12 1 13
REMARK SMILES IDX 14 14 15 15
REMARK H PARENT
REMARK Flexibility Score: inf
ROOT
ATOM      1  C   UNL     1     -10.281  -6.942   2.618  1.00  0.00     0.161 A 
ATOM      2  C   UNL     1      -9.690  -8.196   2.853  1.00  0.00     0.164 A 
ATOM      3  C   UNL     1      -8.805  -8.361   3.936  1.00  0.00     0.098 A 
ATOM      4  C   UNL     1      -8.511  -7.286   4.779  1.00  0.00     0.142 A 
ATOM      5  C   UNL     1      -9.103  -6.028   4.544  1.00  0.00     0.022 A 
ATOM      6  C   UNL     1      -9.984  -5.859   3.469  1.00  0.00     0.062 A 
ATOM      7  C   UNL     1      -8.788  -4.972   5.406  1.00  0.00     0.019 A 
ATOM      8  C   UNL     1      -7.906  -5.190   6.463  1.00  0.00     0.094 A 
ATOM      9  C   UNL     1      -7.356  -6.465   6.634  1.00  0.00     0.336 A 
ATOM     10  O   UNL     1      -6.557  -6.683   7.581  1.00  0.00    -0.246 OA
ATOM     11  O   UNL     1      -7.673  -7.452   5.799  1.00  0.00    -0.423 OA
ENDROOT
BRANCH   1  12
ATOM     12  O   UNL     1     -11.160  -6.815   1.530  1.00  0.00    -0.493 OA
ATOM     13  C   UNL     1     -10.845  -6.146   0.313  1.00  0.00     0.278 C 
ENDBRANCH   1  12
BRANCH   2  14
ATOM     14  O   UNL     1     -10.009  -9.254   1.987  1.00  0.00    -0.493 OA
ATOM     15  C   UNL     1      -9.154  -9.742   0.959  1.00  0.00     0.278 C 
ENDBRANCH   2  14
TORSDOF 2
ENDMDL
