MODEL 1
REMARK VINA RESULT:    -4.066      0.000      0.000
REMARK INTER + INTRA:          -4.738
REMARK INTER:                  -4.660
REMARK INTRA:                  -0.078
REMARK UNBOUND:                -0.078
REMARK SMILES COc1cc(C(=O)[O-])ccc1O
REMARK SMILES IDX 5 1 9 2 4 3 10 4 3 5 11 6 6 7 7 8 8 9 2 10 1 11 12 12
REMARK H PARENT 12 13
REMARK Flexibility Score: inf
ROOT
ATOM      1  C   UNL     1      17.549  20.521  17.870  1.00  0.00     0.001 A 
ATOM      2  C   UNL     1      18.377  21.004  16.844  1.00  0.00     0.014 A 
ATOM      3  C   UNL     1      17.917  20.746  19.209  1.00  0.00     0.060 A 
ATOM      4  C   UNL     1      19.548  21.698  17.149  1.00  0.00     0.051 A 
ATOM      5  C   UNL     1      19.099  21.447  19.523  1.00  0.00     0.161 A 
ATOM      6  C   UNL     1      19.914  21.922  18.480  1.00  0.00     0.157 A 
ENDROOT
BRANCH   1   7
ATOM      7  C   UNL     1      16.308  19.785  17.541  1.00  0.00     0.072 C 
ATOM      8  O   UNL     1      16.165  18.582  17.884  1.00  0.00    -0.545 OA
ATOM      9  O   UNL     1      15.279  20.413  16.846  1.00  0.00    -0.545 OA
ENDBRANCH   1   7
BRANCH   5  10
ATOM     10  O   UNL     1      19.491  21.687  20.850  1.00  0.00    -0.493 OA
ATOM     11  C   UNL     1      19.281  20.786  21.932  1.00  0.00     0.278 C 
ENDBRANCH   5  10
BRANCH   6  12
ATOM     12  O   UNL     1      21.092  22.620  18.746  1.00  0.00    -0.504 OA
ATOM     13  H   UNL     1      21.208  23.597  18.503  1.00  0.00     0.293 HD
ENDBRANCH   6  12
TORSDOF 3
ENDMDL
MODEL 2
REMARK VINA RESULT:    -3.980      1.172      2.958
REMARK INTER + INTRA:          -4.640
REMARK INTER:                  -4.554
REMARK INTRA:                  -0.085
REMARK UNBOUND:                -0.078
REMARK SMILES COc1cc(C(=O)[O-])ccc1O
REMARK SMILES IDX 5 1 9 2 4 3 10 4 3 5 11 6 6 7 7 8 8 9 2 10 1 11 12 12
REMARK H PARENT 12 13
REMARK Flexibility Score: inf
ROOT
ATOM      1  C   UNL     1      17.570  20.570  17.793  1.00  0.00     0.001 A 
ATOM      2  C   UNL     1      18.002  20.802  19.109  1.00  0.00     0.014 A 
ATOM      3  C   UNL     1      18.321  21.092  16.725  1.00  0.00     0.060 A 
ATOM      4  C   UNL     1      19.161  21.540  19.352  1.00  0.00     0.051 A 
ATOM      5  C   UNL     1      19.493  21.839  16.965  1.00  0.00     0.161 A 
ATOM      6  C   UNL     1      19.908  22.059  18.290  1.00  0.00     0.157 A 
ENDROOT
BRANCH   1   7
ATOM      7  C   UNL     1      16.340  19.787  17.541  1.00  0.00     0.072 C 
ATOM      8  O   UNL     1      16.256  18.587  17.915  1.00  0.00    -0.545 OA
ATOM      9  O   UNL     1      15.258  20.365  16.887  1.00  0.00    -0.545 OA
ENDBRANCH   1   7
BRANCH   5  10
ATOM     10  O   UNL     1      20.263  22.372  15.918  1.00  0.00    -0.493 OA
ATOM     11  C   UNL     1      19.752  23.193  14.874  1.00  0.00     0.278 C 
ENDBRANCH   5  10
BRANCH   6  12
ATOM     12  O   UNL     1      21.060  22.792  18.573  1.00  0.00    -0.504 OA
ATOM     13  H   UNL     1      21.508  23.383  17.883  1.00  0.00     0.293 HD
ENDBRANCH   6  12
TORSDOF 3
ENDMDL
MODEL 3
REMARK VINA RESULT:    -3.946      1.753      3.919
REMARK INTER + INTRA:          -4.601
REMARK INTER:                  -4.523
REMARK INTRA:                  -0.078
REMARK UNBOUND:                -0.078
REMARK SMILES COc1cc(C(=O)[O-])ccc1O
REMARK SMILES IDX 5 1 9 2 4 3 10 4 3 5 11 6 6 7 7 8 8 9 2 10 1 11 12 12
REMARK H PARENT 12 13
REMARK Flexibility Score: inf
ROOT
ATOM      1  C   UNL     1      18.506  21.374  17.815  1.00  0.00     0.001 A 
ATOM      2  C   UNL     1      17.777  20.503  16.988  1.00  0.00     0.014 A 
ATOM      3  C   UNL     1      18.085  21.567  19.143  1.00  0.00     0.060 A 
ATOM      4  C   UNL     1      16.653  19.839  17.479  1.00  0.00     0.051 A 
ATOM      5  C   UNL     1      16.949  20.898  19.644  1.00  0.00     0.161 A 
ATOM      6  C   UNL     1      16.235  20.031  18.799  1.00  0.00     0.157 A 
ENDROOT
BRANCH   1   7
ATOM      7  C   UNL     1      19.698  22.076  17.289  1.00  0.00     0.072 C 
ATOM      8  O   UNL     1      19.882  23.298  17.534  1.00  0.00    -0.545 OA
ATOM      9  O   UNL     1      20.633  21.396  16.516  1.00  0.00    -0.545 OA
ENDBRANCH   1   7
BRANCH   5  10
ATOM     10  O   UNL     1      16.508  21.071  20.966  1.00  0.00    -0.493 OA
ATOM     11  C   UNL     1      16.770  22.222  21.763  1.00  0.00     0.278 C 
ENDBRANCH   5  10
BRANCH   6  12
ATOM     12  O   UNL     1      15.106  19.349  19.254  1.00  0.00    -0.504 OA
ATOM     13  H   UNL     1      14.472  19.748  19.936  1.00  0.00     0.293 HD
ENDBRANCH   6  12
TORSDOF 3
ENDMDL
MODEL 4
REMARK VINA RESULT:    -3.913      1.512      3.638
REMARK INTER + INTRA:          -4.562
REMARK INTER:                  -4.479
REMARK INTRA:                  -0.083
REMARK UNBOUND:                -0.078
REMARK SMILES COc1cc(C(=O)[O-])ccc1O
REMARK SMILES IDX 5 1 9 2 4 3 10 4 3 5 11 6 6 7 7 8 8 9 2 10 1 11 12 12
REMARK H PARENT 12 13
REMARK Flexibility Score: inf
ROOT
ATOM      1  C   UNL     1      19.284  21.456  17.263  1.00  0.00     0.001 A 
ATOM      2  C   UNL     1      18.167  20.916  16.606  1.00  0.00     0.014 A 
ATOM      3  C   UNL     1      19.272  21.550  18.667  1.00  0.00     0.060 A 
ATOM      4  C   UNL     1      17.061  20.479  17.336  1.00  0.00     0.051 A 
ATOM      5  C   UNL     1      18.157  21.110  19.409  1.00  0.00     0.161 A 
ATOM      6  C   UNL     1      17.049  20.572  18.731  1.00  0.00     0.157 A 
ENDROOT
BRANCH   1   7
ATOM      7  C   UNL     1      20.454  21.919  16.484  1.00  0.00     0.072 C 
ATOM      8  O   UNL     1      21.125  21.109  15.792  1.00  0.00    -0.545 OA
ATOM      9  O   UNL     1      20.830  23.258  16.505  1.00  0.00    -0.545 OA
ENDBRANCH   1   7
BRANCH   5  10
ATOM     10  O   UNL     1      18.119  21.191  20.811  1.00  0.00    -0.493 OA
ATOM     11  C   UNL     1      19.159  20.749  21.676  1.00  0.00     0.278 C 
ENDBRANCH   5  10
BRANCH   6  12
ATOM     12  O   UNL     1      15.926  20.124  19.426  1.00  0.00    -0.504 OA
ATOM     13  H   UNL     1      15.967  19.849  20.400  1.00  0.00     0.293 HD
ENDBRANCH   6  12
TORSDOF 3
ENDMDL
MODEL 5
REMARK VINA RESULT:    -3.906      1.753      2.277
REMARK INTER + INTRA:          -4.554
REMARK INTER:                  -4.477
REMARK INTRA:                  -0.078
REMARK UNBOUND:                -0.078
REMARK SMILES COc1cc(C(=O)[O-])ccc1O
REMARK SMILES IDX 5 1 9 2 4 3 10 4 3 5 11 6 6 7 7 8 8 9 2 10 1 11 12 12
REMARK H PARENT 12 13
REMARK Flexibility Score: inf
ROOT
ATOM      1  C   UNL     1      17.153  20.682  17.483  1.00  0.00     0.001 A 
ATOM      2  C   UNL     1      16.856  21.149  16.192  1.00  0.00     0.014 A 
ATOM      3  C   UNL     1      18.254  21.224  18.170  1.00  0.00     0.060 A 
ATOM      4  C   UNL     1      17.644  22.137  15.600  1.00  0.00     0.051 A 
ATOM      5  C   UNL     1      19.053  22.222  17.576  1.00  0.00     0.161 A 
ATOM      6  C   UNL     1      18.739  22.675  16.283  1.00  0.00     0.157 A 
ENDROOT
BRANCH   1   7
ATOM      7  C   UNL     1      16.314  19.634  18.106  1.00  0.00     0.072 C 
ATOM      8  O   UNL     1      16.392  18.437  17.722  1.00  0.00    -0.545 OA
ATOM      9  O   UNL     1      15.426  19.956  19.127  1.00  0.00    -0.545 OA
ENDBRANCH   1   7
BRANCH   5  10
ATOM     10  O   UNL     1      20.158  22.781  18.239  1.00  0.00    -0.493 OA
ATOM     11  C   UNL     1      21.047  22.058  19.084  1.00  0.00     0.278 C 
ENDBRANCH   5  10
BRANCH   6  12
ATOM     12  O   UNL     1      19.503  23.661  15.659  1.00  0.00    -0.504 OA
ATOM     13  H   UNL     1      19.088  24.497  15.263  1.00  0.00     0.293 HD
ENDBRANCH   6  12
TORSDOF 3
ENDMDL
MODEL 6
REMARK VINA RESULT:    -3.839      1.706      4.285
REMARK INTER + INTRA:          -4.478
REMARK INTER:                  -4.394
REMARK INTRA:                  -0.084
REMARK UNBOUND:                -0.078
REMARK SMILES COc1cc(C(=O)[O-])ccc1O
REMARK SMILES IDX 5 1 9 2 4 3 10 4 3 5 11 6 6 7 7 8 8 9 2 10 1 11 12 12
REMARK H PARENT 12 13
REMARK Flexibility Score: inf
ROOT
ATOM      1  C   UNL     1      19.452  21.458  20.005  1.00  0.00     0.001 A 
ATOM      2  C   UNL     1      19.598  22.811  19.659  1.00  0.00     0.014 A 
ATOM      3  C   UNL     1      18.590  20.647  19.245  1.00  0.00     0.060 A 
ATOM      4  C   UNL     1      18.898  23.342  18.575  1.00  0.00     0.051 A 
ATOM      5  C   UNL     1      17.880  21.179  18.148  1.00  0.00     0.161 A 
ATOM      6  C   UNL     1      18.041  22.536  17.819  1.00  0.00     0.157 A 
ENDROOT
BRANCH   1   7
ATOM      7  C   UNL     1      20.197  20.899  21.155  1.00  0.00     0.072 C 
ATOM      8  O   UNL     1      20.151  19.667  21.411  1.00  0.00    -0.545 OA
ATOM      9  O   UNL     1      20.959  21.729  21.971  1.00  0.00    -0.545 OA
ENDBRANCH   1   7
BRANCH   5  10
ATOM     10  O   UNL     1      17.014  20.392  17.372  1.00  0.00    -0.493 OA
ATOM     11  C   UNL     1      16.221  19.322  17.875  1.00  0.00     0.278 C 
ENDBRANCH   5  10
BRANCH   6  12
ATOM     12  O   UNL     1      17.359  23.103  16.743  1.00  0.00    -0.504 OA
ATOM     13  H   UNL     1      17.670  23.956  16.294  1.00  0.00     0.293 HD
ENDBRANCH   6  12
TORSDOF 3
ENDMDL
MODEL 7
REMARK VINA RESULT:    -3.814     18.783     20.413
REMARK INTER + INTRA:          -4.449
REMARK INTER:                  -4.349
REMARK INTRA:                  -0.100
REMARK UNBOUND:                -0.078
REMARK SMILES COc1cc(C(=O)[O-])ccc1O
REMARK SMILES IDX 5 1 9 2 4 3 10 4 3 5 11 6 6 7 7 8 8 9 2 10 1 11 12 12
REMARK H PARENT 12 13
REMARK Flexibility Score: inf
ROOT
ATOM      1  C   UNL     1       6.455  17.100   3.481  1.00  0.00     0.001 A 
ATOM      2  C   UNL     1       6.742  17.862   4.625  1.00  0.00     0.014 A 
ATOM      3  C   UNL     1       5.122  16.993   3.047  1.00  0.00     0.060 A 
ATOM      4  C   UNL     1       5.717  18.505   5.320  1.00  0.00     0.051 A 
ATOM      5  C   UNL     1       4.083  17.641   3.746  1.00  0.00     0.161 A 
ATOM      6  C   UNL     1       4.392  18.399   4.889  1.00  0.00     0.157 A 
ENDROOT
BRANCH   1   7
ATOM      7  C   UNL     1       7.546  16.420   2.747  1.00  0.00     0.072 C 
ATOM      8  O   UNL     1       7.373  15.272   2.261  1.00  0.00    -0.545 OA
ATOM      9  O   UNL     1       8.780  17.041   2.583  1.00  0.00    -0.545 OA
ENDBRANCH   1   7
BRANCH   5  10
ATOM     10  O   UNL     1       2.743  17.552   3.335  1.00  0.00    -0.493 OA
ATOM     11  C   UNL     1       1.883  16.450   3.606  1.00  0.00     0.278 C 
ENDBRANCH   5  10
BRANCH   6  12
ATOM     12  O   UNL     1       3.395  19.056   5.610  1.00  0.00    -0.504 OA
ATOM     13  H   UNL     1       3.532  19.362   6.566  1.00  0.00     0.293 HD
ENDBRANCH   6  12
TORSDOF 3
ENDMDL
MODEL 8
REMARK VINA RESULT:    -3.812      1.894      4.431
REMARK INTER + INTRA:          -4.446
REMARK INTER:                  -4.347
REMARK INTRA:                  -0.099
REMARK UNBOUND:                -0.078
REMARK SMILES COc1cc(C(=O)[O-])ccc1O
REMARK SMILES IDX 5 1 9 2 4 3 10 4 3 5 11 6 6 7 7 8 8 9 2 10 1 11 12 12
REMARK H PARENT 12 13
REMARK Flexibility Score: inf
ROOT
ATOM      1  C   UNL     1      18.498  21.142  18.775  1.00  0.00     0.001 A 
ATOM      2  C   UNL     1      17.341  20.439  18.405  1.00  0.00     0.014 A 
ATOM      3  C   UNL     1      19.092  22.018  17.848  1.00  0.00     0.060 A 
ATOM      4  C   UNL     1      16.788  20.607  17.135  1.00  0.00     0.051 A 
ATOM      5  C   UNL     1      18.537  22.191  16.564  1.00  0.00     0.161 A 
ATOM      6  C   UNL     1      17.378  21.477  16.213  1.00  0.00     0.157 A 
ENDROOT
BRANCH   1   7
ATOM      7  C   UNL     1      19.080  20.960  20.124  1.00  0.00     0.072 C 
ATOM      8  O   UNL     1      18.346  20.969  21.146  1.00  0.00    -0.545 OA
ATOM      9  O   UNL     1      20.450  20.775  20.281  1.00  0.00    -0.545 OA
ENDBRANCH   1   7
BRANCH   5  10
ATOM     10  O   UNL     1      19.108  23.059  15.619  1.00  0.00    -0.493 OA
ATOM     11  C   UNL     1      20.205  22.728  14.773  1.00  0.00     0.278 C 
ENDBRANCH   5  10
BRANCH   6  12
ATOM     12  O   UNL     1      16.796  21.619  14.954  1.00  0.00    -0.504 OA
ATOM     13  H   UNL     1      17.198  21.201  14.123  1.00  0.00     0.293 HD
ENDBRANCH   6  12
TORSDOF 3
ENDMDL
MODEL 9
REMARK VINA RESULT:    -3.753      2.241      3.368
REMARK INTER + INTRA:          -4.379
REMARK INTER:                  -4.282
REMARK INTRA:                  -0.097
REMARK UNBOUND:                -0.078
REMARK SMILES COc1cc(C(=O)[O-])ccc1O
REMARK SMILES IDX 5 1 9 2 4 3 10 4 3 5 11 6 6 7 7 8 8 9 2 10 1 11 12 12
REMARK H PARENT 12 13
REMARK Flexibility Score: inf
ROOT
ATOM      1  C   UNL     1      18.475  21.146  17.029  1.00  0.00     0.001 A 
ATOM      2  C   UNL     1      17.431  20.223  17.199  1.00  0.00     0.014 A 
ATOM      3  C   UNL     1      18.808  22.006  18.091  1.00  0.00     0.060 A 
ATOM      4  C   UNL     1      16.734  20.160  18.406  1.00  0.00     0.051 A 
ATOM      5  C   UNL     1      18.107  21.946  19.313  1.00  0.00     0.161 A 
ATOM      6  C   UNL     1      17.065  21.014  19.462  1.00  0.00     0.157 A 
ENDROOT
BRANCH   1   7
ATOM      7  C   UNL     1      19.211  21.209  15.746  1.00  0.00     0.072 C 
ATOM      8  O   UNL     1      20.417  20.852  15.680  1.00  0.00    -0.545 OA
ATOM      9  O   UNL     1      18.580  21.664  14.593  1.00  0.00    -0.545 OA
ENDBRANCH   1   7
BRANCH   5  10
ATOM     10  O   UNL     1      18.419  22.791  20.391  1.00  0.00    -0.493 OA
ATOM     11  C   UNL     1      17.983  24.141  20.514  1.00  0.00     0.278 C 
ENDBRANCH   5  10
BRANCH   6  12
ATOM     12  O   UNL     1      16.346  20.921  20.654  1.00  0.00    -0.504 OA
ATOM     13  H   UNL     1      16.575  20.244  21.372  1.00  0.00     0.293 HD
ENDBRANCH   6  12
TORSDOF 3
ENDMDL
