MODEL 1
REMARK VINA RESULT:    -3.655      0.000      0.000
REMARK INTER + INTRA:          -3.655
REMARK INTER:                  -3.655
REMARK INTRA:                   0.000
REMARK UNBOUND:                 0.000
REMARK SMILES CC(C)=C1CC[C@@H](C)CC1=O
REMARK SMILES IDX 8 1 7 2 6 3 5 4 4 5 2 6 1 7 3 8 10 9 11 10 9 11
REMARK H PARENT
REMARK Flexibility Score: inf
ROOT
ATOM      1  C   UNL     1      88.042  33.142  65.204  1.00  0.00     0.008 C 
ATOM      2  C   UNL     1      86.920  32.145  65.521  1.00  0.00    -0.006 C 
ATOM      3  C   UNL     1      87.161  30.812  64.796  1.00  0.00     0.008 C 
ATOM      4  C   UNL     1      86.104  29.769  65.182  1.00  0.00     0.039 C 
ATOM      5  C   UNL     1      84.682  30.284  65.002  1.00  0.00    -0.006 C 
ATOM      6  C   UNL     1      83.661  29.444  64.660  1.00  0.00    -0.070 C 
ATOM      7  C   UNL     1      83.896  27.964  64.463  1.00  0.00     0.039 C 
ATOM      8  C   UNL     1      82.257  29.953  64.424  1.00  0.00     0.039 C 
ATOM      9  C   UNL     1      84.460  31.723  65.335  1.00  0.00     0.159 C 
ATOM     10  O   UNL     1      83.361  32.124  65.806  1.00  0.00    -0.295 OA
ATOM     11  C   UNL     1      85.557  32.724  65.117  1.00  0.00     0.084 C 
ENDROOT
TORSDOF 0
ENDMDL
MODEL 2
REMARK VINA RESULT:    -3.306      1.722      2.546
REMARK INTER + INTRA:          -3.306
REMARK INTER:                  -3.306
REMARK INTRA:                   0.000
REMARK UNBOUND:                 0.000
REMARK SMILES CC(C)=C1CC[C@@H](C)CC1=O
REMARK SMILES IDX 8 1 7 2 6 3 5 4 4 5 2 6 1 7 3 8 10 9 11 10 9 11
REMARK H PARENT
REMARK Flexibility Score: inf
ROOT
ATOM      1  C   UNL     1      88.125  33.087  66.983  1.00  0.00     0.008 C 
ATOM      2  C   UNL     1      87.261  32.301  65.989  1.00  0.00    -0.006 C 
ATOM      3  C   UNL     1      85.778  32.667  66.153  1.00  0.00     0.008 C 
ATOM      4  C   UNL     1      84.910  31.968  65.099  1.00  0.00     0.039 C 
ATOM      5  C   UNL     1      85.141  30.462  65.060  1.00  0.00    -0.006 C 
ATOM      6  C   UNL     1      84.134  29.600  64.731  1.00  0.00    -0.070 C 
ATOM      7  C   UNL     1      82.754  30.103  64.376  1.00  0.00     0.039 C 
ATOM      8  C   UNL     1      84.335  28.102  64.743  1.00  0.00     0.039 C 
ATOM      9  C   UNL     1      86.545  30.009  65.283  1.00  0.00     0.159 C 
ATOM     10  O   UNL     1      86.996  28.973  64.723  1.00  0.00    -0.295 OA
ATOM     11  C   UNL     1      87.454  30.791  66.186  1.00  0.00     0.084 C 
ENDROOT
TORSDOF 0
ENDMDL
MODEL 3
REMARK VINA RESULT:    -3.213     15.827     16.591
REMARK INTER + INTRA:          -3.213
REMARK INTER:                  -3.213
REMARK INTRA:                   0.000
REMARK UNBOUND:                 0.000
REMARK SMILES CC(C)=C1CC[C@@H](C)CC1=O
REMARK SMILES IDX 8 1 7 2 6 3 5 4 4 5 2 6 1 7 3 8 10 9 11 10 9 11
REMARK H PARENT
REMARK Flexibility Score: inf
ROOT
ATOM      1  C   UNL     1      71.287  33.914  56.870  1.00  0.00     0.008 C 
ATOM      2  C   UNL     1      71.963  33.841  55.496  1.00  0.00    -0.006 C 
ATOM      3  C   UNL     1      73.066  32.771  55.491  1.00  0.00     0.008 C 
ATOM      4  C   UNL     1      73.684  32.612  54.096  1.00  0.00     0.039 C 
ATOM      5  C   UNL     1      74.153  33.939  53.512  1.00  0.00    -0.006 C 
ATOM      6  C   UNL     1      75.230  34.003  52.674  1.00  0.00    -0.070 C 
ATOM      7  C   UNL     1      75.991  32.759  52.279  1.00  0.00     0.039 C 
ATOM      8  C   UNL     1      75.738  35.319  52.133  1.00  0.00     0.039 C 
ATOM      9  C   UNL     1      73.299  35.126  53.814  1.00  0.00     0.159 C 
ATOM     10  O   UNL     1      73.182  36.075  52.992  1.00  0.00    -0.295 OA
ATOM     11  C   UNL     1      72.553  35.205  55.114  1.00  0.00     0.084 C 
ENDROOT
TORSDOF 0
ENDMDL
MODEL 4
REMARK VINA RESULT:    -3.106      2.025      3.690
REMARK INTER + INTRA:          -3.106
REMARK INTER:                  -3.106
REMARK INTRA:                   0.000
REMARK UNBOUND:                 0.000
REMARK SMILES CC(C)=C1CC[C@@H](C)CC1=O
REMARK SMILES IDX 8 1 7 2 6 3 5 4 4 5 2 6 1 7 3 8 10 9 11 10 9 11
REMARK H PARENT
REMARK Flexibility Score: inf
ROOT
ATOM      1  C   UNL     1      88.071  27.636  64.274  1.00  0.00     0.008 C 
ATOM      2  C   UNL     1      87.508  29.008  64.662  1.00  0.00    -0.006 C 
ATOM      3  C   UNL     1      88.125  29.492  65.984  1.00  0.00     0.008 C 
ATOM      4  C   UNL     1      87.650  30.907  66.336  1.00  0.00     0.039 C 
ATOM      5  C   UNL     1      86.132  31.034  66.318  1.00  0.00    -0.006 C 
ATOM      6  C   UNL     1      85.483  31.896  67.156  1.00  0.00    -0.070 C 
ATOM      7  C   UNL     1      86.245  32.773  68.123  1.00  0.00     0.039 C 
ATOM      8  C   UNL     1      83.975  31.991  67.187  1.00  0.00     0.039 C 
ATOM      9  C   UNL     1      85.422  30.256  65.260  1.00  0.00     0.159 C 
ATOM     10  O   UNL     1      84.354  30.679  64.742  1.00  0.00    -0.295 OA
ATOM     11  C   UNL     1      85.979  28.944  64.790  1.00  0.00     0.084 C 
ENDROOT
TORSDOF 0
ENDMDL
MODEL 5
REMARK VINA RESULT:    -3.019     15.220     16.216
REMARK INTER + INTRA:          -3.019
REMARK INTER:                  -3.019
REMARK INTRA:                   0.000
REMARK UNBOUND:                 0.000
REMARK SMILES CC(C)=C1CC[C@@H](C)CC1=O
REMARK SMILES IDX 8 1 7 2 6 3 5 4 4 5 2 6 1 7 3 8 10 9 11 10 9 11
REMARK H PARENT
REMARK Flexibility Score: inf
ROOT
ATOM      1  C   UNL     1      80.164  34.923  51.146  1.00  0.00     0.008 C 
ATOM      2  C   UNL     1      78.636  34.798  51.114  1.00  0.00    -0.006 C 
ATOM      3  C   UNL     1      77.977  36.117  51.548  1.00  0.00     0.008 C 
ATOM      4  C   UNL     1      76.450  36.045  51.424  1.00  0.00     0.039 C 
ATOM      5  C   UNL     1      75.864  34.834  52.140  1.00  0.00    -0.006 C 
ATOM      6  C   UNL     1      74.622  34.879  52.707  1.00  0.00    -0.070 C 
ATOM      7  C   UNL     1      73.770  36.125  52.633  1.00  0.00     0.039 C 
ATOM      8  C   UNL     1      74.052  33.703  53.468  1.00  0.00     0.039 C 
ATOM      9  C   UNL     1      76.673  33.581  52.077  1.00  0.00     0.159 C 
ATOM     10  O   UNL     1      76.123  32.446  52.062  1.00  0.00    -0.295 OA
ATOM     11  C   UNL     1      78.171  33.654  52.026  1.00  0.00     0.084 C 
ENDROOT
TORSDOF 0
ENDMDL
MODEL 6
REMARK VINA RESULT:    -2.756      1.705      4.606
REMARK INTER + INTRA:          -2.756
REMARK INTER:                  -2.756
REMARK INTRA:                   0.000
REMARK UNBOUND:                 0.000
REMARK SMILES CC(C)=C1CC[C@@H](C)CC1=O
REMARK SMILES IDX 8 1 7 2 6 3 5 4 4 5 2 6 1 7 3 8 10 9 11 10 9 11
REMARK H PARENT
REMARK Flexibility Score: inf
ROOT
ATOM      1  C   UNL     1      82.800  30.207  64.376  1.00  0.00     0.008 C 
ATOM      2  C   UNL     1      83.692  31.352  64.871  1.00  0.00    -0.006 C 
ATOM      3  C   UNL     1      84.663  31.797  63.766  1.00  0.00     0.008 C 
ATOM      4  C   UNL     1      85.493  33.009  64.208  1.00  0.00     0.039 C 
ATOM      5  C   UNL     1      86.190  32.783  65.544  1.00  0.00    -0.006 C 
ATOM      6  C   UNL     1      87.397  33.360  65.820  1.00  0.00    -0.070 C 
ATOM      7  C   UNL     1      88.083  34.262  64.820  1.00  0.00     0.039 C 
ATOM      8  C   UNL     1      88.124  33.099  67.119  1.00  0.00     0.039 C 
ATOM      9  C   UNL     1      85.424  31.999  66.558  1.00  0.00     0.159 C 
ATOM     10  O   UNL     1      85.550  32.225  67.792  1.00  0.00    -0.295 OA
ATOM     11  C   UNL     1      84.477  30.921  66.118  1.00  0.00     0.084 C 
ENDROOT
TORSDOF 0
ENDMDL
MODEL 7
REMARK VINA RESULT:    -2.708     14.649     16.172
REMARK INTER + INTRA:          -2.708
REMARK INTER:                  -2.708
REMARK INTRA:                   0.000
REMARK UNBOUND:                 0.000
REMARK SMILES CC(C)=C1CC[C@@H](C)CC1=O
REMARK SMILES IDX 8 1 7 2 6 3 5 4 4 5 2 6 1 7 3 8 10 9 11 10 9 11
REMARK H PARENT
REMARK Flexibility Score: inf
ROOT
ATOM      1  C   UNL     1      73.257  34.600  53.125  1.00  0.00     0.008 C 
ATOM      2  C   UNL     1      74.565  34.311  52.379  1.00  0.00    -0.006 C 
ATOM      3  C   UNL     1      75.306  33.129  53.025  1.00  0.00     0.008 C 
ATOM      4  C   UNL     1      76.565  32.759  52.232  1.00  0.00     0.039 C 
ATOM      5  C   UNL     1      77.475  33.958  51.990  1.00  0.00    -0.006 C 
ATOM      6  C   UNL     1      78.831  33.814  51.912  1.00  0.00    -0.070 C 
ATOM      7  C   UNL     1      79.485  32.458  52.046  1.00  0.00     0.039 C 
ATOM      8  C   UNL     1      79.747  35.002  51.729  1.00  0.00     0.039 C 
ATOM      9  C   UNL     1      76.789  35.258  51.729  1.00  0.00     0.159 C 
ATOM     10  O   UNL     1      77.297  36.125  50.968  1.00  0.00    -0.295 OA
ATOM     11  C   UNL     1      75.466  35.554  52.374  1.00  0.00     0.084 C 
ENDROOT
TORSDOF 0
ENDMDL
MODEL 8
REMARK VINA RESULT:    -2.671     15.222     16.198
REMARK INTER + INTRA:          -2.671
REMARK INTER:                  -2.671
REMARK INTRA:                   0.000
REMARK UNBOUND:                 0.000
REMARK SMILES CC(C)=C1CC[C@@H](C)CC1=O
REMARK SMILES IDX 8 1 7 2 6 3 5 4 4 5 2 6 1 7 3 8 10 9 11 10 9 11
REMARK H PARENT
REMARK Flexibility Score: inf
ROOT
ATOM      1  C   UNL     1      73.901  33.865  52.714  1.00  0.00     0.008 C 
ATOM      2  C   UNL     1      75.413  34.120  52.743  1.00  0.00    -0.006 C 
ATOM      3  C   UNL     1      75.762  35.399  51.967  1.00  0.00     0.008 C 
ATOM      4  C   UNL     1      77.257  35.726  52.072  1.00  0.00     0.039 C 
ATOM      5  C   UNL     1      78.140  34.546  51.683  1.00  0.00    -0.006 C 
ATOM      6  C   UNL     1      79.359  34.737  51.097  1.00  0.00    -0.070 C 
ATOM      7  C   UNL     1      79.891  36.125  50.826  1.00  0.00     0.039 C 
ATOM      8  C   UNL     1      80.219  33.575  50.656  1.00  0.00     0.039 C 
ATOM      9  C   UNL     1      77.646  33.197  52.087  1.00  0.00     0.159 C 
ATOM     10  O   UNL     1      78.445  32.269  52.385  1.00  0.00    -0.295 OA
ATOM     11  C   UNL     1      76.171  32.923  52.151  1.00  0.00     0.084 C 
ENDROOT
TORSDOF 0
ENDMDL
