MODEL 1
REMARK VINA RESULT:    -5.491      0.000      0.000
REMARK INTER + INTRA:          -6.238
REMARK INTER:                  -6.293
REMARK INTRA:                   0.055
REMARK UNBOUND:                 0.055
REMARK SMILES O=C([O-])C=Cc1ccc(O)cc1
REMARK SMILES IDX 6 1 7 2 12 3 8 4 11 5 9 6 5 7 4 8 2 9 1 10 3 11 10 12
REMARK H PARENT 10 13
REMARK Flexibility Score: inf
ROOT
ATOM      1  C   UNL     1       6.357  -2.069  -1.651  1.00  0.00    -0.025 A 
ATOM      2  C   UNL     1       5.094  -1.713  -2.146  1.00  0.00     0.012 A 
ATOM      3  C   UNL     1       7.264  -2.736  -2.495  1.00  0.00     0.012 A 
ATOM      4  C   UNL     1       4.760  -1.970  -3.480  1.00  0.00     0.047 A 
ATOM      5  C   UNL     1       6.928  -2.991  -3.828  1.00  0.00     0.047 A 
ATOM      6  C   UNL     1       5.676  -2.605  -4.325  1.00  0.00     0.115 A 
ENDROOT
BRANCH   1   7
ATOM      7  C   UNL     1       6.667  -1.838  -0.226  1.00  0.00     0.010 C 
ATOM      8  C   UNL     1       7.720  -1.145   0.238  1.00  0.00     0.025 C 
BRANCH   8   9
ATOM      9  C   UNL     1       8.641  -0.338  -0.584  1.00  0.00     0.064 C 
ATOM     10  O   UNL     1       8.478   0.908  -0.648  1.00  0.00    -0.545 OA
ATOM     11  O   UNL     1       9.642  -0.929  -1.347  1.00  0.00    -0.545 OA
ENDBRANCH   8   9
ENDBRANCH   1   7
BRANCH   6  12
ATOM     12  O   UNL     1       5.330  -2.853  -5.652  1.00  0.00    -0.508 OA
ATOM     13  H   UNL     1       6.029  -3.096  -6.344  1.00  0.00     0.293 HD
ENDBRANCH   6  12
TORSDOF 3
ENDMDL
MODEL 2
REMARK VINA RESULT:    -5.184     14.034     15.880
REMARK INTER + INTRA:          -5.887
REMARK INTER:                  -5.630
REMARK INTRA:                  -0.256
REMARK UNBOUND:                 0.055
REMARK SMILES O=C([O-])C=Cc1ccc(O)cc1
REMARK SMILES IDX 6 1 7 2 12 3 8 4 11 5 9 6 5 7 4 8 2 9 1 10 3 11 10 12
REMARK H PARENT 10 13
REMARK Flexibility Score: inf
ROOT
ATOM      1  C   UNL     1      -8.114  -6.279  -1.047  1.00  0.00    -0.025 A 
ATOM      2  C   UNL     1      -8.728  -7.419  -0.508  1.00  0.00     0.012 A 
ATOM      3  C   UNL     1      -8.217  -5.054  -0.363  1.00  0.00     0.012 A 
ATOM      4  C   UNL     1      -9.390  -7.350   0.723  1.00  0.00     0.047 A 
ATOM      5  C   UNL     1      -8.879  -4.987   0.867  1.00  0.00     0.047 A 
ATOM      6  C   UNL     1      -9.463  -6.137   1.415  1.00  0.00     0.115 A 
ENDROOT
BRANCH   1   7
ATOM      7  C   UNL     1      -7.469  -6.363  -2.373  1.00  0.00     0.010 C 
ATOM      8  C   UNL     1      -6.198  -6.733  -2.596  1.00  0.00     0.025 C 
BRANCH   8   9
ATOM      9  C   UNL     1      -5.282  -7.299  -1.587  1.00  0.00     0.064 C 
ATOM     10  O   UNL     1      -4.337  -6.592  -1.148  1.00  0.00    -0.545 OA
ATOM     11  O   UNL     1      -5.394  -8.618  -1.163  1.00  0.00    -0.545 OA
ENDBRANCH   8   9
ENDBRANCH   1   7
BRANCH   6  12
ATOM     12  O   UNL     1     -10.125  -6.083   2.640  1.00  0.00    -0.508 OA
ATOM     13  H   UNL     1      -9.792  -6.602   3.444  1.00  0.00     0.293 HD
ENDBRANCH   6  12
TORSDOF 3
ENDMDL
MODEL 3
REMARK VINA RESULT:    -4.933     10.982     12.828
REMARK INTER + INTRA:          -5.598
REMARK INTER:                  -5.309
REMARK INTRA:                  -0.290
REMARK UNBOUND:                 0.055
REMARK SMILES O=C([O-])C=Cc1ccc(O)cc1
REMARK SMILES IDX 6 1 7 2 12 3 8 4 11 5 9 6 5 7 4 8 2 9 1 10 3 11 10 12
REMARK H PARENT 10 13
REMARK Flexibility Score: inf
ROOT
ATOM      1  C   UNL     1      -4.404  -8.292  -2.064  1.00  0.00    -0.025 A 
ATOM      2  C   UNL     1      -4.704  -7.303  -1.115  1.00  0.00     0.012 A 
ATOM      3  C   UNL     1      -5.210  -8.411  -3.210  1.00  0.00     0.012 A 
ATOM      4  C   UNL     1      -5.759  -6.411  -1.334  1.00  0.00     0.047 A 
ATOM      5  C   UNL     1      -6.265  -7.518  -3.427  1.00  0.00     0.047 A 
ATOM      6  C   UNL     1      -6.538  -6.513  -2.490  1.00  0.00     0.115 A 
ENDROOT
BRANCH   1   7
ATOM      7  C   UNL     1      -3.320  -9.256  -1.787  1.00  0.00     0.010 C 
ATOM      8  C   UNL     1      -2.050  -9.139  -2.205  1.00  0.00     0.025 C 
BRANCH   8   9
ATOM      9  C   UNL     1      -1.469  -7.946  -2.848  1.00  0.00     0.064 C 
ATOM     10  O   UNL     1      -1.429  -7.882  -4.105  1.00  0.00    -0.545 OA
ATOM     11  O   UNL     1      -0.898  -6.922  -2.101  1.00  0.00    -0.545 OA
ENDBRANCH   8   9
ENDBRANCH   1   7
BRANCH   6  12
ATOM     12  O   UNL     1      -7.586  -5.618  -2.694  1.00  0.00    -0.508 OA
ATOM     13  H   UNL     1      -7.534  -4.659  -2.370  1.00  0.00     0.293 HD
ENDBRANCH   6  12
TORSDOF 3
ENDMDL
MODEL 4
REMARK VINA RESULT:    -4.694     10.978     12.800
REMARK INTER + INTRA:          -5.325
REMARK INTER:                  -5.172
REMARK INTRA:                  -0.153
REMARK UNBOUND:                 0.055
REMARK SMILES O=C([O-])C=Cc1ccc(O)cc1
REMARK SMILES IDX 6 1 7 2 12 3 8 4 11 5 9 6 5 7 4 8 2 9 1 10 3 11 10 12
REMARK H PARENT 10 13
REMARK Flexibility Score: inf
ROOT
ATOM      1  C   UNL     1      -4.111  -6.830  -2.170  1.00  0.00    -0.025 A 
ATOM      2  C   UNL     1      -4.446  -7.367  -3.421  1.00  0.00     0.012 A 
ATOM      3  C   UNL     1      -5.094  -6.763  -1.166  1.00  0.00     0.012 A 
ATOM      4  C   UNL     1      -5.727  -7.881  -3.650  1.00  0.00     0.047 A 
ATOM      5  C   UNL     1      -6.374  -7.276  -1.397  1.00  0.00     0.047 A 
ATOM      6  C   UNL     1      -6.692  -7.840  -2.639  1.00  0.00     0.115 A 
ENDROOT
BRANCH   1   7
ATOM      7  C   UNL     1      -2.770  -6.245  -1.968  1.00  0.00     0.010 C 
ATOM      8  C   UNL     1      -1.629  -6.941  -1.842  1.00  0.00     0.025 C 
BRANCH   8   9
ATOM      9  C   UNL     1      -1.484  -8.392  -2.070  1.00  0.00     0.064 C 
ATOM     10  O   UNL     1      -1.560  -9.179  -1.090  1.00  0.00    -0.545 OA
ATOM     11  O   UNL     1      -1.193  -8.905  -3.329  1.00  0.00    -0.545 OA
ENDBRANCH   8   9
ENDBRANCH   1   7
BRANCH   6  12
ATOM     12  O   UNL     1      -7.963  -8.355  -2.881  1.00  0.00    -0.508 OA
ATOM     13  H   UNL     1      -8.758  -7.748  -3.044  1.00  0.00     0.293 HD
ENDBRANCH   6  12
TORSDOF 3
ENDMDL
MODEL 5
REMARK VINA RESULT:    -4.672     11.917     13.965
REMARK INTER + INTRA:          -5.300
REMARK INTER:                  -5.112
REMARK INTRA:                  -0.188
REMARK UNBOUND:                 0.055
REMARK SMILES O=C([O-])C=Cc1ccc(O)cc1
REMARK SMILES IDX 6 1 7 2 12 3 8 4 11 5 9 6 5 7 4 8 2 9 1 10 3 11 10 12
REMARK H PARENT 10 13
REMARK Flexibility Score: inf
ROOT
ATOM      1  C   UNL     1      -5.616  -7.654  -2.043  1.00  0.00    -0.025 A 
ATOM      2  C   UNL     1      -5.160  -7.878  -3.350  1.00  0.00     0.012 A 
ATOM      3  C   UNL     1      -4.726  -7.138  -1.084  1.00  0.00     0.012 A 
ATOM      4  C   UNL     1      -3.851  -7.540  -3.710  1.00  0.00     0.047 A 
ATOM      5  C   UNL     1      -3.418  -6.801  -1.445  1.00  0.00     0.047 A 
ATOM      6  C   UNL     1      -2.979  -6.998  -2.761  1.00  0.00     0.115 A 
ENDROOT
BRANCH   1   7
ATOM      7  C   UNL     1      -6.984  -8.069  -1.672  1.00  0.00     0.010 C 
ATOM      8  C   UNL     1      -7.992  -7.237  -1.365  1.00  0.00     0.025 C 
BRANCH   8   9
ATOM      9  C   UNL     1      -7.968  -5.770  -1.525  1.00  0.00     0.064 C 
ATOM     10  O   UNL     1      -7.912  -5.278  -2.682  1.00  0.00    -0.545 OA
ATOM     11  O   UNL     1      -7.934  -4.920  -0.426  1.00  0.00    -0.545 OA
ENDBRANCH   8   9
ENDBRANCH   1   7
BRANCH   6  12
ATOM     12  O   UNL     1      -1.678  -6.665  -3.134  1.00  0.00    -0.508 OA
ATOM     13  H   UNL     1      -1.072  -7.334  -3.594  1.00  0.00     0.293 HD
ENDBRANCH   6  12
TORSDOF 3
ENDMDL
MODEL 6
REMARK VINA RESULT:    -4.608     11.248     13.291
REMARK INTER + INTRA:          -5.227
REMARK INTER:                  -4.998
REMARK INTRA:                  -0.229
REMARK UNBOUND:                 0.055
REMARK SMILES O=C([O-])C=Cc1ccc(O)cc1
REMARK SMILES IDX 6 1 7 2 12 3 8 4 11 5 9 6 5 7 4 8 2 9 1 10 3 11 10 12
REMARK H PARENT 10 13
REMARK Flexibility Score: inf
ROOT
ATOM      1  C   UNL     1      -3.911  -7.667  -2.443  1.00  0.00    -0.025 A 
ATOM      2  C   UNL     1      -3.289  -6.676  -1.669  1.00  0.00     0.012 A 
ATOM      3  C   UNL     1      -3.414  -8.982  -2.403  1.00  0.00     0.012 A 
ATOM      4  C   UNL     1      -2.222  -7.003  -0.826  1.00  0.00     0.047 A 
ATOM      5  C   UNL     1      -2.347  -9.308  -1.560  1.00  0.00     0.047 A 
ATOM      6  C   UNL     1      -1.751  -8.318  -0.767  1.00  0.00     0.115 A 
ENDROOT
BRANCH   1   7
ATOM      7  C   UNL     1      -5.001  -7.288  -3.365  1.00  0.00     0.010 C 
ATOM      8  C   UNL     1      -6.283  -7.097  -3.017  1.00  0.00     0.025 C 
BRANCH   8   9
ATOM      9  C   UNL     1      -6.794  -7.046  -1.633  1.00  0.00     0.064 C 
ATOM     10  O   UNL     1      -6.811  -5.944  -1.024  1.00  0.00    -0.545 OA
ATOM     11  O   UNL     1      -7.190  -8.196  -0.962  1.00  0.00    -0.545 OA
ENDBRANCH   8   9
ENDBRANCH   1   7
BRANCH   6  12
ATOM     12  O   UNL     1      -0.687  -8.630   0.078  1.00  0.00    -0.508 OA
ATOM     13  H   UNL     1      -0.550  -8.145   0.957  1.00  0.00     0.293 HD
ENDBRANCH   6  12
TORSDOF 3
ENDMDL
MODEL 7
REMARK VINA RESULT:    -4.597     12.328     14.188
REMARK INTER + INTRA:          -5.214
REMARK INTER:                  -5.053
REMARK INTRA:                  -0.161
REMARK UNBOUND:                 0.055
REMARK SMILES O=C([O-])C=Cc1ccc(O)cc1
REMARK SMILES IDX 6 1 7 2 12 3 8 4 11 5 9 6 5 7 4 8 2 9 1 10 3 11 10 12
REMARK H PARENT 10 13
REMARK Flexibility Score: inf
ROOT
ATOM      1  C   UNL     1      -6.117  -7.642  -1.522  1.00  0.00    -0.025 A 
ATOM      2  C   UNL     1      -6.193  -6.308  -1.098  1.00  0.00     0.012 A 
ATOM      3  C   UNL     1      -7.226  -8.224  -2.162  1.00  0.00     0.012 A 
ATOM      4  C   UNL     1      -7.338  -5.548  -1.357  1.00  0.00     0.047 A 
ATOM      5  C   UNL     1      -8.370  -7.463  -2.420  1.00  0.00     0.047 A 
ATOM      6  C   UNL     1      -8.427  -6.121  -2.021  1.00  0.00     0.115 A 
ENDROOT
BRANCH   1   7
ATOM      7  C   UNL     1      -4.919  -8.441  -1.190  1.00  0.00     0.010 C 
ATOM      8  C   UNL     1      -3.715  -8.312  -1.768  1.00  0.00     0.025 C 
BRANCH   8   9
ATOM      9  C   UNL     1      -3.322  -7.234  -2.695  1.00  0.00     0.064 C 
ATOM     10  O   UNL     1      -2.732  -6.217  -2.243  1.00  0.00    -0.545 OA
ATOM     11  O   UNL     1      -3.653  -7.279  -4.045  1.00  0.00    -0.545 OA
ENDBRANCH   8   9
ENDBRANCH   1   7
BRANCH   6  12
ATOM     12  O   UNL     1      -9.561  -5.352  -2.273  1.00  0.00    -0.508 OA
ATOM     13  H   UNL     1      -9.588  -4.362  -2.057  1.00  0.00     0.293 HD
ENDBRANCH   6  12
TORSDOF 3
ENDMDL
MODEL 8
REMARK VINA RESULT:    -4.583     11.177     13.114
REMARK INTER + INTRA:          -5.198
REMARK INTER:                  -4.960
REMARK INTRA:                  -0.238
REMARK UNBOUND:                 0.055
REMARK SMILES O=C([O-])C=Cc1ccc(O)cc1
REMARK SMILES IDX 6 1 7 2 12 3 8 4 11 5 9 6 5 7 4 8 2 9 1 10 3 11 10 12
REMARK H PARENT 10 13
REMARK Flexibility Score: inf
ROOT
ATOM      1  C   UNL     1      -3.628  -8.074  -1.247  1.00  0.00    -0.025 A 
ATOM      2  C   UNL     1      -4.532  -9.140  -1.125  1.00  0.00     0.012 A 
ATOM      3  C   UNL     1      -4.120  -6.779  -1.487  1.00  0.00     0.012 A 
ATOM      4  C   UNL     1      -5.910  -8.908  -1.189  1.00  0.00     0.047 A 
ATOM      5  C   UNL     1      -5.498  -6.549  -1.550  1.00  0.00     0.047 A 
ATOM      6  C   UNL     1      -6.396  -7.614  -1.397  1.00  0.00     0.115 A 
ENDROOT
BRANCH   1   7
ATOM      7  C   UNL     1      -2.177  -8.351  -1.231  1.00  0.00     0.010 C 
ATOM      8  C   UNL     1      -1.457  -8.782  -2.278  1.00  0.00     0.025 C 
BRANCH   8   9
ATOM      9  C   UNL     1      -1.941  -8.874  -3.669  1.00  0.00     0.064 C 
ATOM     10  O   UNL     1      -1.599  -7.992  -4.500  1.00  0.00    -0.545 OA
ATOM     11  O   UNL     1      -2.824  -9.872  -4.067  1.00  0.00    -0.545 OA
ENDBRANCH   8   9
ENDBRANCH   1   7
BRANCH   6  12
ATOM     12  O   UNL     1      -7.771  -7.397  -1.457  1.00  0.00    -0.508 OA
ATOM     13  H   UNL     1      -8.288  -7.052  -0.657  1.00  0.00     0.293 HD
ENDBRANCH   6  12
TORSDOF 3
ENDMDL
MODEL 9
REMARK VINA RESULT:    -4.534     13.567     15.402
REMARK INTER + INTRA:          -5.142
REMARK INTER:                  -4.843
REMARK INTRA:                  -0.299
REMARK UNBOUND:                 0.055
REMARK SMILES O=C([O-])C=Cc1ccc(O)cc1
REMARK SMILES IDX 6 1 7 2 12 3 8 4 11 5 9 6 5 7 4 8 2 9 1 10 3 11 10 12
REMARK H PARENT 10 13
REMARK Flexibility Score: inf
ROOT
ATOM      1  C   UNL     1      -7.112  -7.140  -1.649  1.00  0.00    -0.025 A 
ATOM      2  C   UNL     1      -5.956  -6.346  -1.643  1.00  0.00     0.012 A 
ATOM      3  C   UNL     1      -6.996  -8.526  -1.438  1.00  0.00     0.012 A 
ATOM      4  C   UNL     1      -4.707  -6.919  -1.377  1.00  0.00     0.047 A 
ATOM      5  C   UNL     1      -5.747  -9.096  -1.172  1.00  0.00     0.047 A 
ATOM      6  C   UNL     1      -4.600  -8.292  -1.137  1.00  0.00     0.115 A 
ENDROOT
BRANCH   1   7
ATOM      7  C   UNL     1      -8.411  -6.523  -1.986  1.00  0.00     0.010 C 
ATOM      8  C   UNL     1      -9.321  -6.094  -1.098  1.00  0.00     0.025 C 
BRANCH   8   9
ATOM      9  C   UNL     1      -9.110  -5.987   0.359  1.00  0.00     0.064 C 
ATOM     10  O   UNL     1      -8.540  -4.965   0.824  1.00  0.00    -0.545 OA
ATOM     11  O   UNL     1      -9.460  -7.018   1.222  1.00  0.00    -0.545 OA
ENDBRANCH   8   9
ENDBRANCH   1   7
BRANCH   6  12
ATOM     12  O   UNL     1      -3.350  -8.848  -0.872  1.00  0.00    -0.508 OA
ATOM     13  H   UNL     1      -3.113  -9.204   0.046  1.00  0.00     0.293 HD
ENDBRANCH   6  12
TORSDOF 3
ENDMDL
