MODEL 1
REMARK VINA RESULT:    -3.682      0.000      0.000
REMARK INTER + INTRA:          -4.936
REMARK INTER:                  -5.405
REMARK INTRA:                   0.468
REMARK UNBOUND:                 0.468
REMARK SMILES C=C1CC=CC(C)(C)CC=C(C)CCC1
REMARK SMILES IDX 2 1 1 2 15 3 14 4 13 5 11 6 12 7 10 8 3 10 4 11 5 12 6 13
REMARK SMILES IDX 7 14 8 15 9 16
REMARK H PARENT
REMARK Flexibility Score: 60.00
ROOT
ATOM      1  C   UNL     1     144.074 143.115 132.341  1.00  0.00    -0.074 C 
ATOM      2  C   UNL     1     145.064 143.261 131.443  1.00  0.00     0.008 C 
ENDROOT
BRANCH   1   3
ATOM      3  C   UNL     1     144.358 142.374 133.639  1.00  0.00     0.031 C 
BRANCH   3   4
ATOM      4  C   UNL     1     144.375 140.839 133.468  1.00  0.00     0.009 C 
BRANCH   4   5
ATOM      5  C   UNL     1     142.950 140.264 133.308  1.00  0.00     0.030 C 
BRANCH   5   6
ATOM      6  C   UNL     1     142.086 140.374 134.555  1.00  0.00    -0.077 C 
ATOM      7  C   UNL     1     142.476 139.591 135.783  1.00  0.00     0.039 C 
ATOM      8  C   UNL     1     141.033 141.222 134.650  1.00  0.00    -0.027 CG0
ATOM      9  G   UNL     1     140.457 142.012 133.498  1.00  0.00     0.000 G0
ENDBRANCH   5   6
ENDBRANCH   4   5
ENDBRANCH   3   4
ENDBRANCH   1   3
BRANCH   1  10
ATOM     10  C   UNL     1     142.722 143.782 132.130  1.00  0.00     0.057 C 
BRANCH  10  11
ATOM     11  C   UNL     1     142.192 144.579 133.315  1.00  0.00    -0.026 C 
ATOM     12  C   UNL     1     141.044 144.425 134.027  1.00  0.00    -0.024 C 
BRANCH  12  13
ATOM     13  C   UNL     1     139.886 143.434 133.822  1.00  0.00    -0.014 C 
ATOM     14  C   UNL     1     139.066 143.904 132.595  1.00  0.00     0.016 C 
ATOM     15  C   UNL     1     138.924 143.470 135.031  1.00  0.00     0.016 C 
BRANCH  13  16
ATOM     16  C   UNL     1     140.460 142.025 133.493  1.00  0.00     0.038 CG0
ATOM     17  G   UNL     1     141.008 141.233 134.657  1.00  0.00     0.000 G0
ENDBRANCH  13  16
ENDBRANCH  12  13
ENDBRANCH  10  11
ENDBRANCH   1  10
TORSDOF 0
ENDMDL
MODEL 2
REMARK VINA RESULT:    -3.635      2.024      4.283
REMARK INTER + INTRA:          -4.867
REMARK INTER:                  -5.230
REMARK INTRA:                   0.363
REMARK UNBOUND:                 0.468
REMARK SMILES C=C1CC=CC(C)(C)CC=C(C)CCC1
REMARK SMILES IDX 2 1 1 2 15 3 14 4 13 5 11 6 12 7 10 8 3 10 4 11 5 12 6 13
REMARK SMILES IDX 7 14 8 15 9 16
REMARK H PARENT
REMARK Flexibility Score: 60.00
ROOT
ATOM      1  C   UNL     1     144.328 140.305 135.152  1.00  0.00    -0.074 C 
ATOM      2  C   UNL     1     144.760 140.847 136.305  1.00  0.00     0.008 C 
ENDROOT
BRANCH   1   3
ATOM      3  C   UNL     1     144.850 140.858 133.835  1.00  0.00     0.031 C 
BRANCH   3   4
ATOM      4  C   UNL     1     144.352 142.290 133.539  1.00  0.00     0.009 C 
BRANCH   4   5
ATOM      5  C   UNL     1     142.841 142.442 133.823  1.00  0.00     0.030 C 
BRANCH   5   6
ATOM      6  C   UNL     1     141.951 142.227 132.608  1.00  0.00    -0.077 C 
ATOM      7  C   UNL     1     142.191 143.059 131.374  1.00  0.00     0.039 C 
ATOM      8  C   UNL     1     141.012 141.252 132.545  1.00  0.00    -0.027 CG0
ATOM      9  G   UNL     1     140.586 140.391 133.711  1.00  0.00     0.000 G0
ENDBRANCH   5   6
ENDBRANCH   4   5
ENDBRANCH   3   4
ENDBRANCH   1   3
BRANCH   1  10
ATOM     10  C   UNL     1     143.425 139.080 135.154  1.00  0.00     0.057 C 
BRANCH  10  11
ATOM     11  C   UNL     1     143.158 138.461 133.788  1.00  0.00    -0.026 C 
ATOM     12  C   UNL     1     142.000 138.377 133.078  1.00  0.00    -0.024 C 
BRANCH  12  13
ATOM     13  C   UNL     1     140.581 138.828 133.459  1.00  0.00    -0.014 C 
ATOM     14  C   UNL     1     140.199 138.133 134.790  1.00  0.00     0.016 C 
ATOM     15  C   UNL     1     139.559 138.343 132.404  1.00  0.00     0.016 C 
BRANCH  13  16
ATOM     16  C   UNL     1     140.572 140.363 133.710  1.00  0.00     0.038 CG0
ATOM     17  G   UNL     1     141.006 141.236 132.556  1.00  0.00     0.000 G0
ENDBRANCH  13  16
ENDBRANCH  12  13
ENDBRANCH  10  11
ENDBRANCH   1  10
TORSDOF 0
ENDMDL
MODEL 3
REMARK VINA RESULT:    -3.576      1.652      3.685
REMARK INTER + INTRA:          -4.781
REMARK INTER:                  -5.093
REMARK INTRA:                   0.313
REMARK UNBOUND:                 0.468
REMARK SMILES C=C1CC=CC(C)(C)CC=C(C)CCC1
REMARK SMILES IDX 2 1 1 2 15 3 14 4 13 5 11 6 12 7 10 8 3 10 4 11 5 12 6 13
REMARK SMILES IDX 7 14 8 15 9 16
REMARK H PARENT
REMARK Flexibility Score: 60.00
ROOT
ATOM      1  C   UNL     1     139.851 144.285 133.300  1.00  0.00    -0.074 C 
ATOM      2  C   UNL     1     139.267 144.663 132.148  1.00  0.00     0.008 C 
ENDROOT
BRANCH   1   3
ATOM      3  C   UNL     1     141.188 144.900 133.686  1.00  0.00     0.031 C 
BRANCH   3   4
ATOM      4  C   UNL     1     142.256 143.845 134.052  1.00  0.00     0.009 C 
BRANCH   4   5
ATOM      5  C   UNL     1     142.604 142.941 132.848  1.00  0.00     0.030 C 
BRANCH   5   6
ATOM      6  C   UNL     1     142.973 141.513 133.223  1.00  0.00    -0.077 C 
ATOM      7  C   UNL     1     144.363 141.231 133.735  1.00  0.00     0.039 C 
ATOM      8  C   UNL     1     142.079 140.494 133.213  1.00  0.00    -0.027 CG0
ATOM      9  G   UNL     1     140.679 140.582 132.653  1.00  0.00     0.000 G0
ENDBRANCH   5   6
ENDBRANCH   4   5
ENDBRANCH   3   4
ENDBRANCH   1   3
BRANCH   1  10
ATOM     10  C   UNL     1     139.139 143.351 134.268  1.00  0.00     0.057 C 
BRANCH  10  11
ATOM     11  C   UNL     1     138.157 142.374 133.633  1.00  0.00    -0.026 C 
ATOM     12  C   UNL     1     138.291 141.046 133.374  1.00  0.00    -0.024 C 
BRANCH  12  13
ATOM     13  C   UNL     1     139.502 140.123 133.583  1.00  0.00    -0.014 C 
ATOM     14  C   UNL     1     139.090 138.690 133.162  1.00  0.00     0.016 C 
ATOM     15  C   UNL     1     139.872 140.048 135.082  1.00  0.00     0.016 C 
BRANCH  13  16
ATOM     16  C   UNL     1     140.665 140.571 132.650  1.00  0.00     0.038 CG0
ATOM     17  G   UNL     1     142.059 140.494 133.228  1.00  0.00     0.000 G0
ENDBRANCH  13  16
ENDBRANCH  12  13
ENDBRANCH  10  11
ENDBRANCH   1  10
TORSDOF 0
ENDMDL
MODEL 4
REMARK VINA RESULT:    -3.538      2.280      4.746
REMARK INTER + INTRA:          -4.724
REMARK INTER:                  -5.155
REMARK INTRA:                   0.431
REMARK UNBOUND:                 0.468
REMARK SMILES C=C1CC=CC(C)(C)CC=C(C)CCC1
REMARK SMILES IDX 2 1 1 2 15 3 14 4 13 5 11 6 12 7 10 8 3 10 4 11 5 12 6 13
REMARK SMILES IDX 7 14 8 15 9 16
REMARK H PARENT
REMARK Flexibility Score: 60.00
ROOT
ATOM      1  C   UNL     1     138.200 142.360 133.363  1.00  0.00    -0.074 C 
ATOM      2  C   UNL     1     138.332 142.824 132.108  1.00  0.00     0.008 C 
ENDROOT
BRANCH   1   3
ATOM      3  C   UNL     1     138.765 143.175 134.517  1.00  0.00     0.031 C 
BRANCH   3   4
ATOM      4  C   UNL     1     140.005 144.007 134.119  1.00  0.00     0.009 C 
BRANCH   4   5
ATOM      5  C   UNL     1     141.291 143.151 134.114  1.00  0.00     0.030 C 
BRANCH   5   6
ATOM      6  C   UNL     1     141.517 142.351 135.388  1.00  0.00    -0.077 C 
ATOM      7  C   UNL     1     141.936 143.080 136.640  1.00  0.00     0.039 C 
ATOM      8  C   UNL     1     141.263 141.023 135.479  1.00  0.00    -0.027 CG0
ATOM      9  G   UNL     1     140.922 140.130 134.310  1.00  0.00     0.000 G0
ENDBRANCH   5   6
ENDBRANCH   4   5
ENDBRANCH   3   4
ENDBRANCH   1   3
BRANCH   1  10
ATOM     10  C   UNL     1     137.393 141.101 133.651  1.00  0.00     0.057 C 
BRANCH  10  11
ATOM     11  C   UNL     1     137.897 139.832 132.975  1.00  0.00    -0.026 C 
ATOM     12  C   UNL     1     138.874 138.967 133.358  1.00  0.00    -0.024 C 
BRANCH  12  13
ATOM     13  C   UNL     1     139.823 139.031 134.565  1.00  0.00    -0.014 C 
ATOM     14  C   UNL     1     140.548 137.666 134.678  1.00  0.00     0.016 C 
ATOM     15  C   UNL     1     139.020 139.209 135.875  1.00  0.00     0.016 C 
BRANCH  13  16
ATOM     16  C   UNL     1     140.907 140.121 134.317  1.00  0.00     0.038 CG0
ATOM     17  G   UNL     1     141.251 141.007 135.491  1.00  0.00     0.000 G0
ENDBRANCH  13  16
ENDBRANCH  12  13
ENDBRANCH  10  11
ENDBRANCH   1  10
TORSDOF 0
ENDMDL
MODEL 5
REMARK VINA RESULT:    -3.505      2.173      5.394
REMARK INTER + INTRA:          -4.676
REMARK INTER:                  -5.246
REMARK INTRA:                   0.570
REMARK UNBOUND:                 0.468
REMARK SMILES C=C1CC=CC(C)(C)CC=C(C)CCC1
REMARK SMILES IDX 2 1 1 2 15 3 14 4 13 5 11 6 12 7 10 8 3 10 4 11 5 12 6 13
REMARK SMILES IDX 7 14 8 15 9 16
REMARK H PARENT
REMARK Flexibility Score: 60.00
ROOT
ATOM      1  C   UNL     1     138.000 139.939 133.436  1.00  0.00    -0.074 C 
ATOM      2  C   UNL     1     137.857 139.566 132.151  1.00  0.00     0.008 C 
ENDROOT
BRANCH   1   3
ATOM      3  C   UNL     1     137.265 141.176 133.932  1.00  0.00     0.031 C 
BRANCH   3   4
ATOM      4  C   UNL     1     138.217 142.317 134.352  1.00  0.00     0.009 C 
BRANCH   4   5
ATOM      5  C   UNL     1     139.185 142.706 133.213  1.00  0.00     0.030 C 
BRANCH   5   6
ATOM      6  C   UNL     1     140.629 142.892 133.654  1.00  0.00    -0.077 C 
ATOM      7  C   UNL     1     141.031 144.196 134.297  1.00  0.00     0.039 C 
ATOM      8  C   UNL     1     141.554 141.904 133.587  1.00  0.00    -0.027 CG0
ATOM      9  G   UNL     1     141.345 140.575 132.900  1.00  0.00     0.000 G0
ENDBRANCH   5   6
ENDBRANCH   4   5
ENDBRANCH   3   4
ENDBRANCH   1   3
BRANCH   1  10
ATOM     10  C   UNL     1     138.782 139.079 134.418  1.00  0.00     0.057 C 
BRANCH  10  11
ATOM     11  C   UNL     1     139.712 138.049 133.790  1.00  0.00    -0.026 C 
ATOM     12  C   UNL     1     141.033 138.141 133.477  1.00  0.00    -0.024 C 
BRANCH  12  13
ATOM     13  C   UNL     1     141.990 139.337 133.601  1.00  0.00    -0.014 C 
ATOM     14  C   UNL     1     143.294 138.988 132.840  1.00  0.00     0.016 C 
ATOM     15  C   UNL     1     142.392 139.555 135.078  1.00  0.00     0.016 C 
BRANCH  13  16
ATOM     16  C   UNL     1     141.360 140.581 132.911  1.00  0.00     0.038 CG0
ATOM     17  G   UNL     1     141.564 141.909 133.603  1.00  0.00     0.000 G0
ENDBRANCH  13  16
ENDBRANCH  12  13
ENDBRANCH  10  11
ENDBRANCH   1  10
TORSDOF 0
ENDMDL
MODEL 6
REMARK VINA RESULT:    -3.488      2.019      3.957
REMARK INTER + INTRA:          -4.651
REMARK INTER:                  -4.848
REMARK INTRA:                   0.198
REMARK UNBOUND:                 0.468
REMARK SMILES C=C1CC=CC(C)(C)CC=C(C)CCC1
REMARK SMILES IDX 2 1 1 2 15 3 14 4 13 5 11 6 12 7 10 8 3 10 4 11 5 12 6 13
REMARK SMILES IDX 7 14 8 15 9 16
REMARK H PARENT
REMARK Flexibility Score: 60.00
ROOT
ATOM      1  C   UNL     1     141.716 137.996 133.396  1.00  0.00    -0.074 C 
ATOM      2  C   UNL     1     142.875 137.806 132.741  1.00  0.00     0.008 C 
ENDROOT
BRANCH   1   3
ATOM      3  C   UNL     1     141.726 138.035 134.917  1.00  0.00     0.031 C 
BRANCH   3   4
ATOM      4  C   UNL     1     142.963 138.757 135.496  1.00  0.00     0.009 C 
BRANCH   4   5
ATOM      5  C   UNL     1     142.674 140.248 135.784  1.00  0.00     0.030 C 
BRANCH   5   6
ATOM      6  C   UNL     1     142.659 141.133 134.547  1.00  0.00    -0.077 C 
ATOM      7  C   UNL     1     143.961 141.426 133.845  1.00  0.00     0.039 C 
ATOM      8  C   UNL     1     141.515 141.594 133.984  1.00  0.00    -0.027 CG0
ATOM      9  G   UNL     1     140.141 141.467 134.599  1.00  0.00     0.000 G0
ENDBRANCH   5   6
ENDBRANCH   4   5
ENDBRANCH   3   4
ENDBRANCH   1   3
BRANCH   1  10
ATOM     10  C   UNL     1     140.429 138.291 132.640  1.00  0.00     0.057 C 
BRANCH  10  11
ATOM     11  C   UNL     1     139.189 138.480 133.506  1.00  0.00    -0.026 C 
ATOM     12  C   UNL     1     138.571 139.623 133.907  1.00  0.00    -0.024 C 
BRANCH  12  13
ATOM     13  C   UNL     1     138.964 141.089 133.664  1.00  0.00    -0.014 C 
ATOM     14  C   UNL     1     137.752 141.979 134.040  1.00  0.00     0.016 C 
ATOM     15  C   UNL     1     139.237 141.334 132.162  1.00  0.00     0.016 C 
BRANCH  13  16
ATOM     16  C   UNL     1     140.141 141.475 134.607  1.00  0.00     0.038 CG0
ATOM     17  G   UNL     1     141.507 141.578 133.970  1.00  0.00     0.000 G0
ENDBRANCH  13  16
ENDBRANCH  12  13
ENDBRANCH  10  11
ENDBRANCH   1  10
TORSDOF 0
ENDMDL
MODEL 7
REMARK VINA RESULT:    -3.486      2.207      5.557
REMARK INTER + INTRA:          -4.648
REMARK INTER:                  -5.082
REMARK INTRA:                   0.434
REMARK UNBOUND:                 0.468
REMARK SMILES C=C1CC=CC(C)(C)CC=C(C)CCC1
REMARK SMILES IDX 2 1 1 2 15 3 14 4 13 5 11 6 12 7 10 8 3 10 4 11 5 12 6 13
REMARK SMILES IDX 7 14 8 15 9 16
REMARK H PARENT
REMARK Flexibility Score: 60.00
ROOT
ATOM      1  C   UNL     1     139.150 138.687 134.760  1.00  0.00    -0.074 C 
ATOM      2  C   UNL     1     139.181 139.071 136.049  1.00  0.00     0.008 C 
ENDROOT
BRANCH   1   3
ATOM      3  C   UNL     1     138.015 139.175 133.872  1.00  0.00     0.031 C 
BRANCH   3   4
ATOM      4  C   UNL     1     137.898 140.715 133.831  1.00  0.00     0.009 C 
BRANCH   4   5
ATOM      5  C   UNL     1     138.817 141.331 132.753  1.00  0.00     0.030 C 
BRANCH   5   6
ATOM      6  C   UNL     1     140.080 141.977 133.301  1.00  0.00    -0.077 C 
ATOM      7  C   UNL     1     139.957 143.248 134.104  1.00  0.00     0.039 C 
ATOM      8  C   UNL     1     141.307 141.412 133.189  1.00  0.00    -0.027 CG0
ATOM      9  G   UNL     1     141.619 140.194 132.352  1.00  0.00     0.000 G0
ENDBRANCH   5   6
ENDBRANCH   4   5
ENDBRANCH   3   4
ENDBRANCH   1   3
BRANCH   1  10
ATOM     10  C   UNL     1     140.291 137.880 134.157  1.00  0.00     0.057 C 
BRANCH  10  11
ATOM     11  C   UNL     1     141.673 138.173 134.726  1.00  0.00    -0.026 C 
ATOM     12  C   UNL     1     142.736 138.804 134.158  1.00  0.00    -0.024 C 
BRANCH  12  13
ATOM     13  C   UNL     1     142.898 139.368 132.738  1.00  0.00    -0.014 C 
ATOM     14  C   UNL     1     143.011 138.174 131.757  1.00  0.00     0.016 C 
ATOM     15  C   UNL     1     144.223 140.157 132.619  1.00  0.00     0.016 C 
BRANCH  13  16
ATOM     16  C   UNL     1     141.626 140.177 132.352  1.00  0.00     0.038 CG0
ATOM     17  G   UNL     1     141.322 141.395 133.191  1.00  0.00     0.000 G0
ENDBRANCH  13  16
ENDBRANCH  12  13
ENDBRANCH  10  11
ENDBRANCH   1  10
TORSDOF 0
ENDMDL
MODEL 8
REMARK VINA RESULT:    -3.479      2.232      4.387
REMARK INTER + INTRA:          -4.639
REMARK INTER:                  -4.810
REMARK INTRA:                   0.172
REMARK UNBOUND:                 0.468
REMARK SMILES C=C1CC=CC(C)(C)CC=C(C)CCC1
REMARK SMILES IDX 2 1 1 2 15 3 14 4 13 5 11 6 12 7 10 8 3 10 4 11 5 12 6 13
REMARK SMILES IDX 7 14 8 15 9 16
REMARK H PARENT
REMARK Flexibility Score: 60.00
ROOT
ATOM      1  C   UNL     1     142.145 137.915 133.759  1.00  0.00    -0.074 C 
ATOM      2  C   UNL     1     141.025 137.175 133.684  1.00  0.00     0.008 C 
ENDROOT
BRANCH   1   3
ATOM      3  C   UNL     1     143.048 138.014 132.538  1.00  0.00     0.031 C 
BRANCH   3   4
ATOM      4  C   UNL     1     142.263 138.097 131.210  1.00  0.00     0.009 C 
BRANCH   4   5
ATOM      5  C   UNL     1     142.094 139.557 130.734  1.00  0.00     0.030 C 
BRANCH   5   6
ATOM      6  C   UNL     1     140.950 140.306 131.402  1.00  0.00    -0.077 C 
ATOM      7  C   UNL     1     139.533 139.901 131.085  1.00  0.00     0.039 C 
ATOM      8  C   UNL     1     141.144 141.258 132.347  1.00  0.00    -0.027 CG0
ATOM      9  G   UNL     1     142.487 141.840 132.720  1.00  0.00     0.000 G0
ENDBRANCH   5   6
ENDBRANCH   4   5
ENDBRANCH   3   4
ENDBRANCH   1   3
BRANCH   1  10
ATOM     10  C   UNL     1     142.455 138.742 134.998  1.00  0.00     0.057 C 
BRANCH  10  11
ATOM     11  C   UNL     1     143.715 139.596 134.918  1.00  0.00    -0.026 C 
ATOM     12  C   UNL     1     143.856 140.920 134.640  1.00  0.00    -0.024 C 
BRANCH  12  13
ATOM     13  C   UNL     1     142.793 141.961 134.257  1.00  0.00    -0.014 C 
ATOM     14  C   UNL     1     143.387 143.369 134.513  1.00  0.00     0.016 C 
ATOM     15  C   UNL     1     141.557 141.835 135.178  1.00  0.00     0.016 C 
BRANCH  13  16
ATOM     16  C   UNL     1     142.481 141.851 132.736  1.00  0.00     0.038 CG0
ATOM     17  G   UNL     1     141.142 141.258 132.365  1.00  0.00     0.000 G0
ENDBRANCH  13  16
ENDBRANCH  12  13
ENDBRANCH  10  11
ENDBRANCH   1  10
TORSDOF 0
ENDMDL
MODEL 9
REMARK VINA RESULT:    -3.387      2.247      4.255
REMARK INTER + INTRA:          -4.503
REMARK INTER:                  -4.831
REMARK INTRA:                   0.328
REMARK UNBOUND:                 0.468
REMARK SMILES C=C1CC=CC(C)(C)CC=C(C)CCC1
REMARK SMILES IDX 2 1 1 2 15 3 14 4 13 5 11 6 12 7 10 8 3 10 4 11 5 12 6 13
REMARK SMILES IDX 7 14 8 15 9 16
REMARK H PARENT
REMARK Flexibility Score: 60.00
ROOT
ATOM      1  C   UNL     1     143.354 138.797 131.824  1.00  0.00    -0.074 C 
ATOM      2  C   UNL     1     143.996 138.607 130.657  1.00  0.00     0.008 C 
ENDROOT
BRANCH   1   3
ATOM      3  C   UNL     1     144.065 139.542 132.944  1.00  0.00     0.031 C 
BRANCH   3   4
ATOM      4  C   UNL     1     143.990 141.077 132.793  1.00  0.00     0.009 C 
BRANCH   4   5
ATOM      5  C   UNL     1     143.065 141.713 133.854  1.00  0.00     0.030 C 
BRANCH   5   6
ATOM      6  C   UNL     1     141.642 141.961 133.379  1.00  0.00    -0.077 C 
ATOM      7  C   UNL     1     141.391 143.057 132.373  1.00  0.00     0.039 C 
ATOM      8  C   UNL     1     140.596 141.178 133.740  1.00  0.00    -0.027 CG0
ATOM      9  G   UNL     1     140.654 140.099 134.796  1.00  0.00     0.000 G0
ENDBRANCH   5   6
ENDBRANCH   4   5
ENDBRANCH   3   4
ENDBRANCH   1   3
BRANCH   1  10
ATOM     10  C   UNL     1     141.899 138.387 131.992  1.00  0.00     0.057 C 
BRANCH  10  11
ATOM     11  C   UNL     1     141.607 137.478 133.180  1.00  0.00    -0.026 C 
ATOM     12  C   UNL     1     140.728 137.637 134.206  1.00  0.00    -0.024 C 
BRANCH  12  13
ATOM     13  C   UNL     1     139.794 138.814 134.524  1.00  0.00    -0.014 C 
ATOM     14  C   UNL     1     139.024 138.477 135.826  1.00  0.00     0.016 C 
ATOM     15  C   UNL     1     138.728 138.973 133.416  1.00  0.00     0.016 C 
BRANCH  13  16
ATOM     16  C   UNL     1     140.641 140.092 134.795  1.00  0.00     0.038 CG0
ATOM     17  G   UNL     1     140.591 141.169 133.738  1.00  0.00     0.000 G0
ENDBRANCH  13  16
ENDBRANCH  12  13
ENDBRANCH  10  11
ENDBRANCH   1  10
TORSDOF 0
ENDMDL
