MODEL 1
REMARK VINA RESULT:    -5.147      0.000      0.000
REMARK INTER + INTRA:         -12.262
REMARK INTER:                  -9.961
REMARK INTRA:                  -2.301
REMARK UNBOUND:                -2.301
REMARK SMILES CCCCCCCCCCCCCCCCCC(=O)[O-]
REMARK SMILES IDX 10 1 11 2 12 3 13 4 14 5 15 6 16 7 17 8 18 9 19 10 20 11
REMARK SMILES IDX 9 12 8 13 7 14 6 15 5 16 4 17 3 18 2 19 1 20
REMARK H PARENT
REMARK Flexibility Score: inf
ROOT
ATOM      1  C   UNL     1      22.580  10.388  35.871  1.00  0.00     0.000 C 
ENDROOT
BRANCH   1   2
ATOM      2  C   UNL     1      23.451  11.321  35.008  1.00  0.00     0.000 C 
BRANCH   2   3
ATOM      3  C   UNL     1      23.961  12.544  35.783  1.00  0.00     0.000 C 
BRANCH   3   4
ATOM      4  C   UNL     1      25.494  12.628  35.733  1.00  0.00     0.000 C 
BRANCH   4   5
ATOM      5  C   UNL     1      26.135  11.350  35.155  1.00  0.00     0.000 C 
BRANCH   5   6
ATOM      6  C   UNL     1      27.509  11.577  34.493  1.00  0.00     0.000 C 
BRANCH   6   7
ATOM      7  C   UNL     1      27.586  12.847  33.623  1.00  0.00     0.006 C 
BRANCH   7   8
ATOM      8  C   UNL     1      26.965  12.645  32.234  1.00  0.00     0.053 C 
BRANCH   8   9
ATOM      9  C   UNL     1      27.980  12.099  31.281  1.00  0.00     0.041 C 
ATOM     10  O   UNL     1      28.933  12.821  30.888  1.00  0.00    -0.550 OA
ATOM     11  O   UNL     1      27.846  10.808  30.787  1.00  0.00    -0.550 OA
ENDBRANCH   8   9
ENDBRANCH   7   8
ENDBRANCH   6   7
ENDBRANCH   5   6
ENDBRANCH   4   5
ENDBRANCH   3   4
ENDBRANCH   2   3
ENDBRANCH   1   2
BRANCH   1  12
ATOM     12  C   UNL     1      21.097  10.320  35.459  1.00  0.00     0.000 C 
BRANCH  12  13
ATOM     13  C   UNL     1      20.821   9.627  34.109  1.00  0.00    -0.000 C 
BRANCH  13  14
ATOM     14  C   UNL     1      20.176  10.522  33.037  1.00  0.00    -0.000 C 
BRANCH  14  15
ATOM     15  C   UNL     1      21.193  11.072  32.028  1.00  0.00    -0.000 C 
BRANCH  15  16
ATOM     16  C   UNL     1      21.493  12.553  32.303  1.00  0.00    -0.000 C 
BRANCH  16  17
ATOM     17  C   UNL     1      20.364  13.260  33.074  1.00  0.00    -0.000 C 
BRANCH  17  18
ATOM     18  C   UNL     1      20.818  14.068  34.307  1.00  0.00    -0.000 C 
BRANCH  18  19
ATOM     19  C   UNL     1      20.244  13.582  35.650  1.00  0.00    -0.003 C 
ATOM     20  C   UNL     1      18.793  13.116  35.543  1.00  0.00     0.004 C 
ENDBRANCH  18  19
ENDBRANCH  17  18
ENDBRANCH  16  17
ENDBRANCH  15  16
ENDBRANCH  14  15
ENDBRANCH  13  14
ENDBRANCH  12  13
ENDBRANCH   1  12
TORSDOF 16
ENDMDL
MODEL 2
REMARK VINA RESULT:    -5.143      1.131      2.560
REMARK INTER + INTRA:         -12.255
REMARK INTER:                  -9.870
REMARK INTRA:                  -2.385
REMARK UNBOUND:                -2.301
REMARK SMILES CCCCCCCCCCCCCCCCCC(=O)[O-]
REMARK SMILES IDX 10 1 11 2 12 3 13 4 14 5 15 6 16 7 17 8 18 9 19 10 20 11
REMARK SMILES IDX 9 12 8 13 7 14 6 15 5 16 4 17 3 18 2 19 1 20
REMARK H PARENT
REMARK Flexibility Score: inf
ROOT
ATOM      1  C   UNL     1      23.343  11.584  34.170  1.00  0.00     0.000 C 
ENDROOT
BRANCH   1   2
ATOM      2  C   UNL     1      23.556  12.528  35.368  1.00  0.00     0.000 C 
BRANCH   2   3
ATOM      3  C   UNL     1      24.858  12.238  36.130  1.00  0.00     0.000 C 
BRANCH   3   4
ATOM      4  C   UNL     1      25.781  11.319  35.313  1.00  0.00     0.000 C 
BRANCH   4   5
ATOM      5  C   UNL     1      27.215  11.873  35.205  1.00  0.00     0.000 C 
BRANCH   5   6
ATOM      6  C   UNL     1      27.291  13.343  34.746  1.00  0.00     0.000 C 
BRANCH   6   7
ATOM      7  C   UNL     1      27.317  13.523  33.216  1.00  0.00     0.006 C 
BRANCH   7   8
ATOM      8  C   UNL     1      28.108  12.414  32.508  1.00  0.00     0.053 C 
BRANCH   8   9
ATOM      9  C   UNL     1      27.259  11.743  31.475  1.00  0.00     0.041 C 
ATOM     10  O   UNL     1      26.080  12.135  31.272  1.00  0.00    -0.550 OA
ATOM     11  O   UNL     1      27.752  10.652  30.772  1.00  0.00    -0.550 OA
ENDBRANCH   8   9
ENDBRANCH   7   8
ENDBRANCH   6   7
ENDBRANCH   5   6
ENDBRANCH   4   5
ENDBRANCH   3   4
ENDBRANCH   2   3
ENDBRANCH   1   2
BRANCH   1  12
ATOM     12  C   UNL     1      22.912  12.281  32.865  1.00  0.00     0.000 C 
BRANCH  12  13
ATOM     13  C   UNL     1      21.409  12.183  32.533  1.00  0.00    -0.000 C 
BRANCH  13  14
ATOM     14  C   UNL     1      20.662  13.528  32.491  1.00  0.00    -0.000 C 
BRANCH  14  15
ATOM     15  C   UNL     1      20.652  14.248  33.847  1.00  0.00    -0.000 C 
BRANCH  15  16
ATOM     16  C   UNL     1      19.467  13.783  34.705  1.00  0.00    -0.000 C 
BRANCH  16  17
ATOM     17  C   UNL     1      19.892  12.872  35.871  1.00  0.00    -0.000 C 
BRANCH  17  18
ATOM     18  C   UNL     1      19.378  11.419  35.788  1.00  0.00    -0.000 C 
BRANCH  18  19
ATOM     19  C   UNL     1      20.476  10.341  35.798  1.00  0.00    -0.003 C 
ATOM     20  C   UNL     1      20.357   9.361  34.631  1.00  0.00     0.004 C 
ENDBRANCH  18  19
ENDBRANCH  17  18
ENDBRANCH  16  17
ENDBRANCH  15  16
ENDBRANCH  14  15
ENDBRANCH  13  14
ENDBRANCH  12  13
ENDBRANCH   1  12
TORSDOF 16
ENDMDL
MODEL 3
REMARK VINA RESULT:    -5.029      0.777      2.167
REMARK INTER + INTRA:         -12.034
REMARK INTER:                  -9.556
REMARK INTRA:                  -2.478
REMARK UNBOUND:                -2.301
REMARK SMILES CCCCCCCCCCCCCCCCCC(=O)[O-]
REMARK SMILES IDX 10 1 11 2 12 3 13 4 14 5 15 6 16 7 17 8 18 9 19 10 20 11
REMARK SMILES IDX 9 12 8 13 7 14 6 15 5 16 4 17 3 18 2 19 1 20
REMARK H PARENT
REMARK Flexibility Score: inf
ROOT
ATOM      1  C   UNL     1      22.372  10.483  35.878  1.00  0.00     0.000 C 
ENDROOT
BRANCH   1   2
ATOM      2  C   UNL     1      23.414  11.179  34.982  1.00  0.00     0.000 C 
BRANCH   2   3
ATOM      3  C   UNL     1      23.709  12.620  35.422  1.00  0.00     0.000 C 
BRANCH   3   4
ATOM      4  C   UNL     1      25.028  12.697  36.207  1.00  0.00     0.000 C 
BRANCH   4   5
ATOM      5  C   UNL     1      26.199  12.030  35.456  1.00  0.00     0.000 C 
BRANCH   5   6
ATOM      6  C   UNL     1      27.306  13.010  35.019  1.00  0.00     0.000 C 
BRANCH   6   7
ATOM      7  C   UNL     1      27.230  13.426  33.537  1.00  0.00     0.006 C 
BRANCH   7   8
ATOM      8  C   UNL     1      26.707  12.297  32.638  1.00  0.00     0.053 C 
BRANCH   8   9
ATOM      9  C   UNL     1      27.739  11.913  31.625  1.00  0.00     0.041 C 
ATOM     10  O   UNL     1      28.671  12.708  31.338  1.00  0.00    -0.550 OA
ATOM     11  O   UNL     1      27.642  10.697  30.961  1.00  0.00    -0.550 OA
ENDBRANCH   8   9
ENDBRANCH   7   8
ENDBRANCH   6   7
ENDBRANCH   5   6
ENDBRANCH   4   5
ENDBRANCH   3   4
ENDBRANCH   2   3
ENDBRANCH   1   2
BRANCH   1  12
ATOM     12  C   UNL     1      21.057  10.104  35.168  1.00  0.00     0.000 C 
BRANCH  12  13
ATOM     13  C   UNL     1      19.769  10.559  35.885  1.00  0.00    -0.000 C 
BRANCH  13  14
ATOM     14  C   UNL     1      19.145  11.856  35.340  1.00  0.00    -0.000 C 
BRANCH  14  15
ATOM     15  C   UNL     1      19.863  13.119  35.837  1.00  0.00    -0.000 C 
BRANCH  15  16
ATOM     16  C   UNL     1      20.379  13.956  34.659  1.00  0.00    -0.000 C 
BRANCH  16  17
ATOM     17  C   UNL     1      20.102  13.303  33.293  1.00  0.00    -0.000 C 
BRANCH  17  18
ATOM     18  C   UNL     1      21.357  12.870  32.506  1.00  0.00    -0.000 C 
BRANCH  18  19
ATOM     19  C   UNL     1      21.141  11.695  31.536  1.00  0.00    -0.003 C 
ATOM     20  C   UNL     1      19.839  10.940  31.796  1.00  0.00     0.004 C 
ENDBRANCH  18  19
ENDBRANCH  17  18
ENDBRANCH  16  17
ENDBRANCH  15  16
ENDBRANCH  14  15
ENDBRANCH  13  14
ENDBRANCH  12  13
ENDBRANCH   1  12
TORSDOF 16
ENDMDL
MODEL 4
REMARK VINA RESULT:    -4.939      1.577      3.502
REMARK INTER + INTRA:         -11.859
REMARK INTER:                  -9.441
REMARK INTRA:                  -2.418
REMARK UNBOUND:                -2.301
REMARK SMILES CCCCCCCCCCCCCCCCCC(=O)[O-]
REMARK SMILES IDX 10 1 11 2 12 3 13 4 14 5 15 6 16 7 17 8 18 9 19 10 20 11
REMARK SMILES IDX 9 12 8 13 7 14 6 15 5 16 4 17 3 18 2 19 1 20
REMARK H PARENT
REMARK Flexibility Score: inf
ROOT
ATOM      1  C   UNL     1      21.982  12.615  32.189  1.00  0.00     0.000 C 
ENDROOT
BRANCH   1   2
ATOM      2  C   UNL     1      22.315  11.534  33.235  1.00  0.00     0.000 C 
BRANCH   2   3
ATOM      3  C   UNL     1      22.960  12.111  34.503  1.00  0.00     0.000 C 
BRANCH   3   4
ATOM      4  C   UNL     1      23.227  11.006  35.537  1.00  0.00     0.000 C 
BRANCH   4   5
ATOM      5  C   UNL     1      24.669  11.045  36.080  1.00  0.00     0.000 C 
BRANCH   5   6
ATOM      6  C   UNL     1      25.355  12.420  35.949  1.00  0.00     0.000 C 
BRANCH   6   7
ATOM      7  C   UNL     1      26.679  12.390  35.161  1.00  0.00     0.006 C 
BRANCH   7   8
ATOM      8  C   UNL     1      26.727  11.247  34.138  1.00  0.00     0.053 C 
BRANCH   8   9
ATOM      9  C   UNL     1      26.836  11.791  32.749  1.00  0.00     0.041 C 
ATOM     10  O   UNL     1      27.834  11.509  32.035  1.00  0.00    -0.550 OA
ATOM     11  O   UNL     1      25.860  12.648  32.259  1.00  0.00    -0.550 OA
ENDBRANCH   8   9
ENDBRANCH   7   8
ENDBRANCH   6   7
ENDBRANCH   5   6
ENDBRANCH   4   5
ENDBRANCH   3   4
ENDBRANCH   2   3
ENDBRANCH   1   2
BRANCH   1  12
ATOM     12  C   UNL     1      20.523  13.112  32.213  1.00  0.00     0.000 C 
BRANCH  12  13
ATOM     13  C   UNL     1      20.202  14.153  33.305  1.00  0.00    -0.000 C 
BRANCH  13  14
ATOM     14  C   UNL     1      19.176  13.696  34.357  1.00  0.00    -0.000 C 
BRANCH  14  15
ATOM     15  C   UNL     1      19.820  13.355  35.709  1.00  0.00    -0.000 C 
BRANCH  15  16
ATOM     16  C   UNL     1      19.522  11.902  36.107  1.00  0.00    -0.000 C 
BRANCH  16  17
ATOM     17  C   UNL     1      18.981  11.059  34.938  1.00  0.00    -0.000 C 
BRANCH  17  18
ATOM     18  C   UNL     1      19.249   9.543  35.044  1.00  0.00    -0.000 C 
BRANCH  18  19
ATOM     19  C   UNL     1      20.112   9.118  36.246  1.00  0.00    -0.003 C 
ATOM     20  C   UNL     1      19.403   8.125  37.166  1.00  0.00     0.004 C 
ENDBRANCH  18  19
ENDBRANCH  17  18
ENDBRANCH  16  17
ENDBRANCH  15  16
ENDBRANCH  14  15
ENDBRANCH  13  14
ENDBRANCH  12  13
ENDBRANCH   1  12
TORSDOF 16
ENDMDL
MODEL 5
REMARK VINA RESULT:    -4.914      2.456      6.416
REMARK INTER + INTRA:         -11.811
REMARK INTER:                  -9.458
REMARK INTRA:                  -2.353
REMARK UNBOUND:                -2.301
REMARK SMILES CCCCCCCCCCCCCCCCCC(=O)[O-]
REMARK SMILES IDX 10 1 11 2 12 3 13 4 14 5 15 6 16 7 17 8 18 9 19 10 20 11
REMARK SMILES IDX 9 12 8 13 7 14 6 15 5 16 4 17 3 18 2 19 1 20
REMARK H PARENT
REMARK Flexibility Score: inf
ROOT
ATOM      1  C   UNL     1      22.496  10.793  35.821  1.00  0.00     0.000 C 
ENDROOT
BRANCH   1   2
ATOM      2  C   UNL     1      21.348  10.172  35.003  1.00  0.00     0.000 C 
BRANCH   2   3
ATOM      3  C   UNL     1      20.004  10.879  35.234  1.00  0.00     0.000 C 
BRANCH   3   4
ATOM      4  C   UNL     1      20.198  12.190  36.012  1.00  0.00     0.000 C 
BRANCH   4   5
ATOM      5  C   UNL     1      19.629  13.410  35.261  1.00  0.00     0.000 C 
BRANCH   5   6
ATOM      6  C   UNL     1      20.650  14.124  34.353  1.00  0.00     0.000 C 
BRANCH   6   7
ATOM      7  C   UNL     1      20.476  13.823  32.852  1.00  0.00     0.006 C 
BRANCH   7   8
ATOM      8  C   UNL     1      21.492  12.794  32.339  1.00  0.00     0.053 C 
BRANCH   8   9
ATOM      9  C   UNL     1      20.799  11.704  31.584  1.00  0.00     0.041 C 
ATOM     10  O   UNL     1      19.542  11.640  31.576  1.00  0.00    -0.550 OA
ATOM     11  O   UNL     1      21.542  10.728  30.932  1.00  0.00    -0.550 OA
ENDBRANCH   8   9
ENDBRANCH   7   8
ENDBRANCH   6   7
ENDBRANCH   5   6
ENDBRANCH   4   5
ENDBRANCH   3   4
ENDBRANCH   2   3
ENDBRANCH   1   2
BRANCH   1  12
ATOM     12  C   UNL     1      23.601  11.465  34.981  1.00  0.00     0.000 C 
BRANCH  12  13
ATOM     13  C   UNL     1      24.347  12.619  35.681  1.00  0.00    -0.000 C 
BRANCH  13  14
ATOM     14  C   UNL     1      25.876  12.607  35.503  1.00  0.00    -0.000 C 
BRANCH  14  15
ATOM     15  C   UNL     1      26.423  11.222  35.133  1.00  0.00    -0.000 C 
BRANCH  15  16
ATOM     16  C   UNL     1      27.802  11.336  34.467  1.00  0.00    -0.000 C 
BRANCH  16  17
ATOM     17  C   UNL     1      27.992  12.661  33.707  1.00  0.00    -0.000 C 
BRANCH  17  18
ATOM     18  C   UNL     1      28.212  12.518  32.186  1.00  0.00    -0.000 C 
BRANCH  18  19
ATOM     19  C   UNL     1      26.998  11.992  31.401  1.00  0.00    -0.003 C 
ATOM     20  C   UNL     1      25.702  12.724  31.748  1.00  0.00     0.004 C 
ENDBRANCH  18  19
ENDBRANCH  17  18
ENDBRANCH  16  17
ENDBRANCH  15  16
ENDBRANCH  14  15
ENDBRANCH  13  14
ENDBRANCH  12  13
ENDBRANCH   1  12
TORSDOF 16
ENDMDL
MODEL 6
REMARK VINA RESULT:    -4.872      3.126      7.070
REMARK INTER + INTRA:         -11.730
REMARK INTER:                  -9.532
REMARK INTRA:                  -2.197
REMARK UNBOUND:                -2.301
REMARK SMILES CCCCCCCCCCCCCCCCCC(=O)[O-]
REMARK SMILES IDX 10 1 11 2 12 3 13 4 14 5 15 6 16 7 17 8 18 9 19 10 20 11
REMARK SMILES IDX 9 12 8 13 7 14 6 15 5 16 4 17 3 18 2 19 1 20
REMARK H PARENT
REMARK Flexibility Score: inf
ROOT
ATOM      1  C   UNL     1      22.888  12.125  32.927  1.00  0.00     0.000 C 
ENDROOT
BRANCH   1   2
ATOM      2  C   UNL     1      21.392  12.147  32.564  1.00  0.00     0.000 C 
BRANCH   2   3
ATOM      3  C   UNL     1      20.847  13.570  32.371  1.00  0.00     0.000 C 
BRANCH   3   4
ATOM      4  C   UNL     1      19.804  13.911  33.447  1.00  0.00     0.000 C 
BRANCH   4   5
ATOM      5  C   UNL     1      20.405  13.920  34.866  1.00  0.00     0.000 C 
BRANCH   5   6
ATOM      6  C   UNL     1      19.525  13.229  35.928  1.00  0.00     0.000 C 
BRANCH   6   7
ATOM      7  C   UNL     1      19.097  11.796  35.554  1.00  0.00     0.006 C 
BRANCH   7   8
ATOM      8  C   UNL     1      20.179  10.758  35.881  1.00  0.00     0.053 C 
BRANCH   8   9
ATOM      9  C   UNL     1      19.826   9.430  35.291  1.00  0.00     0.041 C 
ATOM     10  O   UNL     1      19.250   8.558  35.992  1.00  0.00    -0.550 OA
ATOM     11  O   UNL     1      20.178   9.136  33.980  1.00  0.00    -0.550 OA
ENDBRANCH   8   9
ENDBRANCH   7   8
ENDBRANCH   6   7
ENDBRANCH   5   6
ENDBRANCH   4   5
ENDBRANCH   3   4
ENDBRANCH   2   3
ENDBRANCH   1   2
BRANCH   1  12
ATOM     12  C   UNL     1      23.215  11.484  34.290  1.00  0.00     0.000 C 
BRANCH  12  13
ATOM     13  C   UNL     1      23.781  12.450  35.351  1.00  0.00    -0.000 C 
BRANCH  13  14
ATOM     14  C   UNL     1      25.111  12.011  35.988  1.00  0.00    -0.000 C 
BRANCH  14  15
ATOM     15  C   UNL     1      25.926  11.076  35.083  1.00  0.00    -0.000 C 
BRANCH  15  16
ATOM     16  C   UNL     1      27.397  11.512  35.025  1.00  0.00    -0.000 C 
BRANCH  16  17
ATOM     17  C   UNL     1      27.573  13.040  35.094  1.00  0.00    -0.000 C 
BRANCH  17  18
ATOM     18  C   UNL     1      27.306  13.791  33.773  1.00  0.00    -0.000 C 
BRANCH  18  19
ATOM     19  C   UNL     1      27.477  12.945  32.499  1.00  0.00    -0.003 C 
ATOM     20  C   UNL     1      26.242  12.965  31.600  1.00  0.00     0.004 C 
ENDBRANCH  18  19
ENDBRANCH  17  18
ENDBRANCH  16  17
ENDBRANCH  15  16
ENDBRANCH  14  15
ENDBRANCH  13  14
ENDBRANCH  12  13
ENDBRANCH   1  12
TORSDOF 16
ENDMDL
MODEL 7
REMARK VINA RESULT:    -4.780      0.887      2.565
REMARK INTER + INTRA:         -11.551
REMARK INTER:                  -9.714
REMARK INTRA:                  -1.837
REMARK UNBOUND:                -2.301
REMARK SMILES CCCCCCCCCCCCCCCCCC(=O)[O-]
REMARK SMILES IDX 10 1 11 2 12 3 13 4 14 5 15 6 16 7 17 8 18 9 19 10 20 11
REMARK SMILES IDX 9 12 8 13 7 14 6 15 5 16 4 17 3 18 2 19 1 20
REMARK H PARENT
REMARK Flexibility Score: inf
ROOT
ATOM      1  C   UNL     1      22.605  12.420  35.674  1.00  0.00     0.000 C 
ENDROOT
BRANCH   1   2
ATOM      2  C   UNL     1      23.432  11.171  35.319  1.00  0.00     0.000 C 
BRANCH   2   3
ATOM      3  C   UNL     1      24.594  11.479  34.364  1.00  0.00     0.000 C 
BRANCH   3   4
ATOM      4  C   UNL     1      25.857  11.880  35.143  1.00  0.00     0.000 C 
BRANCH   4   5
ATOM      5  C   UNL     1      27.090  11.053  34.731  1.00  0.00     0.000 C 
BRANCH   5   6
ATOM      6  C   UNL     1      28.161  11.857  33.967  1.00  0.00     0.000 C 
BRANCH   6   7
ATOM      7  C   UNL     1      27.626  13.133  33.290  1.00  0.00     0.006 C 
BRANCH   7   8
ATOM      8  C   UNL     1      27.091  12.867  31.876  1.00  0.00     0.053 C 
BRANCH   8   9
ATOM      9  C   UNL     1      28.114  12.148  31.055  1.00  0.00     0.041 C 
ATOM     10  O   UNL     1      29.147  12.749  30.662  1.00  0.00    -0.550 OA
ATOM     11  O   UNL     1      27.901  10.827  30.682  1.00  0.00    -0.550 OA
ENDBRANCH   8   9
ENDBRANCH   7   8
ENDBRANCH   6   7
ENDBRANCH   5   6
ENDBRANCH   4   5
ENDBRANCH   3   4
ENDBRANCH   2   3
ENDBRANCH   1   2
BRANCH   1  12
ATOM     12  C   UNL     1      21.077  12.227  35.604  1.00  0.00     0.000 C 
BRANCH  12  13
ATOM     13  C   UNL     1      20.256  13.527  35.483  1.00  0.00    -0.000 C 
BRANCH  13  14
ATOM     14  C   UNL     1      20.284  14.187  34.094  1.00  0.00    -0.000 C 
BRANCH  14  15
ATOM     15  C   UNL     1      19.967  13.203  32.959  1.00  0.00    -0.000 C 
BRANCH  15  16
ATOM     16  C   UNL     1      21.176  13.032  32.028  1.00  0.00    -0.000 C 
BRANCH  16  17
ATOM     17  C   UNL     1      21.733  11.597  32.026  1.00  0.00    -0.000 C 
BRANCH  17  18
ATOM     18  C   UNL     1      20.919  10.578  31.202  1.00  0.00    -0.000 C 
BRANCH  18  19
ATOM     19  C   UNL     1      19.977   9.681  32.025  1.00  0.00    -0.003 C 
ATOM     20  C   UNL     1      20.502   9.401  33.432  1.00  0.00     0.004 C 
ENDBRANCH  18  19
ENDBRANCH  17  18
ENDBRANCH  16  17
ENDBRANCH  15  16
ENDBRANCH  14  15
ENDBRANCH  13  14
ENDBRANCH  12  13
ENDBRANCH   1  12
TORSDOF 16
ENDMDL
MODEL 8
REMARK VINA RESULT:    -4.712      2.354      4.355
REMARK INTER + INTRA:         -11.420
REMARK INTER:                  -9.222
REMARK INTRA:                  -2.198
REMARK UNBOUND:                -2.301
REMARK SMILES CCCCCCCCCCCCCCCCCC(=O)[O-]
REMARK SMILES IDX 10 1 11 2 12 3 13 4 14 5 15 6 16 7 17 8 18 9 19 10 20 11
REMARK SMILES IDX 9 12 8 13 7 14 6 15 5 16 4 17 3 18 2 19 1 20
REMARK H PARENT
REMARK Flexibility Score: inf
ROOT
ATOM      1  C   UNL     1      26.551  11.423  34.962  1.00  0.00     0.000 C 
ENDROOT
BRANCH   1   2
ATOM      2  C   UNL     1      27.905  11.813  34.339  1.00  0.00     0.000 C 
BRANCH   2   3
ATOM      3  C   UNL     1      27.791  12.989  33.358  1.00  0.00     0.000 C 
BRANCH   3   4
ATOM      4  C   UNL     1      28.371  12.618  31.984  1.00  0.00     0.000 C 
BRANCH   4   5
ATOM      5  C   UNL     1      27.321  12.703  30.859  1.00  0.00     0.000 C 
BRANCH   5   6
ATOM      6  C   UNL     1      25.955  13.256  31.313  1.00  0.00     0.000 C 
BRANCH   6   7
ATOM      7  C   UNL     1      24.751  12.406  30.861  1.00  0.00     0.006 C 
BRANCH   7   8
ATOM      8  C   UNL     1      23.620  12.394  31.898  1.00  0.00     0.053 C 
BRANCH   8   9
ATOM      9  C   UNL     1      22.293  12.246  31.225  1.00  0.00     0.041 C 
ATOM     10  O   UNL     1      21.796  13.209  30.585  1.00  0.00    -0.550 OA
ATOM     11  O   UNL     1      21.581  11.060  31.346  1.00  0.00    -0.550 OA
ENDBRANCH   8   9
ENDBRANCH   7   8
ENDBRANCH   6   7
ENDBRANCH   5   6
ENDBRANCH   4   5
ENDBRANCH   3   4
ENDBRANCH   2   3
ENDBRANCH   1   2
BRANCH   1  12
ATOM     12  C   UNL     1      25.596  12.603  35.229  1.00  0.00     0.000 C 
BRANCH  12  13
ATOM     13  C   UNL     1      24.250  12.223  35.880  1.00  0.00    -0.000 C 
BRANCH  13  14
ATOM     14  C   UNL     1      23.613  10.928  35.348  1.00  0.00    -0.000 C 
BRANCH  14  15
ATOM     15  C   UNL     1      22.218  10.665  35.933  1.00  0.00    -0.000 C 
BRANCH  15  16
ATOM     16  C   UNL     1      21.150  10.670  34.830  1.00  0.00    -0.000 C 
BRANCH  16  17
ATOM     17  C   UNL     1      19.956  11.585  35.155  1.00  0.00    -0.000 C 
BRANCH  17  18
ATOM     18  C   UNL     1      20.327  13.021  35.578  1.00  0.00    -0.000 C 
BRANCH  18  19
ATOM     19  C   UNL     1      20.964  13.880  34.471  1.00  0.00    -0.003 C 
ATOM     20  C   UNL     1      19.978  14.254  33.366  1.00  0.00     0.004 C 
ENDBRANCH  18  19
ENDBRANCH  17  18
ENDBRANCH  16  17
ENDBRANCH  15  16
ENDBRANCH  14  15
ENDBRANCH  13  14
ENDBRANCH  12  13
ENDBRANCH   1  12
TORSDOF 16
ENDMDL
MODEL 9
REMARK VINA RESULT:    -4.571      3.573      7.064
REMARK INTER + INTRA:         -11.146
REMARK INTER:                  -8.878
REMARK INTRA:                  -2.268
REMARK UNBOUND:                -2.301
REMARK SMILES CCCCCCCCCCCCCCCCCC(=O)[O-]
REMARK SMILES IDX 10 1 11 2 12 3 13 4 14 5 15 6 16 7 17 8 18 9 19 10 20 11
REMARK SMILES IDX 9 12 8 13 7 14 6 15 5 16 4 17 3 18 2 19 1 20
REMARK H PARENT
REMARK Flexibility Score: inf
ROOT
ATOM      1  C   UNL     1      25.839  12.966  31.550  1.00  0.00     0.000 C 
ENDROOT
BRANCH   1   2
ATOM      2  C   UNL     1      25.009  13.069  30.257  1.00  0.00     0.000 C 
BRANCH   2   3
ATOM      3  C   UNL     1      23.621  12.427  30.388  1.00  0.00     0.000 C 
BRANCH   3   4
ATOM      4  C   UNL     1      23.203  12.313  31.862  1.00  0.00     0.000 C 
BRANCH   4   5
ATOM      5  C   UNL     1      21.681  12.458  32.056  1.00  0.00     0.000 C 
BRANCH   5   6
ATOM      6  C   UNL     1      20.991  11.191  32.600  1.00  0.00     0.000 C 
BRANCH   6   7
ATOM      7  C   UNL     1      19.712  11.471  33.413  1.00  0.00     0.006 C 
BRANCH   7   8
ATOM      8  C   UNL     1      19.879  12.650  34.381  1.00  0.00     0.053 C 
BRANCH   8   9
ATOM      9  C   UNL     1      19.275  12.326  35.711  1.00  0.00     0.041 C 
ATOM     10  O   UNL     1      18.748  13.234  36.405  1.00  0.00    -0.550 OA
ATOM     11  O   UNL     1      19.338  11.030  36.206  1.00  0.00    -0.550 OA
ENDBRANCH   8   9
ENDBRANCH   7   8
ENDBRANCH   6   7
ENDBRANCH   5   6
ENDBRANCH   4   5
ENDBRANCH   3   4
ENDBRANCH   2   3
ENDBRANCH   1   2
BRANCH   1  12
ATOM     12  C   UNL     1      27.102  12.090  31.442  1.00  0.00     0.000 C 
BRANCH  12  13
ATOM     13  C   UNL     1      28.066  12.176  32.643  1.00  0.00    -0.000 C 
BRANCH  13  14
ATOM     14  C   UNL     1      27.775  13.321  33.629  1.00  0.00    -0.000 C 
BRANCH  14  15
ATOM     15  C   UNL     1      27.409  12.821  35.034  1.00  0.00    -0.000 C 
BRANCH  15  16
ATOM     16  C   UNL     1      26.991  11.343  34.998  1.00  0.00    -0.000 C 
BRANCH  16  17
ATOM     17  C   UNL     1      25.464  11.152  35.000  1.00  0.00    -0.000 C 
BRANCH  17  18
ATOM     18  C   UNL     1      24.643  12.429  35.272  1.00  0.00    -0.000 C 
BRANCH  18  19
ATOM     19  C   UNL     1      23.193  12.186  35.727  1.00  0.00    -0.003 C 
ATOM     20  C   UNL     1      22.819  10.705  35.751  1.00  0.00     0.004 C 
ENDBRANCH  18  19
ENDBRANCH  17  18
ENDBRANCH  16  17
ENDBRANCH  15  16
ENDBRANCH  14  15
ENDBRANCH  13  14
ENDBRANCH  12  13
ENDBRANCH   1  12
TORSDOF 16
ENDMDL
