MODEL 1
REMARK VINA RESULT:    -3.912      0.000      0.000
REMARK INTER + INTRA:          -4.507
REMARK INTER:                  -4.255
REMARK INTRA:                  -0.252
REMARK UNBOUND:                -0.252
REMARK SMILES O=C([O-])c1ccccc1O
REMARK SMILES IDX 4 1 9 2 5 3 8 4 6 5 7 6 2 7 1 8 3 9 10 10
REMARK H PARENT 10 11
REMARK Flexibility Score: inf
ROOT
ATOM      1  C   UNL     1       3.153 -12.133 -31.083  1.00  0.00     0.039 A 
ATOM      2  C   UNL     1       2.388 -13.117 -30.407  1.00  0.00     0.124 A 
ATOM      3  C   UNL     1       3.648 -11.036 -30.353  1.00  0.00     0.014 A 
ATOM      4  C   UNL     1       2.193 -13.014 -29.023  1.00  0.00     0.047 A 
ATOM      5  C   UNL     1       3.426 -10.936 -28.978  1.00  0.00     0.001 A 
ATOM      6  C   UNL     1       2.708 -11.929 -28.312  1.00  0.00     0.004 A 
ENDROOT
BRANCH   1   7
ATOM      7  C   UNL     1       3.483 -12.235 -32.521  1.00  0.00     0.075 C 
ATOM      8  O   UNL     1       4.644 -11.960 -32.925  1.00  0.00    -0.545 OA
ATOM      9  O   UNL     1       2.545 -12.700 -33.435  1.00  0.00    -0.545 OA
ENDBRANCH   1   7
BRANCH   2  10
ATOM     10  O   UNL     1       1.779 -14.184 -31.070  1.00  0.00    -0.507 OA
ATOM     11  H   UNL     1       2.141 -14.588 -31.923  1.00  0.00     0.293 HD
ENDBRANCH   2  10
TORSDOF 2
ENDMDL
MODEL 2
REMARK VINA RESULT:    -3.866      1.743      3.282
REMARK INTER + INTRA:          -4.457
REMARK INTER:                  -4.316
REMARK INTRA:                  -0.142
REMARK UNBOUND:                -0.252
REMARK SMILES O=C([O-])c1ccccc1O
REMARK SMILES IDX 4 1 9 2 5 3 8 4 6 5 7 6 2 7 1 8 3 9 10 10
REMARK H PARENT 10 11
REMARK Flexibility Score: inf
ROOT
ATOM      1  C   UNL     1       2.828 -12.376 -30.344  1.00  0.00     0.039 A 
ATOM      2  C   UNL     1       3.290 -13.314 -31.301  1.00  0.00     0.124 A 
ATOM      3  C   UNL     1       3.368 -11.075 -30.350  1.00  0.00     0.014 A 
ATOM      4  C   UNL     1       4.221 -12.915 -32.270  1.00  0.00     0.047 A 
ATOM      5  C   UNL     1       4.312 -10.700 -31.308  1.00  0.00     0.001 A 
ATOM      6  C   UNL     1       4.731 -11.615 -32.273  1.00  0.00     0.004 A 
ENDROOT
BRANCH   1   7
ATOM      7  C   UNL     1       1.773 -12.701 -29.360  1.00  0.00     0.075 C 
ATOM      8  O   UNL     1       2.039 -13.419 -28.360  1.00  0.00    -0.545 OA
ATOM      9  O   UNL     1       0.496 -12.166 -29.484  1.00  0.00    -0.545 OA
ENDBRANCH   1   7
BRANCH   2  10
ATOM     10  O   UNL     1       2.882 -14.649 -31.305  1.00  0.00    -0.507 OA
ATOM     11  H   UNL     1       2.403 -15.086 -30.530  1.00  0.00     0.293 HD
ENDBRANCH   2  10
TORSDOF 2
ENDMDL
MODEL 3
REMARK VINA RESULT:    -3.865      0.479      1.128
REMARK INTER + INTRA:          -4.456
REMARK INTER:                  -4.210
REMARK INTRA:                  -0.245
REMARK UNBOUND:                -0.252
REMARK SMILES O=C([O-])c1ccccc1O
REMARK SMILES IDX 4 1 9 2 5 3 8 4 6 5 7 6 2 7 1 8 3 9 10 10
REMARK H PARENT 10 11
REMARK Flexibility Score: inf
ROOT
ATOM      1  C   UNL     1       3.154 -12.057 -30.679  1.00  0.00     0.039 A 
ATOM      2  C   UNL     1       2.324 -13.089 -30.173  1.00  0.00     0.124 A 
ATOM      3  C   UNL     1       3.589 -11.043 -29.805  1.00  0.00     0.014 A 
ATOM      4  C   UNL     1       2.008 -13.118 -28.809  1.00  0.00     0.047 A 
ATOM      5  C   UNL     1       3.246 -11.074 -28.451  1.00  0.00     0.001 A 
ATOM      6  C   UNL     1       2.465 -12.115 -27.952  1.00  0.00     0.004 A 
ENDROOT
BRANCH   1   7
ATOM      7  C   UNL     1       3.610 -12.024 -32.086  1.00  0.00     0.075 C 
ATOM      8  O   UNL     1       2.822 -12.346 -33.015  1.00  0.00    -0.545 OA
ATOM      9  O   UNL     1       4.884 -11.572 -32.410  1.00  0.00    -0.545 OA
ENDBRANCH   1   7
BRANCH   2  10
ATOM     10  O   UNL     1       1.770 -14.077 -30.989  1.00  0.00    -0.507 OA
ATOM     11  H   UNL     1       1.089 -14.750 -30.663  1.00  0.00     0.293 HD
ENDBRANCH   2  10
TORSDOF 2
ENDMDL
MODEL 4
REMARK VINA RESULT:    -3.751      2.047      2.932
REMARK INTER + INTRA:          -4.332
REMARK INTER:                  -4.100
REMARK INTRA:                  -0.233
REMARK UNBOUND:                -0.252
REMARK SMILES O=C([O-])c1ccccc1O
REMARK SMILES IDX 4 1 9 2 5 3 8 4 6 5 7 6 2 7 1 8 3 9 10 10
REMARK H PARENT 10 11
REMARK Flexibility Score: inf
ROOT
ATOM      1  C   UNL     1       2.621 -12.331 -33.272  1.00  0.00     0.039 A 
ATOM      2  C   UNL     1       3.706 -12.431 -32.365  1.00  0.00     0.124 A 
ATOM      3  C   UNL     1       1.313 -12.541 -32.795  1.00  0.00     0.014 A 
ATOM      4  C   UNL     1       3.454 -12.672 -31.008  1.00  0.00     0.047 A 
ATOM      5  C   UNL     1       1.081 -12.803 -31.443  1.00  0.00     0.001 A 
ATOM      6  C   UNL     1       2.149 -12.859 -30.549  1.00  0.00     0.004 A 
ENDROOT
BRANCH   1   7
ATOM      7  C   UNL     1       2.808 -11.976 -34.696  1.00  0.00     0.075 C 
ATOM      8  O   UNL     1       3.438 -10.932 -35.010  1.00  0.00    -0.545 OA
ATOM      9  O   UNL     1       2.356 -12.820 -35.704  1.00  0.00    -0.545 OA
ENDBRANCH   1   7
BRANCH   2  10
ATOM     10  O   UNL     1       5.038 -12.333 -32.771  1.00  0.00    -0.507 OA
ATOM     11  H   UNL     1       5.710 -11.718 -32.332  1.00  0.00     0.293 HD
ENDBRANCH   2  10
TORSDOF 2
ENDMDL
MODEL 5
REMARK VINA RESULT:    -3.728      1.421      2.236
REMARK INTER + INTRA:          -4.307
REMARK INTER:                  -4.078
REMARK INTRA:                  -0.229
REMARK UNBOUND:                -0.252
REMARK SMILES O=C([O-])c1ccccc1O
REMARK SMILES IDX 4 1 9 2 5 3 8 4 6 5 7 6 2 7 1 8 3 9 10 10
REMARK H PARENT 10 11
REMARK Flexibility Score: inf
ROOT
ATOM      1  C   UNL     1       2.938 -12.356 -30.071  1.00  0.00     0.039 A 
ATOM      2  C   UNL     1       2.662 -12.464 -28.685  1.00  0.00     0.124 A 
ATOM      3  C   UNL     1       3.582 -11.198 -30.549  1.00  0.00     0.014 A 
ATOM      4  C   UNL     1       3.089 -11.454 -27.812  1.00  0.00     0.047 A 
ATOM      5  C   UNL     1       3.982 -10.191 -29.668  1.00  0.00     0.001 A 
ATOM      6  C   UNL     1       3.744 -10.323 -28.301  1.00  0.00     0.004 A 
ENDROOT
BRANCH   1   7
ATOM      7  C   UNL     1       2.608 -13.430 -31.032  1.00  0.00     0.075 C 
ATOM      8  O   UNL     1       1.413 -13.804 -31.178  1.00  0.00    -0.545 OA
ATOM      9  O   UNL     1       3.592 -13.994 -31.835  1.00  0.00    -0.545 OA
ENDBRANCH   1   7
BRANCH   2  10
ATOM     10  O   UNL     1       1.942 -13.529 -28.142  1.00  0.00    -0.507 OA
ATOM     11  H   UNL     1       2.301 -14.473 -28.086  1.00  0.00     0.293 HD
ENDBRANCH   2  10
TORSDOF 2
ENDMDL
MODEL 6
REMARK VINA RESULT:    -3.698      2.127      2.741
REMARK INTER + INTRA:          -4.275
REMARK INTER:                  -4.024
REMARK INTRA:                  -0.250
REMARK UNBOUND:                -0.252
REMARK SMILES O=C([O-])c1ccccc1O
REMARK SMILES IDX 4 1 9 2 5 3 8 4 6 5 7 6 2 7 1 8 3 9 10 10
REMARK H PARENT 10 11
REMARK Flexibility Score: inf
ROOT
ATOM      1  C   UNL     1       2.544 -12.436 -33.030  1.00  0.00     0.039 A 
ATOM      2  C   UNL     1       1.176 -12.332 -32.674  1.00  0.00     0.124 A 
ATOM      3  C   UNL     1       3.477 -12.813 -32.044  1.00  0.00     0.014 A 
ATOM      4  C   UNL     1       0.770 -12.665 -31.375  1.00  0.00     0.047 A 
ATOM      5  C   UNL     1       3.058 -13.120 -30.748  1.00  0.00     0.001 A 
ATOM      6  C   UNL     1       1.706 -13.055 -30.416  1.00  0.00     0.004 A 
ENDROOT
BRANCH   1   7
ATOM      7  C   UNL     1       3.026 -12.200 -34.408  1.00  0.00     0.075 C 
ATOM      8  O   UNL     1       2.372 -12.639 -35.391  1.00  0.00    -0.545 OA
ATOM      9  O   UNL     1       4.162 -11.435 -34.644  1.00  0.00    -0.545 OA
ENDBRANCH   1   7
BRANCH   2  10
ATOM     10  O   UNL     1       0.201 -11.872 -33.562  1.00  0.00    -0.507 OA
ATOM     11  H   UNL     1      -0.055 -10.898 -33.651  1.00  0.00     0.293 HD
ENDBRANCH   2  10
TORSDOF 2
ENDMDL
MODEL 7
REMARK VINA RESULT:    -3.687      1.843      3.190
REMARK INTER + INTRA:          -4.262
REMARK INTER:                  -4.009
REMARK INTRA:                  -0.253
REMARK UNBOUND:                -0.252
REMARK SMILES O=C([O-])c1ccccc1O
REMARK SMILES IDX 4 1 9 2 5 3 8 4 6 5 7 6 2 7 1 8 3 9 10 10
REMARK H PARENT 10 11
REMARK Flexibility Score: inf
ROOT
ATOM      1  C   UNL     1       2.654 -12.514 -28.906  1.00  0.00     0.039 A 
ATOM      2  C   UNL     1       3.264 -11.282 -28.559  1.00  0.00     0.124 A 
ATOM      3  C   UNL     1       2.126 -13.324 -27.882  1.00  0.00     0.014 A 
ATOM      4  C   UNL     1       3.274 -10.865 -27.222  1.00  0.00     0.047 A 
ATOM      5  C   UNL     1       2.163 -12.904 -26.551  1.00  0.00     0.001 A 
ATOM      6  C   UNL     1       2.727 -11.672 -26.222  1.00  0.00     0.004 A 
ENDROOT
BRANCH   1   7
ATOM      7  C   UNL     1       2.518 -12.965 -30.308  1.00  0.00     0.075 C 
ATOM      8  O   UNL     1       1.415 -13.405 -30.727  1.00  0.00    -0.545 OA
ATOM      9  O   UNL     1       3.578 -12.846 -31.200  1.00  0.00    -0.545 OA
ENDBRANCH   1   7
BRANCH   2  10
ATOM     10  O   UNL     1       3.898 -10.466 -29.498  1.00  0.00    -0.507 OA
ATOM     11  H   UNL     1       4.473 -10.824 -30.249  1.00  0.00     0.293 HD
ENDBRANCH   2  10
TORSDOF 2
ENDMDL
MODEL 8
REMARK VINA RESULT:    -3.639      3.936      5.017
REMARK INTER + INTRA:          -4.210
REMARK INTER:                  -3.986
REMARK INTRA:                  -0.224
REMARK UNBOUND:                -0.252
REMARK SMILES O=C([O-])c1ccccc1O
REMARK SMILES IDX 4 1 9 2 5 3 8 4 6 5 7 6 2 7 1 8 3 9 10 10
REMARK H PARENT 10 11
REMARK Flexibility Score: inf
ROOT
ATOM      1  C   UNL     1       4.433 -11.541 -35.333  1.00  0.00     0.039 A 
ATOM      2  C   UNL     1       3.276 -12.223 -35.786  1.00  0.00     0.124 A 
ATOM      3  C   UNL     1       4.526 -11.189 -33.973  1.00  0.00     0.014 A 
ATOM      4  C   UNL     1       2.282 -12.589 -34.869  1.00  0.00     0.047 A 
ATOM      5  C   UNL     1       3.517 -11.541 -33.075  1.00  0.00     0.001 A 
ATOM      6  C   UNL     1       2.401 -12.248 -33.520  1.00  0.00     0.004 A 
ENDROOT
BRANCH   1   7
ATOM      7  C   UNL     1       5.565 -11.218 -36.228  1.00  0.00     0.075 C 
ATOM      8  O   UNL     1       5.717 -11.847 -37.309  1.00  0.00    -0.545 OA
ATOM      9  O   UNL     1       6.434 -10.175 -35.929  1.00  0.00    -0.545 OA
ENDBRANCH   1   7
BRANCH   2  10
ATOM     10  O   UNL     1       3.059 -12.524 -37.132  1.00  0.00    -0.507 OA
ATOM     11  H   UNL     1       3.112 -13.460 -37.509  1.00  0.00     0.293 HD
ENDBRANCH   2  10
TORSDOF 2
ENDMDL
MODEL 9
REMARK VINA RESULT:    -3.594      2.168      3.899
REMARK INTER + INTRA:          -4.161
REMARK INTER:                  -3.962
REMARK INTRA:                  -0.200
REMARK UNBOUND:                -0.252
REMARK SMILES O=C([O-])c1ccccc1O
REMARK SMILES IDX 4 1 9 2 5 3 8 4 6 5 7 6 2 7 1 8 3 9 10 10
REMARK H PARENT 10 11
REMARK Flexibility Score: inf
ROOT
ATOM      1  C   UNL     1       2.557 -12.352 -28.290  1.00  0.00     0.039 A 
ATOM      2  C   UNL     1       2.470 -12.627 -29.679  1.00  0.00     0.124 A 
ATOM      3  C   UNL     1       3.282 -11.223 -27.864  1.00  0.00     0.014 A 
ATOM      4  C   UNL     1       3.048 -11.741 -30.598  1.00  0.00     0.047 A 
ATOM      5  C   UNL     1       3.871 -10.362 -28.792  1.00  0.00     0.001 A 
ATOM      6  C   UNL     1       3.746 -10.615 -30.157  1.00  0.00     0.004 A 
ENDROOT
BRANCH   1   7
ATOM      7  C   UNL     1       1.883 -13.188 -27.273  1.00  0.00     0.075 C 
ATOM      8  O   UNL     1       2.544 -13.679 -26.319  1.00  0.00    -0.545 OA
ATOM      9  O   UNL     1       0.508 -13.387 -27.312  1.00  0.00    -0.545 OA
ENDBRANCH   1   7
BRANCH   2  10
ATOM     10  O   UNL     1       1.855 -13.775 -30.182  1.00  0.00    -0.507 OA
ATOM     11  H   UNL     1       1.783 -13.980 -31.169  1.00  0.00     0.293 HD
ENDBRANCH   2  10
TORSDOF 2
ENDMDL
