MODEL 1
REMARK VINA RESULT:    -3.724      0.000      0.000
REMARK INTER + INTRA:          -6.683
REMARK INTER:                  -5.683
REMARK INTRA:                  -1.000
REMARK UNBOUND:                -1.000
REMARK SMILES CCCCCCCCCC=CC(=O)[O-]
REMARK SMILES IDX 7 1 8 2 9 3 10 4 11 5 12 6 13 7 14 8 6 9 5 10 4 11 3 12 2 13
REMARK SMILES IDX 1 14
REMARK H PARENT
REMARK Flexibility Score: inf
ROOT
ATOM      1  C   UNL     1       6.790  -1.664  -8.917  1.00  0.00     0.000 C 
ENDROOT
BRANCH   1   2
ATOM      2  C   UNL     1       7.463  -2.497 -10.022  1.00  0.00     0.004 C 
BRANCH   2   3
ATOM      3  C   UNL     1       6.643  -3.733 -10.421  1.00  0.00     0.027 C 
BRANCH   3   4
ATOM      4  C   UNL     1       7.529  -4.927 -10.636  1.00  0.00    -0.025 C 
ATOM      5  C   UNL     1       8.856  -4.801 -10.746  1.00  0.00     0.020 C 
BRANCH   5   6
ATOM      6  C   UNL     1       9.736  -5.961 -10.941  1.00  0.00     0.064 C 
ATOM      7  O   UNL     1      10.533  -6.298 -10.027  1.00  0.00    -0.545 OA
ATOM      8  O   UNL     1       9.705  -6.694 -12.123  1.00  0.00    -0.545 OA
ENDBRANCH   5   6
ENDBRANCH   3   4
ENDBRANCH   2   3
ENDBRANCH   1   2
BRANCH   1   9
ATOM      9  C   UNL     1       6.002  -2.480  -7.877  1.00  0.00     0.000 C 
BRANCH   9  10
ATOM     10  C   UNL     1       6.388  -2.138  -6.427  1.00  0.00     0.000 C 
BRANCH  10  11
ATOM     11  C   UNL     1       7.196  -3.269  -5.757  1.00  0.00    -0.000 C 
BRANCH  11  12
ATOM     12  C   UNL     1       7.562  -4.416  -6.715  1.00  0.00    -0.000 C 
BRANCH  12  13
ATOM     13  C   UNL     1       7.961  -5.703  -5.980  1.00  0.00    -0.003 C 
ATOM     14  C   UNL     1       8.733  -6.644  -6.901  1.00  0.00     0.004 C 
ENDBRANCH  12  13
ENDBRANCH  11  12
ENDBRANCH  10  11
ENDBRANCH   9  10
ENDBRANCH   1   9
TORSDOF 9
ENDMDL
MODEL 2
REMARK VINA RESULT:    -3.717     11.405     13.755
REMARK INTER + INTRA:          -6.673
REMARK INTER:                  -5.417
REMARK INTRA:                  -1.256
REMARK UNBOUND:                -1.000
REMARK SMILES CCCCCCCCCC=CC(=O)[O-]
REMARK SMILES IDX 7 1 8 2 9 3 10 4 11 5 12 6 13 7 14 8 6 9 5 10 4 11 3 12 2 13
REMARK SMILES IDX 1 14
REMARK H PARENT
REMARK Flexibility Score: inf
ROOT
ATOM      1  C   UNL     1       2.530   9.561 -12.479  1.00  0.00     0.000 C 
ENDROOT
BRANCH   1   2
ATOM      2  C   UNL     1       3.539   9.894 -11.366  1.00  0.00     0.004 C 
BRANCH   2   3
ATOM      3  C   UNL     1       4.038   8.647 -10.619  1.00  0.00     0.027 C 
BRANCH   3   4
ATOM      4  C   UNL     1       3.845   7.406 -11.444  1.00  0.00    -0.025 C 
ATOM      5  C   UNL     1       4.210   6.203 -10.990  1.00  0.00     0.020 C 
BRANCH   5   6
ATOM      6  C   UNL     1       4.014   4.979 -11.779  1.00  0.00     0.064 C 
ATOM      7  O   UNL     1       2.904   4.386 -11.742  1.00  0.00    -0.545 OA
ATOM      8  O   UNL     1       5.038   4.461 -12.566  1.00  0.00    -0.545 OA
ENDBRANCH   5   6
ENDBRANCH   3   4
ENDBRANCH   2   3
ENDBRANCH   1   2
BRANCH   1   9
ATOM      9  C   UNL     1       2.834  10.203 -13.845  1.00  0.00     0.000 C 
BRANCH   9  10
ATOM     10  C   UNL     1       2.891   9.177 -14.991  1.00  0.00     0.000 C 
BRANCH  10  11
ATOM     11  C   UNL     1       1.826   8.071 -14.837  1.00  0.00    -0.000 C 
BRANCH  11  12
ATOM     12  C   UNL     1       2.412   6.649 -14.815  1.00  0.00    -0.000 C 
BRANCH  12  13
ATOM     13  C   UNL     1       3.914   6.618 -15.126  1.00  0.00    -0.003 C 
ATOM     14  C   UNL     1       4.257   5.466 -16.066  1.00  0.00     0.004 C 
ENDBRANCH  12  13
ENDBRANCH  11  12
ENDBRANCH  10  11
ENDBRANCH   9  10
ENDBRANCH   1   9
TORSDOF 9
ENDMDL
MODEL 3
REMARK VINA RESULT:    -3.670      3.385      5.801
REMARK INTER + INTRA:          -6.601
REMARK INTER:                  -5.173
REMARK INTRA:                  -1.427
REMARK UNBOUND:                -1.000
REMARK SMILES CCCCCCCCCC=CC(=O)[O-]
REMARK SMILES IDX 7 1 8 2 9 3 10 4 11 5 12 6 13 7 14 8 6 9 5 10 4 11 3 12 2 13
REMARK SMILES IDX 1 14
REMARK H PARENT
REMARK Flexibility Score: inf
ROOT
ATOM      1  C   UNL     1       6.800  -5.981  -7.187  1.00  0.00     0.000 C 
ENDROOT
BRANCH   1   2
ATOM      2  C   UNL     1       7.918  -5.152  -6.533  1.00  0.00     0.004 C 
BRANCH   2   3
ATOM      3  C   UNL     1       7.389  -3.912  -5.795  1.00  0.00     0.027 C 
BRANCH   3   4
ATOM      4  C   UNL     1       6.765  -2.936  -6.751  1.00  0.00    -0.025 C 
ATOM      5  C   UNL     1       6.050  -1.893  -6.316  1.00  0.00     0.020 C 
BRANCH   5   6
ATOM      6  C   UNL     1       5.446  -0.922  -7.239  1.00  0.00     0.064 C 
ATOM      7  O   UNL     1       4.224  -1.014  -7.526  1.00  0.00    -0.545 OA
ATOM      8  O   UNL     1       6.204   0.099  -7.803  1.00  0.00    -0.545 OA
ENDBRANCH   5   6
ENDBRANCH   3   4
ENDBRANCH   2   3
ENDBRANCH   1   2
BRANCH   1   9
ATOM      9  C   UNL     1       6.965  -6.213  -8.700  1.00  0.00     0.000 C 
BRANCH   9  10
ATOM     10  C   UNL     1       8.198  -5.503  -9.286  1.00  0.00     0.000 C 
BRANCH  10  11
ATOM     11  C   UNL     1       7.832  -4.582 -10.469  1.00  0.00    -0.000 C 
BRANCH  11  12
ATOM     12  C   UNL     1       7.968  -3.083 -10.148  1.00  0.00    -0.000 C 
BRANCH  12  13
ATOM     13  C   UNL     1       6.681  -2.295 -10.425  1.00  0.00    -0.003 C 
ATOM     14  C   UNL     1       5.454  -3.200 -10.345  1.00  0.00     0.004 C 
ENDBRANCH  12  13
ENDBRANCH  11  12
ENDBRANCH  10  11
ENDBRANCH   9  10
ENDBRANCH   1   9
TORSDOF 9
ENDMDL
MODEL 4
REMARK VINA RESULT:    -3.652      2.839      4.323
REMARK INTER + INTRA:          -6.574
REMARK INTER:                  -5.532
REMARK INTRA:                  -1.041
REMARK UNBOUND:                -1.000
REMARK SMILES CCCCCCCCCC=CC(=O)[O-]
REMARK SMILES IDX 7 1 8 2 9 3 10 4 11 5 12 6 13 7 14 8 6 9 5 10 4 11 3 12 2 13
REMARK SMILES IDX 1 14
REMARK H PARENT
REMARK Flexibility Score: inf
ROOT
ATOM      1  C   UNL     1       7.658  -5.923  -8.266  1.00  0.00     0.000 C 
ENDROOT
BRANCH   1   2
ATOM      2  C   UNL     1       8.610  -5.997  -9.472  1.00  0.00     0.004 C 
BRANCH   2   3
ATOM      3  C   UNL     1       8.507  -4.771 -10.392  1.00  0.00     0.027 C 
BRANCH   3   4
ATOM      4  C   UNL     1       7.360  -3.887  -9.992  1.00  0.00    -0.025 C 
ATOM      5  C   UNL     1       7.507  -2.563  -9.874  1.00  0.00     0.020 C 
BRANCH   5   6
ATOM      6  C   UNL     1       6.391  -1.684  -9.498  1.00  0.00     0.064 C 
ATOM      7  O   UNL     1       6.459  -1.011  -8.436  1.00  0.00    -0.545 OA
ATOM      8  O   UNL     1       5.256  -1.585 -10.296  1.00  0.00    -0.545 OA
ENDBRANCH   5   6
ENDBRANCH   3   4
ENDBRANCH   2   3
ENDBRANCH   1   2
BRANCH   1   9
ATOM      9  C   UNL     1       8.309  -6.230  -6.905  1.00  0.00     0.000 C 
BRANCH   9  10
ATOM     10  C   UNL     1       7.873  -5.255  -5.797  1.00  0.00     0.000 C 
BRANCH  10  11
ATOM     11  C   UNL     1       7.254  -3.962  -6.369  1.00  0.00    -0.000 C 
BRANCH  11  12
ATOM     12  C   UNL     1       5.740  -3.842  -6.121  1.00  0.00    -0.000 C 
BRANCH  12  13
ATOM     13  C   UNL     1       5.349  -2.520  -5.448  1.00  0.00    -0.003 C 
ATOM     14  C   UNL     1       6.572  -1.818  -4.863  1.00  0.00     0.004 C 
ENDBRANCH  12  13
ENDBRANCH  11  12
ENDBRANCH  10  11
ENDBRANCH   9  10
ENDBRANCH   1   9
TORSDOF 9
ENDMDL
MODEL 5
REMARK VINA RESULT:    -3.648     11.394     13.365
REMARK INTER + INTRA:          -6.568
REMARK INTER:                  -5.204
REMARK INTRA:                  -1.364
REMARK UNBOUND:                -1.000
REMARK SMILES CCCCCCCCCC=CC(=O)[O-]
REMARK SMILES IDX 7 1 8 2 9 3 10 4 11 5 12 6 13 7 14 8 6 9 5 10 4 11 3 12 2 13
REMARK SMILES IDX 1 14
REMARK H PARENT
REMARK Flexibility Score: inf
ROOT
ATOM      1  C   UNL     1       1.789   9.400 -13.409  1.00  0.00     0.000 C 
ENDROOT
BRANCH   1   2
ATOM      2  C   UNL     1       3.018   9.630 -14.306  1.00  0.00     0.004 C 
BRANCH   2   3
ATOM      3  C   UNL     1       3.385   8.395 -15.143  1.00  0.00     0.027 C 
BRANCH   3   4
ATOM      4  C   UNL     1       3.261   7.134 -14.336  1.00  0.00    -0.025 C 
ATOM      5  C   UNL     1       4.061   6.085 -14.554  1.00  0.00     0.020 C 
BRANCH   5   6
ATOM      6  C   UNL     1       3.962   4.851 -13.763  1.00  0.00     0.064 C 
ATOM      7  O   UNL     1       5.010   4.295 -13.341  1.00  0.00    -0.545 OA
ATOM      8  O   UNL     1       2.725   4.283 -13.473  1.00  0.00    -0.545 OA
ENDBRANCH   5   6
ENDBRANCH   3   4
ENDBRANCH   2   3
ENDBRANCH   1   2
BRANCH   1   9
ATOM      9  C   UNL     1       1.955   9.859 -11.949  1.00  0.00     0.000 C 
BRANCH   9  10
ATOM     10  C   UNL     1       3.427   9.923 -11.503  1.00  0.00     0.000 C 
BRANCH  10  11
ATOM     11  C   UNL     1       3.732   8.938 -10.356  1.00  0.00    -0.000 C 
BRANCH  11  12
ATOM     12  C   UNL     1       4.150   7.539 -10.840  1.00  0.00    -0.000 C 
BRANCH  12  13
ATOM     13  C   UNL     1       3.049   6.487 -10.648  1.00  0.00    -0.003 C 
ATOM     14  C   UNL     1       2.004   6.963  -9.641  1.00  0.00     0.004 C 
ENDBRANCH  12  13
ENDBRANCH  11  12
ENDBRANCH  10  11
ENDBRANCH   9  10
ENDBRANCH   1   9
TORSDOF 9
ENDMDL
MODEL 6
REMARK VINA RESULT:    -3.634     10.439     12.816
REMARK INTER + INTRA:          -6.545
REMARK INTER:                  -5.377
REMARK INTRA:                  -1.168
REMARK UNBOUND:                -1.000
REMARK SMILES CCCCCCCCCC=CC(=O)[O-]
REMARK SMILES IDX 7 1 8 2 9 3 10 4 11 5 12 6 13 7 14 8 6 9 5 10 4 11 3 12 2 13
REMARK SMILES IDX 1 14
REMARK H PARENT
REMARK Flexibility Score: inf
ROOT
ATOM      1  C   UNL     1       2.961   8.831 -12.708  1.00  0.00     0.000 C 
ENDROOT
BRANCH   1   2
ATOM      2  C   UNL     1       2.828   7.967 -11.441  1.00  0.00     0.004 C 
BRANCH   2   3
ATOM      3  C   UNL     1       4.187   7.570 -10.844  1.00  0.00     0.027 C 
BRANCH   3   4
ATOM      4  C   UNL     1       4.541   6.153 -11.196  1.00  0.00    -0.025 C 
ATOM      5  C   UNL     1       3.606   5.270 -11.561  1.00  0.00     0.020 C 
BRANCH   5   6
ATOM      6  C   UNL     1       3.940   3.885 -11.922  1.00  0.00     0.064 C 
ATOM      7  O   UNL     1       3.341   2.933 -11.357  1.00  0.00    -0.545 OA
ATOM      8  O   UNL     1       4.911   3.608 -12.879  1.00  0.00    -0.545 OA
ENDBRANCH   5   6
ENDBRANCH   3   4
ENDBRANCH   2   3
ENDBRANCH   1   2
BRANCH   1   9
ATOM      9  C   UNL     1       2.363   8.209 -13.983  1.00  0.00     0.000 C 
BRANCH   9  10
ATOM     10  C   UNL     1       3.425   7.890 -15.050  1.00  0.00     0.000 C 
BRANCH  10  11
ATOM     11  C   UNL     1       4.125   6.539 -14.791  1.00  0.00    -0.000 C 
BRANCH  11  12
ATOM     12  C   UNL     1       3.769   5.453 -15.820  1.00  0.00    -0.000 C 
BRANCH  12  13
ATOM     13  C   UNL     1       2.483   4.694 -15.464  1.00  0.00    -0.003 C 
ATOM     14  C   UNL     1       1.548   4.604 -16.667  1.00  0.00     0.004 C 
ENDBRANCH  12  13
ENDBRANCH  11  12
ENDBRANCH  10  11
ENDBRANCH   9  10
ENDBRANCH   1   9
TORSDOF 9
ENDMDL
MODEL 7
REMARK VINA RESULT:    -3.617      2.303      4.354
REMARK INTER + INTRA:          -6.520
REMARK INTER:                  -5.485
REMARK INTRA:                  -1.035
REMARK UNBOUND:                -1.000
REMARK SMILES CCCCCCCCCC=CC(=O)[O-]
REMARK SMILES IDX 7 1 8 2 9 3 10 4 11 5 12 6 13 7 14 8 6 9 5 10 4 11 3 12 2 13
REMARK SMILES IDX 1 14
REMARK H PARENT
REMARK Flexibility Score: inf
ROOT
ATOM      1  C   UNL     1       5.833  -1.562  -6.566  1.00  0.00     0.000 C 
ENDROOT
BRANCH   1   2
ATOM      2  C   UNL     1       6.765  -2.576  -5.880  1.00  0.00     0.004 C 
BRANCH   2   3
ATOM      3  C   UNL     1       7.145  -3.751  -6.794  1.00  0.00     0.027 C 
BRANCH   3   4
ATOM      4  C   UNL     1       7.782  -4.864  -6.012  1.00  0.00    -0.025 C 
ATOM      5  C   UNL     1       8.087  -6.033  -6.584  1.00  0.00     0.020 C 
BRANCH   5   6
ATOM      6  C   UNL     1       8.724  -7.126  -5.835  1.00  0.00     0.064 C 
ATOM      7  O   UNL     1       8.043  -7.799  -5.017  1.00  0.00    -0.545 OA
ATOM      8  O   UNL     1      10.070  -7.429  -6.014  1.00  0.00    -0.545 OA
ENDBRANCH   5   6
ENDBRANCH   3   4
ENDBRANCH   2   3
ENDBRANCH   1   2
BRANCH   1   9
ATOM      9  C   UNL     1       6.349  -1.010  -7.908  1.00  0.00     0.000 C 
BRANCH   9  10
ATOM     10  C   UNL     1       5.397  -1.298  -9.082  1.00  0.00     0.000 C 
BRANCH  10  11
ATOM     11  C   UNL     1       5.939  -2.402 -10.014  1.00  0.00    -0.000 C 
BRANCH  11  12
ATOM     12  C   UNL     1       7.475  -2.441 -10.095  1.00  0.00    -0.000 C 
BRANCH  12  13
ATOM     13  C   UNL     1       8.024  -3.853 -10.340  1.00  0.00    -0.003 C 
ATOM     14  C   UNL     1       6.909  -4.893 -10.282  1.00  0.00     0.004 C 
ENDBRANCH  12  13
ENDBRANCH  11  12
ENDBRANCH  10  11
ENDBRANCH   9  10
ENDBRANCH   1   9
TORSDOF 9
ENDMDL
MODEL 8
REMARK VINA RESULT:    -3.582      3.208      5.607
REMARK INTER + INTRA:          -6.467
REMARK INTER:                  -5.576
REMARK INTRA:                  -0.891
REMARK UNBOUND:                -1.000
REMARK SMILES CCCCCCCCCC=CC(=O)[O-]
REMARK SMILES IDX 7 1 8 2 9 3 10 4 11 5 12 6 13 7 14 8 6 9 5 10 4 11 3 12 2 13
REMARK SMILES IDX 1 14
REMARK H PARENT
REMARK Flexibility Score: inf
ROOT
ATOM      1  C   UNL     1       7.839  -5.651  -5.962  1.00  0.00     0.000 C 
ENDROOT
BRANCH   1   2
ATOM      2  C   UNL     1       7.512  -4.304  -6.630  1.00  0.00     0.004 C 
BRANCH   2   3
ATOM      3  C   UNL     1       7.080  -3.228  -5.623  1.00  0.00     0.027 C 
BRANCH   3   4
ATOM      4  C   UNL     1       6.362  -2.100  -6.307  1.00  0.00    -0.025 C 
ATOM      5  C   UNL     1       6.476  -1.898  -7.624  1.00  0.00     0.020 C 
BRANCH   5   6
ATOM      6  C   UNL     1       5.767  -0.807  -8.310  1.00  0.00     0.064 C 
ATOM      7  O   UNL     1       5.839   0.364  -7.855  1.00  0.00    -0.545 OA
ATOM      8  O   UNL     1       5.016  -1.050  -9.455  1.00  0.00    -0.545 OA
ENDBRANCH   5   6
ENDBRANCH   3   4
ENDBRANCH   2   3
ENDBRANCH   1   2
BRANCH   1   9
ATOM      9  C   UNL     1       7.957  -6.844  -6.929  1.00  0.00     0.000 C 
BRANCH   9  10
ATOM     10  C   UNL     1       9.382  -7.035  -7.477  1.00  0.00     0.000 C 
BRANCH  10  11
ATOM     11  C   UNL     1       9.397  -7.226  -9.008  1.00  0.00    -0.000 C 
BRANCH  11  12
ATOM     12  C   UNL     1       8.348  -6.376  -9.746  1.00  0.00    -0.000 C 
BRANCH  12  13
ATOM     13  C   UNL     1       8.947  -5.120 -10.393  1.00  0.00    -0.003 C 
ATOM     14  C   UNL     1       7.970  -3.949 -10.328  1.00  0.00     0.004 C 
ENDBRANCH  12  13
ENDBRANCH  11  12
ENDBRANCH  10  11
ENDBRANCH   9  10
ENDBRANCH   1   9
TORSDOF 9
ENDMDL
MODEL 9
REMARK VINA RESULT:    -3.579     12.154     14.238
REMARK INTER + INTRA:          -6.462
REMARK INTER:                  -5.083
REMARK INTRA:                  -1.379
REMARK UNBOUND:                -1.000
REMARK SMILES CCCCCCCCCC=CC(=O)[O-]
REMARK SMILES IDX 7 1 8 2 9 3 10 4 11 5 12 6 13 7 14 8 6 9 5 10 4 11 3 12 2 13
REMARK SMILES IDX 1 14
REMARK H PARENT
REMARK Flexibility Score: inf
ROOT
ATOM      1  C   UNL     1       2.840   5.409 -13.886  1.00  0.00     0.000 C 
ENDROOT
BRANCH   1   2
ATOM      2  C   UNL     1       4.032   5.977 -14.676  1.00  0.00     0.004 C 
BRANCH   2   3
ATOM      3  C   UNL     1       3.732   7.343 -15.311  1.00  0.00     0.027 C 
BRANCH   3   4
ATOM      4  C   UNL     1       3.333   8.350 -14.271  1.00  0.00    -0.025 C 
ATOM      5  C   UNL     1       2.923   9.577 -14.608  1.00  0.00     0.020 C 
BRANCH   5   6
ATOM      6  C   UNL     1       2.516  10.569 -13.602  1.00  0.00     0.064 C 
ATOM      7  O   UNL     1       1.458  10.389 -12.944  1.00  0.00    -0.545 OA
ATOM      8  O   UNL     1       3.282  11.706 -13.366  1.00  0.00    -0.545 OA
ENDBRANCH   5   6
ENDBRANCH   3   4
ENDBRANCH   2   3
ENDBRANCH   1   2
BRANCH   1   9
ATOM      9  C   UNL     1       3.218   4.495 -12.706  1.00  0.00     0.000 C 
BRANCH   9  10
ATOM     10  C   UNL     1       4.493   4.954 -11.976  1.00  0.00     0.000 C 
BRANCH  10  11
ATOM     11  C   UNL     1       4.177   5.827 -10.744  1.00  0.00    -0.000 C 
BRANCH  11  12
ATOM     12  C   UNL     1       4.525   7.314 -10.936  1.00  0.00    -0.000 C 
BRANCH  12  13
ATOM     13  C   UNL     1       3.344   8.246 -10.636  1.00  0.00    -0.003 C 
ATOM     14  C   UNL     1       2.038   7.463 -10.530  1.00  0.00     0.004 C 
ENDBRANCH  12  13
ENDBRANCH  11  12
ENDBRANCH  10  11
ENDBRANCH   9  10
ENDBRANCH   1   9
TORSDOF 9
ENDMDL
