MODEL 1
REMARK VINA RESULT:    -3.820      0.000      0.000
REMARK INTER + INTRA:          -4.043
REMARK INTER:                  -4.043
REMARK INTRA:                   0.000
REMARK UNBOUND:                 0.000
REMARK SMILES O=c1ccc2cc(O)c(O)cc2o1
REMARK SMILES IDX 4 1 3 2 2 3 1 4 13 5 12 6 11 7 9 8 7 9 6 10 5 11 8 12 10 14
REMARK H PARENT 8 13 10 15
REMARK Flexibility Score: inf
ROOT
ATOM      1  C   UNL     1       3.685   3.986 -17.239  1.00  0.00     0.019 A 
ATOM      2  C   UNL     1       3.895   4.050 -15.862  1.00  0.00     0.094 A 
ATOM      3  C   UNL     1       3.906   2.862 -15.122  1.00  0.00     0.336 A 
ATOM      4  O   UNL     1       4.094   2.898 -13.878  1.00  0.00    -0.246 OA
ATOM      5  O   UNL     1       3.720   1.691 -15.726  1.00  0.00    -0.423 OA
ATOM      6  C   UNL     1       3.517   1.586 -17.037  1.00  0.00     0.142 A 
ATOM      7  C   UNL     1       3.327   0.328 -17.617  1.00  0.00     0.098 A 
ATOM      8  C   UNL     1       3.113   0.209 -18.995  1.00  0.00     0.161 A 
ATOM      9  C   UNL     1       3.089   1.360 -19.804  1.00  0.00     0.158 A 
ATOM     10  C   UNL     1       3.278   2.624 -19.228  1.00  0.00     0.062 A 
ATOM     11  C   UNL     1       3.493   2.741 -17.847  1.00  0.00     0.022 A 
ENDROOT
BRANCH   9  12
ATOM     12  O   UNL     1       2.875   1.242 -21.177  1.00  0.00    -0.504 OA
ATOM     13  H   UNL     1       3.304   0.501 -21.718  1.00  0.00     0.293 HD
ENDBRANCH   9  12
BRANCH   8  14
ATOM     14  O   UNL     1       2.928  -1.061 -19.543  1.00  0.00    -0.504 OA
ATOM     15  H   UNL     1       2.063  -1.330 -19.994  1.00  0.00     0.293 HD
ENDBRANCH   8  14
TORSDOF 2
ENDMDL
MODEL 2
REMARK VINA RESULT:    -3.751      1.229      4.549
REMARK INTER + INTRA:          -3.970
REMARK INTER:                  -3.970
REMARK INTRA:                   0.000
REMARK UNBOUND:                 0.000
REMARK SMILES O=c1ccc2cc(O)c(O)cc2o1
REMARK SMILES IDX 4 1 3 2 2 3 1 4 13 5 12 6 11 7 9 8 7 9 6 10 5 11 8 12 10 14
REMARK H PARENT 8 13 10 15
REMARK Flexibility Score: inf
ROOT
ATOM      1  C   UNL     1       3.172   2.414 -19.092  1.00  0.00     0.019 A 
ATOM      2  C   UNL     1       2.887   1.310 -19.894  1.00  0.00     0.094 A 
ATOM      3  C   UNL     1       3.128   0.026 -19.392  1.00  0.00     0.336 A 
ATOM      4  O   UNL     1       2.876  -0.984 -20.100  1.00  0.00    -0.246 OA
ATOM      5  O   UNL     1       3.619  -0.136 -18.166  1.00  0.00    -0.423 OA
ATOM      6  C   UNL     1       3.905   0.891 -17.368  1.00  0.00     0.142 A 
ATOM      7  C   UNL     1       4.420   0.660 -16.089  1.00  0.00     0.098 A 
ATOM      8  C   UNL     1       4.723   1.734 -15.243  1.00  0.00     0.161 A 
ATOM      9  C   UNL     1       4.508   3.054 -15.680  1.00  0.00     0.158 A 
ATOM     10  C   UNL     1       3.991   3.291 -16.962  1.00  0.00     0.062 A 
ATOM     11  C   UNL     1       3.689   2.214 -17.807  1.00  0.00     0.022 A 
ENDROOT
BRANCH   9  12
ATOM     12  O   UNL     1       4.809   4.124 -14.839  1.00  0.00    -0.504 OA
ATOM     13  H   UNL     1       5.364   4.910 -15.159  1.00  0.00     0.293 HD
ENDBRANCH   9  12
BRANCH   8  14
ATOM     14  O   UNL     1       5.235   1.470 -13.973  1.00  0.00    -0.504 OA
ATOM     15  H   UNL     1       5.640   2.196 -13.395  1.00  0.00     0.293 HD
ENDBRANCH   8  14
TORSDOF 2
ENDMDL
MODEL 3
REMARK VINA RESULT:    -3.312      1.905      5.537
REMARK INTER + INTRA:          -3.506
REMARK INTER:                  -3.506
REMARK INTRA:                   0.000
REMARK UNBOUND:                 0.000
REMARK SMILES O=c1ccc2cc(O)c(O)cc2o1
REMARK SMILES IDX 4 1 3 2 2 3 1 4 13 5 12 6 11 7 9 8 7 9 6 10 5 11 8 12 10 14
REMARK H PARENT 8 13 10 15
REMARK Flexibility Score: inf
ROOT
ATOM      1  C   UNL     1       3.060  -1.031 -20.550  1.00  0.00     0.019 A 
ATOM      2  C   UNL     1       3.022  -0.860 -21.933  1.00  0.00     0.094 A 
ATOM      3  C   UNL     1       2.939   0.436 -22.454  1.00  0.00     0.336 A 
ATOM      4  O   UNL     1       2.904   0.611 -23.700  1.00  0.00    -0.246 OA
ATOM      5  O   UNL     1       2.899   1.487 -21.640  1.00  0.00    -0.423 OA
ATOM      6  C   UNL     1       2.934   1.369 -20.315  1.00  0.00     0.142 A 
ATOM      7  C   UNL     1       2.889   2.510 -19.509  1.00  0.00     0.098 A 
ATOM      8  C   UNL     1       2.924   2.394 -18.114  1.00  0.00     0.161 A 
ATOM      9  C   UNL     1       3.007   1.122 -17.518  1.00  0.00     0.158 A 
ATOM     10  C   UNL     1       3.052  -0.026 -18.322  1.00  0.00     0.062 A 
ATOM     11  C   UNL     1       3.017   0.093 -19.718  1.00  0.00     0.022 A 
ENDROOT
BRANCH   9  12
ATOM     12  O   UNL     1       3.042   1.006 -16.129  1.00  0.00    -0.504 OA
ATOM     13  H   UNL     1       3.735   0.431 -15.663  1.00  0.00     0.293 HD
ENDBRANCH   9  12
BRANCH   8  14
ATOM     14  O   UNL     1       2.879   3.552 -17.338  1.00  0.00    -0.504 OA
ATOM     15  H   UNL     1       2.990   3.530 -16.332  1.00  0.00     0.293 HD
ENDBRANCH   8  14
TORSDOF 2
ENDMDL
MODEL 4
REMARK VINA RESULT:    -3.283      1.362      1.764
REMARK INTER + INTRA:          -3.475
REMARK INTER:                  -3.475
REMARK INTRA:                   0.000
REMARK UNBOUND:                 0.000
REMARK SMILES O=c1ccc2cc(O)c(O)cc2o1
REMARK SMILES IDX 4 1 3 2 2 3 1 4 13 5 12 6 11 7 9 8 7 9 6 10 5 11 8 12 10 14
REMARK H PARENT 8 13 10 15
REMARK Flexibility Score: inf
ROOT
ATOM      1  C   UNL     1       2.966   3.414 -18.971  1.00  0.00     0.019 A 
ATOM      2  C   UNL     1       2.990   3.642 -17.595  1.00  0.00     0.094 A 
ATOM      3  C   UNL     1       2.990   2.545 -16.727  1.00  0.00     0.336 A 
ATOM      4  O   UNL     1       3.012   2.729 -15.482  1.00  0.00    -0.246 OA
ATOM      5  O   UNL     1       2.970   1.305 -17.208  1.00  0.00    -0.423 OA
ATOM      6  C   UNL     1       2.947   1.044 -18.513  1.00  0.00     0.142 A 
ATOM      7  C   UNL     1       2.926  -0.280 -18.961  1.00  0.00     0.098 A 
ATOM      8  C   UNL     1       2.902  -0.564 -20.332  1.00  0.00     0.161 A 
ATOM      9  C   UNL     1       2.900   0.488 -21.266  1.00  0.00     0.158 A 
ATOM     10  C   UNL     1       2.921   1.818 -20.822  1.00  0.00     0.062 A 
ATOM     11  C   UNL     1       2.945   2.100 -19.449  1.00  0.00     0.022 A 
ENDROOT
BRANCH   9  12
ATOM     12  O   UNL     1       2.876   0.207 -22.632  1.00  0.00    -0.504 OA
ATOM     13  H   UNL     1       3.063  -0.724 -22.985  1.00  0.00     0.293 HD
ENDBRANCH   9  12
BRANCH   8  14
ATOM     14  O   UNL     1       2.882  -1.896 -20.746  1.00  0.00    -0.504 OA
ATOM     15  H   UNL     1       3.404  -2.617 -20.263  1.00  0.00     0.293 HD
ENDBRANCH   8  14
TORSDOF 2
ENDMDL
MODEL 5
REMARK VINA RESULT:    -2.898      1.922      5.150
REMARK INTER + INTRA:          -3.067
REMARK INTER:                  -3.067
REMARK INTRA:                   0.000
REMARK UNBOUND:                 0.000
REMARK SMILES O=c1ccc2cc(O)c(O)cc2o1
REMARK SMILES IDX 4 1 3 2 2 3 1 4 13 5 12 6 11 7 9 8 7 9 6 10 5 11 8 12 10 14
REMARK H PARENT 8 13 10 15
REMARK Flexibility Score: inf
ROOT
ATOM      1  C   UNL     1       2.875   1.071 -21.934  1.00  0.00     0.019 A 
ATOM      2  C   UNL     1       2.895  -0.208 -22.491  1.00  0.00     0.094 A 
ATOM      3  C   UNL     1       2.937  -1.317 -21.639  1.00  0.00     0.336 A 
ATOM      4  O   UNL     1       2.955  -2.480 -22.122  1.00  0.00    -0.246 OA
ATOM      5  O   UNL     1       2.955  -1.153 -20.319  1.00  0.00    -0.423 OA
ATOM      6  C   UNL     1       2.937   0.049 -19.747  1.00  0.00     0.142 A 
ATOM      7  C   UNL     1       2.959   0.161 -18.354  1.00  0.00     0.098 A 
ATOM      8  C   UNL     1       2.940   1.421 -17.744  1.00  0.00     0.161 A 
ATOM      9  C   UNL     1       2.898   2.583 -18.536  1.00  0.00     0.158 A 
ATOM     10  C   UNL     1       2.877   2.477 -19.934  1.00  0.00     0.062 A 
ATOM     11  C   UNL     1       2.896   1.214 -20.542  1.00  0.00     0.022 A 
ENDROOT
BRANCH   9  12
ATOM     12  O   UNL     1       2.880   3.839 -17.930  1.00  0.00    -0.504 OA
ATOM     13  H   UNL     1       3.380   4.018 -17.067  1.00  0.00     0.293 HD
ENDBRANCH   9  12
BRANCH   8  14
ATOM     14  O   UNL     1       2.961   1.498 -16.351  1.00  0.00    -0.504 OA
ATOM     15  H   UNL     1       3.159   2.364 -15.864  1.00  0.00     0.293 HD
ENDBRANCH   8  14
TORSDOF 2
ENDMDL
