MODEL 1
REMARK VINA RESULT:    -3.863      0.000      0.000
REMARK INTER + INTRA:          -9.812
REMARK INTER:                  -7.025
REMARK INTRA:                  -2.787
REMARK UNBOUND:                -2.787
REMARK SMILES CCCCCCCCCCCCCCCC(=O)[O-]
REMARK SMILES IDX 9 1 10 2 11 3 12 4 13 5 14 6 15 7 16 8 17 9 18 10 8 11 7 12
REMARK SMILES IDX 6 13 5 14 4 15 3 16 2 17 1 18
REMARK H PARENT
REMARK Flexibility Score: inf
ROOT
ATOM      1  C   UNL     1      -4.023  -7.450 -18.393  1.00  0.00     0.000 C 
ENDROOT
BRANCH   1   2
ATOM      2  C   UNL     1      -4.702  -8.807 -18.650  1.00  0.00     0.000 C 
BRANCH   2   3
ATOM      3  C   UNL     1      -3.692  -9.956 -18.797  1.00  0.00     0.000 C 
BRANCH   3   4
ATOM      4  C   UNL     1      -4.137 -11.232 -18.068  1.00  0.00     0.000 C 
BRANCH   4   5
ATOM      5  C   UNL     1      -5.491 -11.026 -17.380  1.00  0.00     0.000 C 
BRANCH   5   6
ATOM      6  C   UNL     1      -5.627 -11.930 -16.148  1.00  0.00     0.006 C 
BRANCH   6   7
ATOM      7  C   UNL     1      -6.748 -11.442 -15.227  1.00  0.00     0.053 C 
BRANCH   7   8
ATOM      8  C   UNL     1      -6.305 -11.478 -13.799  1.00  0.00     0.041 C 
ATOM      9  O   UNL     1      -5.275 -12.125 -13.471  1.00  0.00    -0.550 OA
ATOM     10  O   UNL     1      -7.003 -10.760 -12.837  1.00  0.00    -0.550 OA
ENDBRANCH   7   8
ENDBRANCH   6   7
ENDBRANCH   5   6
ENDBRANCH   4   5
ENDBRANCH   3   4
ENDBRANCH   2   3
ENDBRANCH   1   2
BRANCH   1  11
ATOM     11  C   UNL     1      -4.316  -6.900 -16.981  1.00  0.00     0.000 C 
BRANCH  11  12
ATOM     12  C   UNL     1      -5.494  -7.598 -16.274  1.00  0.00    -0.000 C 
BRANCH  12  13
ATOM     13  C   UNL     1      -5.152  -8.229 -14.912  1.00  0.00    -0.000 C 
BRANCH  13  14
ATOM     14  C   UNL     1      -3.644  -8.359 -14.611  1.00  0.00    -0.000 C 
BRANCH  14  15
ATOM     15  C   UNL     1      -3.034  -9.743 -14.900  1.00  0.00    -0.000 C 
BRANCH  15  16
ATOM     16  C   UNL     1      -1.512  -9.691 -15.119  1.00  0.00    -0.000 C 
BRANCH  16  17
ATOM     17  C   UNL     1      -1.127  -8.875 -16.363  1.00  0.00    -0.003 C 
ATOM     18  C   UNL     1      -0.328  -7.618 -16.021  1.00  0.00     0.004 C 
ENDBRANCH  16  17
ENDBRANCH  15  16
ENDBRANCH  14  15
ENDBRANCH  13  14
ENDBRANCH  12  13
ENDBRANCH  11  12
ENDBRANCH   1  11
TORSDOF 14
ENDMDL
MODEL 2
REMARK VINA RESULT:    -3.831      3.719      5.543
REMARK INTER + INTRA:          -9.753
REMARK INTER:                  -7.102
REMARK INTRA:                  -2.651
REMARK UNBOUND:                -2.787
REMARK SMILES CCCCCCCCCCCCCCCC(=O)[O-]
REMARK SMILES IDX 9 1 10 2 11 3 12 4 13 5 14 6 15 7 16 8 17 9 18 10 8 11 7 12
REMARK SMILES IDX 6 13 5 14 4 15 3 16 2 17 1 18
REMARK H PARENT
REMARK Flexibility Score: inf
ROOT
ATOM      1  C   UNL     1      -6.161  -9.142 -15.184  1.00  0.00     0.000 C 
ENDROOT
BRANCH   1   2
ATOM      2  C   UNL     1      -5.057  -8.072 -15.246  1.00  0.00     0.000 C 
BRANCH   2   3
ATOM      3  C   UNL     1      -5.121  -7.229 -16.530  1.00  0.00     0.000 C 
BRANCH   3   4
ATOM      4  C   UNL     1      -3.774  -7.168 -17.265  1.00  0.00     0.000 C 
BRANCH   4   5
ATOM      5  C   UNL     1      -3.960  -7.380 -18.771  1.00  0.00     0.000 C 
BRANCH   5   6
ATOM      6  C   UNL     1      -2.609  -7.565 -19.473  1.00  0.00     0.006 C 
BRANCH   6   7
ATOM      7  C   UNL     1      -2.623  -8.802 -20.376  1.00  0.00     0.053 C 
BRANCH   7   8
ATOM      8  C   UNL     1      -2.433  -8.407 -21.807  1.00  0.00     0.041 C 
ATOM      9  O   UNL     1      -2.495  -9.276 -22.717  1.00  0.00    -0.550 OA
ATOM     10  O   UNL     1      -2.236  -7.073 -22.139  1.00  0.00    -0.550 OA
ENDBRANCH   7   8
ENDBRANCH   6   7
ENDBRANCH   5   6
ENDBRANCH   4   5
ENDBRANCH   3   4
ENDBRANCH   2   3
ENDBRANCH   1   2
BRANCH   1  11
ATOM     11  C   UNL     1      -5.640 -10.551 -15.543  1.00  0.00     0.000 C 
BRANCH  11  12
ATOM     12  C   UNL     1      -5.613 -10.835 -17.058  1.00  0.00    -0.000 C 
BRANCH  12  13
ATOM     13  C   UNL     1      -4.206 -10.897 -17.680  1.00  0.00    -0.000 C 
BRANCH  13  14
ATOM     14  C   UNL     1      -3.040 -10.877 -16.669  1.00  0.00    -0.000 C 
BRANCH  14  15
ATOM     15  C   UNL     1      -1.689 -10.400 -17.233  1.00  0.00    -0.000 C 
BRANCH  15  16
ATOM     16  C   UNL     1      -0.935  -9.468 -16.270  1.00  0.00    -0.000 C 
BRANCH  16  17
ATOM     17  C   UNL     1      -1.662  -9.302 -14.926  1.00  0.00    -0.003 C 
ATOM     18  C   UNL     1      -1.413  -7.938 -14.284  1.00  0.00     0.004 C 
ENDBRANCH  16  17
ENDBRANCH  15  16
ENDBRANCH  14  15
ENDBRANCH  13  14
ENDBRANCH  12  13
ENDBRANCH  11  12
ENDBRANCH   1  11
TORSDOF 14
ENDMDL
MODEL 3
REMARK VINA RESULT:    -3.818      1.508      3.121
REMARK INTER + INTRA:          -9.730
REMARK INTER:                  -7.482
REMARK INTRA:                  -2.248
REMARK UNBOUND:                -2.787
REMARK SMILES CCCCCCCCCCCCCCCC(=O)[O-]
REMARK SMILES IDX 9 1 10 2 11 3 12 4 13 5 14 6 15 7 16 8 17 9 18 10 8 11 7 12
REMARK SMILES IDX 6 13 5 14 4 15 3 16 2 17 1 18
REMARK H PARENT
REMARK Flexibility Score: inf
ROOT
ATOM      1  C   UNL     1      -2.453  -8.860 -18.520  1.00  0.00     0.000 C 
ENDROOT
BRANCH   1   2
ATOM      2  C   UNL     1      -3.707  -9.069 -17.653  1.00  0.00     0.000 C 
BRANCH   2   3
ATOM      3  C   UNL     1      -4.702  -7.902 -17.759  1.00  0.00     0.000 C 
BRANCH   3   4
ATOM      4  C   UNL     1      -5.065  -7.308 -16.391  1.00  0.00     0.000 C 
BRANCH   4   5
ATOM      5  C   UNL     1      -4.691  -8.270 -15.258  1.00  0.00     0.000 C 
BRANCH   5   6
ATOM      6  C   UNL     1      -5.934  -8.710 -14.475  1.00  0.00     0.006 C 
BRANCH   6   7
ATOM      7  C   UNL     1      -6.642  -9.873 -15.175  1.00  0.00     0.053 C 
BRANCH   7   8
ATOM      8  C   UNL     1      -7.184 -10.838 -14.168  1.00  0.00     0.041 C 
ATOM      9  O   UNL     1      -7.763 -11.890 -14.546  1.00  0.00    -0.550 OA
ATOM     10  O   UNL     1      -7.007 -10.598 -12.811  1.00  0.00    -0.550 OA
ENDBRANCH   7   8
ENDBRANCH   6   7
ENDBRANCH   5   6
ENDBRANCH   4   5
ENDBRANCH   3   4
ENDBRANCH   2   3
ENDBRANCH   1   2
BRANCH   1  11
ATOM     11  C   UNL     1      -1.527  -7.757 -17.964  1.00  0.00     0.000 C 
BRANCH  11  12
ATOM     12  C   UNL     1      -0.782  -8.160 -16.676  1.00  0.00    -0.000 C 
BRANCH  12  13
ATOM     13  C   UNL     1      -0.994  -7.213 -15.481  1.00  0.00    -0.000 C 
BRANCH  13  14
ATOM     14  C   UNL     1      -1.272  -7.911 -14.132  1.00  0.00    -0.000 C 
BRANCH  14  15
ATOM     15  C   UNL     1      -0.466  -9.198 -13.882  1.00  0.00    -0.000 C 
BRANCH  15  16
ATOM     16  C   UNL     1      -1.351 -10.384 -13.458  1.00  0.00    -0.000 C 
BRANCH  16  17
ATOM     17  C   UNL     1      -2.264 -10.869 -14.595  1.00  0.00    -0.003 C 
ATOM     18  C   UNL     1      -3.495 -11.618 -14.085  1.00  0.00     0.004 C 
ENDBRANCH  16  17
ENDBRANCH  15  16
ENDBRANCH  14  15
ENDBRANCH  13  14
ENDBRANCH  12  13
ENDBRANCH  11  12
ENDBRANCH   1  11
TORSDOF 14
ENDMDL
MODEL 4
REMARK VINA RESULT:    -3.668      3.894      5.935
REMARK INTER + INTRA:          -9.457
REMARK INTER:                  -6.789
REMARK INTRA:                  -2.668
REMARK UNBOUND:                -2.787
REMARK SMILES CCCCCCCCCCCCCCCC(=O)[O-]
REMARK SMILES IDX 9 1 10 2 11 3 12 4 13 5 14 6 15 7 16 8 17 9 18 10 8 11 7 12
REMARK SMILES IDX 6 13 5 14 4 15 3 16 2 17 1 18
REMARK H PARENT
REMARK Flexibility Score: inf
ROOT
ATOM      1  C   UNL     1      -4.396  -7.386 -18.668  1.00  0.00     0.000 C 
ENDROOT
BRANCH   1   2
ATOM      2  C   UNL     1      -3.653  -6.874 -17.421  1.00  0.00     0.000 C 
BRANCH   2   3
ATOM      3  C   UNL     1      -2.131  -6.807 -17.623  1.00  0.00     0.000 C 
BRANCH   3   4
ATOM      4  C   UNL     1      -1.422  -8.106 -17.213  1.00  0.00     0.000 C 
BRANCH   4   5
ATOM      5  C   UNL     1      -0.653  -8.708 -18.394  1.00  0.00     0.000 C 
BRANCH   5   6
ATOM      6  C   UNL     1      -0.934  -7.934 -19.688  1.00  0.00     0.006 C 
BRANCH   6   7
ATOM      7  C   UNL     1      -1.498  -8.859 -20.770  1.00  0.00     0.053 C 
BRANCH   7   8
ATOM      8  C   UNL     1      -2.190  -8.062 -21.831  1.00  0.00     0.041 C 
ATOM      9  O   UNL     1      -2.494  -6.857 -21.622  1.00  0.00    -0.550 OA
ATOM     10  O   UNL     1      -2.456  -8.635 -23.067  1.00  0.00    -0.550 OA
ENDBRANCH   7   8
ENDBRANCH   6   7
ENDBRANCH   5   6
ENDBRANCH   4   5
ENDBRANCH   3   4
ENDBRANCH   2   3
ENDBRANCH   1   2
BRANCH   1  11
ATOM     11  C   UNL     1      -5.116  -8.729 -18.417  1.00  0.00     0.000 C 
BRANCH  11  12
ATOM     12  C   UNL     1      -4.238  -9.966 -18.692  1.00  0.00    -0.000 C 
BRANCH  12  13
ATOM     13  C   UNL     1      -4.400 -11.113 -17.678  1.00  0.00    -0.000 C 
BRANCH  13  14
ATOM     14  C   UNL     1      -3.506 -11.011 -16.424  1.00  0.00    -0.000 C 
BRANCH  14  15
ATOM     15  C   UNL     1      -4.248 -10.694 -15.113  1.00  0.00    -0.000 C 
BRANCH  15  16
ATOM     16  C   UNL     1      -4.229  -9.196 -14.764  1.00  0.00    -0.000 C 
BRANCH  16  17
ATOM     17  C   UNL     1      -5.639  -8.585 -14.729  1.00  0.00    -0.003 C 
ATOM     18  C   UNL     1      -6.740  -9.628 -14.916  1.00  0.00     0.004 C 
ENDBRANCH  16  17
ENDBRANCH  15  16
ENDBRANCH  14  15
ENDBRANCH  13  14
ENDBRANCH  12  13
ENDBRANCH  11  12
ENDBRANCH   1  11
TORSDOF 14
ENDMDL
MODEL 5
REMARK VINA RESULT:    -3.668      1.348      2.795
REMARK INTER + INTRA:          -9.457
REMARK INTER:                  -7.479
REMARK INTRA:                  -1.978
REMARK UNBOUND:                -2.787
REMARK SMILES CCCCCCCCCCCCCCCC(=O)[O-]
REMARK SMILES IDX 9 1 10 2 11 3 12 4 13 5 14 6 15 7 16 8 17 9 18 10 8 11 7 12
REMARK SMILES IDX 6 13 5 14 4 15 3 16 2 17 1 18
REMARK H PARENT
REMARK Flexibility Score: inf
ROOT
ATOM      1  C   UNL     1      -4.247  -6.895 -17.101  1.00  0.00     0.000 C 
ENDROOT
BRANCH   1   2
ATOM      2  C   UNL     1      -5.266  -7.614 -16.199  1.00  0.00     0.000 C 
BRANCH   2   3
ATOM      3  C   UNL     1      -4.622  -8.707 -15.331  1.00  0.00     0.000 C 
BRANCH   3   4
ATOM      4  C   UNL     1      -4.143  -9.911 -16.155  1.00  0.00     0.000 C 
BRANCH   4   5
ATOM      5  C   UNL     1      -4.807 -11.205 -15.672  1.00  0.00     0.000 C 
BRANCH   5   6
ATOM      6  C   UNL     1      -6.332 -11.130 -15.817  1.00  0.00     0.006 C 
BRANCH   6   7
ATOM      7  C   UNL     1      -7.029 -11.991 -14.760  1.00  0.00     0.053 C 
BRANCH   7   8
ATOM      8  C   UNL     1      -7.526 -11.139 -13.635  1.00  0.00     0.041 C 
ATOM      9  O   UNL     1      -8.717 -11.242 -13.240  1.00  0.00    -0.550 OA
ATOM     10  O   UNL     1      -6.659 -10.265 -12.991  1.00  0.00    -0.550 OA
ENDBRANCH   7   8
ENDBRANCH   6   7
ENDBRANCH   5   6
ENDBRANCH   4   5
ENDBRANCH   3   4
ENDBRANCH   2   3
ENDBRANCH   1   2
BRANCH   1  11
ATOM     11  C   UNL     1      -4.372  -7.312 -18.582  1.00  0.00     0.000 C 
BRANCH  11  12
ATOM     12  C   UNL     1      -3.093  -7.950 -19.158  1.00  0.00    -0.000 C 
BRANCH  12  13
ATOM     13  C   UNL     1      -1.775  -7.361 -18.620  1.00  0.00    -0.000 C 
BRANCH  13  14
ATOM     14  C   UNL     1      -0.772  -8.396 -18.069  1.00  0.00    -0.000 C 
BRANCH  14  15
ATOM     15  C   UNL     1      -0.894  -8.691 -16.563  1.00  0.00    -0.000 C 
BRANCH  15  16
ATOM     16  C   UNL     1      -0.943  -7.413 -15.706  1.00  0.00    -0.000 C 
BRANCH  16  17
ATOM     17  C   UNL     1      -1.183  -7.715 -14.218  1.00  0.00    -0.003 C 
ATOM     18  C   UNL     1      -1.175  -9.212 -13.911  1.00  0.00     0.004 C 
ENDBRANCH  16  17
ENDBRANCH  15  16
ENDBRANCH  14  15
ENDBRANCH  13  14
ENDBRANCH  12  13
ENDBRANCH  11  12
ENDBRANCH   1  11
TORSDOF 14
ENDMDL
MODEL 6
REMARK VINA RESULT:    -3.636      1.993      4.169
REMARK INTER + INTRA:          -9.398
REMARK INTER:                  -7.345
REMARK INTRA:                  -2.054
REMARK UNBOUND:                -2.787
REMARK SMILES CCCCCCCCCCCCCCCC(=O)[O-]
REMARK SMILES IDX 9 1 10 2 11 3 12 4 13 5 14 6 15 7 16 8 17 9 18 10 8 11 7 12
REMARK SMILES IDX 6 13 5 14 4 15 3 16 2 17 1 18
REMARK H PARENT
REMARK Flexibility Score: inf
ROOT
ATOM      1  C   UNL     1      -4.152  -7.003 -16.845  1.00  0.00     0.000 C 
ENDROOT
BRANCH   1   2
ATOM      2  C   UNL     1      -4.118  -7.352 -18.344  1.00  0.00     0.000 C 
BRANCH   2   3
ATOM      3  C   UNL     1      -2.706  -7.247 -18.944  1.00  0.00     0.000 C 
BRANCH   3   4
ATOM      4  C   UNL     1      -1.610  -7.658 -17.950  1.00  0.00     0.000 C 
BRANCH   4   5
ATOM      5  C   UNL     1      -1.517  -9.183 -17.834  1.00  0.00     0.000 C 
BRANCH   5   6
ATOM      6  C   UNL     1      -0.798  -9.596 -16.544  1.00  0.00     0.006 C 
BRANCH   6   7
ATOM      7  C   UNL     1      -1.801  -9.979 -15.453  1.00  0.00     0.053 C 
BRANCH   7   8
ATOM      8  C   UNL     1      -1.507  -9.235 -14.188  1.00  0.00     0.041 C 
ATOM      9  O   UNL     1      -1.208  -9.863 -13.138  1.00  0.00    -0.550 OA
ATOM     10  O   UNL     1      -1.517  -7.846 -14.182  1.00  0.00    -0.550 OA
ENDBRANCH   7   8
ENDBRANCH   6   7
ENDBRANCH   5   6
ENDBRANCH   4   5
ENDBRANCH   3   4
ENDBRANCH   2   3
ENDBRANCH   1   2
BRANCH   1  11
ATOM     11  C   UNL     1      -5.402  -7.567 -16.135  1.00  0.00     0.000 C 
BRANCH  11  12
ATOM     12  C   UNL     1      -5.088  -8.311 -14.823  1.00  0.00    -0.000 C 
BRANCH  12  13
ATOM     13  C   UNL     1      -6.290  -9.029 -14.182  1.00  0.00    -0.000 C 
BRANCH  13  14
ATOM     14  C   UNL     1      -6.101 -10.544 -13.951  1.00  0.00    -0.000 C 
BRANCH  14  15
ATOM     15  C   UNL     1      -6.640 -11.451 -15.072  1.00  0.00    -0.000 C 
BRANCH  15  16
ATOM     16  C   UNL     1      -5.556 -11.853 -16.087  1.00  0.00    -0.000 C 
BRANCH  16  17
ATOM     17  C   UNL     1      -5.548 -10.943 -17.326  1.00  0.00    -0.003 C 
ATOM     18  C   UNL     1      -4.321 -11.161 -18.211  1.00  0.00     0.004 C 
ENDBRANCH  16  17
ENDBRANCH  15  16
ENDBRANCH  14  15
ENDBRANCH  13  14
ENDBRANCH  12  13
ENDBRANCH  11  12
ENDBRANCH   1  11
TORSDOF 14
ENDMDL
MODEL 7
REMARK VINA RESULT:    -3.627      2.550      4.894
REMARK INTER + INTRA:          -9.383
REMARK INTER:                  -7.144
REMARK INTRA:                  -2.239
REMARK UNBOUND:                -2.787
REMARK SMILES CCCCCCCCCCCCCCCC(=O)[O-]
REMARK SMILES IDX 9 1 10 2 11 3 12 4 13 5 14 6 15 7 16 8 17 9 18 10 8 11 7 12
REMARK SMILES IDX 6 13 5 14 4 15 3 16 2 17 1 18
REMARK H PARENT
REMARK Flexibility Score: inf
ROOT
ATOM      1  C   UNL     1      -6.069 -11.031 -15.746  1.00  0.00     0.000 C 
ENDROOT
BRANCH   1   2
ATOM      2  C   UNL     1      -4.812 -11.918 -15.752  1.00  0.00     0.000 C 
BRANCH   2   3
ATOM      3  C   UNL     1      -4.139 -12.002 -14.373  1.00  0.00     0.000 C 
BRANCH   3   4
ATOM      4  C   UNL     1      -2.616 -11.817 -14.446  1.00  0.00     0.000 C 
BRANCH   4   5
ATOM      5  C   UNL     1      -2.236 -10.823 -15.549  1.00  0.00     0.000 C 
BRANCH   5   6
ATOM      6  C   UNL     1      -1.018  -9.985 -15.141  1.00  0.00     0.006 C 
BRANCH   6   7
ATOM      7  C   UNL     1      -0.966  -8.671 -15.923  1.00  0.00     0.053 C 
BRANCH   7   8
ATOM      8  C   UNL     1      -1.021  -7.503 -14.989  1.00  0.00     0.041 C 
ATOM      9  O   UNL     1      -1.383  -7.665 -13.793  1.00  0.00    -0.550 OA
ATOM     10  O   UNL     1      -0.626  -6.246 -15.426  1.00  0.00    -0.550 OA
ENDBRANCH   7   8
ENDBRANCH   6   7
ENDBRANCH   5   6
ENDBRANCH   4   5
ENDBRANCH   3   4
ENDBRANCH   2   3
ENDBRANCH   1   2
BRANCH   1  11
ATOM     11  C   UNL     1      -6.271 -10.302 -14.400  1.00  0.00     0.000 C 
BRANCH  11  12
ATOM     12  C   UNL     1      -6.188  -8.767 -14.506  1.00  0.00    -0.000 C 
BRANCH  12  13
ATOM     13  C   UNL     1      -4.918  -8.232 -15.195  1.00  0.00    -0.000 C 
BRANCH  13  14
ATOM     14  C   UNL     1      -5.169  -7.257 -16.365  1.00  0.00    -0.000 C 
BRANCH  14  15
ATOM     15  C   UNL     1      -3.934  -6.933 -17.225  1.00  0.00    -0.000 C 
BRANCH  15  16
ATOM     16  C   UNL     1      -4.013  -7.539 -18.637  1.00  0.00    -0.000 C 
BRANCH  16  17
ATOM     17  C   UNL     1      -3.788  -9.060 -18.635  1.00  0.00    -0.003 C 
ATOM     18  C   UNL     1      -5.047  -9.843 -19.008  1.00  0.00     0.004 C 
ENDBRANCH  16  17
ENDBRANCH  15  16
ENDBRANCH  14  15
ENDBRANCH  13  14
ENDBRANCH  12  13
ENDBRANCH  11  12
ENDBRANCH   1  11
TORSDOF 14
ENDMDL
MODEL 8
REMARK VINA RESULT:    -3.557      2.812      4.823
REMARK INTER + INTRA:          -9.256
REMARK INTER:                  -6.972
REMARK INTRA:                  -2.284
REMARK UNBOUND:                -2.787
REMARK SMILES CCCCCCCCCCCCCCCC(=O)[O-]
REMARK SMILES IDX 9 1 10 2 11 3 12 4 13 5 14 6 15 7 16 8 17 9 18 10 8 11 7 12
REMARK SMILES IDX 6 13 5 14 4 15 3 16 2 17 1 18
REMARK H PARENT
REMARK Flexibility Score: inf
ROOT
ATOM      1  C   UNL     1      -6.626 -10.047 -15.233  1.00  0.00     0.000 C 
ENDROOT
BRANCH   1   2
ATOM      2  C   UNL     1      -6.063  -9.036 -14.218  1.00  0.00     0.000 C 
BRANCH   2   3
ATOM      3  C   UNL     1      -5.128  -8.004 -14.867  1.00  0.00     0.000 C 
BRANCH   3   4
ATOM      4  C   UNL     1      -5.081  -8.127 -16.397  1.00  0.00     0.000 C 
BRANCH   4   5
ATOM      5  C   UNL     1      -4.471  -6.872 -17.031  1.00  0.00     0.000 C 
BRANCH   5   6
ATOM      6  C   UNL     1      -3.388  -7.241 -18.052  1.00  0.00     0.006 C 
BRANCH   6   7
ATOM      7  C   UNL     1      -3.234  -8.760 -18.167  1.00  0.00     0.053 C 
BRANCH   7   8
ATOM      8  C   UNL     1      -1.930  -9.106 -18.814  1.00  0.00     0.041 C 
ATOM      9  O   UNL     1      -1.065  -9.769 -18.183  1.00  0.00    -0.550 OA
ATOM     10  O   UNL     1      -1.690  -8.737 -20.131  1.00  0.00    -0.550 OA
ENDBRANCH   7   8
ENDBRANCH   6   7
ENDBRANCH   5   6
ENDBRANCH   4   5
ENDBRANCH   3   4
ENDBRANCH   2   3
ENDBRANCH   1   2
BRANCH   1  11
ATOM     11  C   UNL     1      -6.106 -11.481 -14.990  1.00  0.00     0.000 C 
BRANCH  11  12
ATOM     12  C   UNL     1      -4.778 -11.537 -14.212  1.00  0.00    -0.000 C 
BRANCH  12  13
ATOM     13  C   UNL     1      -3.524 -11.740 -15.083  1.00  0.00    -0.000 C 
BRANCH  13  14
ATOM     14  C   UNL     1      -2.516 -10.571 -15.063  1.00  0.00    -0.000 C 
BRANCH  14  15
ATOM     15  C   UNL     1      -1.775 -10.366 -13.730  1.00  0.00    -0.000 C 
BRANCH  15  16
ATOM     16  C   UNL     1      -0.872  -9.120 -13.734  1.00  0.00    -0.000 C 
BRANCH  16  17
ATOM     17  C   UNL     1      -1.516  -7.932 -14.464  1.00  0.00    -0.003 C 
ATOM     18  C   UNL     1      -0.607  -7.334 -15.537  1.00  0.00     0.004 C 
ENDBRANCH  16  17
ENDBRANCH  15  16
ENDBRANCH  14  15
ENDBRANCH  13  14
ENDBRANCH  12  13
ENDBRANCH  11  12
ENDBRANCH   1  11
TORSDOF 14
ENDMDL
MODEL 9
REMARK VINA RESULT:    -3.551      3.641      5.455
REMARK INTER + INTRA:          -9.244
REMARK INTER:                  -6.679
REMARK INTRA:                  -2.564
REMARK UNBOUND:                -2.787
REMARK SMILES CCCCCCCCCCCCCCCC(=O)[O-]
REMARK SMILES IDX 9 1 10 2 11 3 12 4 13 5 14 6 15 7 16 8 17 9 18 10 8 11 7 12
REMARK SMILES IDX 6 13 5 14 4 15 3 16 2 17 1 18
REMARK H PARENT
REMARK Flexibility Score: inf
ROOT
ATOM      1  C   UNL     1      -3.656  -6.681 -17.322  1.00  0.00     0.000 C 
ENDROOT
BRANCH   1   2
ATOM      2  C   UNL     1      -4.368  -7.257 -18.559  1.00  0.00     0.000 C 
BRANCH   2   3
ATOM      3  C   UNL     1      -4.792  -8.722 -18.370  1.00  0.00     0.000 C 
BRANCH   3   4
ATOM      4  C   UNL     1      -4.137  -9.664 -19.390  1.00  0.00     0.000 C 
BRANCH   4   5
ATOM      5  C   UNL     1      -2.849 -10.273 -18.826  1.00  0.00     0.000 C 
BRANCH   5   6
ATOM      6  C   UNL     1      -1.616  -9.737 -19.565  1.00  0.00     0.006 C 
BRANCH   6   7
ATOM      7  C   UNL     1      -1.996  -9.185 -20.941  1.00  0.00     0.053 C 
BRANCH   7   8
ATOM      8  C   UNL     1      -1.639  -7.735 -21.040  1.00  0.00     0.041 C 
ATOM      9  O   UNL     1      -0.534  -7.323 -20.597  1.00  0.00    -0.550 OA
ATOM     10  O   UNL     1      -2.506  -6.848 -21.664  1.00  0.00    -0.550 OA
ENDBRANCH   7   8
ENDBRANCH   6   7
ENDBRANCH   5   6
ENDBRANCH   4   5
ENDBRANCH   3   4
ENDBRANCH   2   3
ENDBRANCH   1   2
BRANCH   1  11
ATOM     11  C   UNL     1      -2.122  -6.844 -17.394  1.00  0.00     0.000 C 
BRANCH  11  12
ATOM     12  C   UNL     1      -1.479  -7.270 -16.060  1.00  0.00    -0.000 C 
BRANCH  12  13
ATOM     13  C   UNL     1      -1.452  -8.790 -15.809  1.00  0.00    -0.000 C 
BRANCH  13  14
ATOM     14  C   UNL     1      -2.326  -9.276 -14.633  1.00  0.00    -0.000 C 
BRANCH  14  15
ATOM     15  C   UNL     1      -3.751  -9.719 -15.014  1.00  0.00    -0.000 C 
BRANCH  15  16
ATOM     16  C   UNL     1      -4.819  -8.673 -14.650  1.00  0.00    -0.000 C 
BRANCH  16  17
ATOM     17  C   UNL     1      -6.237  -9.130 -15.026  1.00  0.00    -0.003 C 
ATOM     18  C   UNL     1      -6.279 -10.571 -15.532  1.00  0.00     0.004 C 
ENDBRANCH  16  17
ENDBRANCH  15  16
ENDBRANCH  14  15
ENDBRANCH  13  14
ENDBRANCH  12  13
ENDBRANCH  11  12
ENDBRANCH   1  11
TORSDOF 14
ENDMDL
