MODEL 1
REMARK VINA RESULT:    -3.273      0.000      0.000
REMARK INTER + INTRA:          -5.330
REMARK INTER:                  -4.613
REMARK INTRA:                  -0.718
REMARK UNBOUND:                -0.718
REMARK SMILES CCCCCCCCC(=O)[O-]
REMARK SMILES IDX 6 1 7 2 8 3 9 4 10 5 11 6 5 7 4 8 3 9 2 10 1 11
REMARK H PARENT
REMARK Flexibility Score: inf
ROOT
ATOM      1  C   UNL     1      22.166  36.255  37.041  1.00  0.00     0.000 C 
ENDROOT
BRANCH   1   2
ATOM      2  C   UNL     1      21.183  36.510  38.192  1.00  0.00     0.006 C 
BRANCH   2   3
ATOM      3  C   UNL     1      20.998  38.007  38.477  1.00  0.00     0.053 C 
BRANCH   3   4
ATOM      4  C   UNL     1      19.970  38.248  39.540  1.00  0.00     0.041 C 
ATOM      5  O   UNL     1      20.305  38.765  40.639  1.00  0.00    -0.550 OA
ATOM      6  O   UNL     1      18.649  37.872  39.331  1.00  0.00    -0.550 OA
ENDBRANCH   3   4
ENDBRANCH   2   3
ENDBRANCH   1   2
BRANCH   1   7
ATOM      7  C   UNL     1      22.268  37.482  36.122  1.00  0.00     0.000 C 
BRANCH   7   8
ATOM      8  C   UNL     1      21.631  37.253  34.740  1.00  0.00    -0.000 C 
BRANCH   8   9
ATOM      9  C   UNL     1      20.093  37.185  34.736  1.00  0.00    -0.000 C 
BRANCH   9  10
ATOM     10  C   UNL     1      19.433  38.541  35.026  1.00  0.00    -0.003 C 
ATOM     11  C   UNL     1      18.170  38.369  35.866  1.00  0.00     0.004 C 
ENDBRANCH   9  10
ENDBRANCH   8   9
ENDBRANCH   7   8
ENDBRANCH   1   7
TORSDOF 7
ENDMDL
MODEL 2
REMARK VINA RESULT:    -3.258      2.536      4.308
REMARK INTER + INTRA:          -5.309
REMARK INTER:                  -4.629
REMARK INTRA:                  -0.681
REMARK UNBOUND:                -0.718
REMARK SMILES CCCCCCCCC(=O)[O-]
REMARK SMILES IDX 6 1 7 2 8 3 9 4 10 5 11 6 5 7 4 8 3 9 2 10 1 11
REMARK H PARENT
REMARK Flexibility Score: inf
ROOT
ATOM      1  C   UNL     1      22.373  37.712  35.847  1.00  0.00     0.000 C 
ENDROOT
BRANCH   1   2
ATOM      2  C   UNL     1      21.341  38.159  34.800  1.00  0.00     0.006 C 
BRANCH   2   3
ATOM      3  C   UNL     1      20.777  36.977  34.000  1.00  0.00     0.053 C 
BRANCH   3   4
ATOM      4  C   UNL     1      19.280  36.934  34.053  1.00  0.00     0.041 C 
ATOM      5  O   UNL     1      18.637  36.241  33.220  1.00  0.00    -0.550 OA
ATOM      6  O   UNL     1      18.594  37.683  35.000  1.00  0.00    -0.550 OA
ENDBRANCH   3   4
ENDBRANCH   2   3
ENDBRANCH   1   2
BRANCH   1   7
ATOM      7  C   UNL     1      22.154  36.244  36.243  1.00  0.00     0.000 C 
BRANCH   7   8
ATOM      8  C   UNL     1      21.940  36.056  37.756  1.00  0.00    -0.000 C 
BRANCH   8   9
ATOM      9  C   UNL     1      21.404  37.294  38.497  1.00  0.00    -0.000 C 
BRANCH   9  10
ATOM     10  C   UNL     1      19.871  37.328  38.576  1.00  0.00    -0.003 C 
ATOM     11  C   UNL     1      19.338  38.734  38.316  1.00  0.00     0.004 C 
ENDBRANCH   9  10
ENDBRANCH   8   9
ENDBRANCH   7   8
ENDBRANCH   1   7
TORSDOF 7
ENDMDL
MODEL 3
REMARK VINA RESULT:    -3.193      0.900      1.254
REMARK INTER + INTRA:          -5.217
REMARK INTER:                  -4.554
REMARK INTRA:                  -0.663
REMARK UNBOUND:                -0.718
REMARK SMILES CCCCCCCCC(=O)[O-]
REMARK SMILES IDX 6 1 7 2 8 3 9 4 10 5 11 6 5 7 4 8 3 9 2 10 1 11
REMARK H PARENT
REMARK Flexibility Score: inf
ROOT
ATOM      1  C   UNL     1      22.023  36.242  36.588  1.00  0.00     0.000 C 
ENDROOT
BRANCH   1   2
ATOM      2  C   UNL     1      21.765  36.334  38.099  1.00  0.00     0.006 C 
BRANCH   2   3
ATOM      3  C   UNL     1      20.490  37.124  38.423  1.00  0.00     0.053 C 
BRANCH   3   4
ATOM      4  C   UNL     1      20.724  38.145  39.494  1.00  0.00     0.041 C 
ATOM      5  O   UNL     1      19.755  38.599  40.159  1.00  0.00    -0.550 OA
ATOM      6  O   UNL     1      22.007  38.619  39.737  1.00  0.00    -0.550 OA
ENDBRANCH   3   4
ENDBRANCH   2   3
ENDBRANCH   1   2
BRANCH   1   7
ATOM      7  C   UNL     1      22.358  37.622  36.002  1.00  0.00     0.000 C 
BRANCH   7   8
ATOM      8  C   UNL     1      21.515  37.968  34.761  1.00  0.00    -0.000 C 
BRANCH   8   9
ATOM      9  C   UNL     1      20.369  36.986  34.459  1.00  0.00    -0.000 C 
BRANCH   9  10
ATOM     10  C   UNL     1      19.025  37.690  34.216  1.00  0.00    -0.003 C 
ATOM     11  C   UNL     1      18.402  38.154  35.529  1.00  0.00     0.004 C 
ENDBRANCH   9  10
ENDBRANCH   8   9
ENDBRANCH   7   8
ENDBRANCH   1   7
TORSDOF 7
ENDMDL
MODEL 4
REMARK VINA RESULT:    -3.187      1.183      3.015
REMARK INTER + INTRA:          -5.209
REMARK INTER:                  -4.529
REMARK INTRA:                  -0.681
REMARK UNBOUND:                -0.718
REMARK SMILES CCCCCCCCC(=O)[O-]
REMARK SMILES IDX 6 1 7 2 8 3 9 4 10 5 11 6 5 7 4 8 3 9 2 10 1 11
REMARK H PARENT
REMARK Flexibility Score: inf
ROOT
ATOM      1  C   UNL     1      18.391  39.065  35.478  1.00  0.00     0.000 C 
ENDROOT
BRANCH   1   2
ATOM      2  C   UNL     1      18.694  38.264  36.753  1.00  0.00     0.006 C 
BRANCH   2   3
ATOM      3  C   UNL     1      19.515  39.073  37.766  1.00  0.00     0.053 C 
BRANCH   3   4
ATOM      4  C   UNL     1      19.583  38.391  39.098  1.00  0.00     0.041 C 
ATOM      5  O   UNL     1      18.588  37.752  39.534  1.00  0.00    -0.550 OA
ATOM      6  O   UNL     1      20.731  38.488  39.874  1.00  0.00    -0.550 OA
ENDBRANCH   3   4
ENDBRANCH   2   3
ENDBRANCH   1   2
BRANCH   1   7
ATOM      7  C   UNL     1      18.392  38.153  34.242  1.00  0.00     0.000 C 
BRANCH   7   8
ATOM      8  C   UNL     1      19.432  37.022  34.332  1.00  0.00    -0.000 C 
BRANCH   8   9
ATOM      9  C   UNL     1      20.816  37.362  33.752  1.00  0.00    -0.000 C 
BRANCH   9  10
ATOM     10  C   UNL     1      21.864  37.658  34.836  1.00  0.00    -0.003 C 
ATOM     11  C   UNL     1      21.913  36.540  35.874  1.00  0.00     0.004 C 
ENDBRANCH   9  10
ENDBRANCH   8   9
ENDBRANCH   7   8
ENDBRANCH   1   7
TORSDOF 7
ENDMDL
MODEL 5
REMARK VINA RESULT:    -3.180      2.247      3.896
REMARK INTER + INTRA:          -5.199
REMARK INTER:                  -4.371
REMARK INTRA:                  -0.829
REMARK UNBOUND:                -0.718
REMARK SMILES CCCCCCCCC(=O)[O-]
REMARK SMILES IDX 6 1 7 2 8 3 9 4 10 5 11 6 5 7 4 8 3 9 2 10 1 11
REMARK H PARENT
REMARK Flexibility Score: inf
ROOT
ATOM      1  C   UNL     1      21.809  36.561  36.139  1.00  0.00     0.000 C 
ENDROOT
BRANCH   1   2
ATOM      2  C   UNL     1      21.762  37.494  34.920  1.00  0.00     0.006 C 
BRANCH   2   3
ATOM      3  C   UNL     1      20.544  38.427  34.949  1.00  0.00     0.053 C 
BRANCH   3   4
ATOM      4  C   UNL     1      19.259  37.668  34.814  1.00  0.00     0.041 C 
ATOM      5  O   UNL     1      18.271  37.962  35.539  1.00  0.00    -0.550 OA
ATOM      6  O   UNL     1      19.162  36.617  33.912  1.00  0.00    -0.550 OA
ENDBRANCH   3   4
ENDBRANCH   2   3
ENDBRANCH   1   2
BRANCH   1   7
ATOM      7  C   UNL     1      22.602  37.200  37.289  1.00  0.00     0.000 C 
BRANCH   7   8
ATOM      8  C   UNL     1      21.745  37.451  38.543  1.00  0.00    -0.000 C 
BRANCH   8   9
ATOM      9  C   UNL     1      20.275  37.008  38.426  1.00  0.00    -0.000 C 
BRANCH   9  10
ATOM     10  C   UNL     1      19.294  38.021  39.033  1.00  0.00    -0.003 C 
ATOM     11  C   UNL     1      19.541  39.424  38.485  1.00  0.00     0.004 C 
ENDBRANCH   9  10
ENDBRANCH   8   9
ENDBRANCH   7   8
ENDBRANCH   1   7
TORSDOF 7
ENDMDL
MODEL 6
REMARK VINA RESULT:    -3.154      1.461      2.454
REMARK INTER + INTRA:          -5.162
REMARK INTER:                  -4.615
REMARK INTRA:                  -0.547
REMARK UNBOUND:                -0.718
REMARK SMILES CCCCCCCCC(=O)[O-]
REMARK SMILES IDX 6 1 7 2 8 3 9 4 10 5 11 6 5 7 4 8 3 9 2 10 1 11
REMARK H PARENT
REMARK Flexibility Score: inf
ROOT
ATOM      1  C   UNL     1      22.292  37.781  35.632  1.00  0.00     0.000 C 
ENDROOT
BRANCH   1   2
ATOM      2  C   UNL     1      21.979  36.328  36.019  1.00  0.00     0.006 C 
BRANCH   2   3
ATOM      3  C   UNL     1      22.387  36.011  37.464  1.00  0.00     0.053 C 
BRANCH   3   4
ATOM      4  C   UNL     1      21.615  36.831  38.452  1.00  0.00     0.041 C 
ATOM      5  O   UNL     1      20.358  36.752  38.496  1.00  0.00    -0.550 OA
ATOM      6  O   UNL     1      22.279  37.705  39.303  1.00  0.00    -0.550 OA
ENDBRANCH   3   4
ENDBRANCH   2   3
ENDBRANCH   1   2
BRANCH   1   7
ATOM      7  C   UNL     1      21.086  38.439  34.944  1.00  0.00     0.000 C 
BRANCH   7   8
ATOM      8  C   UNL     1      19.804  37.593  35.042  1.00  0.00    -0.000 C 
BRANCH   8   9
ATOM      9  C   UNL     1      18.666  38.228  35.862  1.00  0.00    -0.000 C 
BRANCH   9  10
ATOM     10  C   UNL     1      17.320  38.222  35.124  1.00  0.00    -0.003 C 
ATOM     11  C   UNL     1      17.407  37.422  33.827  1.00  0.00     0.004 C 
ENDBRANCH   9  10
ENDBRANCH   8   9
ENDBRANCH   7   8
ENDBRANCH   1   7
TORSDOF 7
ENDMDL
MODEL 7
REMARK VINA RESULT:    -3.098      1.854      2.577
REMARK INTER + INTRA:          -5.083
REMARK INTER:                  -4.653
REMARK INTRA:                  -0.431
REMARK UNBOUND:                -0.718
REMARK SMILES CCCCCCCCC(=O)[O-]
REMARK SMILES IDX 6 1 7 2 8 3 9 4 10 5 11 6 5 7 4 8 3 9 2 10 1 11
REMARK H PARENT
REMARK Flexibility Score: inf
ROOT
ATOM      1  C   UNL     1      21.946  36.592  35.840  1.00  0.00     0.000 C 
ENDROOT
BRANCH   1   2
ATOM      2  C   UNL     1      21.961  37.433  37.125  1.00  0.00     0.006 C 
BRANCH   2   3
ATOM      3  C   UNL     1      21.011  36.878  38.194  1.00  0.00     0.053 C 
BRANCH   3   4
ATOM      4  C   UNL     1      19.825  37.770  38.402  1.00  0.00     0.041 C 
ATOM      5  O   UNL     1      19.013  37.536  39.336  1.00  0.00    -0.550 OA
ATOM      6  O   UNL     1      19.599  38.840  37.546  1.00  0.00    -0.550 OA
ENDBRANCH   3   4
ENDBRANCH   2   3
ENDBRANCH   1   2
BRANCH   1   7
ATOM      7  C   UNL     1      21.285  37.363  34.687  1.00  0.00     0.000 C 
BRANCH   7   8
ATOM      8  C   UNL     1      19.809  36.980  34.476  1.00  0.00    -0.000 C 
BRANCH   8   9
ATOM      9  C   UNL     1      19.422  36.655  33.022  1.00  0.00    -0.000 C 
BRANCH   9  10
ATOM     10  C   UNL     1      20.538  36.977  32.018  1.00  0.00    -0.003 C 
ATOM     11  C   UNL     1      20.008  36.979  30.587  1.00  0.00     0.004 C 
ENDBRANCH   9  10
ENDBRANCH   8   9
ENDBRANCH   7   8
ENDBRANCH   1   7
TORSDOF 7
ENDMDL
MODEL 8
REMARK VINA RESULT:    -3.078      1.460      3.044
REMARK INTER + INTRA:          -5.055
REMARK INTER:                  -4.216
REMARK INTRA:                  -0.839
REMARK UNBOUND:                -0.718
REMARK SMILES CCCCCCCCC(=O)[O-]
REMARK SMILES IDX 6 1 7 2 8 3 9 4 10 5 11 6 5 7 4 8 3 9 2 10 1 11
REMARK H PARENT
REMARK Flexibility Score: inf
ROOT
ATOM      1  C   UNL     1      19.404  38.052  36.338  1.00  0.00     0.000 C 
ENDROOT
BRANCH   1   2
ATOM      2  C   UNL     1      18.745  38.692  37.569  1.00  0.00     0.006 C 
BRANCH   2   3
ATOM      3  C   UNL     1      19.187  38.024  38.878  1.00  0.00     0.053 C 
BRANCH   3   4
ATOM      4  C   UNL     1      19.975  38.960  39.742  1.00  0.00     0.041 C 
ATOM      5  O   UNL     1      20.278  40.108  39.320  1.00  0.00    -0.550 OA
ATOM      6  O   UNL     1      20.403  38.555  41.000  1.00  0.00    -0.550 OA
ENDBRANCH   3   4
ENDBRANCH   2   3
ENDBRANCH   1   2
BRANCH   1   7
ATOM      7  C   UNL     1      20.660  38.832  35.918  1.00  0.00     0.000 C 
BRANCH   7   8
ATOM      8  C   UNL     1      21.967  38.141  36.347  1.00  0.00    -0.000 C 
BRANCH   8   9
ATOM      9  C   UNL     1      21.983  36.612  36.171  1.00  0.00    -0.000 C 
BRANCH   9  10
ATOM     10  C   UNL     1      22.139  35.857  37.498  1.00  0.00    -0.003 C 
ATOM     11  C   UNL     1      22.774  36.744  38.565  1.00  0.00     0.004 C 
ENDBRANCH   9  10
ENDBRANCH   8   9
ENDBRANCH   7   8
ENDBRANCH   1   7
TORSDOF 7
ENDMDL
MODEL 9
REMARK VINA RESULT:    -3.057     11.088     12.900
REMARK INTER + INTRA:          -5.025
REMARK INTER:                  -4.608
REMARK INTRA:                  -0.417
REMARK UNBOUND:                -0.718
REMARK SMILES CCCCCCCCC(=O)[O-]
REMARK SMILES IDX 6 1 7 2 8 3 9 4 10 5 11 6 5 7 4 8 3 9 2 10 1 11
REMARK H PARENT
REMARK Flexibility Score: inf
ROOT
ATOM      1  C   UNL     1      20.051  34.228  24.300  1.00  0.00     0.000 C 
ENDROOT
BRANCH   1   2
ATOM      2  C   UNL     1      21.250  33.271  24.221  1.00  0.00     0.006 C 
BRANCH   2   3
ATOM      3  C   UNL     1      20.837  31.805  24.409  1.00  0.00     0.053 C 
BRANCH   3   4
ATOM      4  C   UNL     1      20.078  31.600  25.684  1.00  0.00     0.041 C 
ATOM      5  O   UNL     1      18.997  30.953  25.680  1.00  0.00    -0.550 OA
ATOM      6  O   UNL     1      20.544  32.152  26.870  1.00  0.00    -0.550 OA
ENDBRANCH   3   4
ENDBRANCH   2   3
ENDBRANCH   1   2
BRANCH   1   7
ATOM      7  C   UNL     1      20.452  35.648  23.875  1.00  0.00     0.000 C 
BRANCH   7   8
ATOM      8  C   UNL     1      19.598  36.739  24.546  1.00  0.00    -0.000 C 
BRANCH   8   9
ATOM      9  C   UNL     1      18.439  36.217  25.414  1.00  0.00    -0.000 C 
BRANCH   9  10
ATOM     10  C   UNL     1      18.592  36.577  26.899  1.00  0.00    -0.003 C 
ATOM     11  C   UNL     1      19.270  35.448  27.671  1.00  0.00     0.004 C 
ENDBRANCH   9  10
ENDBRANCH   8   9
ENDBRANCH   7   8
ENDBRANCH   1   7
TORSDOF 7
ENDMDL
