MODEL 1
REMARK VINA RESULT:    -2.201      0.000      0.000
REMARK INTER + INTRA:          -2.201
REMARK INTER:                  -2.201
REMARK INTRA:                   0.000
REMARK UNBOUND:                 0.000
REMARK SMILES C=C1CCC[C@]2(C)CC(=O)C(=C(C)C)C[C@H]12
REMARK SMILES IDX 13 1 12 2 11 3 15 4 16 5 2 6 1 7 3 8 4 9 5 10 6 11 8 12 9 13
REMARK SMILES IDX 10 14 7 15 14 16
REMARK H PARENT
REMARK Flexibility Score: inf
ROOT
ATOM      1  C   UNL     1       1.723 148.616  -5.814  1.00  0.00     0.039 C 
ATOM      2  C   UNL     1       2.656 147.502  -5.397  1.00  0.00    -0.070 C 
ATOM      3  C   UNL     1       2.555 146.251  -5.932  1.00  0.00    -0.006 C 
ATOM      4  C   UNL     1       3.528 145.135  -5.603  1.00  0.00     0.047 C 
ATOM      5  C   UNL     1       4.057 144.369  -6.856  1.00  0.00     0.025 C 
ATOM      6  C   UNL     1       5.544 144.626  -7.048  1.00  0.00    -0.073 C 
ATOM      7  C   UNL     1       6.454 143.834  -6.459  1.00  0.00     0.008 C 
ATOM      8  C   UNL     1       5.982 145.868  -7.783  1.00  0.00     0.031 C 
ATOM      9  C   UNL     1       5.261 145.963  -9.125  1.00  0.00     0.005 C 
ATOM     10  C   UNL     1       3.740 145.907  -8.937  1.00  0.00     0.008 C 
ATOM     11  C   UNL     1       3.254 144.621  -8.188  1.00  0.00    -0.018 C 
ATOM     12  C   UNL     1       1.741 144.759  -7.866  1.00  0.00     0.088 C 
ATOM     13  C   UNL     1       1.482 145.864  -6.884  1.00  0.00     0.159 C 
ATOM     14  O   UNL     1       0.336 146.384  -6.836  1.00  0.00    -0.295 OA
ATOM     15  C   UNL     1       3.423 143.398  -9.125  1.00  0.00     0.012 C 
ATOM     16  C   UNL     1       3.737 147.846  -4.398  1.00  0.00     0.039 C 
ENDROOT
TORSDOF 0
ENDMDL
MODEL 2
REMARK VINA RESULT:    -1.922      1.703      3.289
REMARK INTER + INTRA:          -1.922
REMARK INTER:                  -1.922
REMARK INTRA:                   0.000
REMARK UNBOUND:                 0.000
REMARK SMILES C=C1CCC[C@]2(C)CC(=O)C(=C(C)C)C[C@H]12
REMARK SMILES IDX 13 1 12 2 11 3 15 4 16 5 2 6 1 7 3 8 4 9 5 10 6 11 8 12 9 13
REMARK SMILES IDX 10 14 7 15 14 16
REMARK H PARENT
REMARK Flexibility Score: inf
ROOT
ATOM      1  C   UNL     1       2.530 147.769  -5.603  1.00  0.00     0.039 C 
ATOM      2  C   UNL     1       2.146 146.734  -6.635  1.00  0.00    -0.070 C 
ATOM      3  C   UNL     1       2.998 146.382  -7.641  1.00  0.00    -0.006 C 
ATOM      4  C   UNL     1       2.681 145.285  -8.640  1.00  0.00     0.047 C 
ATOM      5  C   UNL     1       3.852 144.278  -8.863  1.00  0.00     0.025 C 
ATOM      6  C   UNL     1       3.479 142.902  -8.332  1.00  0.00    -0.073 C 
ATOM      7  C   UNL     1       2.860 142.011  -9.125  1.00  0.00     0.008 C 
ATOM      8  C   UNL     1       3.675 142.606  -6.867  1.00  0.00     0.031 C 
ATOM      9  C   UNL     1       5.101 142.954  -6.450  1.00  0.00     0.005 C 
ATOM     10  C   UNL     1       5.436 144.409  -6.797  1.00  0.00     0.008 C 
ATOM     11  C   UNL     1       5.254 144.743  -8.316  1.00  0.00    -0.018 C 
ATOM     12  C   UNL     1       5.414 146.273  -8.525  1.00  0.00     0.088 C 
ATOM     13  C   UNL     1       4.311 147.041  -7.856  1.00  0.00     0.159 C 
ATOM     14  O   UNL     1       4.499 148.252  -7.562  1.00  0.00    -0.295 OA
ATOM     15  C   UNL     1       6.376 144.042  -9.124  1.00  0.00     0.012 C 
ATOM     16  C   UNL     1       0.799 146.068  -6.476  1.00  0.00     0.039 C 
ENDROOT
TORSDOF 0
ENDMDL
MODEL 3
REMARK VINA RESULT:     0.262      2.177      4.415
REMARK INTER + INTRA:           0.262
REMARK INTER:                   0.262
REMARK INTRA:                   0.000
REMARK UNBOUND:                 0.000
REMARK SMILES C=C1CCC[C@]2(C)CC(=O)C(=C(C)C)C[C@H]12
REMARK SMILES IDX 13 1 12 2 11 3 15 4 16 5 2 6 1 7 3 8 4 9 5 10 6 11 8 12 9 13
REMARK SMILES IDX 10 14 7 15 14 16
REMARK H PARENT
REMARK Flexibility Score: inf
ROOT
ATOM      1  C   UNL     1       7.191 146.553  -8.751  1.00  0.00     0.039 C 
ATOM      2  C   UNL     1       5.697 146.713  -8.905  1.00  0.00    -0.070 C 
ATOM      3  C   UNL     1       4.853 145.644  -8.808  1.00  0.00    -0.006 C 
ATOM      4  C   UNL     1       3.344 145.781  -8.869  1.00  0.00     0.047 C 
ATOM      5  C   UNL     1       2.594 145.001  -7.744  1.00  0.00     0.025 C 
ATOM      6  C   UNL     1       1.915 145.969  -6.787  1.00  0.00    -0.073 C 
ATOM      7  C   UNL     1       0.662 146.391  -7.020  1.00  0.00     0.008 C 
ATOM      8  C   UNL     1       2.719 146.565  -5.659  1.00  0.00     0.031 C 
ATOM      9  C   UNL     1       3.415 145.458  -4.872  1.00  0.00     0.005 C 
ATOM     10  C   UNL     1       4.272 144.582  -5.794  1.00  0.00     0.008 C 
ATOM     11  C   UNL     1       3.461 143.939  -6.968  1.00  0.00    -0.018 C 
ATOM     12  C   UNL     1       4.445 143.250  -7.952  1.00  0.00     0.088 C 
ATOM     13  C   UNL     1       5.333 144.249  -8.636  1.00  0.00     0.159 C 
ATOM     14  O   UNL     1       6.431 143.863  -9.118  1.00  0.00    -0.295 OA
ATOM     15  C   UNL     1       2.529 142.840  -6.395  1.00  0.00     0.012 C 
ATOM     16  C   UNL     1       5.171 148.113  -9.123  1.00  0.00     0.039 C 
ENDROOT
TORSDOF 0
ENDMDL
MODEL 4
REMARK VINA RESULT:     0.446      2.221      4.741
REMARK INTER + INTRA:           0.446
REMARK INTER:                   0.446
REMARK INTRA:                   0.000
REMARK UNBOUND:                 0.000
REMARK SMILES C=C1CCC[C@]2(C)CC(=O)C(=C(C)C)C[C@H]12
REMARK SMILES IDX 13 1 12 2 11 3 15 4 16 5 2 6 1 7 3 8 4 9 5 10 6 11 8 12 9 13
REMARK SMILES IDX 10 14 7 15 14 16
REMARK H PARENT
REMARK Flexibility Score: inf
ROOT
ATOM      1  C   UNL     1       4.610 141.875  -9.125  1.00  0.00     0.039 C 
ATOM      2  C   UNL     1       3.598 142.598  -8.266  1.00  0.00    -0.070 C 
ATOM      3  C   UNL     1       3.986 143.396  -7.229  1.00  0.00    -0.006 C 
ATOM      4  C   UNL     1       3.004 144.204  -6.402  1.00  0.00     0.047 C 
ATOM      5  C   UNL     1       3.435 145.689  -6.187  1.00  0.00     0.025 C 
ATOM      6  C   UNL     1       2.483 146.630  -6.910  1.00  0.00    -0.073 C 
ATOM      7  C   UNL     1       1.384 147.094  -6.293  1.00  0.00     0.008 C 
ATOM      8  C   UNL     1       2.707 146.913  -8.374  1.00  0.00     0.031 C 
ATOM      9  C   UNL     1       4.149 147.355  -8.606  1.00  0.00     0.005 C 
ATOM     10  C   UNL     1       5.138 146.318  -8.058  1.00  0.00     0.008 C 
ATOM     11  C   UNL     1       4.937 146.013  -6.535  1.00  0.00    -0.018 C 
ATOM     12  C   UNL     1       5.835 144.813  -6.132  1.00  0.00     0.088 C 
ATOM     13  C   UNL     1       5.403 143.545  -6.811  1.00  0.00     0.159 C 
ATOM     14  O   UNL     1       6.234 142.606  -6.939  1.00  0.00    -0.295 OA
ATOM     15  C   UNL     1       5.399 147.241  -5.710  1.00  0.00     0.012 C 
ATOM     16  C   UNL     1       2.142 142.438  -8.633  1.00  0.00     0.039 C 
ENDROOT
TORSDOF 0
ENDMDL
