MODEL 1
REMARK VINA RESULT:    -5.162      0.000      0.000
REMARK INTER + INTRA:          -6.437
REMARK INTER:                  -6.369
REMARK INTRA:                  -0.068
REMARK UNBOUND:                -0.068
REMARK SMILES CCCCC=CC(C)=O
REMARK SMILES IDX 4 1 3 2 2 3 1 4 5 5 6 6 7 7 9 8 8 9
REMARK H PARENT
REMARK Flexibility Score: inf
ROOT
ATOM      1  C   UNL     1      12.340  15.544  29.968  1.00  0.00     0.027 C 
ENDROOT
BRANCH   1   2
ATOM      2  C   UNL     1      13.022  16.875  30.324  1.00  0.00     0.004 C 
BRANCH   2   3
ATOM      3  C   UNL     1      14.182  16.695  31.315  1.00  0.00    -0.003 C 
ATOM      4  C   UNL     1      15.365  17.614  31.012  1.00  0.00     0.004 C 
ENDBRANCH   2   3
ENDBRANCH   1   2
BRANCH   1   5
ATOM      5  C   UNL     1      10.999  15.773  29.322  1.00  0.00    -0.023 C 
ATOM      6  C   UNL     1      10.415  14.973  28.413  1.00  0.00     0.042 C 
BRANCH   6   7
ATOM      7  C   UNL     1      10.949  13.693  27.893  1.00  0.00     0.152 C 
ATOM      8  O   UNL     1      11.222  12.729  28.655  1.00  0.00    -0.295 OA
ATOM      9  C   UNL     1      11.114  13.519  26.418  1.00  0.00     0.093 C 
ENDBRANCH   6   7
ENDBRANCH   1   5
TORSDOF 4
ENDMDL
MODEL 2
REMARK VINA RESULT:    -5.079      4.944      8.257
REMARK INTER + INTRA:          -6.334
REMARK INTER:                  -6.165
REMARK INTRA:                  -0.169
REMARK UNBOUND:                -0.068
REMARK SMILES CCCCC=CC(C)=O
REMARK SMILES IDX 4 1 3 2 2 3 1 4 5 5 6 6 7 7 9 8 8 9
REMARK H PARENT
REMARK Flexibility Score: inf
ROOT
ATOM      1  C   UNL     1      16.427  18.506  31.609  1.00  0.00     0.027 C 
ENDROOT
BRANCH   1   2
ATOM      2  C   UNL     1      15.992  17.125  31.094  1.00  0.00     0.004 C 
BRANCH   2   3
ATOM      3  C   UNL     1      14.567  16.756  31.532  1.00  0.00    -0.003 C 
ATOM      4  C   UNL     1      13.512  17.138  30.494  1.00  0.00     0.004 C 
ENDBRANCH   2   3
ENDBRANCH   1   2
BRANCH   1   5
ATOM      5  C   UNL     1      17.922  18.583  31.770  1.00  0.00    -0.023 C 
ATOM      6  C   UNL     1      18.653  19.711  31.813  1.00  0.00     0.042 C 
BRANCH   6   7
ATOM      7  C   UNL     1      18.139  21.098  31.749  1.00  0.00     0.152 C 
ATOM      8  O   UNL     1      17.762  21.617  30.665  1.00  0.00    -0.295 OA
ATOM      9  C   UNL     1      18.006  21.885  33.012  1.00  0.00     0.093 C 
ENDBRANCH   6   7
ENDBRANCH   1   5
TORSDOF 4
ENDMDL
MODEL 3
REMARK VINA RESULT:    -4.980      1.863      5.065
REMARK INTER + INTRA:          -6.212
REMARK INTER:                  -6.445
REMARK INTRA:                   0.233
REMARK UNBOUND:                -0.068
REMARK SMILES CCCCC=CC(C)=O
REMARK SMILES IDX 4 1 3 2 2 3 1 4 5 5 6 6 7 7 9 8 8 9
REMARK H PARENT
REMARK Flexibility Score: inf
ROOT
ATOM      1  C   UNL     1      12.077  15.546  29.868  1.00  0.00     0.027 C 
ENDROOT
BRANCH   1   2
ATOM      2  C   UNL     1      10.646  15.502  29.310  1.00  0.00     0.004 C 
BRANCH   2   3
ATOM      3  C   UNL     1      10.557  14.741  27.979  1.00  0.00    -0.003 C 
ATOM      4  C   UNL     1      11.131  13.327  28.068  1.00  0.00     0.004 C 
ENDBRANCH   2   3
ENDBRANCH   1   2
BRANCH   1   5
ATOM      5  C   UNL     1      12.556  16.964  30.033  1.00  0.00    -0.023 C 
ATOM      6  C   UNL     1      13.627  17.356  30.744  1.00  0.00     0.042 C 
BRANCH   6   7
ATOM      7  C   UNL     1      14.570  16.479  31.475  1.00  0.00     0.152 C 
ATOM      8  O   UNL     1      14.254  15.310  31.823  1.00  0.00    -0.295 OA
ATOM      9  C   UNL     1      15.953  16.969  31.758  1.00  0.00     0.093 C 
ENDBRANCH   6   7
ENDBRANCH   1   5
TORSDOF 4
ENDMDL
MODEL 4
REMARK VINA RESULT:    -4.935      6.288      9.077
REMARK INTER + INTRA:          -6.156
REMARK INTER:                  -5.986
REMARK INTRA:                  -0.170
REMARK UNBOUND:                -0.068
REMARK SMILES CCCCC=CC(C)=O
REMARK SMILES IDX 4 1 3 2 2 3 1 4 5 5 6 6 7 7 9 8 8 9
REMARK H PARENT
REMARK Flexibility Score: inf
ROOT
ATOM      1  C   UNL     1      18.545  19.194  32.247  1.00  0.00     0.027 C 
ENDROOT
BRANCH   1   2
ATOM      2  C   UNL     1      17.728  17.970  31.802  1.00  0.00     0.004 C 
BRANCH   2   3
ATOM      3  C   UNL     1      16.294  18.338  31.392  1.00  0.00    -0.003 C 
ATOM      4  C   UNL     1      15.311  17.183  31.584  1.00  0.00     0.004 C 
ENDBRANCH   2   3
ENDBRANCH   1   2
BRANCH   1   5
ATOM      5  C   UNL     1      18.418  20.324  31.260  1.00  0.00    -0.023 C 
ATOM      6  C   UNL     1      18.000  21.571  31.539  1.00  0.00     0.042 C 
BRANCH   6   7
ATOM      7  C   UNL     1      17.615  22.095  32.869  1.00  0.00     0.152 C 
ATOM      8  O   UNL     1      18.401  22.052  33.853  1.00  0.00    -0.295 OA
ATOM      9  C   UNL     1      16.281  22.746  33.039  1.00  0.00     0.093 C 
ENDBRANCH   6   7
ENDBRANCH   1   5
TORSDOF 4
ENDMDL
MODEL 5
REMARK VINA RESULT:    -4.858      5.177      7.510
REMARK INTER + INTRA:          -6.062
REMARK INTER:                  -6.197
REMARK INTRA:                   0.135
REMARK UNBOUND:                -0.068
REMARK SMILES CCCCC=CC(C)=O
REMARK SMILES IDX 4 1 3 2 2 3 1 4 5 5 6 6 7 7 9 8 8 9
REMARK H PARENT
REMARK Flexibility Score: inf
ROOT
ATOM      1  C   UNL     1      18.697  19.742  31.747  1.00  0.00     0.027 C 
ENDROOT
BRANCH   1   2
ATOM      2  C   UNL     1      18.700  20.641  32.994  1.00  0.00     0.004 C 
BRANCH   2   3
ATOM      3  C   UNL     1      17.922  21.947  32.779  1.00  0.00    -0.003 C 
ATOM      4  C   UNL     1      17.556  22.184  31.314  1.00  0.00     0.004 C 
ENDBRANCH   2   3
ENDBRANCH   1   2
BRANCH   1   5
ATOM      5  C   UNL     1      18.644  18.285  32.123  1.00  0.00    -0.023 C 
ATOM      6  C   UNL     1      17.564  17.489  32.043  1.00  0.00     0.042 C 
BRANCH   6   7
ATOM      7  C   UNL     1      16.225  17.868  31.538  1.00  0.00     0.152 C 
ATOM      8  O   UNL     1      16.000  19.004  31.042  1.00  0.00    -0.295 OA
ATOM      9  C   UNL     1      15.124  16.858  31.563  1.00  0.00     0.093 C 
ENDBRANCH   6   7
ENDBRANCH   1   5
TORSDOF 4
ENDMDL
MODEL 6
REMARK VINA RESULT:    -4.845      7.282      9.432
REMARK INTER + INTRA:          -6.045
REMARK INTER:                  -5.733
REMARK INTRA:                  -0.312
REMARK UNBOUND:                -0.068
REMARK SMILES CCCCC=CC(C)=O
REMARK SMILES IDX 4 1 3 2 2 3 1 4 5 5 6 6 7 7 9 8 8 9
REMARK H PARENT
REMARK Flexibility Score: inf
ROOT
ATOM      1  C   UNL     1      17.377  20.156  31.470  1.00  0.00     0.027 C 
ENDROOT
BRANCH   1   2
ATOM      2  C   UNL     1      18.700  19.533  31.942  1.00  0.00     0.004 C 
BRANCH   2   3
ATOM      3  C   UNL     1      18.553  18.050  32.314  1.00  0.00    -0.003 C 
ATOM      4  C   UNL     1      17.276  17.425  31.753  1.00  0.00     0.004 C 
ENDBRANCH   2   3
ENDBRANCH   1   2
BRANCH   1   5
ATOM      5  C   UNL     1      17.596  21.526  30.885  1.00  0.00    -0.023 C 
ATOM      6  C   UNL     1      17.414  22.694  31.524  1.00  0.00     0.042 C 
BRANCH   6   7
ATOM      7  C   UNL     1      17.000  22.873  32.934  1.00  0.00     0.152 C 
ATOM      8  O   UNL     1      15.794  23.042  33.256  1.00  0.00    -0.295 OA
ATOM      9  C   UNL     1      18.031  22.792  34.013  1.00  0.00     0.093 C 
ENDBRANCH   6   7
ENDBRANCH   1   5
TORSDOF 4
ENDMDL
MODEL 7
REMARK VINA RESULT:    -4.697      3.267      6.176
REMARK INTER + INTRA:          -5.863
REMARK INTER:                  -5.946
REMARK INTRA:                   0.083
REMARK UNBOUND:                -0.068
REMARK SMILES CCCCC=CC(C)=O
REMARK SMILES IDX 4 1 3 2 2 3 1 4 5 5 6 6 7 7 9 8 8 9
REMARK H PARENT
REMARK Flexibility Score: inf
ROOT
ATOM      1  C   UNL     1      14.012  17.356  30.395  1.00  0.00     0.027 C 
ENDROOT
BRANCH   1   2
ATOM      2  C   UNL     1      12.505  17.097  30.240  1.00  0.00     0.004 C 
BRANCH   2   3
ATOM      3  C   UNL     1      12.192  15.634  29.893  1.00  0.00    -0.003 C 
ATOM      4  C   UNL     1      10.748  15.432  29.433  1.00  0.00     0.004 C 
ENDBRANCH   2   3
ENDBRANCH   1   2
BRANCH   1   5
ATOM      5  C   UNL     1      14.588  16.564  31.540  1.00  0.00    -0.023 C 
ATOM      6  C   UNL     1      15.779  16.777  32.125  1.00  0.00     0.042 C 
BRANCH   6   7
ATOM      7  C   UNL     1      16.746  17.847  31.792  1.00  0.00     0.152 C 
ATOM      8  O   UNL     1      16.370  18.999  31.448  1.00  0.00    -0.295 OA
ATOM      9  C   UNL     1      18.210  17.574  31.922  1.00  0.00     0.093 C 
ENDBRANCH   6   7
ENDBRANCH   1   5
TORSDOF 4
ENDMDL
MODEL 8
REMARK VINA RESULT:    -4.644      6.683      9.211
REMARK INTER + INTRA:          -5.797
REMARK INTER:                  -5.594
REMARK INTRA:                  -0.204
REMARK UNBOUND:                -0.068
REMARK SMILES CCCCC=CC(C)=O
REMARK SMILES IDX 4 1 3 2 2 3 1 4 5 5 6 6 7 7 9 8 8 9
REMARK H PARENT
REMARK Flexibility Score: inf
ROOT
ATOM      1  C   UNL     1      18.312  19.593  31.745  1.00  0.00     0.027 C 
ENDROOT
BRANCH   1   2
ATOM      2  C   UNL     1      18.358  18.098  32.097  1.00  0.00     0.004 C 
BRANCH   2   3
ATOM      3  C   UNL     1      17.062  17.364  31.721  1.00  0.00    -0.003 C 
ATOM      4  C   UNL     1      15.943  18.319  31.306  1.00  0.00     0.004 C 
ENDBRANCH   2   3
ENDBRANCH   1   2
BRANCH   1   5
ATOM      5  C   UNL     1      18.732  20.444  32.914  1.00  0.00    -0.023 C 
ATOM      6  C   UNL     1      18.318  21.697  33.166  1.00  0.00     0.042 C 
BRANCH   6   7
ATOM      7  C   UNL     1      17.344  22.480  32.372  1.00  0.00     0.152 C 
ATOM      8  O   UNL     1      17.568  22.800  31.175  1.00  0.00    -0.295 OA
ATOM      9  C   UNL     1      16.033  22.852  32.987  1.00  0.00     0.093 C 
ENDBRANCH   6   7
ENDBRANCH   1   5
TORSDOF 4
ENDMDL
MODEL 9
REMARK VINA RESULT:    -4.574      7.811      9.258
REMARK INTER + INTRA:          -5.711
REMARK INTER:                  -5.374
REMARK INTRA:                  -0.337
REMARK UNBOUND:                -0.068
REMARK SMILES CCCCC=CC(C)=O
REMARK SMILES IDX 4 1 3 2 2 3 1 4 5 5 6 6 7 7 9 8 8 9
REMARK H PARENT
REMARK Flexibility Score: inf
ROOT
ATOM      1  C   UNL     1      17.086  22.122  32.853  1.00  0.00     0.027 C 
ENDROOT
BRANCH   1   2
ATOM      2  C   UNL     1      18.171  22.403  33.905  1.00  0.00     0.004 C 
BRANCH   2   3
ATOM      3  C   UNL     1      17.980  23.759  34.599  1.00  0.00    -0.003 C 
ATOM      4  C   UNL     1      17.798  24.910  33.609  1.00  0.00     0.004 C 
ENDBRANCH   2   3
ENDBRANCH   1   2
BRANCH   1   5
ATOM      5  C   UNL     1      17.692  21.850  31.502  1.00  0.00    -0.023 C 
ATOM      6  C   UNL     1      18.078  20.649  31.039  1.00  0.00     0.042 C 
BRANCH   6   7
ATOM      7  C   UNL     1      17.956  19.351  31.742  1.00  0.00     0.152 C 
ATOM      8  O   UNL     1      16.916  18.646  31.657  1.00  0.00    -0.295 OA
ATOM      9  C   UNL     1      19.118  18.835  32.527  1.00  0.00     0.093 C 
ENDBRANCH   6   7
ENDBRANCH   1   5
TORSDOF 4
ENDMDL
