MODEL 1
REMARK VINA RESULT:    -2.226      0.000      0.000
REMARK INTER + INTRA:          -2.226
REMARK INTER:                  -2.226
REMARK INTRA:                   0.000
REMARK UNBOUND:                 0.000
REMARK SMILES CC(=O)[O-]
REMARK SMILES IDX 1 1 2 2 3 3 4 4
REMARK H PARENT
REMARK Flexibility Score: inf
ROOT
ATOM      1  C   UNL     1     -10.467   0.493  14.197  1.00  0.00     0.063 C 
ATOM      2  C   UNL     1     -11.946   0.348  14.321  1.00  0.00     0.038 C 
ATOM      3  O   UNL     1     -12.601  -0.234  13.419  1.00  0.00    -0.550 OA
ATOM      4  O   UNL     1     -12.597   0.810  15.458  1.00  0.00    -0.550 OA
ENDROOT
TORSDOF 0
ENDMDL
MODEL 2
REMARK VINA RESULT:    -2.211      0.135      1.626
REMARK INTER + INTRA:          -2.211
REMARK INTER:                  -2.211
REMARK INTRA:                   0.000
REMARK UNBOUND:                 0.000
REMARK SMILES CC(=O)[O-]
REMARK SMILES IDX 1 1 2 2 3 3 4 4
REMARK H PARENT
REMARK Flexibility Score: inf
ROOT
ATOM      1  C   UNL     1     -10.467   0.633  14.374  1.00  0.00     0.063 C 
ATOM      2  C   UNL     1     -11.939   0.409  14.453  1.00  0.00     0.038 C 
ATOM      3  O   UNL     1     -12.589   0.828  15.446  1.00  0.00    -0.550 OA
ATOM      4  O   UNL     1     -12.605  -0.217  13.407  1.00  0.00    -0.550 OA
ENDROOT
TORSDOF 0
ENDMDL
MODEL 3
REMARK VINA RESULT:    -2.203     12.971     13.413
REMARK INTER + INTRA:          -2.203
REMARK INTER:                  -2.203
REMARK INTRA:                   0.000
REMARK UNBOUND:                 0.000
REMARK SMILES CC(=O)[O-]
REMARK SMILES IDX 1 1 2 2 3 3 4 4
REMARK H PARENT
REMARK Flexibility Score: inf
ROOT
ATOM      1  C   UNL     1      -3.660  -2.153  22.431  1.00  0.00     0.063 C 
ATOM      2  C   UNL     1      -2.373  -2.330  23.163  1.00  0.00     0.038 C 
ATOM      3  O   UNL     1      -2.243  -1.877  24.330  1.00  0.00    -0.550 OA
ATOM      4  O   UNL     1      -1.333  -3.041  22.580  1.00  0.00    -0.550 OA
ENDROOT
TORSDOF 0
ENDMDL
MODEL 4
REMARK VINA RESULT:    -2.197      1.317      2.113
REMARK INTER + INTRA:          -2.197
REMARK INTER:                  -2.197
REMARK INTRA:                   0.000
REMARK UNBOUND:                 0.000
REMARK SMILES CC(=O)[O-]
REMARK SMILES IDX 1 1 2 2 3 3 4 4
REMARK H PARENT
REMARK Flexibility Score: inf
ROOT
ATOM      1  C   UNL     1     -12.789  -0.941  13.716  1.00  0.00     0.063 C 
ATOM      2  C   UNL     1     -12.114   0.231  14.346  1.00  0.00     0.038 C 
ATOM      3  O   UNL     1     -12.672   0.846  15.291  1.00  0.00    -0.550 OA
ATOM      4  O   UNL     1     -10.847   0.613  13.926  1.00  0.00    -0.550 OA
ENDROOT
TORSDOF 0
ENDMDL
MODEL 5
REMARK VINA RESULT:    -2.197     12.555     12.999
REMARK INTER + INTRA:          -2.197
REMARK INTER:                  -2.197
REMARK INTRA:                   0.000
REMARK UNBOUND:                 0.000
REMARK SMILES CC(=O)[O-]
REMARK SMILES IDX 1 1 2 2 3 3 4 4
REMARK H PARENT
REMARK Flexibility Score: inf
ROOT
ATOM      1  C   UNL     1      -3.860  -2.010  22.362  1.00  0.00     0.063 C 
ATOM      2  C   UNL     1      -2.626  -2.727  22.796  1.00  0.00     0.038 C 
ATOM      3  O   UNL     1      -2.035  -3.503  22.001  1.00  0.00    -0.550 OA
ATOM      4  O   UNL     1      -2.097  -2.499  24.060  1.00  0.00    -0.550 OA
ENDROOT
TORSDOF 0
ENDMDL
MODEL 6
REMARK VINA RESULT:    -2.169      1.433      1.999
REMARK INTER + INTRA:          -2.169
REMARK INTER:                  -2.169
REMARK INTRA:                   0.000
REMARK UNBOUND:                 0.000
REMARK SMILES CC(=O)[O-]
REMARK SMILES IDX 1 1 2 2 3 3 4 4
REMARK H PARENT
REMARK Flexibility Score: inf
ROOT
ATOM      1  C   UNL     1     -12.487   0.957  15.423  1.00  0.00     0.063 C 
ATOM      2  C   UNL     1     -11.928   0.262  14.229  1.00  0.00     0.038 C 
ATOM      3  O   UNL     1     -10.697   0.333  13.976  1.00  0.00    -0.550 OA
ATOM      4  O   UNL     1     -12.754  -0.509  13.421  1.00  0.00    -0.550 OA
ENDROOT
TORSDOF 0
ENDMDL
MODEL 7
REMARK VINA RESULT:    -2.076      2.084      2.352
REMARK INTER + INTRA:          -2.076
REMARK INTER:                  -2.076
REMARK INTRA:                   0.000
REMARK UNBOUND:                 0.000
REMARK SMILES CC(=O)[O-]
REMARK SMILES IDX 1 1 2 2 3 3 4 4
REMARK H PARENT
REMARK Flexibility Score: inf
ROOT
ATOM      1  C   UNL     1      -9.927   1.576  15.546  1.00  0.00     0.063 C 
ATOM      2  C   UNL     1     -10.163   0.678  14.379  1.00  0.00     0.038 C 
ATOM      3  O   UNL     1      -9.188   0.191  13.751  1.00  0.00    -0.550 OA
ATOM      4  O   UNL     1     -11.459   0.335  14.015  1.00  0.00    -0.550 OA
ENDROOT
TORSDOF 0
ENDMDL
MODEL 8
REMARK VINA RESULT:    -1.976      1.923      2.576
REMARK INTER + INTRA:          -1.976
REMARK INTER:                  -1.976
REMARK INTRA:                   0.000
REMARK UNBOUND:                 0.000
REMARK SMILES CC(=O)[O-]
REMARK SMILES IDX 1 1 2 2 3 3 4 4
REMARK H PARENT
REMARK Flexibility Score: inf
ROOT
ATOM      1  C   UNL     1      -9.562   0.256  14.135  1.00  0.00     0.063 C 
ATOM      2  C   UNL     1     -10.194   1.214  15.087  1.00  0.00     0.038 C 
ATOM      3  O   UNL     1      -9.498   2.102  15.644  1.00  0.00    -0.550 OA
ATOM      4  O   UNL     1     -11.562   1.163  15.320  1.00  0.00    -0.550 OA
ENDROOT
TORSDOF 0
ENDMDL
MODEL 9
REMARK VINA RESULT:    -1.859      2.899      3.290
REMARK INTER + INTRA:          -1.859
REMARK INTER:                  -1.859
REMARK INTRA:                   0.000
REMARK UNBOUND:                 0.000
REMARK SMILES CC(=O)[O-]
REMARK SMILES IDX 1 1 2 2 3 3 4 4
REMARK H PARENT
REMARK Flexibility Score: inf
ROOT
ATOM      1  C   UNL     1     -12.466   1.053  15.558  1.00  0.00     0.063 C 
ATOM      2  C   UNL     1     -12.067   2.411  16.027  1.00  0.00     0.038 C 
ATOM      3  O   UNL     1     -12.828   3.066  16.785  1.00  0.00    -0.550 OA
ATOM      4  O   UNL     1     -10.831   2.936  15.670  1.00  0.00    -0.550 OA
ENDROOT
TORSDOF 0
ENDMDL
