MODEL 1
REMARK VINA RESULT:    -4.283      0.000      0.000
REMARK INTER + INTRA:          -4.555
REMARK INTER:                  -4.533
REMARK INTRA:                  -0.021
REMARK UNBOUND:                -0.021
REMARK SMILES O=C([O-])c1cccnc1
REMARK SMILES IDX 4 1 5 2 9 3 6 4 8 5 7 6 2 7 1 8 3 9
REMARK H PARENT
REMARK Flexibility Score: inf
ROOT
ATOM      1  C   UNL     1      12.838 -30.636  22.406  1.00  0.00     0.016 A 
ATOM      2  C   UNL     1      13.391 -29.858  23.435  1.00  0.00     0.013 A 
ATOM      3  C   UNL     1      11.554 -30.306  21.934  1.00  0.00     0.120 A 
ATOM      4  C   UNL     1      12.672 -28.786  23.967  1.00  0.00     0.021 A 
ATOM      5  N   UNL     1      10.876 -29.257  22.470  1.00  0.00    -0.264 NA
ATOM      6  C   UNL     1      11.403 -28.497  23.466  1.00  0.00     0.111 A 
ENDROOT
BRANCH   1   7
ATOM      7  C   UNL     1      13.588 -31.775  21.835  1.00  0.00     0.073 C 
ATOM      8  O   UNL     1      14.348 -32.471  22.561  1.00  0.00    -0.545 OA
ATOM      9  O   UNL     1      13.463 -32.097  20.488  1.00  0.00    -0.545 OA
ENDBRANCH   1   7
TORSDOF 1
ENDMDL
MODEL 2
REMARK VINA RESULT:    -4.098      0.977      1.639
REMARK INTER + INTRA:          -4.359
REMARK INTER:                  -4.338
REMARK INTRA:                  -0.022
REMARK UNBOUND:                -0.021
REMARK SMILES O=C([O-])c1cccnc1
REMARK SMILES IDX 4 1 5 2 9 3 6 4 8 5 7 6 2 7 1 8 3 9
REMARK H PARENT
REMARK Flexibility Score: inf
ROOT
ATOM      1  C   UNL     1      12.843 -30.608  22.718  1.00  0.00     0.016 A 
ATOM      2  C   UNL     1      11.667 -30.316  22.009  1.00  0.00     0.013 A 
ATOM      3  C   UNL     1      13.194 -29.783  23.802  1.00  0.00     0.120 A 
ATOM      4  C   UNL     1      10.875 -29.228  22.384  1.00  0.00     0.021 A 
ATOM      5  N   UNL     1      12.405 -28.731  24.146  1.00  0.00    -0.264 NA
ATOM      6  C   UNL     1      11.265 -28.439  23.467  1.00  0.00     0.111 A 
ENDROOT
BRANCH   1   7
ATOM      7  C   UNL     1      13.690 -31.756  22.330  1.00  0.00     0.073 C 
ATOM      8  O   UNL     1      14.385 -32.360  23.192  1.00  0.00    -0.545 OA
ATOM      9  O   UNL     1      13.730 -32.188  21.009  1.00  0.00    -0.545 OA
ENDBRANCH   1   7
TORSDOF 1
ENDMDL
MODEL 3
REMARK VINA RESULT:    -4.051      2.857      3.929
REMARK INTER + INTRA:          -4.310
REMARK INTER:                  -4.287
REMARK INTRA:                  -0.022
REMARK UNBOUND:                -0.021
REMARK SMILES O=C([O-])c1cccnc1
REMARK SMILES IDX 4 1 5 2 9 3 6 4 8 5 7 6 2 7 1 8 3 9
REMARK H PARENT
REMARK Flexibility Score: inf
ROOT
ATOM      1  C   UNL     1      12.999 -30.272  23.081  1.00  0.00     0.016 A 
ATOM      2  C   UNL     1      12.772 -30.686  21.759  1.00  0.00     0.013 A 
ATOM      3  C   UNL     1      13.896 -31.016  23.870  1.00  0.00     0.120 A 
ATOM      4  C   UNL     1      13.427 -31.812  21.254  1.00  0.00     0.021 A 
ATOM      5  N   UNL     1      14.521 -32.107  23.354  1.00  0.00    -0.264 NA
ATOM      6  C   UNL     1      14.308 -32.516  22.076  1.00  0.00     0.111 A 
ENDROOT
BRANCH   1   7
ATOM      7  C   UNL     1      12.311 -29.084  23.628  1.00  0.00     0.073 C 
ATOM      8  O   UNL     1      12.794 -28.457  24.609  1.00  0.00    -0.545 OA
ATOM      9  O   UNL     1      11.120 -28.638  23.065  1.00  0.00    -0.545 OA
ENDBRANCH   1   7
TORSDOF 1
ENDMDL
MODEL 4
REMARK VINA RESULT:    -4.044      2.763      3.637
REMARK INTER + INTRA:          -4.302
REMARK INTER:                  -4.279
REMARK INTRA:                  -0.023
REMARK UNBOUND:                -0.021
REMARK SMILES O=C([O-])c1cccnc1
REMARK SMILES IDX 4 1 5 2 9 3 6 4 8 5 7 6 2 7 1 8 3 9
REMARK H PARENT
REMARK Flexibility Score: inf
ROOT
ATOM      1  C   UNL     1      12.996 -30.297  23.109  1.00  0.00     0.016 A 
ATOM      2  C   UNL     1      13.855 -31.047  23.929  1.00  0.00     0.013 A 
ATOM      3  C   UNL     1      12.811 -30.712  21.778  1.00  0.00     0.120 A 
ATOM      4  C   UNL     1      14.502 -32.175  23.420  1.00  0.00     0.021 A 
ATOM      5  N   UNL     1      13.453 -31.814  21.308  1.00  0.00    -0.264 NA
ATOM      6  C   UNL     1      14.286 -32.547  22.092  1.00  0.00     0.111 A 
ENDROOT
BRANCH   1   7
ATOM      7  C   UNL     1      12.306 -29.100  23.636  1.00  0.00     0.073 C 
ATOM      8  O   UNL     1      12.739 -28.510  24.662  1.00  0.00    -0.545 OA
ATOM      9  O   UNL     1      11.170 -28.606  23.004  1.00  0.00    -0.545 OA
ENDBRANCH   1   7
TORSDOF 1
ENDMDL
MODEL 5
REMARK VINA RESULT:    -4.026     10.610     11.159
REMARK INTER + INTRA:          -4.283
REMARK INTER:                  -4.266
REMARK INTRA:                  -0.016
REMARK UNBOUND:                -0.021
REMARK SMILES O=C([O-])c1cccnc1
REMARK SMILES IDX 4 1 5 2 9 3 6 4 8 5 7 6 2 7 1 8 3 9
REMARK H PARENT
REMARK Flexibility Score: inf
ROOT
ATOM      1  C   UNL     1      22.391 -25.762  20.550  1.00  0.00     0.016 A 
ATOM      2  C   UNL     1      21.029 -25.722  20.212  1.00  0.00     0.013 A 
ATOM      3  C   UNL     1      22.867 -26.866  21.282  1.00  0.00     0.120 A 
ATOM      4  C   UNL     1      20.180 -26.761  20.600  1.00  0.00     0.021 A 
ATOM      5  N   UNL     1      22.019 -27.863  21.647  1.00  0.00    -0.264 NA
ATOM      6  C   UNL     1      20.699 -27.835  21.324  1.00  0.00     0.111 A 
ENDROOT
BRANCH   1   7
ATOM      7  C   UNL     1      23.300 -24.668  20.147  1.00  0.00     0.073 C 
ATOM      8  O   UNL     1      23.740 -24.602  18.967  1.00  0.00    -0.545 OA
ATOM      9  O   UNL     1      23.681 -23.694  21.063  1.00  0.00    -0.545 OA
ENDBRANCH   1   7
TORSDOF 1
ENDMDL
MODEL 6
REMARK VINA RESULT:    -3.997      5.263      7.086
REMARK INTER + INTRA:          -4.252
REMARK INTER:                  -4.229
REMARK INTRA:                  -0.023
REMARK UNBOUND:                -0.021
REMARK SMILES O=C([O-])c1cccnc1
REMARK SMILES IDX 4 1 5 2 9 3 6 4 8 5 7 6 2 7 1 8 3 9
REMARK H PARENT
REMARK Flexibility Score: inf
ROOT
ATOM      1  C   UNL     1      15.978 -34.802  21.121  1.00  0.00     0.016 A 
ATOM      2  C   UNL     1      15.956 -35.532  19.921  1.00  0.00     0.013 A 
ATOM      3  C   UNL     1      16.958 -35.119  22.079  1.00  0.00     0.120 A 
ATOM      4  C   UNL     1      16.891 -36.545  19.701  1.00  0.00     0.021 A 
ATOM      5  N   UNL     1      17.856 -36.110  21.839  1.00  0.00    -0.264 NA
ATOM      6  C   UNL     1      17.844 -36.822  20.682  1.00  0.00     0.111 A 
ENDROOT
BRANCH   1   7
ATOM      7  C   UNL     1      14.992 -33.727  21.367  1.00  0.00     0.073 C 
ATOM      8  O   UNL     1      14.837 -33.252  22.524  1.00  0.00    -0.545 OA
ATOM      9  O   UNL     1      14.224 -33.223  20.323  1.00  0.00    -0.545 OA
ENDBRANCH   1   7
TORSDOF 1
ENDMDL
MODEL 7
REMARK VINA RESULT:    -3.917      2.527      3.380
REMARK INTER + INTRA:          -4.167
REMARK INTER:                  -4.144
REMARK INTRA:                  -0.023
REMARK UNBOUND:                -0.021
REMARK SMILES O=C([O-])c1cccnc1
REMARK SMILES IDX 4 1 5 2 9 3 6 4 8 5 7 6 2 7 1 8 3 9
REMARK H PARENT
REMARK Flexibility Score: inf
ROOT
ATOM      1  C   UNL     1      14.551 -33.053  21.826  1.00  0.00     0.016 A 
ATOM      2  C   UNL     1      13.776 -32.137  21.097  1.00  0.00     0.013 A 
ATOM      3  C   UNL     1      14.609 -32.916  23.225  1.00  0.00     0.120 A 
ATOM      4  C   UNL     1      13.086 -31.119  21.760  1.00  0.00     0.021 A 
ATOM      5  N   UNL     1      13.928 -31.917  23.845  1.00  0.00    -0.264 NA
ATOM      6  C   UNL     1      13.176 -31.025  23.149  1.00  0.00     0.111 A 
ENDROOT
BRANCH   1   7
ATOM      7  C   UNL     1      15.287 -34.134  21.135  1.00  0.00     0.073 C 
ATOM      8  O   UNL     1      16.111 -34.852  21.764  1.00  0.00    -0.545 OA
ATOM      9  O   UNL     1      15.077 -34.376  19.782  1.00  0.00    -0.545 OA
ENDBRANCH   1   7
TORSDOF 1
ENDMDL
MODEL 8
REMARK VINA RESULT:    -3.905      2.263      3.091
REMARK INTER + INTRA:          -4.155
REMARK INTER:                  -4.132
REMARK INTRA:                  -0.023
REMARK UNBOUND:                -0.021
REMARK SMILES O=C([O-])c1cccnc1
REMARK SMILES IDX 4 1 5 2 9 3 6 4 8 5 7 6 2 7 1 8 3 9
REMARK H PARENT
REMARK Flexibility Score: inf
ROOT
ATOM      1  C   UNL     1      14.550 -32.866  22.288  1.00  0.00     0.016 A 
ATOM      2  C   UNL     1      14.373 -32.313  23.566  1.00  0.00     0.013 A 
ATOM      3  C   UNL     1      13.888 -32.265  21.201  1.00  0.00     0.120 A 
ATOM      4  C   UNL     1      13.556 -31.193  23.738  1.00  0.00     0.021 A 
ATOM      5  N   UNL     1      13.099 -31.176  21.397  1.00  0.00    -0.264 NA
ATOM      6  C   UNL     1      12.921 -30.633  22.630  1.00  0.00     0.111 A 
ENDROOT
BRANCH   1   7
ATOM      7  C   UNL     1      15.411 -34.052  22.092  1.00  0.00     0.073 C 
ATOM      8  O   UNL     1      15.326 -34.740  21.040  1.00  0.00    -0.545 OA
ATOM      9  O   UNL     1      16.331 -34.423  23.067  1.00  0.00    -0.545 OA
ENDBRANCH   1   7
TORSDOF 1
ENDMDL
MODEL 9
REMARK VINA RESULT:    -3.885      5.081      6.764
REMARK INTER + INTRA:          -4.134
REMARK INTER:                  -4.111
REMARK INTRA:                  -0.023
REMARK UNBOUND:                -0.021
REMARK SMILES O=C([O-])c1cccnc1
REMARK SMILES IDX 4 1 5 2 9 3 6 4 8 5 7 6 2 7 1 8 3 9
REMARK H PARENT
REMARK Flexibility Score: inf
ROOT
ATOM      1  C   UNL     1      15.885 -34.687  21.333  1.00  0.00     0.016 A 
ATOM      2  C   UNL     1      16.988 -35.112  22.092  1.00  0.00     0.013 A 
ATOM      3  C   UNL     1      15.671 -35.279  20.075  1.00  0.00     0.120 A 
ATOM      4  C   UNL     1      17.842 -36.099  21.594  1.00  0.00     0.021 A 
ATOM      5  N   UNL     1      16.518 -36.237  19.615  1.00  0.00    -0.264 NA
ATOM      6  C   UNL     1      17.588 -36.656  20.341  1.00  0.00     0.111 A 
ENDROOT
BRANCH   1   7
ATOM      7  C   UNL     1      14.975 -33.642  21.848  1.00  0.00     0.073 C 
ATOM      8  O   UNL     1      14.913 -33.397  23.083  1.00  0.00    -0.545 OA
ATOM      9  O   UNL     1      14.175 -32.913  20.975  1.00  0.00    -0.545 OA
ENDBRANCH   1   7
TORSDOF 1
ENDMDL
