MODEL 1
REMARK VINA RESULT:    -3.601      0.000      0.000
REMARK INTER + INTRA:          -4.220
REMARK INTER:                  -4.338
REMARK INTRA:                   0.118
REMARK UNBOUND:                 0.118
REMARK SMILES O=c1c(O)c(-c2ccc(O)c(O)c2)oc2cc(O)cc(O)c12
REMARK SMILES IDX 5 1 3 2 2 3 1 4 22 5 20 6 19 7 17 8 16 9 15 10 14 11 6 12
REMARK SMILES IDX 7 13 8 14 9 15 13 16 11 17 10 18 12 20 4 22 21 24 18 26
REMARK H PARENT 10 19 12 21 4 23 21 25 18 27
REMARK Flexibility Score: inf
ROOT
ATOM      1  C   UNL     1      44.645  73.234 156.210  1.00  0.00     0.180 A 
ATOM      2  C   UNL     1      44.532  74.189 157.236  1.00  0.00     0.208 A 
ATOM      3  C   UNL     1      43.314  74.307 157.924  1.00  0.00     0.238 A 
ATOM      4  O   UNL     1      43.235  75.125 158.878  1.00  0.00    -0.285 OA
ATOM      5  C   UNL     1      42.219  73.483 157.567  1.00  0.00     0.111 A 
ATOM      6  C   UNL     1      40.927  73.545 158.169  1.00  0.00     0.134 A 
ATOM      7  C   UNL     1      39.959  72.592 157.827  1.00  0.00     0.093 A 
ATOM      8  C   UNL     1      40.216  71.621 156.856  1.00  0.00     0.123 A 
ATOM      9  C   UNL     1      41.454  71.590 156.220  1.00  0.00     0.094 A 
ATOM     10  C   UNL     1      42.452  72.503 156.566  1.00  0.00     0.146 A 
ATOM     11  O   UNL     1      43.622  72.431 155.942  1.00  0.00    -0.452 OA
ENDROOT
BRANCH   1  12
ATOM     12  C   UNL     1      45.888  73.068 155.423  1.00  0.00     0.025 A 
ATOM     13  C   UNL     1      46.286  71.782 155.024  1.00  0.00     0.016 A 
ATOM     14  C   UNL     1      47.445  71.604 154.263  1.00  0.00     0.051 A 
ATOM     15  C   UNL     1      48.214  72.709 153.878  1.00  0.00     0.157 A 
ATOM     16  C   UNL     1      46.652  74.177 155.015  1.00  0.00     0.062 A 
ATOM     17  C   UNL     1      47.811  74.002 154.251  1.00  0.00     0.158 A 
BRANCH  15  18
ATOM     18  O   UNL     1      49.370  72.528 153.120  1.00  0.00    -0.504 OA
ATOM     19  H   UNL     1      49.683  71.606 152.842  1.00  0.00     0.293 HD
ENDBRANCH  15  18
BRANCH  17  20
ATOM     20  O   UNL     1      48.546  75.125 153.870  1.00  0.00    -0.504 OA
ATOM     21  H   UNL     1      48.259  76.064 154.116  1.00  0.00     0.293 HD
ENDBRANCH  17  20
ENDBRANCH   1  12
BRANCH   2  22
ATOM     22  O   UNL     1      45.631  74.977 157.587  1.00  0.00    -0.502 OA
ATOM     23  H   UNL     1      46.585  74.699 157.388  1.00  0.00     0.293 HD
ENDBRANCH   2  22
BRANCH   6  24
ATOM     24  O   UNL     1      40.538  74.530 159.082  1.00  0.00    -0.507 OA
ATOM     25  H   UNL     1      40.360  74.368 160.061  1.00  0.00     0.293 HD
ENDBRANCH   6  24
BRANCH   8  26
ATOM     26  O   UNL     1      39.241  70.688 156.510  1.00  0.00    -0.508 OA
ATOM     27  H   UNL     1      38.320  70.701 156.932  1.00  0.00     0.293 HD
ENDBRANCH   8  26
TORSDOF 6
ENDMDL
MODEL 2
REMARK VINA RESULT:    -2.750      1.625      6.941
REMARK INTER + INTRA:          -3.194
REMARK INTER:                  -3.371
REMARK INTRA:                   0.177
REMARK UNBOUND:                 0.118
REMARK SMILES O=c1c(O)c(-c2ccc(O)c(O)c2)oc2cc(O)cc(O)c12
REMARK SMILES IDX 5 1 3 2 2 3 1 4 22 5 20 6 19 7 17 8 16 9 15 10 14 11 6 12
REMARK SMILES IDX 7 13 8 14 9 15 13 16 11 17 10 18 12 20 4 22 21 24 18 26
REMARK H PARENT 10 19 12 21 4 23 21 25 18 27
REMARK Flexibility Score: inf
ROOT
ATOM      1  C   UNL     1      45.272  72.658 155.734  1.00  0.00     0.180 A 
ATOM      2  C   UNL     1      46.003  73.856 155.811  1.00  0.00     0.208 A 
ATOM      3  C   UNL     1      47.115  74.028 154.971  1.00  0.00     0.238 A 
ATOM      4  O   UNL     1      47.734  75.125 155.005  1.00  0.00    -0.285 OA
ATOM      5  C   UNL     1      47.491  72.997 154.078  1.00  0.00     0.111 A 
ATOM      6  C   UNL     1      48.624  73.048 153.210  1.00  0.00     0.134 A 
ATOM      7  C   UNL     1      48.824  72.024 152.276  1.00  0.00     0.093 A 
ATOM      8  C   UNL     1      47.971  70.920 152.223  1.00  0.00     0.123 A 
ATOM      9  C   UNL     1      46.898  70.832 153.107  1.00  0.00     0.094 A 
ATOM     10  C   UNL     1      46.650  71.854 154.025  1.00  0.00     0.146 A 
ATOM     11  O   UNL     1      45.610  71.735 154.841  1.00  0.00    -0.452 OA
ENDROOT
BRANCH   1  12
ATOM     12  C   UNL     1      44.104  72.392 156.605  1.00  0.00     0.025 A 
ATOM     13  C   UNL     1      44.135  72.806 157.947  1.00  0.00     0.016 A 
ATOM     14  C   UNL     1      43.035  72.585 158.781  1.00  0.00     0.051 A 
ATOM     15  C   UNL     1      41.885  71.959 158.284  1.00  0.00     0.157 A 
ATOM     16  C   UNL     1      42.939  71.783 156.105  1.00  0.00     0.062 A 
ATOM     17  C   UNL     1      41.836  71.562 156.937  1.00  0.00     0.158 A 
BRANCH  15  18
ATOM     18  O   UNL     1      40.791  71.738 159.119  1.00  0.00    -0.504 OA
ATOM     19  H   UNL     1      40.909  71.445 160.081  1.00  0.00     0.293 HD
ENDBRANCH  15  18
BRANCH  17  20
ATOM     20  O   UNL     1      40.700  70.950 156.407  1.00  0.00    -0.504 OA
ATOM     21  H   UNL     1      40.046  70.437 156.985  1.00  0.00     0.293 HD
ENDBRANCH  17  20
ENDBRANCH   1  12
BRANCH   2  22
ATOM     22  O   UNL     1      45.602  74.870 156.684  1.00  0.00    -0.502 OA
ATOM     23  H   UNL     1      45.440  75.821 156.375  1.00  0.00     0.293 HD
ENDBRANCH   2  22
BRANCH   6  24
ATOM     24  O   UNL     1      49.587  74.060 153.244  1.00  0.00    -0.507 OA
ATOM     25  H   UNL     1      49.686  74.783 152.547  1.00  0.00     0.293 HD
ENDBRANCH   6  24
BRANCH   8  26
ATOM     26  O   UNL     1      48.188  69.898 151.301  1.00  0.00    -0.508 OA
ATOM     27  H   UNL     1      48.414  70.096 150.333  1.00  0.00     0.293 HD
ENDBRANCH   8  26
TORSDOF 6
ENDMDL
MODEL 3
REMARK VINA RESULT:    -2.412      3.169      8.531
REMARK INTER + INTRA:          -2.788
REMARK INTER:                  -2.671
REMARK INTRA:                  -0.116
REMARK UNBOUND:                 0.118
REMARK SMILES O=c1c(O)c(-c2ccc(O)c(O)c2)oc2cc(O)cc(O)c12
REMARK SMILES IDX 5 1 3 2 2 3 1 4 22 5 20 6 19 7 17 8 16 9 15 10 14 11 6 12
REMARK SMILES IDX 7 13 8 14 9 15 13 16 11 17 10 18 12 20 4 22 21 24 18 26
REMARK H PARENT 10 19 12 21 4 23 21 25 18 27
REMARK Flexibility Score: inf
ROOT
ATOM      1  C   UNL     1      38.526  71.844 157.795  1.00  0.00     0.180 A 
ATOM      2  C   UNL     1      38.545  73.124 158.378  1.00  0.00     0.208 A 
ATOM      3  C   UNL     1      39.742  73.857 158.370  1.00  0.00     0.238 A 
ATOM      4  O   UNL     1      39.740  75.024 158.844  1.00  0.00    -0.285 OA
ATOM      5  C   UNL     1      40.908  73.297 157.796  1.00  0.00     0.111 A 
ATOM      6  C   UNL     1      42.185  73.934 157.768  1.00  0.00     0.134 A 
ATOM      7  C   UNL     1      43.237  73.342 157.057  1.00  0.00     0.093 A 
ATOM      8  C   UNL     1      43.076  72.105 156.429  1.00  0.00     0.123 A 
ATOM      9  C   UNL     1      41.851  71.447 156.502  1.00  0.00     0.094 A 
ATOM     10  C   UNL     1      40.772  72.029 157.171  1.00  0.00     0.146 A 
ATOM     11  O   UNL     1      39.619  71.373 157.206  1.00  0.00    -0.452 OA
ENDROOT
BRANCH   1  12
ATOM     12  C   UNL     1      37.309  71.001 157.788  1.00  0.00     0.025 A 
ATOM     13  C   UNL     1      36.724  70.622 159.007  1.00  0.00     0.016 A 
ATOM     14  C   UNL     1      35.563  69.845 159.023  1.00  0.00     0.051 A 
ATOM     15  C   UNL     1      34.962  69.446 157.823  1.00  0.00     0.157 A 
ATOM     16  C   UNL     1      36.690  70.617 156.585  1.00  0.00     0.062 A 
ATOM     17  C   UNL     1      35.526  69.840 156.598  1.00  0.00     0.158 A 
BRANCH  15  18
ATOM     18  O   UNL     1      33.805  68.669 157.843  1.00  0.00    -0.504 OA
ATOM     19  H   UNL     1      33.842  67.660 157.763  1.00  0.00     0.293 HD
ENDBRANCH  15  18
BRANCH  17  20
ATOM     20  O   UNL     1      34.943  69.473 155.385  1.00  0.00    -0.504 OA
ATOM     21  H   UNL     1      35.056  70.027 154.545  1.00  0.00     0.293 HD
ENDBRANCH  17  20
ENDBRANCH   1  12
BRANCH   2  22
ATOM     22  O   UNL     1      37.377  73.667 158.920  1.00  0.00    -0.502 OA
ATOM     23  H   UNL     1      36.465  73.250 158.775  1.00  0.00     0.293 HD
ENDBRANCH   2  22
BRANCH   6  24
ATOM     24  O   UNL     1      42.477  75.125 158.439  1.00  0.00    -0.507 OA
ATOM     25  H   UNL     1      42.019  75.437 159.282  1.00  0.00     0.293 HD
ENDBRANCH   6  24
BRANCH   8  26
ATOM     26  O   UNL     1      44.133  71.516 155.739  1.00  0.00    -0.508 OA
ATOM     27  H   UNL     1      44.798  72.071 155.213  1.00  0.00     0.293 HD
ENDBRANCH   8  26
TORSDOF 6
ENDMDL
MODEL 4
REMARK VINA RESULT:    -2.347      1.636      2.340
REMARK INTER + INTRA:          -2.709
REMARK INTER:                  -2.761
REMARK INTRA:                   0.052
REMARK UNBOUND:                 0.118
REMARK SMILES O=c1c(O)c(-c2ccc(O)c(O)c2)oc2cc(O)cc(O)c12
REMARK SMILES IDX 5 1 3 2 2 3 1 4 22 5 20 6 19 7 17 8 16 9 15 10 14 11 6 12
REMARK SMILES IDX 7 13 8 14 9 15 13 16 11 17 10 18 12 20 4 22 21 24 18 26
REMARK H PARENT 10 19 12 21 4 23 21 25 18 27
REMARK Flexibility Score: inf
ROOT
ATOM      1  C   UNL     1      45.920  72.777 154.712  1.00  0.00     0.180 A 
ATOM      2  C   UNL     1      46.176  73.878 155.548  1.00  0.00     0.208 A 
ATOM      3  C   UNL     1      45.272  74.172 156.581  1.00  0.00     0.238 A 
ATOM      4  O   UNL     1      45.534  75.125 157.361  1.00  0.00    -0.285 OA
ATOM      5  C   UNL     1      44.116  73.373 156.756  1.00  0.00     0.111 A 
ATOM      6  C   UNL     1      43.112  73.603 157.744  1.00  0.00     0.134 A 
ATOM      7  C   UNL     1      42.079  72.672 157.909  1.00  0.00     0.093 A 
ATOM      8  C   UNL     1      41.978  71.554 157.078  1.00  0.00     0.123 A 
ATOM      9  C   UNL     1      42.918  71.353 156.072  1.00  0.00     0.094 A 
ATOM     10  C   UNL     1      43.981  72.243 155.906  1.00  0.00     0.146 A 
ATOM     11  O   UNL     1      44.862  72.007 154.941  1.00  0.00    -0.452 OA
ENDROOT
BRANCH   1  12
ATOM     12  C   UNL     1      46.812  72.420 153.585  1.00  0.00     0.025 A 
ATOM     13  C   UNL     1      47.120  71.070 153.349  1.00  0.00     0.016 A 
ATOM     14  C   UNL     1      47.942  70.709 152.280  1.00  0.00     0.051 A 
ATOM     15  C   UNL     1      48.459  71.688 151.422  1.00  0.00     0.157 A 
ATOM     16  C   UNL     1      47.316  73.398 152.709  1.00  0.00     0.062 A 
ATOM     17  C   UNL     1      48.138  73.039 151.636  1.00  0.00     0.158 A 
BRANCH  15  18
ATOM     18  O   UNL     1      49.282  71.324 150.357  1.00  0.00    -0.504 OA
ATOM     19  H   UNL     1      50.242  71.037 150.502  1.00  0.00     0.293 HD
ENDBRANCH  15  18
BRANCH  17  20
ATOM     20  O   UNL     1      48.624  74.038 150.792  1.00  0.00    -0.504 OA
ATOM     21  H   UNL     1      48.968  74.922 151.147  1.00  0.00     0.293 HD
ENDBRANCH  17  20
ENDBRANCH   1  12
BRANCH   2  22
ATOM     22  O   UNL     1      47.333  74.640 155.372  1.00  0.00    -0.502 OA
ATOM     23  H   UNL     1      47.308  75.604 155.063  1.00  0.00     0.293 HD
ENDBRANCH   2  22
BRANCH   6  24
ATOM     24  O   UNL     1      43.071  74.735 158.564  1.00  0.00    -0.507 OA
ATOM     25  H   UNL     1      42.847  75.666 158.247  1.00  0.00     0.293 HD
ENDBRANCH   6  24
BRANCH   8  26
ATOM     26  O   UNL     1      40.937  70.642 157.240  1.00  0.00    -0.508 OA
ATOM     27  H   UNL     1      40.838  70.093 158.086  1.00  0.00     0.293 HD
ENDBRANCH   8  26
TORSDOF 6
ENDMDL
MODEL 5
REMARK VINA RESULT:    -0.618      2.650      7.482
REMARK INTER + INTRA:          -0.626
REMARK INTER:                  -0.346
REMARK INTRA:                  -0.280
REMARK UNBOUND:                 0.118
REMARK SMILES O=c1c(O)c(-c2ccc(O)c(O)c2)oc2cc(O)cc(O)c12
REMARK SMILES IDX 5 1 3 2 2 3 1 4 22 5 20 6 19 7 17 8 16 9 15 10 14 11 6 12
REMARK SMILES IDX 7 13 8 14 9 15 13 16 11 17 10 18 12 20 4 22 21 24 18 26
REMARK H PARENT 10 19 12 21 4 23 21 25 18 27
REMARK Flexibility Score: inf
ROOT
ATOM      1  C   UNL     1      46.556  73.454 154.259  1.00  0.00     0.180 A 
ATOM      2  C   UNL     1      47.757  72.726 154.196  1.00  0.00     0.208 A 
ATOM      3  C   UNL     1      48.387  72.561 152.953  1.00  0.00     0.238 A 
ATOM      4  O   UNL     1      49.490  71.956 152.909  1.00  0.00    -0.285 OA
ATOM      5  C   UNL     1      47.802  73.111 151.787  1.00  0.00     0.111 A 
ATOM      6  C   UNL     1      48.333  72.971 150.469  1.00  0.00     0.134 A 
ATOM      7  C   UNL     1      47.741  73.668 149.408  1.00  0.00     0.093 A 
ATOM      8  C   UNL     1      46.599  74.447 149.606  1.00  0.00     0.123 A 
ATOM      9  C   UNL     1      46.038  74.541 150.877  1.00  0.00     0.094 A 
ATOM     10  C   UNL     1      46.627  73.888 151.962  1.00  0.00     0.146 A 
ATOM     11  O   UNL     1      46.066  74.014 153.159  1.00  0.00    -0.452 OA
ENDROOT
BRANCH   1  12
ATOM     12  C   UNL     1      45.819  73.649 155.529  1.00  0.00     0.025 A 
ATOM     13  C   UNL     1      45.817  74.914 156.139  1.00  0.00     0.016 A 
ATOM     14  C   UNL     1      45.111  75.125 157.327  1.00  0.00     0.051 A 
ATOM     15  C   UNL     1      44.386  74.080 157.914  1.00  0.00     0.157 A 
ATOM     16  C   UNL     1      45.073  72.608 156.111  1.00  0.00     0.062 A 
ATOM     17  C   UNL     1      44.363  72.818 157.299  1.00  0.00     0.158 A 
BRANCH  15  18
ATOM     18  O   UNL     1      43.685  74.294 159.100  1.00  0.00    -0.504 OA
ATOM     19  H   UNL     1      42.686  74.458 159.103  1.00  0.00     0.293 HD
ENDBRANCH  15  18
BRANCH  17  20
ATOM     20  O   UNL     1      43.639  71.760 157.850  1.00  0.00    -0.504 OA
ATOM     21  H   UNL     1      42.823  71.371 157.393  1.00  0.00     0.293 HD
ENDBRANCH  17  20
ENDBRANCH   1  12
BRANCH   2  22
ATOM     22  O   UNL     1      48.328  72.210 155.362  1.00  0.00    -0.502 OA
ATOM     23  H   UNL     1      47.774  71.801 156.104  1.00  0.00     0.293 HD
ENDBRANCH   2  22
BRANCH   6  24
ATOM     24  O   UNL     1      49.415  72.147 150.148  1.00  0.00    -0.507 OA
ATOM     25  H   UNL     1      50.333  72.477 149.889  1.00  0.00     0.293 HD
ENDBRANCH   6  24
BRANCH   8  26
ATOM     26  O   UNL     1      46.007  75.123 148.542  1.00  0.00    -0.508 OA
ATOM     27  H   UNL     1      45.313  74.680 147.951  1.00  0.00     0.293 HD
ENDBRANCH   8  26
TORSDOF 6
ENDMDL
