MODEL 1
REMARK VINA RESULT:    -4.626      0.000      0.000
REMARK INTER + INTRA:          -5.391
REMARK INTER:                  -5.167
REMARK INTRA:                  -0.224
REMARK UNBOUND:                -0.224
REMARK SMILES O=C([O-])c1ccccc1C(=O)[O-]
REMARK SMILES IDX 4 1 9 2 5 3 8 4 6 5 7 6 2 7 1 8 3 9 10 10 11 11 12 12
REMARK H PARENT
REMARK Flexibility Score: inf
ROOT
ATOM      1  C   UNL     1      22.955  32.540   5.016  1.00  0.00     0.006 A 
ATOM      2  C   UNL     1      22.794  32.136   6.372  1.00  0.00     0.006 A 
ATOM      3  C   UNL     1      21.958  33.330   4.415  1.00  0.00     0.010 A 
ATOM      4  C   UNL     1      21.612  32.480   7.052  1.00  0.00     0.010 A 
ATOM      5  C   UNL     1      20.803  33.678   5.116  1.00  0.00     0.001 A 
ATOM      6  C   UNL     1      20.625  33.244   6.428  1.00  0.00     0.001 A 
ENDROOT
BRANCH   1   7
ATOM      7  C   UNL     1      24.099  32.114   4.177  1.00  0.00     0.072 C 
ATOM      8  O   UNL     1      25.095  32.867   4.015  1.00  0.00    -0.545 OA
ATOM      9  O   UNL     1      24.113  30.844   3.611  1.00  0.00    -0.545 OA
ENDBRANCH   1   7
BRANCH   2  10
ATOM     10  C   UNL     1      23.847  31.422   7.132  1.00  0.00     0.072 C 
ATOM     11  O   UNL     1      23.907  30.164   7.122  1.00  0.00    -0.545 OA
ATOM     12  O   UNL     1      24.823  32.139   7.812  1.00  0.00    -0.545 OA
ENDBRANCH   2  10
TORSDOF 2
ENDMDL
MODEL 2
REMARK VINA RESULT:    -4.620      0.025      3.143
REMARK INTER + INTRA:          -5.384
REMARK INTER:                  -5.163
REMARK INTRA:                  -0.221
REMARK UNBOUND:                -0.224
REMARK SMILES O=C([O-])c1ccccc1C(=O)[O-]
REMARK SMILES IDX 4 1 9 2 5 3 8 4 6 5 7 6 2 7 1 8 3 9 10 10 11 11 12 12
REMARK H PARENT
REMARK Flexibility Score: inf
ROOT
ATOM      1  C   UNL     1      22.803  32.126   6.369  1.00  0.00     0.006 A 
ATOM      2  C   UNL     1      22.961  32.536   5.015  1.00  0.00     0.006 A 
ATOM      3  C   UNL     1      21.624  32.471   7.055  1.00  0.00     0.010 A 
ATOM      4  C   UNL     1      21.965  33.332   4.420  1.00  0.00     0.010 A 
ATOM      5  C   UNL     1      20.640  33.243   6.438  1.00  0.00     0.001 A 
ATOM      6  C   UNL     1      20.814  33.683   5.128  1.00  0.00     0.001 A 
ENDROOT
BRANCH   1   7
ATOM      7  C   UNL     1      23.854  31.403   7.121  1.00  0.00     0.072 C 
ATOM      8  O   UNL     1      23.927  30.146   7.082  1.00  0.00    -0.545 OA
ATOM      9  O   UNL     1      24.818  32.113   7.830  1.00  0.00    -0.545 OA
ENDBRANCH   1   7
BRANCH   2  10
ATOM     10  C   UNL     1      24.100  32.108   4.169  1.00  0.00     0.072 C 
ATOM     11  O   UNL     1      25.109  32.847   4.024  1.00  0.00    -0.545 OA
ATOM     12  O   UNL     1      24.095  30.849   3.579  1.00  0.00    -0.545 OA
ENDBRANCH   2  10
TORSDOF 2
ENDMDL
MODEL 3
REMARK VINA RESULT:    -4.606      2.070      3.784
REMARK INTER + INTRA:          -5.369
REMARK INTER:                  -5.218
REMARK INTRA:                  -0.152
REMARK UNBOUND:                -0.224
REMARK SMILES O=C([O-])c1ccccc1C(=O)[O-]
REMARK SMILES IDX 4 1 9 2 5 3 8 4 6 5 7 6 2 7 1 8 3 9 10 10 11 11 12 12
REMARK H PARENT
REMARK Flexibility Score: inf
ROOT
ATOM      1  C   UNL     1      25.564  31.373   5.668  1.00  0.00     0.006 A 
ATOM      2  C   UNL     1      24.430  31.911   6.340  1.00  0.00     0.006 A 
ATOM      3  C   UNL     1      26.695  31.007   6.420  1.00  0.00     0.010 A 
ATOM      4  C   UNL     1      24.496  32.125   7.729  1.00  0.00     0.010 A 
ATOM      5  C   UNL     1      26.730  31.208   7.800  1.00  0.00     0.001 A 
ATOM      6  C   UNL     1      25.638  31.776   8.452  1.00  0.00     0.001 A 
ENDROOT
BRANCH   1   7
ATOM      7  C   UNL     1      25.641  31.237   4.195  1.00  0.00     0.072 C 
ATOM      8  O   UNL     1      25.334  30.154   3.630  1.00  0.00    -0.545 OA
ATOM      9  O   UNL     1      25.989  32.332   3.411  1.00  0.00    -0.545 OA
ENDBRANCH   1   7
BRANCH   2  10
ATOM     10  C   UNL     1      23.147  32.198   5.656  1.00  0.00     0.072 C 
ATOM     11  O   UNL     1      22.116  31.521   5.911  1.00  0.00    -0.545 OA
ATOM     12  O   UNL     1      23.053  33.268   4.774  1.00  0.00    -0.545 OA
ENDBRANCH   2  10
TORSDOF 2
ENDMDL
MODEL 4
REMARK VINA RESULT:    -4.606      2.114      4.205
REMARK INTER + INTRA:          -5.369
REMARK INTER:                  -5.194
REMARK INTRA:                  -0.176
REMARK UNBOUND:                -0.224
REMARK SMILES O=C([O-])c1ccccc1C(=O)[O-]
REMARK SMILES IDX 4 1 9 2 5 3 8 4 6 5 7 6 2 7 1 8 3 9 10 10 11 11 12 12
REMARK H PARENT
REMARK Flexibility Score: inf
ROOT
ATOM      1  C   UNL     1      24.450  31.899   6.271  1.00  0.00     0.006 A 
ATOM      2  C   UNL     1      25.613  31.356   5.656  1.00  0.00     0.006 A 
ATOM      3  C   UNL     1      24.457  32.137   7.658  1.00  0.00     0.010 A 
ATOM      4  C   UNL     1      26.714  31.008   6.460  1.00  0.00     0.010 A 
ATOM      5  C   UNL     1      25.569  31.805   8.433  1.00  0.00     0.001 A 
ATOM      6  C   UNL     1      26.690  31.232   7.838  1.00  0.00     0.001 A 
ENDROOT
BRANCH   1   7
ATOM      7  C   UNL     1      23.195  32.168   5.531  1.00  0.00     0.072 C 
ATOM      8  O   UNL     1      22.174  31.454   5.711  1.00  0.00    -0.545 OA
ATOM      9  O   UNL     1      23.112  33.261   4.675  1.00  0.00    -0.545 OA
ENDBRANCH   1   7
BRANCH   2  10
ATOM     10  C   UNL     1      25.751  31.196   4.189  1.00  0.00     0.072 C 
ATOM     11  O   UNL     1      25.428  30.117   3.625  1.00  0.00    -0.545 OA
ATOM     12  O   UNL     1      26.176  32.265   3.410  1.00  0.00    -0.545 OA
ENDBRANCH   2  10
TORSDOF 2
ENDMDL
MODEL 5
REMARK VINA RESULT:    -4.584      2.147      4.491
REMARK INTER + INTRA:          -5.345
REMARK INTER:                  -5.435
REMARK INTRA:                   0.091
REMARK UNBOUND:                -0.224
REMARK SMILES O=C([O-])c1ccccc1C(=O)[O-]
REMARK SMILES IDX 4 1 9 2 5 3 8 4 6 5 7 6 2 7 1 8 3 9 10 10 11 11 12 12
REMARK H PARENT
REMARK Flexibility Score: inf
ROOT
ATOM      1  C   UNL     1      23.766  31.813   7.531  1.00  0.00     0.006 A 
ATOM      2  C   UNL     1      24.102  31.609   6.163  1.00  0.00     0.006 A 
ATOM      3  C   UNL     1      24.793  31.824   8.494  1.00  0.00     0.010 A 
ATOM      4  C   UNL     1      25.443  31.359   5.818  1.00  0.00     0.010 A 
ATOM      5  C   UNL     1      26.119  31.595   8.125  1.00  0.00     0.001 A 
ATOM      6  C   UNL     1      26.442  31.352   6.793  1.00  0.00     0.001 A 
ENDROOT
BRANCH   1   7
ATOM      7  C   UNL     1      22.370  31.948   8.008  1.00  0.00     0.072 C 
ATOM      8  O   UNL     1      21.965  31.299   9.008  1.00  0.00    -0.545 OA
ATOM      9  O   UNL     1      21.508  32.851   7.395  1.00  0.00    -0.545 OA
ENDBRANCH   1   7
BRANCH   2  10
ATOM     10  C   UNL     1      23.114  31.715   5.064  1.00  0.00     0.072 C 
ATOM     11  O   UNL     1      22.467  30.705   4.680  1.00  0.00    -0.545 OA
ATOM     12  O   UNL     1      22.840  32.950   4.490  1.00  0.00    -0.545 OA
ENDBRANCH   2  10
TORSDOF 2
ENDMDL
MODEL 6
REMARK VINA RESULT:    -4.525      2.518      3.815
REMARK INTER + INTRA:          -5.278
REMARK INTER:                  -5.202
REMARK INTRA:                  -0.076
REMARK UNBOUND:                -0.224
REMARK SMILES O=C([O-])c1ccccc1C(=O)[O-]
REMARK SMILES IDX 4 1 9 2 5 3 8 4 6 5 7 6 2 7 1 8 3 9 10 10 11 11 12 12
REMARK H PARENT
REMARK Flexibility Score: inf
ROOT
ATOM      1  C   UNL     1      24.294  30.741   6.458  1.00  0.00     0.006 A 
ATOM      2  C   UNL     1      23.895  31.521   7.580  1.00  0.00     0.006 A 
ATOM      3  C   UNL     1      25.660  30.457   6.273  1.00  0.00     0.010 A 
ATOM      4  C   UNL     1      24.882  32.044   8.436  1.00  0.00     0.010 A 
ATOM      5  C   UNL     1      26.620  30.968   7.148  1.00  0.00     0.001 A 
ATOM      6  C   UNL     1      26.233  31.769   8.220  1.00  0.00     0.001 A 
ENDROOT
BRANCH   1   7
ATOM      7  C   UNL     1      23.344  30.262   5.428  1.00  0.00     0.072 C 
ATOM      8  O   UNL     1      22.995  31.008   4.476  1.00  0.00    -0.545 OA
ATOM      9  O   UNL     1      22.877  28.952   5.465  1.00  0.00    -0.545 OA
ENDBRANCH   1   7
BRANCH   2  10
ATOM     10  C   UNL     1      22.476  31.759   7.934  1.00  0.00     0.072 C 
ATOM     11  O   UNL     1      22.011  31.360   9.035  1.00  0.00    -0.545 OA
ATOM     12  O   UNL     1      21.658  32.489   7.080  1.00  0.00    -0.545 OA
ENDBRANCH   2  10
TORSDOF 2
ENDMDL
MODEL 7
REMARK VINA RESULT:    -4.478      1.345      2.062
REMARK INTER + INTRA:          -5.225
REMARK INTER:                  -5.027
REMARK INTRA:                  -0.199
REMARK UNBOUND:                -0.224
REMARK SMILES O=C([O-])c1ccccc1C(=O)[O-]
REMARK SMILES IDX 4 1 9 2 5 3 8 4 6 5 7 6 2 7 1 8 3 9 10 10 11 11 12 12
REMARK H PARENT
REMARK Flexibility Score: inf
ROOT
ATOM      1  C   UNL     1      23.619  31.838   6.171  1.00  0.00     0.006 A 
ATOM      2  C   UNL     1      24.129  31.509   7.459  1.00  0.00     0.006 A 
ATOM      3  C   UNL     1      22.321  32.373   6.066  1.00  0.00     0.010 A 
ATOM      4  C   UNL     1      23.299  31.664   8.584  1.00  0.00     0.010 A 
ATOM      5  C   UNL     1      21.524  32.539   7.198  1.00  0.00     0.001 A 
ATOM      6  C   UNL     1      22.006  32.174   8.453  1.00  0.00     0.001 A 
ENDROOT
BRANCH   1   7
ATOM      7  C   UNL     1      24.365  31.583   4.917  1.00  0.00     0.072 C 
ATOM      8  O   UNL     1      25.000  32.509   4.346  1.00  0.00    -0.545 OA
ATOM      9  O   UNL     1      24.427  30.297   4.392  1.00  0.00    -0.545 OA
ENDBRANCH   1   7
BRANCH   2  10
ATOM     10  C   UNL     1      25.526  31.069   7.686  1.00  0.00     0.072 C 
ATOM     11  O   UNL     1      26.379  31.859   8.170  1.00  0.00    -0.545 OA
ATOM     12  O   UNL     1      25.892  29.754   7.429  1.00  0.00    -0.545 OA
ENDBRANCH   2  10
TORSDOF 2
ENDMDL
MODEL 8
REMARK VINA RESULT:    -4.455      1.369      3.420
REMARK INTER + INTRA:          -5.200
REMARK INTER:                  -4.998
REMARK INTRA:                  -0.202
REMARK UNBOUND:                -0.224
REMARK SMILES O=C([O-])c1ccccc1C(=O)[O-]
REMARK SMILES IDX 4 1 9 2 5 3 8 4 6 5 7 6 2 7 1 8 3 9 10 10 11 11 12 12
REMARK H PARENT
REMARK Flexibility Score: inf
ROOT
ATOM      1  C   UNL     1      24.201  31.478   7.418  1.00  0.00     0.006 A 
ATOM      2  C   UNL     1      23.733  31.784   6.109  1.00  0.00     0.006 A 
ATOM      3  C   UNL     1      23.330  31.642   8.511  1.00  0.00     0.010 A 
ATOM      4  C   UNL     1      22.436  32.305   5.950  1.00  0.00     0.010 A 
ATOM      5  C   UNL     1      22.040  32.139   8.328  1.00  0.00     0.001 A 
ATOM      6  C   UNL     1      21.597  32.481   7.052  1.00  0.00     0.001 A 
ENDROOT
BRANCH   1   7
ATOM      7  C   UNL     1      25.592  31.055   7.700  1.00  0.00     0.072 C 
ATOM      8  O   UNL     1      26.426  31.864   8.184  1.00  0.00    -0.545 OA
ATOM      9  O   UNL     1      25.974  29.733   7.494  1.00  0.00    -0.545 OA
ENDBRANCH   1   7
BRANCH   2  10
ATOM     10  C   UNL     1      24.525  31.517   4.884  1.00  0.00     0.072 C 
ATOM     11  O   UNL     1      25.162  32.442   4.315  1.00  0.00    -0.545 OA
ATOM     12  O   UNL     1      24.627  30.222   4.390  1.00  0.00    -0.545 OA
ENDBRANCH   2  10
TORSDOF 2
ENDMDL
MODEL 9
REMARK VINA RESULT:    -4.445      1.513      3.160
REMARK INTER + INTRA:          -5.189
REMARK INTER:                  -5.031
REMARK INTRA:                  -0.159
REMARK UNBOUND:                -0.224
REMARK SMILES O=C([O-])c1ccccc1C(=O)[O-]
REMARK SMILES IDX 4 1 9 2 5 3 8 4 6 5 7 6 2 7 1 8 3 9 10 10 11 11 12 12
REMARK H PARENT
REMARK Flexibility Score: inf
ROOT
ATOM      1  C   UNL     1      22.103  32.150   7.001  1.00  0.00     0.006 A 
ATOM      2  C   UNL     1      22.579  31.553   5.799  1.00  0.00     0.006 A 
ATOM      3  C   UNL     1      21.013  33.038   6.938  1.00  0.00     0.010 A 
ATOM      4  C   UNL     1      21.992  31.919   4.574  1.00  0.00     0.010 A 
ATOM      5  C   UNL     1      20.432  33.369   5.714  1.00  0.00     0.001 A 
ATOM      6  C   UNL     1      20.927  32.821   4.534  1.00  0.00     0.001 A 
ENDROOT
BRANCH   1   7
ATOM      7  C   UNL     1      22.743  31.932   8.319  1.00  0.00     0.072 C 
ATOM      8  O   UNL     1      22.138  31.315   9.235  1.00  0.00    -0.545 OA
ATOM      9  O   UNL     1      24.051  32.351   8.537  1.00  0.00    -0.545 OA
ENDBRANCH   1   7
BRANCH   2  10
ATOM     10  C   UNL     1      23.629  30.507   5.777  1.00  0.00     0.072 C 
ATOM     11  O   UNL     1      23.324  29.287   5.851  1.00  0.00    -0.545 OA
ATOM     12  O   UNL     1      24.961  30.861   5.604  1.00  0.00    -0.545 OA
ENDBRANCH   2  10
TORSDOF 2
ENDMDL
