MODEL 1
REMARK VINA RESULT:    15.877      0.000      0.000
REMARK INTER + INTRA:          16.526
REMARK INTER:                  16.805
REMARK INTRA:                  -0.279
REMARK UNBOUND:                -0.279
REMARK SMILES CC1=CC[C@@H]2[C@H]3[C@H](C(C)C)CC[C@]2(C)[C@@H]13
REMARK SMILES IDX 1 1 2 2 3 3 4 4 5 5 6 6 15 7 13 8 12 9 11 10 7 11 14 12 8 13
REMARK SMILES IDX 9 14 10 15
REMARK H PARENT
REMARK Flexibility Score: inf
ROOT
ATOM      1  C   UNL     1      -4.125   7.822 -13.364  1.00  0.00     0.039 C 
ATOM      2  C   UNL     1      -3.421   6.547 -13.008  1.00  0.00    -0.073 C 
ATOM      3  C   UNL     1      -4.036   5.343 -13.135  1.00  0.00    -0.027 C 
ATOM      4  C   UNL     1      -3.259   4.073 -12.774  1.00  0.00     0.031 C 
ATOM      5  C   UNL     1      -1.826   4.437 -12.263  1.00  0.00     0.003 C 
ATOM      6  C   UNL     1      -1.976   5.591 -11.243  1.00  0.00     0.004 C 
ATOM      7  C   UNL     1      -1.988   6.543 -12.468  1.00  0.00     0.024 C 
ATOM      8  C   UNL     1      -1.138   5.469 -13.190  1.00  0.00    -0.022 C 
ATOM      9  C   UNL     1       0.363   5.594 -12.784  1.00  0.00     0.008 C 
ATOM     10  C   UNL     1       0.546   6.085 -11.324  1.00  0.00     0.005 C 
ATOM     11  C   UNL     1      -0.666   5.720 -10.410  1.00  0.00    -0.005 C 
ATOM     12  C   UNL     1      -1.286   5.306 -14.721  1.00  0.00     0.012 C 
ENDROOT
BRANCH  11  13
ATOM     13  C   UNL     1      -0.842   6.652  -9.173  1.00  0.00    -0.014 C 
ATOM     14  C   UNL     1      -2.215   6.462  -8.513  1.00  0.00     0.007 C 
ATOM     15  C   UNL     1       0.278   6.529  -8.126  1.00  0.00     0.007 C 
ENDBRANCH  11  13
TORSDOF 1
ENDMDL
MODEL 2
REMARK VINA RESULT:    18.675      1.619      4.877
REMARK INTER + INTRA:          19.488
REMARK INTER:                  19.738
REMARK INTRA:                  -0.250
REMARK UNBOUND:                -0.279
REMARK SMILES CC1=CC[C@@H]2[C@H]3[C@H](C(C)C)CC[C@]2(C)[C@@H]13
REMARK SMILES IDX 1 1 2 2 3 3 4 4 5 5 6 6 15 7 13 8 12 9 11 10 7 11 14 12 8 13
REMARK SMILES IDX 9 14 10 15
REMARK H PARENT
REMARK Flexibility Score: inf
ROOT
ATOM      1  C   UNL     1       1.242   2.665  -9.204  1.00  0.00     0.039 C 
ATOM      2  C   UNL     1       0.714   4.066  -9.291  1.00  0.00    -0.073 C 
ATOM      3  C   UNL     1       0.416   4.779  -8.174  1.00  0.00    -0.027 C 
ATOM      4  C   UNL     1      -0.102   6.212  -8.327  1.00  0.00     0.031 C 
ATOM      5  C   UNL     1      -0.229   6.588  -9.839  1.00  0.00     0.003 C 
ATOM      6  C   UNL     1      -0.934   5.410 -10.553  1.00  0.00     0.004 C 
ATOM      7  C   UNL     1       0.467   4.749 -10.639  1.00  0.00     0.024 C 
ATOM      8  C   UNL     1       1.040   6.187 -10.632  1.00  0.00    -0.022 C 
ATOM      9  C   UNL     1       0.966   6.814 -12.059  1.00  0.00     0.008 C 
ATOM     10  C   UNL     1      -0.263   6.315 -12.865  1.00  0.00     0.005 C 
ATOM     11  C   UNL     1      -1.448   5.881 -11.947  1.00  0.00    -0.005 C 
ATOM     12  C   UNL     1       2.425   6.435  -9.990  1.00  0.00     0.012 C 
ENDROOT
BRANCH  11  13
ATOM     13  C   UNL     1      -2.421   4.852 -12.597  1.00  0.00    -0.014 C 
ATOM     14  C   UNL     1      -3.791   5.477 -12.894  1.00  0.00     0.007 C 
ATOM     15  C   UNL     1      -1.863   4.162 -13.852  1.00  0.00     0.007 C 
ENDBRANCH  11  13
TORSDOF 1
ENDMDL
