MODEL 1
REMARK VINA RESULT:    -4.949      0.000      0.000
REMARK INTER + INTRA:          -5.425
REMARK INTER:                  -5.383
REMARK INTRA:                  -0.041
REMARK UNBOUND:                -0.041
REMARK SMILES COc1ccccc1O
REMARK SMILES IDX 3 1 4 2 5 3 6 4 7 5 8 6 2 7 1 8 9 9
REMARK H PARENT 9 10
REMARK Flexibility Score: inf
ROOT
ATOM      1  C   UNL     1     -11.337  -5.069  -6.058  1.00  0.00     0.160 A 
ATOM      2  C   UNL     1     -10.866  -6.195  -6.765  1.00  0.00     0.050 A 
ATOM      3  C   UNL     1     -10.500  -6.082  -8.108  1.00  0.00     0.004 A 
ATOM      4  C   UNL     1     -10.596  -4.851  -8.760  1.00  0.00     0.004 A 
ATOM      5  C   UNL     1     -11.060  -3.730  -8.070  1.00  0.00     0.050 A 
ATOM      6  C   UNL     1     -11.431  -3.832  -6.724  1.00  0.00     0.157 A 
ENDROOT
BRANCH   1   7
ATOM      7  O   UNL     1     -11.713  -5.144  -4.708  1.00  0.00    -0.493 OA
ATOM      8  C   UNL     1     -13.014  -5.499  -4.251  1.00  0.00     0.278 C 
ENDBRANCH   1   7
BRANCH   6   9
ATOM      9  O   UNL     1     -11.890  -2.691  -6.065  1.00  0.00    -0.504 OA
ATOM     10  H   UNL     1     -11.278  -2.110  -5.504  1.00  0.00     0.293 HD
ENDBRANCH   6   9
TORSDOF 2
ENDMDL
MODEL 2
REMARK VINA RESULT:    -4.686     13.462     14.721
REMARK INTER + INTRA:          -5.138
REMARK INTER:                  -5.098
REMARK INTRA:                  -0.040
REMARK UNBOUND:                -0.041
REMARK SMILES COc1ccccc1O
REMARK SMILES IDX 3 1 4 2 5 3 6 4 7 5 8 6 2 7 1 8 9 9
REMARK H PARENT 9 10
REMARK Flexibility Score: inf
ROOT
ATOM      1  C   UNL     1      -0.396 -13.113  -4.193  1.00  0.00     0.160 A 
ATOM      2  C   UNL     1      -1.801 -13.227  -4.242  1.00  0.00     0.050 A 
ATOM      3  C   UNL     1      -2.509 -13.712  -3.139  1.00  0.00     0.004 A 
ATOM      4  C   UNL     1      -1.829 -14.086  -1.979  1.00  0.00     0.004 A 
ATOM      5  C   UNL     1      -0.439 -13.977  -1.918  1.00  0.00     0.050 A 
ATOM      6  C   UNL     1       0.281 -13.493  -3.018  1.00  0.00     0.157 A 
ENDROOT
BRANCH   1   7
ATOM      7  O   UNL     1       0.349 -12.630  -5.280  1.00  0.00    -0.493 OA
ATOM      8  C   UNL     1       0.843 -13.439  -6.342  1.00  0.00     0.278 C 
ENDBRANCH   1   7
BRANCH   6   9
ATOM      9  O   UNL     1       1.669 -13.396  -2.923  1.00  0.00    -0.504 OA
ATOM     10  H   UNL     1       2.246 -14.181  -2.644  1.00  0.00     0.293 HD
ENDBRANCH   6   9
TORSDOF 2
ENDMDL
MODEL 3
REMARK VINA RESULT:    -4.631      1.370      3.118
REMARK INTER + INTRA:          -5.078
REMARK INTER:                  -5.046
REMARK INTRA:                  -0.033
REMARK UNBOUND:                -0.041
REMARK SMILES COc1ccccc1O
REMARK SMILES IDX 3 1 4 2 5 3 6 4 7 5 8 6 2 7 1 8 9 9
REMARK H PARENT 9 10
REMARK Flexibility Score: inf
ROOT
ATOM      1  C   UNL     1     -10.784  -4.403  -7.520  1.00  0.00     0.160 A 
ATOM      2  C   UNL     1     -10.079  -5.621  -7.608  1.00  0.00     0.050 A 
ATOM      3  C   UNL     1      -9.992  -6.468  -6.501  1.00  0.00     0.004 A 
ATOM      4  C   UNL     1     -10.604  -6.114  -5.298  1.00  0.00     0.004 A 
ATOM      5  C   UNL     1     -11.305  -4.911  -5.198  1.00  0.00     0.050 A 
ATOM      6  C   UNL     1     -11.399  -4.054  -6.302  1.00  0.00     0.157 A 
ENDROOT
BRANCH   1   7
ATOM      7  O   UNL     1     -10.894  -3.527  -8.611  1.00  0.00    -0.493 OA
ATOM      8  C   UNL     1     -11.258  -3.921  -9.929  1.00  0.00     0.278 C 
ENDBRANCH   1   7
BRANCH   6   9
ATOM      9  O   UNL     1     -12.107  -2.860  -6.167  1.00  0.00    -0.504 OA
ATOM     10  H   UNL     1     -11.651  -1.956  -6.202  1.00  0.00     0.293 HD
ENDBRANCH   6   9
TORSDOF 2
ENDMDL
MODEL 4
REMARK VINA RESULT:    -4.627      1.405      1.534
REMARK INTER + INTRA:          -5.073
REMARK INTER:                  -5.046
REMARK INTRA:                  -0.027
REMARK UNBOUND:                -0.041
REMARK SMILES COc1ccccc1O
REMARK SMILES IDX 3 1 4 2 5 3 6 4 7 5 8 6 2 7 1 8 9 9
REMARK H PARENT 9 10
REMARK Flexibility Score: inf
ROOT
ATOM      1  C   UNL     1     -10.873  -5.081  -6.933  1.00  0.00     0.160 A 
ATOM      2  C   UNL     1     -10.422  -5.885  -8.001  1.00  0.00     0.050 A 
ATOM      3  C   UNL     1     -10.567  -5.451  -9.321  1.00  0.00     0.004 A 
ATOM      4  C   UNL     1     -11.160  -4.217  -9.592  1.00  0.00     0.004 A 
ATOM      5  C   UNL     1     -11.610  -3.413  -8.544  1.00  0.00     0.050 A 
ATOM      6  C   UNL     1     -11.470  -3.837  -7.217  1.00  0.00     0.157 A 
ENDROOT
BRANCH   1   7
ATOM      7  O   UNL     1     -10.744  -5.483  -5.595  1.00  0.00    -0.493 OA
ATOM      8  C   UNL     1      -9.727  -6.351  -5.107  1.00  0.00     0.278 C 
ENDBRANCH   1   7
BRANCH   6   9
ATOM      9  O   UNL     1     -11.931  -3.009  -6.194  1.00  0.00    -0.504 OA
ATOM     10  H   UNL     1     -11.840  -3.259  -5.216  1.00  0.00     0.293 HD
ENDBRANCH   6   9
TORSDOF 2
ENDMDL
MODEL 5
REMARK VINA RESULT:    -4.567      2.061      3.814
REMARK INTER + INTRA:          -5.008
REMARK INTER:                  -4.964
REMARK INTRA:                  -0.044
REMARK UNBOUND:                -0.041
REMARK SMILES COc1ccccc1O
REMARK SMILES IDX 3 1 4 2 5 3 6 4 7 5 8 6 2 7 1 8 9 9
REMARK H PARENT 9 10
REMARK Flexibility Score: inf
ROOT
ATOM      1  C   UNL     1     -11.195  -4.613  -7.600  1.00  0.00     0.160 A 
ATOM      2  C   UNL     1     -12.220  -4.242  -6.704  1.00  0.00     0.050 A 
ATOM      3  C   UNL     1     -12.638  -5.125  -5.706  1.00  0.00     0.004 A 
ATOM      4  C   UNL     1     -12.043  -6.382  -5.587  1.00  0.00     0.004 A 
ATOM      5  C   UNL     1     -11.028  -6.760  -6.468  1.00  0.00     0.050 A 
ATOM      6  C   UNL     1     -10.600  -5.883  -7.473  1.00  0.00     0.157 A 
ENDROOT
BRANCH   1   7
ATOM      7  O   UNL     1     -10.747  -3.752  -8.614  1.00  0.00    -0.493 OA
ATOM      8  C   UNL     1     -11.350  -3.637  -9.899  1.00  0.00     0.278 C 
ENDBRANCH   1   7
BRANCH   6   9
ATOM      9  O   UNL     1      -9.583  -6.292  -8.334  1.00  0.00    -0.504 OA
ATOM     10  H   UNL     1      -9.146  -5.658  -8.992  1.00  0.00     0.293 HD
ENDBRANCH   6   9
TORSDOF 2
ENDMDL
MODEL 6
REMARK VINA RESULT:    -4.544      2.115      2.943
REMARK INTER + INTRA:          -4.983
REMARK INTER:                  -4.941
REMARK INTRA:                  -0.043
REMARK UNBOUND:                -0.041
REMARK SMILES COc1ccccc1O
REMARK SMILES IDX 3 1 4 2 5 3 6 4 7 5 8 6 2 7 1 8 9 9
REMARK H PARENT 9 10
REMARK Flexibility Score: inf
ROOT
ATOM      1  C   UNL     1     -10.944  -6.246  -6.475  1.00  0.00     0.160 A 
ATOM      2  C   UNL     1     -11.941  -5.593  -5.720  1.00  0.00     0.050 A 
ATOM      3  C   UNL     1     -12.471  -4.375  -6.153  1.00  0.00     0.004 A 
ATOM      4  C   UNL     1     -12.016  -3.795  -7.339  1.00  0.00     0.004 A 
ATOM      5  C   UNL     1     -11.030  -4.431  -8.094  1.00  0.00     0.050 A 
ATOM      6  C   UNL     1     -10.491  -5.653  -7.669  1.00  0.00     0.157 A 
ENDROOT
BRANCH   1   7
ATOM      7  O   UNL     1     -10.389  -7.470  -6.072  1.00  0.00    -0.493 OA
ATOM      8  C   UNL     1      -9.290  -7.602  -5.175  1.00  0.00     0.278 C 
ENDBRANCH   1   7
BRANCH   6   9
ATOM      9  O   UNL     1      -9.507  -6.261  -8.448  1.00  0.00    -0.504 OA
ATOM     10  H   UNL     1      -9.351  -6.003  -9.416  1.00  0.00     0.293 HD
ENDBRANCH   6   9
TORSDOF 2
ENDMDL
MODEL 7
REMARK VINA RESULT:    -4.430      1.084      2.334
REMARK INTER + INTRA:          -4.860
REMARK INTER:                  -4.816
REMARK INTRA:                  -0.044
REMARK UNBOUND:                -0.041
REMARK SMILES COc1ccccc1O
REMARK SMILES IDX 3 1 4 2 5 3 6 4 7 5 8 6 2 7 1 8 9 9
REMARK H PARENT 9 10
REMARK Flexibility Score: inf
ROOT
ATOM      1  C   UNL     1     -11.221  -5.140  -6.305  1.00  0.00     0.160 A 
ATOM      2  C   UNL     1     -11.387  -3.892  -6.940  1.00  0.00     0.050 A 
ATOM      3  C   UNL     1     -11.056  -3.736  -8.288  1.00  0.00     0.004 A 
ATOM      4  C   UNL     1     -10.558  -4.817  -9.017  1.00  0.00     0.004 A 
ATOM      5  C   UNL     1     -10.388  -6.057  -8.399  1.00  0.00     0.050 A 
ATOM      6  C   UNL     1     -10.717  -6.225  -7.048  1.00  0.00     0.157 A 
ENDROOT
BRANCH   1   7
ATOM      7  O   UNL     1     -11.543  -5.335  -4.953  1.00  0.00    -0.493 OA
ATOM      8  C   UNL     1     -12.868  -5.343  -4.432  1.00  0.00     0.278 C 
ENDBRANCH   1   7
BRANCH   6   9
ATOM      9  O   UNL     1     -10.535  -7.478  -6.463  1.00  0.00    -0.504 OA
ATOM     10  H   UNL     1     -10.062  -7.594  -5.575  1.00  0.00     0.293 HD
ENDBRANCH   6   9
TORSDOF 2
ENDMDL
MODEL 8
REMARK VINA RESULT:    -4.227     12.277     13.448
REMARK INTER + INTRA:          -4.639
REMARK INTER:                  -4.608
REMARK INTRA:                  -0.031
REMARK UNBOUND:                -0.041
REMARK SMILES COc1ccccc1O
REMARK SMILES IDX 3 1 4 2 5 3 6 4 7 5 8 6 2 7 1 8 9 9
REMARK H PARENT 9 10
REMARK Flexibility Score: inf
ROOT
ATOM      1  C   UNL     1      -1.754 -13.008  -4.622  1.00  0.00     0.160 A 
ATOM      2  C   UNL     1      -0.424 -13.057  -5.087  1.00  0.00     0.050 A 
ATOM      3  C   UNL     1       0.613 -13.422  -4.224  1.00  0.00     0.004 A 
ATOM      4  C   UNL     1       0.338 -13.740  -2.893  1.00  0.00     0.004 A 
ATOM      5  C   UNL     1      -0.975 -13.694  -2.421  1.00  0.00     0.050 A 
ATOM      6  C   UNL     1      -2.022 -13.330  -3.277  1.00  0.00     0.157 A 
ENDROOT
BRANCH   1   7
ATOM      7  O   UNL     1      -2.822 -12.647  -5.459  1.00  0.00    -0.493 OA
ATOM      8  C   UNL     1      -3.299 -11.317  -5.630  1.00  0.00     0.278 C 
ENDBRANCH   1   7
BRANCH   6   9
ATOM      9  O   UNL     1      -3.322 -13.295  -2.773  1.00  0.00    -0.504 OA
ATOM     10  H   UNL     1      -4.128 -13.153  -3.370  1.00  0.00     0.293 HD
ENDBRANCH   6   9
TORSDOF 2
ENDMDL
MODEL 9
REMARK VINA RESULT:    -4.184     12.640     13.795
REMARK INTER + INTRA:          -4.592
REMARK INTER:                  -4.565
REMARK INTRA:                  -0.027
REMARK UNBOUND:                -0.041
REMARK SMILES COc1ccccc1O
REMARK SMILES IDX 3 1 4 2 5 3 6 4 7 5 8 6 2 7 1 8 9 9
REMARK H PARENT 9 10
REMARK Flexibility Score: inf
ROOT
ATOM      1  C   UNL     1      -1.486 -12.817  -4.243  1.00  0.00     0.160 A 
ATOM      2  C   UNL     1      -2.397 -13.338  -3.300  1.00  0.00     0.050 A 
ATOM      3  C   UNL     1      -1.933 -13.988  -2.154  1.00  0.00     0.004 A 
ATOM      4  C   UNL     1      -0.561 -14.125  -1.933  1.00  0.00     0.004 A 
ATOM      5  C   UNL     1       0.350 -13.613  -2.858  1.00  0.00     0.050 A 
ATOM      6  C   UNL     1      -0.104 -12.960  -4.011  1.00  0.00     0.157 A 
ENDROOT
BRANCH   1   7
ATOM      7  O   UNL     1      -1.914 -12.158  -5.405  1.00  0.00    -0.493 OA
ATOM      8  C   UNL     1      -3.126 -11.417  -5.513  1.00  0.00     0.278 C 
ENDBRANCH   1   7
BRANCH   6   9
ATOM      9  O   UNL     1       0.834 -12.461  -4.914  1.00  0.00    -0.504 OA
ATOM     10  H   UNL     1       0.604 -12.278  -5.884  1.00  0.00     0.293 HD
ENDBRANCH   6   9
TORSDOF 2
ENDMDL
