MODEL 1
REMARK VINA RESULT:    -5.214      0.000      0.000
REMARK INTER + INTRA:          -6.706
REMARK INTER:                  -6.433
REMARK INTRA:                  -0.272
REMARK UNBOUND:                -0.272
REMARK SMILES C=CC[C@H](C)C(=O)CC
REMARK SMILES IDX 4 1 5 2 6 3 7 4 8 5 9 6 3 7 2 8 1 9
REMARK H PARENT
REMARK Flexibility Score: inf
ROOT
ATOM      1  C   UNL     1       2.475  29.668  33.978  1.00  0.00     0.057 C 
ATOM      2  C   UNL     1       1.804  30.938  33.435  1.00  0.00     0.016 C 
ENDROOT
BRANCH   1   3
ATOM      3  C   UNL     1       3.210  28.941  32.869  1.00  0.00     0.135 C 
ATOM      4  O   UNL     1       3.206  29.417  31.743  1.00  0.00    -0.299 OA
BRANCH   3   5
ATOM      5  C   UNL     1       3.925  27.633  33.107  1.00  0.00     0.072 C 
ATOM      6  C   UNL     1       4.284  26.960  31.786  1.00  0.00     0.012 C 
ENDBRANCH   3   5
ENDBRANCH   1   3
BRANCH   1   7
ATOM      7  C   UNL     1       1.467  28.730  34.672  1.00  0.00     0.038 C 
BRANCH   7   8
ATOM      8  C   UNL     1       0.080  28.899  34.111  1.00  0.00    -0.034 C 
ATOM      9  C   UNL     1      -0.395  28.107  33.146  1.00  0.00     0.004 C 
ENDBRANCH   7   8
ENDBRANCH   1   7
TORSDOF 4
ENDMDL
MODEL 2
REMARK VINA RESULT:    -5.086      1.310      1.534
REMARK INTER + INTRA:          -6.548
REMARK INTER:                  -6.093
REMARK INTRA:                  -0.454
REMARK UNBOUND:                -0.272
REMARK SMILES C=CC[C@H](C)C(=O)CC
REMARK SMILES IDX 4 1 5 2 6 3 7 4 8 5 9 6 3 7 2 8 1 9
REMARK H PARENT
REMARK Flexibility Score: inf
ROOT
ATOM      1  C   UNL     1       2.524  29.533  33.828  1.00  0.00     0.057 C 
ATOM      2  C   UNL     1       1.938  30.884  33.393  1.00  0.00     0.016 C 
ENDROOT
BRANCH   1   3
ATOM      3  C   UNL     1       3.019  28.757  32.624  1.00  0.00     0.135 C 
ATOM      4  O   UNL     1       3.570  27.680  32.797  1.00  0.00    -0.299 OA
BRANCH   3   5
ATOM      5  C   UNL     1       2.874  29.286  31.217  1.00  0.00     0.072 C 
ATOM      6  C   UNL     1       1.975  28.379  30.384  1.00  0.00     0.012 C 
ENDBRANCH   3   5
ENDBRANCH   1   3
BRANCH   1   7
ATOM      7  C   UNL     1       1.513  28.697  34.638  1.00  0.00     0.038 C 
BRANCH   7   8
ATOM      8  C   UNL     1       0.105  28.898  34.142  1.00  0.00    -0.034 C 
ATOM      9  C   UNL     1      -0.446  28.091  33.231  1.00  0.00     0.004 C 
ENDBRANCH   7   8
ENDBRANCH   1   7
TORSDOF 4
ENDMDL
MODEL 3
REMARK VINA RESULT:    -5.063      2.016      3.595
REMARK INTER + INTRA:          -6.520
REMARK INTER:                  -6.166
REMARK INTRA:                  -0.354
REMARK UNBOUND:                -0.272
REMARK SMILES C=CC[C@H](C)C(=O)CC
REMARK SMILES IDX 4 1 5 2 6 3 7 4 8 5 9 6 3 7 2 8 1 9
REMARK H PARENT
REMARK Flexibility Score: inf
ROOT
ATOM      1  C   UNL     1       0.264  29.236  34.000  1.00  0.00     0.057 C 
ATOM      2  C   UNL     1       0.716  28.116  34.949  1.00  0.00     0.016 C 
ENDROOT
BRANCH   1   3
ATOM      3  C   UNL     1      -0.275  28.652  32.709  1.00  0.00     0.135 C 
ATOM      4  O   UNL     1      -0.779  27.538  32.727  1.00  0.00    -0.299 OA
BRANCH   3   5
ATOM      5  C   UNL     1      -0.187  29.393  31.397  1.00  0.00     0.072 C 
ATOM      6  C   UNL     1       0.579  28.577  30.361  1.00  0.00     0.012 C 
ENDBRANCH   3   5
ENDBRANCH   1   3
BRANCH   1   7
ATOM      7  C   UNL     1       1.393  30.245  33.713  1.00  0.00     0.038 C 
BRANCH   7   8
ATOM      8  C   UNL     1       2.752  29.618  33.891  1.00  0.00    -0.034 C 
ATOM      9  C   UNL     1       3.368  28.972  32.898  1.00  0.00     0.004 C 
ENDBRANCH   7   8
ENDBRANCH   1   7
TORSDOF 4
ENDMDL
MODEL 4
REMARK VINA RESULT:    -5.025      1.711      3.443
REMARK INTER + INTRA:          -6.472
REMARK INTER:                  -6.039
REMARK INTRA:                  -0.433
REMARK UNBOUND:                -0.272
REMARK SMILES C=CC[C@H](C)C(=O)CC
REMARK SMILES IDX 4 1 5 2 6 3 7 4 8 5 9 6 3 7 2 8 1 9
REMARK H PARENT
REMARK Flexibility Score: inf
ROOT
ATOM      1  C   UNL     1       2.295  29.307  34.137  1.00  0.00     0.057 C 
ATOM      2  C   UNL     1       3.478  28.726  33.349  1.00  0.00     0.016 C 
ENDROOT
BRANCH   1   3
ATOM      3  C   UNL     1       1.195  28.275  34.282  1.00  0.00     0.135 C 
ATOM      4  O   UNL     1       1.486  27.144  34.644  1.00  0.00    -0.299 OA
BRANCH   3   5
ATOM      5  C   UNL     1      -0.247  28.593  33.969  1.00  0.00     0.072 C 
ATOM      6  C   UNL     1      -0.661  27.990  32.631  1.00  0.00     0.012 C 
ENDBRANCH   3   5
ENDBRANCH   1   3
BRANCH   1   7
ATOM      7  C   UNL     1       1.751  30.600  33.496  1.00  0.00     0.038 C 
BRANCH   7   8
ATOM      8  C   UNL     1       2.194  30.735  32.063  1.00  0.00    -0.034 C 
ATOM      9  C   UNL     1       1.352  30.559  31.042  1.00  0.00     0.004 C 
ENDBRANCH   7   8
ENDBRANCH   1   7
TORSDOF 4
ENDMDL
MODEL 5
REMARK VINA RESULT:    -4.831      1.179      1.684
REMARK INTER + INTRA:          -6.233
REMARK INTER:                  -5.966
REMARK INTRA:                  -0.267
REMARK UNBOUND:                -0.272
REMARK SMILES C=CC[C@H](C)C(=O)CC
REMARK SMILES IDX 4 1 5 2 6 3 7 4 8 5 9 6 3 7 2 8 1 9
REMARK H PARENT
REMARK Flexibility Score: inf
ROOT
ATOM      1  C   UNL     1       1.316  30.400  32.439  1.00  0.00     0.057 C 
ATOM      2  C   UNL     1       0.235  29.808  31.522  1.00  0.00     0.016 C 
ENDROOT
BRANCH   1   3
ATOM      3  C   UNL     1       2.655  29.741  32.174  1.00  0.00     0.135 C 
ATOM      4  O   UNL     1       3.084  29.708  31.029  1.00  0.00    -0.299 OA
BRANCH   3   5
ATOM      5  C   UNL     1       3.465  29.103  33.276  1.00  0.00     0.072 C 
ATOM      6  C   UNL     1       3.837  27.667  32.918  1.00  0.00     0.012 C 
ENDBRANCH   3   5
ENDBRANCH   1   3
BRANCH   1   7
ATOM      7  C   UNL     1       0.938  30.288  33.929  1.00  0.00     0.038 C 
BRANCH   7   8
ATOM      8  C   UNL     1       0.130  29.046  34.202  1.00  0.00    -0.034 C 
ATOM      9  C   UNL     1       0.617  28.029  34.918  1.00  0.00     0.004 C 
ENDBRANCH   7   8
ENDBRANCH   1   7
TORSDOF 4
ENDMDL
MODEL 6
REMARK VINA RESULT:    -4.696      2.611      4.032
REMARK INTER + INTRA:          -6.067
REMARK INTER:                  -5.707
REMARK INTRA:                  -0.360
REMARK UNBOUND:                -0.272
REMARK SMILES C=CC[C@H](C)C(=O)CC
REMARK SMILES IDX 4 1 5 2 6 3 7 4 8 5 9 6 3 7 2 8 1 9
REMARK H PARENT
REMARK Flexibility Score: inf
ROOT
ATOM      1  C   UNL     1       0.614  28.682  31.618  1.00  0.00     0.057 C 
ATOM      2  C   UNL     1       0.228  28.109  30.247  1.00  0.00     0.016 C 
ENDROOT
BRANCH   1   3
ATOM      3  C   UNL     1      -0.288  28.122  32.700  1.00  0.00     0.135 C 
ATOM      4  O   UNL     1      -1.129  27.288  32.398  1.00  0.00    -0.299 OA
BRANCH   3   5
ATOM      5  C   UNL     1      -0.195  28.580  34.135  1.00  0.00     0.072 C 
ATOM      6  C   UNL     1       1.036  27.991  34.817  1.00  0.00     0.012 C 
ENDBRANCH   3   5
ENDBRANCH   1   3
BRANCH   1   7
ATOM      7  C   UNL     1       0.591  30.223  31.631  1.00  0.00     0.038 C 
BRANCH   7   8
ATOM      8  C   UNL     1       1.921  30.793  32.050  1.00  0.00    -0.034 C 
ATOM      9  C   UNL     1       2.180  31.127  33.317  1.00  0.00     0.004 C 
ENDBRANCH   7   8
ENDBRANCH   1   7
TORSDOF 4
ENDMDL
MODEL 7
REMARK VINA RESULT:    -4.453      2.041      3.113
REMARK INTER + INTRA:          -5.767
REMARK INTER:                  -5.372
REMARK INTRA:                  -0.395
REMARK UNBOUND:                -0.272
REMARK SMILES C=CC[C@H](C)C(=O)CC
REMARK SMILES IDX 4 1 5 2 6 3 7 4 8 5 9 6 3 7 2 8 1 9
REMARK H PARENT
REMARK Flexibility Score: inf
ROOT
ATOM      1  C   UNL     1       2.062  29.789  31.929  1.00  0.00     0.057 C 
ATOM      2  C   UNL     1       2.328  30.986  31.004  1.00  0.00     0.016 C 
ENDROOT
BRANCH   1   3
ATOM      3  C   UNL     1       1.163  28.779  31.245  1.00  0.00     0.135 C 
ATOM      4  O   UNL     1       1.657  27.757  30.790  1.00  0.00    -0.299 OA
BRANCH   3   5
ATOM      5  C   UNL     1      -0.321  29.007  31.085  1.00  0.00     0.072 C 
ATOM      6  C   UNL     1      -1.110  27.766  31.491  1.00  0.00     0.012 C 
ENDBRANCH   3   5
ENDBRANCH   1   3
BRANCH   1   7
ATOM      7  C   UNL     1       1.465  30.223  33.282  1.00  0.00     0.038 C 
BRANCH   7   8
ATOM      8  C   UNL     1       1.567  29.126  34.309  1.00  0.00    -0.034 C 
ATOM      9  C   UNL     1       0.493  28.460  34.742  1.00  0.00     0.004 C 
ENDBRANCH   7   8
ENDBRANCH   1   7
TORSDOF 4
ENDMDL
MODEL 8
REMARK VINA RESULT:    -4.412      1.901      3.092
REMARK INTER + INTRA:          -5.716
REMARK INTER:                  -5.356
REMARK INTRA:                  -0.360
REMARK UNBOUND:                -0.272
REMARK SMILES C=CC[C@H](C)C(=O)CC
REMARK SMILES IDX 4 1 5 2 6 3 7 4 8 5 9 6 3 7 2 8 1 9
REMARK H PARENT
REMARK Flexibility Score: inf
ROOT
ATOM      1  C   UNL     1       1.568  29.928  32.669  1.00  0.00     0.057 C 
ATOM      2  C   UNL     1       2.104  31.196  33.350  1.00  0.00     0.016 C 
ENDROOT
BRANCH   1   3
ATOM      3  C   UNL     1       2.009  28.692  33.428  1.00  0.00     0.135 C 
ATOM      4  O   UNL     1       2.970  28.056  33.019  1.00  0.00    -0.299 OA
BRANCH   3   5
ATOM      5  C   UNL     1       1.284  28.208  34.660  1.00  0.00     0.072 C 
ATOM      6  C   UNL     1      -0.168  28.676  34.656  1.00  0.00     0.012 C 
ENDBRANCH   3   5
ENDBRANCH   1   3
BRANCH   1   7
ATOM      7  C   UNL     1       1.993  29.841  31.190  1.00  0.00     0.038 C 
BRANCH   7   8
ATOM      8  C   UNL     1       0.798  29.788  30.275  1.00  0.00    -0.034 C 
ATOM      9  C   UNL     1      -0.310  29.114  30.596  1.00  0.00     0.004 C 
ENDBRANCH   7   8
ENDBRANCH   1   7
TORSDOF 4
ENDMDL
MODEL 9
REMARK VINA RESULT:    -4.406      2.162      2.461
REMARK INTER + INTRA:          -5.708
REMARK INTER:                  -5.406
REMARK INTRA:                  -0.302
REMARK UNBOUND:                -0.272
REMARK SMILES C=CC[C@H](C)C(=O)CC
REMARK SMILES IDX 4 1 5 2 6 3 7 4 8 5 9 6 3 7 2 8 1 9
REMARK H PARENT
REMARK Flexibility Score: inf
ROOT
ATOM      1  C   UNL     1       1.053  29.821  33.503  1.00  0.00     0.057 C 
ATOM      2  C   UNL     1       1.856  31.113  33.295  1.00  0.00     0.016 C 
ENDROOT
BRANCH   1   3
ATOM      3  C   UNL     1       1.983  28.654  33.768  1.00  0.00     0.135 C 
ATOM      4  O   UNL     1       1.519  27.615  34.217  1.00  0.00    -0.299 OA
BRANCH   3   5
ATOM      5  C   UNL     1       3.469  28.743  33.517  1.00  0.00     0.072 C 
ATOM      6  C   UNL     1       3.995  27.451  32.901  1.00  0.00     0.012 C 
ENDBRANCH   3   5
ENDBRANCH   1   3
BRANCH   1   7
ATOM      7  C   UNL     1       0.122  29.518  32.312  1.00  0.00     0.038 C 
BRANCH   7   8
ATOM      8  C   UNL     1       0.752  29.916  31.003  1.00  0.00    -0.034 C 
ATOM      9  C   UNL     1       0.024  30.338  29.966  1.00  0.00     0.004 C 
ENDBRANCH   7   8
ENDBRANCH   1   7
TORSDOF 4
ENDMDL
