MODEL 1
REMARK VINA RESULT:    -2.442      0.000      0.000
REMARK INTER + INTRA:          -4.296
REMARK INTER:                  -3.727
REMARK INTRA:                  -0.569
REMARK UNBOUND:                -0.569
REMARK SMILES O=C([O-])CCCCCCCCC(=O)[O-]
REMARK SMILES IDX 7 1 6 2 5 3 4 4 2 5 1 6 3 7 8 8 9 9 10 10 11 11 12 12 13 13
REMARK SMILES IDX 14 14
REMARK H PARENT
REMARK Flexibility Score: inf
ROOT
ATOM      1  C   UNL     1     -13.067  -8.031 -11.093  1.00  0.00     0.000 C 
ENDROOT
BRANCH   1   2
ATOM      2  C   UNL     1     -14.187  -8.248 -12.123  1.00  0.00     0.000 C 
BRANCH   2   3
ATOM      3  C   UNL     1     -15.187  -7.083 -12.103  1.00  0.00     0.006 C 
BRANCH   3   4
ATOM      4  C   UNL     1     -14.561  -5.789 -11.565  1.00  0.00     0.053 C 
BRANCH   4   5
ATOM      5  C   UNL     1     -15.547  -4.662 -11.537  1.00  0.00     0.041 C 
ATOM      6  O   UNL     1     -16.782  -4.902 -11.530  1.00  0.00    -0.550 OA
ATOM      7  O   UNL     1     -15.100  -3.348 -11.482  1.00  0.00    -0.550 OA
ENDBRANCH   4   5
ENDBRANCH   3   4
ENDBRANCH   2   3
ENDBRANCH   1   2
BRANCH   1   8
ATOM      8  C   UNL     1     -12.376  -9.352 -10.695  1.00  0.00     0.000 C 
BRANCH   8   9
ATOM      9  C   UNL     1     -12.931 -10.585 -11.429  1.00  0.00     0.000 C 
BRANCH   9  10
ATOM     10  C   UNL     1     -13.874 -11.426 -10.558  1.00  0.00     0.006 C 
BRANCH  10  11
ATOM     11  C   UNL     1     -15.146 -11.795 -11.323  1.00  0.00     0.053 C 
BRANCH  11  12
ATOM     12  C   UNL     1     -16.358 -11.319 -10.586  1.00  0.00     0.041 C 
ATOM     13  O   UNL     1     -16.921 -12.065  -9.742  1.00  0.00    -0.550 OA
ATOM     14  O   UNL     1     -16.897 -10.070 -10.868  1.00  0.00    -0.550 OA
ENDBRANCH  11  12
ENDBRANCH  10  11
ENDBRANCH   9  10
ENDBRANCH   8   9
ENDBRANCH   1   8
TORSDOF 9
ENDMDL
MODEL 2
REMARK VINA RESULT:    -2.406     18.191     20.814
REMARK INTER + INTRA:          -4.241
REMARK INTER:                  -3.980
REMARK INTRA:                  -0.261
REMARK UNBOUND:                -0.569
REMARK SMILES O=C([O-])CCCCCCCCC(=O)[O-]
REMARK SMILES IDX 7 1 6 2 5 3 4 4 2 5 1 6 3 7 8 8 9 9 10 10 11 11 12 12 13 13
REMARK SMILES IDX 14 14
REMARK H PARENT
REMARK Flexibility Score: inf
ROOT
ATOM      1  C   UNL     1     -20.312   4.458   2.340  1.00  0.00     0.000 C 
ENDROOT
BRANCH   1   2
ATOM      2  C   UNL     1     -20.958   3.088   2.078  1.00  0.00     0.000 C 
BRANCH   2   3
ATOM      3  C   UNL     1     -20.962   2.760   0.578  1.00  0.00     0.006 C 
BRANCH   3   4
ATOM      4  C   UNL     1     -20.690   3.997  -0.289  1.00  0.00     0.053 C 
BRANCH   4   5
ATOM      5  C   UNL     1     -20.889   3.712  -1.746  1.00  0.00     0.041 C 
ATOM      6  O   UNL     1     -21.125   2.538  -2.134  1.00  0.00    -0.550 OA
ATOM      7  O   UNL     1     -20.849   4.749  -2.669  1.00  0.00    -0.550 OA
ENDBRANCH   4   5
ENDBRANCH   3   4
ENDBRANCH   2   3
ENDBRANCH   1   2
BRANCH   1   8
ATOM      8  C   UNL     1     -21.088   5.277   3.392  1.00  0.00     0.000 C 
BRANCH   8   9
ATOM      9  C   UNL     1     -20.543   5.122   4.822  1.00  0.00     0.000 C 
BRANCH   9  10
ATOM     10  C   UNL     1     -20.664   6.408   5.652  1.00  0.00     0.006 C 
BRANCH  10  11
ATOM     11  C   UNL     1     -19.308   6.815   6.233  1.00  0.00     0.053 C 
BRANCH  11  12
ATOM     12  C   UNL     1     -18.960   5.954   7.406  1.00  0.00     0.041 C 
ATOM     13  O   UNL     1     -17.755   5.768   7.721  1.00  0.00    -0.550 OA
ATOM     14  O   UNL     1     -19.964   5.315   8.121  1.00  0.00    -0.550 OA
ENDBRANCH  11  12
ENDBRANCH  10  11
ENDBRANCH   9  10
ENDBRANCH   8   9
ENDBRANCH   1   8
TORSDOF 9
ENDMDL
MODEL 3
REMARK VINA RESULT:    -2.399      3.818      6.514
REMARK INTER + INTRA:          -4.230
REMARK INTER:                  -3.863
REMARK INTRA:                  -0.367
REMARK UNBOUND:                -0.569
REMARK SMILES O=C([O-])CCCCCCCCC(=O)[O-]
REMARK SMILES IDX 7 1 6 2 5 3 4 4 2 5 1 6 3 7 8 8 9 9 10 10 11 11 12 12 13 13
REMARK SMILES IDX 14 14
REMARK H PARENT
REMARK Flexibility Score: inf
ROOT
ATOM      1  C   UNL     1     -17.451 -10.879  -9.604  1.00  0.00     0.000 C 
ENDROOT
BRANCH   1   2
ATOM      2  C   UNL     1     -18.268 -12.167  -9.416  1.00  0.00     0.000 C 
BRANCH   2   3
ATOM      3  C   UNL     1     -19.758 -11.851  -9.226  1.00  0.00     0.006 C 
BRANCH   3   4
ATOM      4  C   UNL     1     -20.267 -12.261  -7.837  1.00  0.00     0.053 C 
BRANCH   4   5
ATOM      5  C   UNL     1     -20.531 -11.072  -6.966  1.00  0.00     0.041 C 
ATOM      6  O   UNL     1     -20.245  -9.914  -7.371  1.00  0.00    -0.550 OA
ATOM      7  O   UNL     1     -21.125 -11.239  -5.721  1.00  0.00    -0.550 OA
ENDBRANCH   4   5
ENDBRANCH   3   4
ENDBRANCH   2   3
ENDBRANCH   1   2
BRANCH   1   8
ATOM      8  C   UNL     1     -16.336 -11.044 -10.658  1.00  0.00     0.000 C 
BRANCH   8   9
ATOM      9  C   UNL     1     -15.047 -11.669 -10.100  1.00  0.00     0.000 C 
BRANCH   9  10
ATOM     10  C   UNL     1     -13.834 -11.459 -11.017  1.00  0.00     0.006 C 
BRANCH  10  11
ATOM     11  C   UNL     1     -13.635  -9.975 -11.334  1.00  0.00     0.053 C 
BRANCH  11  12
ATOM     12  C   UNL     1     -12.367  -9.472 -10.719  1.00  0.00     0.041 C 
ATOM     13  O   UNL     1     -12.183  -9.568  -9.477  1.00  0.00    -0.550 OA
ATOM     14  O   UNL     1     -11.410  -8.850 -11.510  1.00  0.00    -0.550 OA
ENDBRANCH  11  12
ENDBRANCH  10  11
ENDBRANCH   9  10
ENDBRANCH   8   9
ENDBRANCH   1   8
TORSDOF 9
ENDMDL
MODEL 4
REMARK VINA RESULT:    -2.387      3.485      5.065
REMARK INTER + INTRA:          -4.212
REMARK INTER:                  -3.729
REMARK INTRA:                  -0.484
REMARK UNBOUND:                -0.569
REMARK SMILES O=C([O-])CCCCCCCCC(=O)[O-]
REMARK SMILES IDX 7 1 6 2 5 3 4 4 2 5 1 6 3 7 8 8 9 9 10 10 11 11 12 12 13 13
REMARK SMILES IDX 14 14
REMARK H PARENT
REMARK Flexibility Score: inf
ROOT
ATOM      1  C   UNL     1     -15.935 -11.248 -10.310  1.00  0.00     0.000 C 
ENDROOT
BRANCH   1   2
ATOM      2  C   UNL     1     -16.459 -10.151 -11.251  1.00  0.00     0.000 C 
BRANCH   2   3
ATOM      3  C   UNL     1     -15.313  -9.525 -12.059  1.00  0.00     0.006 C 
BRANCH   3   4
ATOM      4  C   UNL     1     -13.937 -10.027 -11.600  1.00  0.00     0.053 C 
BRANCH   4   5
ATOM      5  C   UNL     1     -12.980  -8.898 -11.370  1.00  0.00     0.041 C 
ATOM      6  O   UNL     1     -13.383  -7.706 -11.423  1.00  0.00    -0.550 OA
ATOM      7  O   UNL     1     -11.652  -9.163 -11.061  1.00  0.00    -0.550 OA
ENDBRANCH   4   5
ENDBRANCH   3   4
ENDBRANCH   2   3
ENDBRANCH   1   2
BRANCH   1   8
ATOM      8  C   UNL     1     -16.950 -12.397 -10.131  1.00  0.00     0.000 C 
BRANCH   8   9
ATOM      9  C   UNL     1     -18.407 -11.921 -10.006  1.00  0.00     0.000 C 
BRANCH   9  10
ATOM     10  C   UNL     1     -18.935 -11.981  -8.566  1.00  0.00     0.006 C 
BRANCH  10  11
ATOM     11  C   UNL     1     -19.023 -10.580  -7.954  1.00  0.00     0.053 C 
BRANCH  11  12
ATOM     12  C   UNL     1     -20.328 -10.399  -7.246  1.00  0.00     0.041 C 
ATOM     13  O   UNL     1     -20.899  -9.277  -7.247  1.00  0.00    -0.550 OA
ATOM     14  O   UNL     1     -20.888 -11.455  -6.540  1.00  0.00    -0.550 OA
ENDBRANCH  11  12
ENDBRANCH  10  11
ENDBRANCH   9  10
ENDBRANCH   8   9
ENDBRANCH   1   8
TORSDOF 9
ENDMDL
MODEL 5
REMARK VINA RESULT:    -2.334      3.327      6.224
REMARK INTER + INTRA:          -4.130
REMARK INTER:                  -3.706
REMARK INTRA:                  -0.424
REMARK UNBOUND:                -0.569
REMARK SMILES O=C([O-])CCCCCCCCC(=O)[O-]
REMARK SMILES IDX 7 1 6 2 5 3 4 4 2 5 1 6 3 7 8 8 9 9 10 10 11 11 12 12 13 13
REMARK SMILES IDX 14 14
REMARK H PARENT
REMARK Flexibility Score: inf
ROOT
ATOM      1  C   UNL     1     -15.832 -12.770  -9.884  1.00  0.00     0.000 C 
ENDROOT
BRANCH   1   2
ATOM      2  C   UNL     1     -17.344 -12.882  -9.633  1.00  0.00     0.000 C 
BRANCH   2   3
ATOM      3  C   UNL     1     -17.987 -11.492  -9.518  1.00  0.00     0.006 C 
BRANCH   3   4
ATOM      4  C   UNL     1     -19.473 -11.569  -9.143  1.00  0.00     0.053 C 
BRANCH   4   5
ATOM      5  C   UNL     1     -19.689 -11.374  -7.674  1.00  0.00     0.041 C 
ATOM      6  O   UNL     1     -20.117 -10.273  -7.238  1.00  0.00    -0.550 OA
ATOM      7  O   UNL     1     -19.450 -12.419  -6.790  1.00  0.00    -0.550 OA
ENDBRANCH   4   5
ENDBRANCH   3   4
ENDBRANCH   2   3
ENDBRANCH   1   2
BRANCH   1   8
ATOM      8  C   UNL     1     -15.406 -11.332 -10.247  1.00  0.00     0.000 C 
BRANCH   8   9
ATOM      9  C   UNL     1     -14.188 -11.266 -11.184  1.00  0.00     0.000 C 
BRANCH   9  10
ATOM     10  C   UNL     1     -12.851 -11.320 -10.432  1.00  0.00     0.006 C 
BRANCH  10  11
ATOM     11  C   UNL     1     -12.443  -9.931  -9.936  1.00  0.00     0.053 C 
BRANCH  11  12
ATOM     12  C   UNL     1     -12.201  -9.011 -11.092  1.00  0.00     0.041 C 
ATOM     13  O   UNL     1     -11.166  -9.139 -11.797  1.00  0.00    -0.550 OA
ATOM     14  O   UNL     1     -13.093  -7.981 -11.358  1.00  0.00    -0.550 OA
ENDBRANCH  11  12
ENDBRANCH  10  11
ENDBRANCH   9  10
ENDBRANCH   8   9
ENDBRANCH   1   8
TORSDOF 9
ENDMDL
MODEL 6
REMARK VINA RESULT:    -1.857      1.661      5.419
REMARK INTER + INTRA:          -3.403
REMARK INTER:                  -2.736
REMARK INTRA:                  -0.667
REMARK UNBOUND:                -0.569
REMARK SMILES O=C([O-])CCCCCCCCC(=O)[O-]
REMARK SMILES IDX 7 1 6 2 5 3 4 4 2 5 1 6 3 7 8 8 9 9 10 10 11 11 12 12 13 13
REMARK SMILES IDX 14 14
REMARK H PARENT
REMARK Flexibility Score: inf
ROOT
ATOM      1  C   UNL     1     -13.148 -12.360 -10.573  1.00  0.00     0.000 C 
ENDROOT
BRANCH   1   2
ATOM      2  C   UNL     1     -14.643 -12.712 -10.628  1.00  0.00     0.000 C 
BRANCH   2   3
ATOM      3  C   UNL     1     -15.483 -11.666  -9.882  1.00  0.00     0.006 C 
BRANCH   3   4
ATOM      4  C   UNL     1     -16.522 -10.998 -10.793  1.00  0.00     0.053 C 
BRANCH   4   5
ATOM      5  C   UNL     1     -17.901 -11.532 -10.551  1.00  0.00     0.041 C 
ATOM      6  O   UNL     1     -18.758 -11.513 -11.473  1.00  0.00    -0.550 OA
ATOM      7  O   UNL     1     -18.227 -12.083  -9.318  1.00  0.00    -0.550 OA
ENDBRANCH   4   5
ENDBRANCH   3   4
ENDBRANCH   2   3
ENDBRANCH   1   2
BRANCH   1   8
ATOM      8  C   UNL     1     -12.652 -11.711 -11.882  1.00  0.00     0.000 C 
BRANCH   8   9
ATOM      9  C   UNL     1     -12.316 -10.217 -11.742  1.00  0.00     0.000 C 
BRANCH   9  10
ATOM     10  C   UNL     1     -13.537  -9.307 -11.941  1.00  0.00     0.006 C 
BRANCH  10  11
ATOM     11  C   UNL     1     -13.270  -7.903 -11.394  1.00  0.00     0.053 C 
BRANCH  11  12
ATOM     12  C   UNL     1     -14.351  -6.960 -11.822  1.00  0.00     0.041 C 
ATOM     13  O   UNL     1     -14.130  -5.721 -11.863  1.00  0.00    -0.550 OA
ATOM     14  O   UNL     1     -15.616  -7.445 -12.125  1.00  0.00    -0.550 OA
ENDBRANCH  11  12
ENDBRANCH  10  11
ENDBRANCH   9  10
ENDBRANCH   8   9
ENDBRANCH   1   8
TORSDOF 9
ENDMDL
