MODEL 1
REMARK VINA RESULT:    -4.307      0.000      0.000
REMARK INTER + INTRA:          -4.684
REMARK INTER:                  -4.684
REMARK INTRA:                   0.000
REMARK UNBOUND:                 0.000
REMARK SMILES Cc1cc(O)c2c(c1)C(=O)c1cc(O)cc(O)c1C2=O
REMARK SMILES IDX 1 1 2 2 8 3 7 4 6 5 4 6 3 7 19 8 20 9 18 10 11 11 9 12 10 13
REMARK SMILES IDX 12 14 13 15 15 16 16 17 5 18 17 20 14 22
REMARK H PARENT 5 19 17 21 14 23
REMARK Flexibility Score: inf
ROOT
ATOM      1  C   UNL     1      67.125  46.325  17.395  1.00  0.00     0.044 C 
ATOM      2  C   UNL     1      66.623  46.607  16.010  1.00  0.00    -0.047 A 
ATOM      3  C   UNL     1      65.808  47.719  15.768  1.00  0.00     0.016 A 
ATOM      4  C   UNL     1      65.310  47.975  14.480  1.00  0.00     0.038 A 
ATOM      5  C   UNL     1      65.632  47.104  13.416  1.00  0.00     0.076 A 
ATOM      6  C   UNL     1      66.388  45.934  13.684  1.00  0.00     0.127 A 
ATOM      7  C   UNL     1      66.890  45.711  14.969  1.00  0.00     0.050 A 
ATOM      8  C   UNL     1      65.212  47.486  12.043  1.00  0.00     0.201 C 
ATOM      9  O   UNL     1      65.901  47.125  11.052  1.00  0.00    -0.288 OA
ATOM     10  C   UNL     1      64.094  48.448  11.854  1.00  0.00     0.076 A 
ATOM     11  C   UNL     1      63.773  49.316  12.922  1.00  0.00     0.041 A 
ATOM     12  C   UNL     1      64.442  49.151  14.235  1.00  0.00     0.194 C 
ATOM     13  O   UNL     1      64.252  49.998  15.150  1.00  0.00    -0.289 OA
ATOM     14  C   UNL     1      62.817  50.329  12.736  1.00  0.00     0.059 A 
ATOM     15  C   UNL     1      62.169  50.477  11.510  1.00  0.00     0.120 A 
ATOM     16  C   UNL     1      62.453  49.596  10.464  1.00  0.00     0.093 A 
ATOM     17  C   UNL     1      63.386  48.567  10.630  1.00  0.00     0.131 A 
ENDROOT
BRANCH   6  18
ATOM     18  O   UNL     1      66.631  44.954  12.718  1.00  0.00    -0.507 OA
ATOM     19  H   UNL     1      65.991  44.741  11.966  1.00  0.00     0.293 HD
ENDBRANCH   6  18
BRANCH  17  20
ATOM     20  O   UNL     1      63.551  47.671   9.571  1.00  0.00    -0.507 OA
ATOM     21  H   UNL     1      63.494  47.940   8.598  1.00  0.00     0.293 HD
ENDBRANCH  17  20
BRANCH  15  22
ATOM     22  O   UNL     1      61.235  51.496  11.346  1.00  0.00    -0.508 OA
ATOM     23  H   UNL     1      60.837  51.984  12.141  1.00  0.00     0.293 HD
ENDBRANCH  15  22
TORSDOF 3
ENDMDL
MODEL 2
REMARK VINA RESULT:    -4.271      1.337      3.466
REMARK INTER + INTRA:          -4.645
REMARK INTER:                  -4.645
REMARK INTRA:                   0.000
REMARK UNBOUND:                 0.000
REMARK SMILES Cc1cc(O)c2c(c1)C(=O)c1cc(O)cc(O)c1C2=O
REMARK SMILES IDX 1 1 2 2 8 3 7 4 6 5 4 6 3 7 19 8 20 9 18 10 11 11 9 12 10 13
REMARK SMILES IDX 12 14 13 15 15 16 16 17 5 18 17 20 14 22
REMARK H PARENT 5 19 17 21 14 23
REMARK Flexibility Score: inf
ROOT
ATOM      1  C   UNL     1      67.120  45.710  15.111  1.00  0.00     0.044 C 
ATOM      2  C   UNL     1      66.182  46.744  14.564  1.00  0.00    -0.047 A 
ATOM      3  C   UNL     1      65.636  46.593  13.284  1.00  0.00     0.016 A 
ATOM      4  C   UNL     1      64.778  47.570  12.751  1.00  0.00     0.038 A 
ATOM      5  C   UNL     1      64.462  48.718  13.511  1.00  0.00     0.076 A 
ATOM      6  C   UNL     1      65.084  48.906  14.772  1.00  0.00     0.127 A 
ATOM      7  C   UNL     1      65.917  47.911  15.290  1.00  0.00     0.050 A 
ATOM      8  C   UNL     1      63.438  49.654  12.978  1.00  0.00     0.201 C 
ATOM      9  O   UNL     1      62.719  50.315  13.772  1.00  0.00    -0.288 OA
ATOM     10  C   UNL     1      63.137  49.667  11.523  1.00  0.00     0.076 A 
ATOM     11  C   UNL     1      63.458  48.517  10.764  1.00  0.00     0.041 A 
ATOM     12  C   UNL     1      64.212  47.405  11.391  1.00  0.00     0.194 C 
ATOM     13  O   UNL     1      64.390  46.329  10.758  1.00  0.00    -0.289 OA
ATOM     14  C   UNL     1      63.066  48.436   9.417  1.00  0.00     0.059 A 
ATOM     15  C   UNL     1      62.375  49.488   8.816  1.00  0.00     0.120 A 
ATOM     16  C   UNL     1      62.091  50.642   9.549  1.00  0.00     0.093 A 
ATOM     17  C   UNL     1      62.488  50.756  10.885  1.00  0.00     0.131 A 
ENDROOT
BRANCH   6  18
ATOM     18  O   UNL     1      64.932  50.074  15.522  1.00  0.00    -0.507 OA
ATOM     19  H   UNL     1      64.347  50.847  15.239  1.00  0.00     0.293 HD
ENDBRANCH   6  18
BRANCH  17  20
ATOM     20  O   UNL     1      62.250  51.974  11.526  1.00  0.00    -0.507 OA
ATOM     21  H   UNL     1      62.328  52.103  12.526  1.00  0.00     0.293 HD
ENDBRANCH  17  20
BRANCH  15  22
ATOM     22  O   UNL     1      61.985  49.379   7.483  1.00  0.00    -0.508 OA
ATOM     23  H   UNL     1      61.183  49.884   7.122  1.00  0.00     0.293 HD
ENDBRANCH  15  22
TORSDOF 3
ENDMDL
MODEL 3
REMARK VINA RESULT:    -4.229      2.911      5.404
REMARK INTER + INTRA:          -4.599
REMARK INTER:                  -4.599
REMARK INTRA:                   0.000
REMARK UNBOUND:                 0.000
REMARK SMILES Cc1cc(O)c2c(c1)C(=O)c1cc(O)cc(O)c1C2=O
REMARK SMILES IDX 1 1 2 2 8 3 7 4 6 5 4 6 3 7 19 8 20 9 18 10 11 11 9 12 10 13
REMARK SMILES IDX 12 14 13 15 15 16 16 17 5 18 17 20 14 22
REMARK H PARENT 5 19 17 21 14 23
REMARK Flexibility Score: inf
ROOT
ATOM      1  C   UNL     1      58.562  48.286  16.552  1.00  0.00     0.044 C 
ATOM      2  C   UNL     1      60.021  48.506  16.288  1.00  0.00    -0.047 A 
ATOM      3  C   UNL     1      60.554  48.254  15.020  1.00  0.00     0.016 A 
ATOM      4  C   UNL     1      61.925  48.431  14.770  1.00  0.00     0.038 A 
ATOM      5  C   UNL     1      62.778  48.867  15.808  1.00  0.00     0.076 A 
ATOM      6  C   UNL     1      62.248  49.041  17.112  1.00  0.00     0.127 A 
ATOM      7  C   UNL     1      60.877  48.879  17.332  1.00  0.00     0.050 A 
ATOM      8  C   UNL     1      64.190  49.185  15.471  1.00  0.00     0.201 C 
ATOM      9  O   UNL     1      64.808  50.067  16.126  1.00  0.00    -0.288 OA
ATOM     10  C   UNL     1      64.806  48.604  14.250  1.00  0.00     0.076 A 
ATOM     11  C   UNL     1      63.950  48.165  13.214  1.00  0.00     0.041 A 
ATOM     12  C   UNL     1      62.482  48.153  13.425  1.00  0.00     0.194 C 
ATOM     13  O   UNL     1      61.710  47.883  12.464  1.00  0.00    -0.289 OA
ATOM     14  C   UNL     1      64.494  47.737  11.992  1.00  0.00     0.059 A 
ATOM     15  C   UNL     1      65.874  47.727  11.795  1.00  0.00     0.120 A 
ATOM     16  C   UNL     1      66.727  48.121  12.829  1.00  0.00     0.093 A 
ATOM     17  C   UNL     1      66.211  48.532  14.062  1.00  0.00     0.131 A 
ENDROOT
BRANCH   6  18
ATOM     18  O   UNL     1      63.047  49.336  18.219  1.00  0.00    -0.507 OA
ATOM     19  H   UNL     1      62.771  49.972  18.954  1.00  0.00     0.293 HD
ENDBRANCH   6  18
BRANCH  17  20
ATOM     20  O   UNL     1      67.125  48.824  15.077  1.00  0.00    -0.507 OA
ATOM     21  H   UNL     1      68.023  49.258  14.912  1.00  0.00     0.293 HD
ENDBRANCH  17  20
BRANCH  15  22
ATOM     22  O   UNL     1      66.390  47.310  10.569  1.00  0.00    -0.508 OA
ATOM     23  H   UNL     1      67.328  46.935  10.489  1.00  0.00     0.293 HD
ENDBRANCH  15  22
TORSDOF 3
ENDMDL
MODEL 4
REMARK VINA RESULT:    -4.160      4.142      6.357
REMARK INTER + INTRA:          -4.524
REMARK INTER:                  -4.524
REMARK INTRA:                   0.000
REMARK UNBOUND:                 0.000
REMARK SMILES Cc1cc(O)c2c(c1)C(=O)c1cc(O)cc(O)c1C2=O
REMARK SMILES IDX 1 1 2 2 8 3 7 4 6 5 4 6 3 7 19 8 20 9 18 10 11 11 9 12 10 13
REMARK SMILES IDX 12 14 13 15 15 16 16 17 5 18 17 20 14 22
REMARK H PARENT 5 19 17 21 14 23
REMARK Flexibility Score: inf
ROOT
ATOM      1  C   UNL     1      64.131  47.945  11.689  1.00  0.00     0.044 C 
ATOM      2  C   UNL     1      63.989  48.300  13.139  1.00  0.00    -0.047 A 
ATOM      3  C   UNL     1      62.749  48.180  13.776  1.00  0.00     0.016 A 
ATOM      4  C   UNL     1      62.599  48.536  15.127  1.00  0.00     0.038 A 
ATOM      5  C   UNL     1      63.709  49.022  15.852  1.00  0.00     0.076 A 
ATOM      6  C   UNL     1      64.943  49.220  15.179  1.00  0.00     0.127 A 
ATOM      7  C   UNL     1      65.073  48.839  13.841  1.00  0.00     0.050 A 
ATOM      8  C   UNL     1      63.551  49.247  17.312  1.00  0.00     0.201 C 
ATOM      9  O   UNL     1      64.541  49.113  18.079  1.00  0.00    -0.288 OA
ATOM     10  C   UNL     1      62.194  49.443  17.886  1.00  0.00     0.076 A 
ATOM     11  C   UNL     1      61.084  48.959  17.155  1.00  0.00     0.041 A 
ATOM     12  C   UNL     1      61.280  48.414  15.790  1.00  0.00     0.194 C 
ATOM     13  O   UNL     1      60.317  47.867  15.186  1.00  0.00    -0.289 OA
ATOM     14  C   UNL     1      59.800  49.002  17.724  1.00  0.00     0.059 A 
ATOM     15  C   UNL     1      59.607  49.532  18.999  1.00  0.00     0.120 A 
ATOM     16  C   UNL     1      60.693  50.049  19.709  1.00  0.00     0.093 A 
ATOM     17  C   UNL     1      61.979  50.037  19.156  1.00  0.00     0.131 A 
ENDROOT
BRANCH   6  18
ATOM     18  O   UNL     1      66.046  49.823  15.788  1.00  0.00    -0.507 OA
ATOM     19  H   UNL     1      66.097  50.809  16.001  1.00  0.00     0.293 HD
ENDBRANCH   6  18
BRANCH  17  20
ATOM     20  O   UNL     1      62.998  50.652  19.885  1.00  0.00    -0.507 OA
ATOM     21  H   UNL     1      62.830  51.309  20.636  1.00  0.00     0.293 HD
ENDBRANCH  17  20
BRANCH  15  22
ATOM     22  O   UNL     1      58.327  49.552  19.547  1.00  0.00    -0.508 OA
ATOM     23  H   UNL     1      57.504  49.378  18.980  1.00  0.00     0.293 HD
ENDBRANCH  15  22
TORSDOF 3
ENDMDL
MODEL 5
REMARK VINA RESULT:    -4.009      1.933      5.636
REMARK INTER + INTRA:          -4.360
REMARK INTER:                  -4.360
REMARK INTRA:                   0.000
REMARK UNBOUND:                 0.000
REMARK SMILES Cc1cc(O)c2c(c1)C(=O)c1cc(O)cc(O)c1C2=O
REMARK SMILES IDX 1 1 2 2 8 3 7 4 6 5 4 6 3 7 19 8 20 9 18 10 11 11 9 12 10 13
REMARK SMILES IDX 12 14 13 15 15 16 16 17 5 18 17 20 14 22
REMARK H PARENT 5 19 17 21 14 23
REMARK Flexibility Score: inf
ROOT
ATOM      1  C   UNL     1      58.845  50.763  12.518  1.00  0.00     0.044 C 
ATOM      2  C   UNL     1      60.222  50.188  12.376  1.00  0.00    -0.047 A 
ATOM      3  C   UNL     1      60.888  49.668  13.492  1.00  0.00     0.016 A 
ATOM      4  C   UNL     1      62.189  49.153  13.375  1.00  0.00     0.038 A 
ATOM      5  C   UNL     1      62.837  49.159  12.120  1.00  0.00     0.076 A 
ATOM      6  C   UNL     1      62.192  49.763  11.011  1.00  0.00     0.127 A 
ATOM      7  C   UNL     1      60.888  50.250  11.147  1.00  0.00     0.050 A 
ATOM      8  C   UNL     1      64.150  48.473  12.003  1.00  0.00     0.201 C 
ATOM      9  O   UNL     1      64.490  47.951  10.909  1.00  0.00    -0.288 OA
ATOM     10  C   UNL     1      64.972  48.241  13.220  1.00  0.00     0.076 A 
ATOM     11  C   UNL     1      64.321  48.238  14.475  1.00  0.00     0.041 A 
ATOM     12  C   UNL     1      62.889  48.611  14.564  1.00  0.00     0.194 C 
ATOM     13  O   UNL     1      62.273  48.490  15.659  1.00  0.00    -0.289 OA
ATOM     14  C   UNL     1      65.035  47.888  15.632  1.00  0.00     0.059 A 
ATOM     15  C   UNL     1      66.388  47.556  15.558  1.00  0.00     0.120 A 
ATOM     16  C   UNL     1      67.046  47.596  14.327  1.00  0.00     0.093 A 
ATOM     17  C   UNL     1      66.362  47.962  13.162  1.00  0.00     0.131 A 
ENDROOT
BRANCH   6  18
ATOM     18  O   UNL     1      62.817  49.933   9.773  1.00  0.00    -0.507 OA
ATOM     19  H   UNL     1      62.753  50.779   9.226  1.00  0.00     0.293 HD
ENDBRANCH   6  18
BRANCH  17  20
ATOM     20  O   UNL     1      67.106  48.067  11.985  1.00  0.00    -0.507 OA
ATOM     21  H   UNL     1      67.178  48.919  11.444  1.00  0.00     0.293 HD
ENDBRANCH  17  20
BRANCH  15  22
ATOM     22  O   UNL     1      67.072  47.200  16.718  1.00  0.00    -0.508 OA
ATOM     23  H   UNL     1      67.768  47.810  17.131  1.00  0.00     0.293 HD
ENDBRANCH  15  22
TORSDOF 3
ENDMDL
MODEL 6
REMARK VINA RESULT:    -3.995      2.186      6.353
REMARK INTER + INTRA:          -4.346
REMARK INTER:                  -4.346
REMARK INTRA:                   0.000
REMARK UNBOUND:                 0.000
REMARK SMILES Cc1cc(O)c2c(c1)C(=O)c1cc(O)cc(O)c1C2=O
REMARK SMILES IDX 1 1 2 2 8 3 7 4 6 5 4 6 3 7 19 8 20 9 18 10 11 11 9 12 10 13
REMARK SMILES IDX 12 14 13 15 15 16 16 17 5 18 17 20 14 22
REMARK H PARENT 5 19 17 21 14 23
REMARK Flexibility Score: inf
ROOT
ATOM      1  C   UNL     1      65.015  46.985  10.161  1.00  0.00     0.044 C 
ATOM      2  C   UNL     1      64.934  47.521  11.559  1.00  0.00    -0.047 A 
ATOM      3  C   UNL     1      65.587  46.862  12.607  1.00  0.00     0.016 A 
ATOM      4  C   UNL     1      65.494  47.341  13.924  1.00  0.00     0.038 A 
ATOM      5  C   UNL     1      64.733  48.498  14.199  1.00  0.00     0.076 A 
ATOM      6  C   UNL     1      64.005  49.113  13.148  1.00  0.00     0.127 A 
ATOM      7  C   UNL     1      64.130  48.631  11.842  1.00  0.00     0.050 A 
ATOM      8  C   UNL     1      64.778  49.059  15.574  1.00  0.00     0.201 C 
ATOM      9  O   UNL     1      64.636  50.299  15.751  1.00  0.00    -0.288 OA
ATOM     10  C   UNL     1      65.176  48.191  16.712  1.00  0.00     0.076 A 
ATOM     11  C   UNL     1      65.935  47.031  16.434  1.00  0.00     0.041 A 
ATOM     12  C   UNL     1      66.183  46.631  15.028  1.00  0.00     0.194 C 
ATOM     13  O   UNL     1      66.962  45.672  14.773  1.00  0.00    -0.289 OA
ATOM     14  C   UNL     1      66.446  46.259  17.490  1.00  0.00     0.059 A 
ATOM     15  C   UNL     1      66.198  46.619  18.815  1.00  0.00     0.120 A 
ATOM     16  C   UNL     1      65.415  47.741  19.096  1.00  0.00     0.093 A 
ATOM     17  C   UNL     1      64.878  48.514  18.062  1.00  0.00     0.131 A 
ENDROOT
BRANCH   6  18
ATOM     18  O   UNL     1      63.123  50.176  13.361  1.00  0.00    -0.507 OA
ATOM     19  H   UNL     1      62.406  50.447  12.704  1.00  0.00     0.293 HD
ENDBRANCH   6  18
BRANCH  17  20
ATOM     20  O   UNL     1      64.031  49.566  18.418  1.00  0.00    -0.507 OA
ATOM     21  H   UNL     1      63.737  50.289  17.774  1.00  0.00     0.293 HD
ENDBRANCH  17  20
BRANCH  15  22
ATOM     22  O   UNL     1      66.727  45.845  19.847  1.00  0.00    -0.508 OA
ATOM     23  H   UNL     1      66.226  45.046  20.219  1.00  0.00     0.293 HD
ENDBRANCH  15  22
TORSDOF 3
ENDMDL
MODEL 7
REMARK VINA RESULT:    -3.989      3.005      6.583
REMARK INTER + INTRA:          -4.339
REMARK INTER:                  -4.339
REMARK INTRA:                   0.000
REMARK UNBOUND:                 0.000
REMARK SMILES Cc1cc(O)c2c(c1)C(=O)c1cc(O)cc(O)c1C2=O
REMARK SMILES IDX 1 1 2 2 8 3 7 4 6 5 4 6 3 7 19 8 20 9 18 10 11 11 9 12 10 13
REMARK SMILES IDX 12 14 13 15 15 16 16 17 5 18 17 20 14 22
REMARK H PARENT 5 19 17 21 14 23
REMARK Flexibility Score: inf
ROOT
ATOM      1  C   UNL     1      57.915  50.213  11.650  1.00  0.00     0.044 C 
ATOM      2  C   UNL     1      59.281  50.055  12.247  1.00  0.00    -0.047 A 
ATOM      3  C   UNL     1      59.445  49.381  13.463  1.00  0.00     0.016 A 
ATOM      4  C   UNL     1      60.717  49.252  14.045  1.00  0.00     0.038 A 
ATOM      5  C   UNL     1      61.845  49.807  13.400  1.00  0.00     0.076 A 
ATOM      6  C   UNL     1      61.661  50.560  12.212  1.00  0.00     0.127 A 
ATOM      7  C   UNL     1      60.389  50.658  11.641  1.00  0.00     0.050 A 
ATOM      8  C   UNL     1      63.189  49.523  13.966  1.00  0.00     0.201 C 
ATOM      9  O   UNL     1      64.192  49.469  13.206  1.00  0.00    -0.288 OA
ATOM     10  C   UNL     1      63.319  49.119  15.390  1.00  0.00     0.076 A 
ATOM     11  C   UNL     1      62.188  48.567  16.034  1.00  0.00     0.041 A 
ATOM     12  C   UNL     1      60.880  48.544  15.337  1.00  0.00     0.194 C 
ATOM     13  O   UNL     1      59.900  47.941  15.854  1.00  0.00    -0.289 OA
ATOM     14  C   UNL     1      62.307  48.048  17.334  1.00  0.00     0.059 A 
ATOM     15  C   UNL     1      63.530  48.086  18.003  1.00  0.00     0.120 A 
ATOM     16  C   UNL     1      64.641  48.667  17.388  1.00  0.00     0.093 A 
ATOM     17  C   UNL     1      64.543  49.209  16.102  1.00  0.00     0.131 A 
ENDROOT
BRANCH   6  18
ATOM     18  O   UNL     1      62.702  51.255  11.590  1.00  0.00    -0.507 OA
ATOM     19  H   UNL     1      63.183  52.035  12.013  1.00  0.00     0.293 HD
ENDBRANCH   6  18
BRANCH  17  20
ATOM     20  O   UNL     1      65.671  49.854  15.588  1.00  0.00    -0.507 OA
ATOM     21  H   UNL     1      65.816  50.024  14.602  1.00  0.00     0.293 HD
ENDBRANCH  17  20
BRANCH  15  22
ATOM     22  O   UNL     1      63.626  47.553  19.287  1.00  0.00    -0.508 OA
ATOM     23  H   UNL     1      64.258  46.789  19.497  1.00  0.00     0.293 HD
ENDBRANCH  15  22
TORSDOF 3
ENDMDL
MODEL 8
REMARK VINA RESULT:    -3.917      3.420      4.670
REMARK INTER + INTRA:          -4.260
REMARK INTER:                  -4.260
REMARK INTRA:                   0.000
REMARK UNBOUND:                 0.000
REMARK SMILES Cc1cc(O)c2c(c1)C(=O)c1cc(O)cc(O)c1C2=O
REMARK SMILES IDX 1 1 2 2 8 3 7 4 6 5 4 6 3 7 19 8 20 9 18 10 11 11 9 12 10 13
REMARK SMILES IDX 12 14 13 15 15 16 16 17 5 18 17 20 14 22
REMARK H PARENT 5 19 17 21 14 23
REMARK Flexibility Score: inf
ROOT
ATOM      1  C   UNL     1      60.789  48.686  20.450  1.00  0.00     0.044 C 
ATOM      2  C   UNL     1      61.637  48.814  19.220  1.00  0.00    -0.047 A 
ATOM      3  C   UNL     1      61.048  48.783  17.951  1.00  0.00     0.016 A 
ATOM      4  C   UNL     1      61.837  48.874  16.792  1.00  0.00     0.038 A 
ATOM      5  C   UNL     1      63.239  48.997  16.905  1.00  0.00     0.076 A 
ATOM      6  C   UNL     1      63.838  48.944  18.190  1.00  0.00     0.127 A 
ATOM      7  C   UNL     1      63.031  48.874  19.329  1.00  0.00     0.050 A 
ATOM      8  C   UNL     1      64.025  49.240  15.667  1.00  0.00     0.201 C 
ATOM      9  O   UNL     1      65.097  49.900  15.723  1.00  0.00    -0.288 OA
ATOM     10  C   UNL     1      63.454  48.871  14.346  1.00  0.00     0.076 A 
ATOM     11  C   UNL     1      62.049  48.744  14.238  1.00  0.00     0.041 A 
ATOM     12  C   UNL     1      61.204  48.832  15.453  1.00  0.00     0.194 C 
ATOM     13  O   UNL     1      59.947  48.846  15.347  1.00  0.00    -0.289 OA
ATOM     14  C   UNL     1      61.461  48.532  12.980  1.00  0.00     0.059 A 
ATOM     15  C   UNL     1      62.253  48.429  11.836  1.00  0.00     0.120 A 
ATOM     16  C   UNL     1      63.643  48.512  11.942  1.00  0.00     0.093 A 
ATOM     17  C   UNL     1      64.254  48.703  13.186  1.00  0.00     0.131 A 
ENDROOT
BRANCH   6  18
ATOM     18  O   UNL     1      65.222  48.921  18.377  1.00  0.00    -0.507 OA
ATOM     19  H   UNL     1      65.883  48.747  17.634  1.00  0.00     0.293 HD
ENDBRANCH   6  18
BRANCH  17  20
ATOM     20  O   UNL     1      65.650  48.685  13.227  1.00  0.00    -0.507 OA
ATOM     21  H   UNL     1      66.206  49.428  13.628  1.00  0.00     0.293 HD
ENDBRANCH  17  20
BRANCH  15  22
ATOM     22  O   UNL     1      61.646  48.230  10.597  1.00  0.00    -0.508 OA
ATOM     23  H   UNL     1      60.638  48.245  10.492  1.00  0.00     0.293 HD
ENDBRANCH  15  22
TORSDOF 3
ENDMDL
MODEL 9
REMARK VINA RESULT:    -3.884      3.643      6.401
REMARK INTER + INTRA:          -4.224
REMARK INTER:                  -4.224
REMARK INTRA:                   0.000
REMARK UNBOUND:                 0.000
REMARK SMILES Cc1cc(O)c2c(c1)C(=O)c1cc(O)cc(O)c1C2=O
REMARK SMILES IDX 1 1 2 2 8 3 7 4 6 5 4 6 3 7 19 8 20 9 18 10 11 11 9 12 10 13
REMARK SMILES IDX 12 14 13 15 15 16 16 17 5 18 17 20 14 22
REMARK H PARENT 5 19 17 21 14 23
REMARK Flexibility Score: inf
ROOT
ATOM      1  C   UNL     1      63.218  48.887  11.642  1.00  0.00     0.044 C 
ATOM      2  C   UNL     1      63.698  48.665  13.045  1.00  0.00    -0.047 A 
ATOM      3  C   UNL     1      62.810  48.780  14.120  1.00  0.00     0.016 A 
ATOM      4  C   UNL     1      63.255  48.601  15.441  1.00  0.00     0.038 A 
ATOM      5  C   UNL     1      64.613  48.303  15.690  1.00  0.00     0.076 A 
ATOM      6  C   UNL     1      65.525  48.271  14.603  1.00  0.00     0.127 A 
ATOM      7  C   UNL     1      65.055  48.431  13.297  1.00  0.00     0.050 A 
ATOM      8  C   UNL     1      65.017  47.976  17.081  1.00  0.00     0.201 C 
ATOM      9  O   UNL     1      65.978  47.187  17.287  1.00  0.00    -0.288 OA
ATOM     10  C   UNL     1      64.174  48.424  18.220  1.00  0.00     0.076 A 
ATOM     11  C   UNL     1      62.816  48.724  17.966  1.00  0.00     0.041 A 
ATOM     12  C   UNL     1      62.309  48.733  16.573  1.00  0.00     0.194 C 
ATOM     13  O   UNL     1      61.075  48.876  16.352  1.00  0.00    -0.289 OA
ATOM     14  C   UNL     1      61.953  49.019  19.036  1.00  0.00     0.059 A 
ATOM     15  C   UNL     1      62.429  49.033  20.347  1.00  0.00     0.120 A 
ATOM     16  C   UNL     1      63.778  48.777  20.599  1.00  0.00     0.093 A 
ATOM     17  C   UNL     1      64.662  48.501  19.550  1.00  0.00     0.131 A 
ENDROOT
BRANCH   6  18
ATOM     18  O   UNL     1      66.903  48.121  14.778  1.00  0.00    -0.507 OA
ATOM     19  H   UNL     1      67.561  48.883  14.707  1.00  0.00     0.293 HD
ENDBRANCH   6  18
BRANCH  17  20
ATOM     20  O   UNL     1      66.012  48.345  19.870  1.00  0.00    -0.507 OA
ATOM     21  H   UNL     1      66.349  48.190  20.810  1.00  0.00     0.293 HD
ENDBRANCH  17  20
BRANCH  15  22
ATOM     22  O   UNL     1      61.552  49.315  21.392  1.00  0.00    -0.508 OA
ATOM     23  H   UNL     1      60.632  48.892  21.441  1.00  0.00     0.293 HD
ENDBRANCH  15  22
TORSDOF 3
ENDMDL
