MODEL 1
REMARK VINA RESULT:    -4.154      0.000      0.000
REMARK INTER + INTRA:          -5.409
REMARK INTER:                  -5.854
REMARK INTRA:                   0.445
REMARK UNBOUND:                 0.445
REMARK SMILES CC1=CCC(=C(C)C)C(=O)CC(C)=CCC1
REMARK SMILES IDX 12 1 14 2 13 3 15 4 16 5 2 6 1 7 3 8 11 10 9 11 10 12 5 13
REMARK SMILES IDX 6 14 7 15 8 16 4 17
REMARK H PARENT
REMARK Flexibility Score: 60.00
ROOT
ATOM      1  C   UNL     1      16.544  25.199   5.071  1.00  0.00    -0.070 C 
ATOM      2  C   UNL     1      17.503  24.889   4.171  1.00  0.00    -0.027 C 
ATOM      3  C   UNL     1      15.304  25.896   4.571  1.00  0.00     0.039 C 
ENDROOT
BRANCH   2   4
ATOM      4  C   UNL     1      18.851  24.280   4.490  1.00  0.00     0.032 C 
BRANCH   4   5
ATOM      5  C   UNL     1      20.063  25.168   4.138  1.00  0.00     0.034 C 
BRANCH   5   6
ATOM      6  C   UNL     1      19.947  26.580   4.683  1.00  0.00    -0.077 C 
ATOM      7  C   UNL     1      19.945  27.715   3.691  1.00  0.00     0.039 C 
ATOM      8  C   UNL     1      19.917  26.890   6.002  1.00  0.00    -0.023 CG0
ATOM      9  G   UNL     1      19.891  25.924   7.169  1.00  0.00     0.000 G0
ENDBRANCH   5   6
ENDBRANCH   4   5
ENDBRANCH   2   4
BRANCH   1  10
ATOM     10  C   UNL     1      16.696  24.965   6.560  1.00  0.00     0.111 C 
BRANCH  10  11
ATOM     11  C   UNL     1      17.334  26.145   7.247  1.00  0.00     0.163 C 
ATOM     12  O   UNL     1      16.775  27.270   7.138  1.00  0.00    -0.294 OA
BRANCH  11  13
ATOM     13  C   UNL     1      18.624  26.036   7.991  1.00  0.00    -0.002 C 
ATOM     14  C   UNL     1      18.653  26.123   9.355  1.00  0.00    -0.069 C 
ATOM     15  C   UNL     1      17.377  26.171  10.166  1.00  0.00     0.039 C 
ATOM     16  C   UNL     1      19.954  26.176  10.126  1.00  0.00     0.039 C 
BRANCH  13  17
ATOM     17  C   UNL     1      19.896  25.925   7.165  1.00  0.00     0.066 CG0
ATOM     18  G   UNL     1      19.913  26.894   6.000  1.00  0.00     0.000 G0
ENDBRANCH  13  17
ENDBRANCH  11  13
ENDBRANCH  10  11
ENDBRANCH   1  10
TORSDOF 0
ENDMDL
MODEL 2
REMARK VINA RESULT:    -4.072      1.633      2.070
REMARK INTER + INTRA:          -5.293
REMARK INTER:                  -6.177
REMARK INTRA:                   0.884
REMARK UNBOUND:                 0.445
REMARK SMILES CC1=CCC(=C(C)C)C(=O)CC(C)=CCC1
REMARK SMILES IDX 12 1 14 2 13 3 15 4 16 5 2 6 1 7 3 8 11 10 9 11 10 12 5 13
REMARK SMILES IDX 6 14 7 15 8 16 4 17
REMARK H PARENT
REMARK Flexibility Score: 60.00
ROOT
ATOM      1  C   UNL     1      16.402  25.983   4.621  1.00  0.00    -0.070 C 
ATOM      2  C   UNL     1      17.021  26.823   3.764  1.00  0.00    -0.027 C 
ATOM      3  C   UNL     1      15.200  26.499   5.372  1.00  0.00     0.039 C 
ENDROOT
BRANCH   2   4
ATOM      4  C   UNL     1      18.291  26.526   2.996  1.00  0.00     0.032 C 
BRANCH   4   5
ATOM      5  C   UNL     1      19.523  27.341   3.441  1.00  0.00     0.034 C 
BRANCH   5   6
ATOM      6  C   UNL     1      20.559  26.509   4.174  1.00  0.00    -0.077 C 
ATOM      7  C   UNL     1      21.684  25.917   3.364  1.00  0.00     0.039 C 
ATOM      8  C   UNL     1      20.500  26.206   5.494  1.00  0.00    -0.023 CG0
ATOM      9  G   UNL     1      19.481  26.699   6.502  1.00  0.00     0.000 G0
ENDBRANCH   5   6
ENDBRANCH   4   5
ENDBRANCH   2   4
BRANCH   1  10
ATOM     10  C   UNL     1      16.909  24.589   4.931  1.00  0.00     0.111 C 
BRANCH  10  11
ATOM     11  C   UNL     1      18.151  24.626   5.784  1.00  0.00     0.163 C 
ATOM     12  O   UNL     1      18.988  23.692   5.654  1.00  0.00    -0.294 OA
BRANCH  11  13
ATOM     13  C   UNL     1      18.389  25.688   6.807  1.00  0.00    -0.002 C 
ATOM     14  C   UNL     1      17.588  25.785   7.911  1.00  0.00    -0.069 C 
ATOM     15  C   UNL     1      16.543  24.736   8.217  1.00  0.00     0.039 C 
ATOM     16  C   UNL     1      17.701  26.941   8.881  1.00  0.00     0.039 C 
BRANCH  13  17
ATOM     17  C   UNL     1      19.485  26.700   6.517  1.00  0.00     0.066 CG0
ATOM     18  G   UNL     1      20.483  26.192   5.495  1.00  0.00     0.000 G0
ENDBRANCH  13  17
ENDBRANCH  11  13
ENDBRANCH  10  11
ENDBRANCH   1  10
TORSDOF 0
ENDMDL
MODEL 3
REMARK VINA RESULT:    -4.000      1.499      4.242
REMARK INTER + INTRA:          -5.193
REMARK INTER:                  -5.865
REMARK INTRA:                   0.672
REMARK UNBOUND:                 0.445
REMARK SMILES CC1=CCC(=C(C)C)C(=O)CC(C)=CCC1
REMARK SMILES IDX 12 1 14 2 13 3 15 4 16 5 2 6 1 7 3 8 11 10 9 11 10 12 5 13
REMARK SMILES IDX 6 14 7 15 8 16 4 17
REMARK H PARENT
REMARK Flexibility Score: 60.00
ROOT
ATOM      1  C   UNL     1      15.732  24.908   6.936  1.00  0.00    -0.070 C 
ATOM      2  C   UNL     1      15.988  25.555   8.094  1.00  0.00    -0.027 C 
ATOM      3  C   UNL     1      15.043  23.569   7.013  1.00  0.00     0.039 C 
ENDROOT
BRANCH   2   4
ATOM      4  C   UNL     1      16.752  26.855   8.230  1.00  0.00     0.032 C 
BRANCH   4   5
ATOM      5  C   UNL     1      17.964  26.796   9.183  1.00  0.00     0.034 C 
BRANCH   5   6
ATOM      6  C   UNL     1      19.121  25.983   8.630  1.00  0.00    -0.077 C 
ATOM      7  C   UNL     1      19.769  24.976   9.544  1.00  0.00     0.039 C 
ATOM      8  C   UNL     1      19.652  26.152   7.394  1.00  0.00    -0.023 CG0
ATOM      9  G   UNL     1      19.158  27.084   6.305  1.00  0.00     0.000 G0
ENDBRANCH   5   6
ENDBRANCH   4   5
ENDBRANCH   2   4
BRANCH   1  10
ATOM     10  C   UNL     1      16.184  25.417   5.583  1.00  0.00     0.111 C 
BRANCH  10  11
ATOM     11  C   UNL     1      17.663  25.213   5.377  1.00  0.00     0.163 C 
ATOM     12  O   UNL     1      18.123  24.046   5.496  1.00  0.00    -0.294 OA
BRANCH  11  13
ATOM     13  C   UNL     1      18.596  26.346   5.101  1.00  0.00    -0.002 C 
ATOM     14  C   UNL     1      18.983  26.636   3.822  1.00  0.00    -0.069 C 
ATOM     15  C   UNL     1      18.363  25.932   2.635  1.00  0.00     0.039 C 
ATOM     16  C   UNL     1      20.046  27.670   3.523  1.00  0.00     0.039 C 
BRANCH  13  17
ATOM     17  C   UNL     1      19.164  27.087   6.300  1.00  0.00     0.066 CG0
ATOM     18  G   UNL     1      19.658  26.144   7.379  1.00  0.00     0.000 G0
ENDBRANCH  13  17
ENDBRANCH  11  13
ENDBRANCH  10  11
ENDBRANCH   1  10
TORSDOF 0
ENDMDL
MODEL 4
REMARK VINA RESULT:    -3.521      1.576      4.068
REMARK INTER + INTRA:          -4.517
REMARK INTER:                  -5.270
REMARK INTRA:                   0.753
REMARK UNBOUND:                 0.445
REMARK SMILES CC1=CCC(=C(C)C)C(=O)CC(C)=CCC1
REMARK SMILES IDX 12 1 14 2 13 3 15 4 16 5 2 6 1 7 3 8 11 10 9 11 10 12 5 13
REMARK SMILES IDX 6 14 7 15 8 16 4 17
REMARK H PARENT
REMARK Flexibility Score: 60.00
ROOT
ATOM      1  C   UNL     1      15.850  26.131   5.540  1.00  0.00    -0.070 C 
ATOM      2  C   UNL     1      15.657  25.655   6.790  1.00  0.00    -0.027 C 
ATOM      3  C   UNL     1      15.129  25.449   4.405  1.00  0.00     0.039 C 
ENDROOT
BRANCH   2   4
ATOM      4  C   UNL     1      16.361  26.139   8.039  1.00  0.00     0.032 C 
BRANCH   4   5
ATOM      5  C   UNL     1      17.455  25.192   8.574  1.00  0.00     0.034 C 
BRANCH   5   6
ATOM      6  C   UNL     1      18.859  25.744   8.405  1.00  0.00    -0.077 C 
ATOM      7  C   UNL     1      19.515  26.373   9.607  1.00  0.00     0.039 C 
ATOM      8  C   UNL     1      19.532  25.771   7.228  1.00  0.00    -0.023 CG0
ATOM      9  G   UNL     1      19.084  25.187   5.904  1.00  0.00     0.000 G0
ENDBRANCH   5   6
ENDBRANCH   4   5
ENDBRANCH   2   4
BRANCH   1  10
ATOM     10  C   UNL     1      16.821  27.249   5.218  1.00  0.00     0.111 C 
BRANCH  10  11
ATOM     11  C   UNL     1      17.902  26.791   4.274  1.00  0.00     0.163 C 
ATOM     12  O   UNL     1      17.686  26.881   3.035  1.00  0.00    -0.294 OA
BRANCH  11  13
ATOM     13  C   UNL     1      19.180  26.185   4.753  1.00  0.00    -0.002 C 
ATOM     14  C   UNL     1      20.364  26.467   4.131  1.00  0.00    -0.069 C 
ATOM     15  C   UNL     1      20.449  27.516   3.044  1.00  0.00     0.039 C 
ATOM     16  C   UNL     1      21.647  25.750   4.489  1.00  0.00     0.039 C 
BRANCH  13  17
ATOM     17  C   UNL     1      19.089  25.178   5.889  1.00  0.00     0.066 CG0
ATOM     18  G   UNL     1      19.519  25.767   7.217  1.00  0.00     0.000 G0
ENDBRANCH  13  17
ENDBRANCH  11  13
ENDBRANCH  10  11
ENDBRANCH   1  10
TORSDOF 0
ENDMDL
MODEL 5
REMARK VINA RESULT:    -3.500      1.864      3.786
REMARK INTER + INTRA:          -4.487
REMARK INTER:                  -5.514
REMARK INTRA:                   1.027
REMARK UNBOUND:                 0.445
REMARK SMILES CC1=CCC(=C(C)C)C(=O)CC(C)=CCC1
REMARK SMILES IDX 12 1 14 2 13 3 15 4 16 5 2 6 1 7 3 8 11 10 9 11 10 12 5 13
REMARK SMILES IDX 6 14 7 15 8 16 4 17
REMARK H PARENT
REMARK Flexibility Score: 60.00
ROOT
ATOM      1  C   UNL     1      19.400  25.987   5.149  1.00  0.00    -0.070 C 
ATOM      2  C   UNL     1      18.158  25.923   4.620  1.00  0.00    -0.027 C 
ATOM      3  C   UNL     1      20.516  25.281   4.421  1.00  0.00     0.039 C 
ENDROOT
BRANCH   2   4
ATOM      4  C   UNL     1      16.900  26.480   5.248  1.00  0.00     0.032 C 
BRANCH   4   5
ATOM      5  C   UNL     1      15.723  25.486   5.333  1.00  0.00     0.034 C 
BRANCH   5   6
ATOM      6  C   UNL     1      15.586  24.837   6.698  1.00  0.00    -0.077 C 
ATOM      7  C   UNL     1      14.918  23.488   6.769  1.00  0.00     0.039 C 
ATOM      8  C   UNL     1      15.961  25.421   7.863  1.00  0.00    -0.023 CG0
ATOM      9  G   UNL     1      16.662  26.753   8.035  1.00  0.00     0.000 G0
ENDBRANCH   5   6
ENDBRANCH   4   5
ENDBRANCH   2   4
BRANCH   1  10
ATOM     10  C   UNL     1      19.704  26.649   6.477  1.00  0.00     0.111 C 
BRANCH  10  11
ATOM     11  C   UNL     1      19.063  25.913   7.626  1.00  0.00     0.163 C 
ATOM     12  O   UNL     1      19.323  24.688   7.764  1.00  0.00    -0.294 OA
BRANCH  11  13
ATOM     13  C   UNL     1      18.096  26.568   8.556  1.00  0.00    -0.002 C 
ATOM     14  C   UNL     1      18.467  26.900   9.829  1.00  0.00    -0.069 C 
ATOM     15  C   UNL     1      19.901  26.764  10.290  1.00  0.00     0.039 C 
ATOM     16  C   UNL     1      17.470  27.416  10.844  1.00  0.00     0.039 C 
BRANCH  13  17
ATOM     17  C   UNL     1      16.671  26.756   8.059  1.00  0.00     0.066 CG0
ATOM     18  G   UNL     1      15.950  25.437   7.867  1.00  0.00     0.000 G0
ENDBRANCH  13  17
ENDBRANCH  11  13
ENDBRANCH  10  11
ENDBRANCH   1  10
TORSDOF 0
ENDMDL
MODEL 6
REMARK VINA RESULT:    -3.381     18.238     20.433
REMARK INTER + INTRA:          -4.320
REMARK INTER:                  -4.898
REMARK INTRA:                   0.578
REMARK UNBOUND:                 0.445
REMARK SMILES CC1=CCC(=C(C)C)C(=O)CC(C)=CCC1
REMARK SMILES IDX 12 1 14 2 13 3 15 4 16 5 2 6 1 7 3 8 11 10 9 11 10 12 5 13
REMARK SMILES IDX 6 14 7 15 8 16 4 17
REMARK H PARENT
REMARK Flexibility Score: 60.00
ROOT
ATOM      1  C   UNL     1      31.344  15.237  -6.630  1.00  0.00    -0.070 C 
ATOM      2  C   UNL     1      32.314  14.299  -6.559  1.00  0.00    -0.027 C 
ATOM      3  C   UNL     1      29.935  14.825  -6.287  1.00  0.00     0.039 C 
ENDROOT
BRANCH   2   4
ATOM      4  C   UNL     1      33.761  14.492  -6.954  1.00  0.00     0.032 C 
BRANCH   4   5
ATOM      5  C   UNL     1      34.435  15.744  -6.356  1.00  0.00     0.034 C 
BRANCH   5   6
ATOM      6  C   UNL     1      34.352  15.802  -4.842  1.00  0.00    -0.077 C 
ATOM      7  C   UNL     1      34.944  14.655  -4.063  1.00  0.00     0.039 C 
ATOM      8  C   UNL     1      33.721  16.781  -4.148  1.00  0.00    -0.023 CG0
ATOM      9  G   UNL     1      33.076  18.031  -4.711  1.00  0.00     0.000 G0
ENDBRANCH   5   6
ENDBRANCH   4   5
ENDBRANCH   2   4
BRANCH   1  10
ATOM     10  C   UNL     1      31.589  16.648  -7.125  1.00  0.00     0.111 C 
BRANCH  10  11
ATOM     11  C   UNL     1      30.999  17.675  -6.192  1.00  0.00     0.163 C 
ATOM     12  O   UNL     1      30.027  18.363  -6.604  1.00  0.00    -0.294 OA
BRANCH  11  13
ATOM     13  C   UNL     1      31.564  17.941  -4.835  1.00  0.00    -0.002 C 
ATOM     14  C   UNL     1      30.740  18.175  -3.770  1.00  0.00    -0.069 C 
ATOM     15  C   UNL     1      29.240  18.017  -3.888  1.00  0.00     0.039 C 
ATOM     16  C   UNL     1      31.277  18.604  -2.422  1.00  0.00     0.039 C 
BRANCH  13  17
ATOM     17  C   UNL     1      33.077  18.036  -4.718  1.00  0.00     0.066 CG0
ATOM     18  G   UNL     1      33.693  16.763  -4.174  1.00  0.00     0.000 G0
ENDBRANCH  13  17
ENDBRANCH  11  13
ENDBRANCH  10  11
ENDBRANCH   1  10
TORSDOF 0
ENDMDL
MODEL 7
REMARK VINA RESULT:    -3.347      1.599      4.204
REMARK INTER + INTRA:          -4.272
REMARK INTER:                  -5.846
REMARK INTRA:                   1.574
REMARK UNBOUND:                 0.445
REMARK SMILES CC1=CCC(=C(C)C)C(=O)CC(C)=CCC1
REMARK SMILES IDX 12 1 14 2 13 3 15 4 16 5 2 6 1 7 3 8 11 10 9 11 10 12 5 13
REMARK SMILES IDX 6 14 7 15 8 16 4 17
REMARK H PARENT
REMARK Flexibility Score: 60.00
ROOT
ATOM      1  C   UNL     1      16.705  25.314   5.149  1.00  0.00    -0.070 C 
ATOM      2  C   UNL     1      16.036  25.776   6.228  1.00  0.00    -0.027 C 
ATOM      3  C   UNL     1      16.282  25.810   3.789  1.00  0.00     0.039 C 
ENDROOT
BRANCH   2   4
ATOM      4  C   UNL     1      16.246  25.327   7.657  1.00  0.00     0.032 C 
BRANCH   4   5
ATOM      5  C   UNL     1      17.061  26.305   8.530  1.00  0.00     0.034 C 
BRANCH   5   6
ATOM      6  C   UNL     1      18.556  26.049   8.478  1.00  0.00    -0.077 C 
ATOM      7  C   UNL     1      19.202  25.420   9.686  1.00  0.00     0.039 C 
ATOM      8  C   UNL     1      19.358  26.412   7.447  1.00  0.00    -0.023 CG0
ATOM      9  G   UNL     1      18.933  27.036   6.133  1.00  0.00     0.000 G0
ENDBRANCH   5   6
ENDBRANCH   4   5
ENDBRANCH   2   4
BRANCH   1  10
ATOM     10  C   UNL     1      17.788  24.258   5.232  1.00  0.00     0.111 C 
BRANCH  10  11
ATOM     11  C   UNL     1      19.138  24.817   4.863  1.00  0.00     0.163 C 
ATOM     12  O   UNL     1      20.048  24.006   4.540  1.00  0.00    -0.294 OA
BRANCH  11  13
ATOM     13  C   UNL     1      19.446  26.277   4.927  1.00  0.00    -0.002 C 
ATOM     14  C   UNL     1      20.226  26.869   3.974  1.00  0.00    -0.069 C 
ATOM     15  C   UNL     1      20.673  26.111   2.743  1.00  0.00     0.039 C 
ATOM     16  C   UNL     1      20.686  28.305   4.095  1.00  0.00     0.039 C 
BRANCH  13  17
ATOM     17  C   UNL     1      18.937  27.042   6.139  1.00  0.00     0.066 CG0
ATOM     18  G   UNL     1      19.371  26.407   7.444  1.00  0.00     0.000 G0
ENDBRANCH  13  17
ENDBRANCH  11  13
ENDBRANCH  10  11
ENDBRANCH   1  10
TORSDOF 0
ENDMDL
MODEL 8
REMARK VINA RESULT:    -2.717     18.752     21.064
REMARK INTER + INTRA:          -3.385
REMARK INTER:                  -4.049
REMARK INTRA:                   0.664
REMARK UNBOUND:                 0.445
REMARK SMILES CC1=CCC(=C(C)C)C(=O)CC(C)=CCC1
REMARK SMILES IDX 12 1 14 2 13 3 15 4 16 5 2 6 1 7 3 8 11 10 9 11 10 12 5 13
REMARK SMILES IDX 6 14 7 15 8 16 4 17
REMARK H PARENT
REMARK Flexibility Score: 60.00
ROOT
ATOM      1  C   UNL     1      31.039  17.883  -3.691  1.00  0.00    -0.070 C 
ATOM      2  C   UNL     1      30.070  17.055  -4.142  1.00  0.00    -0.027 C 
ATOM      3  C   UNL     1      30.689  19.336  -3.490  1.00  0.00     0.039 C 
ENDROOT
BRANCH   2   4
ATOM      4  C   UNL     1      30.250  15.595  -4.496  1.00  0.00     0.032 C 
BRANCH   4   5
ATOM      5  C   UNL     1      30.051  15.262  -5.989  1.00  0.00     0.034 C 
BRANCH   5   6
ATOM      6  C   UNL     1      31.021  14.213  -6.502  1.00  0.00    -0.077 C 
ATOM      7  C   UNL     1      30.523  12.795  -6.618  1.00  0.00     0.039 C 
ATOM      8  C   UNL     1      32.322  14.455  -6.797  1.00  0.00    -0.023 CG0
ATOM      9  G   UNL     1      33.032  15.793  -6.773  1.00  0.00     0.000 G0
ENDBRANCH   5   6
ENDBRANCH   4   5
ENDBRANCH   2   4
BRANCH   1  10
ATOM     10  C   UNL     1      32.471  17.442  -3.470  1.00  0.00     0.111 C 
BRANCH  10  11
ATOM     11  C   UNL     1      33.244  17.391  -4.762  1.00  0.00     0.163 C 
ATOM     12  O   UNL     1      33.510  18.481  -5.338  1.00  0.00    -0.294 OA
BRANCH  11  13
ATOM     13  C   UNL     1      33.647  16.105  -5.404  1.00  0.00    -0.002 C 
ATOM     14  C   UNL     1      34.574  15.291  -4.816  1.00  0.00    -0.069 C 
ATOM     15  C   UNL     1      35.106  15.580  -3.430  1.00  0.00     0.039 C 
ATOM     16  C   UNL     1      35.120  14.064  -5.514  1.00  0.00     0.039 C 
BRANCH  13  17
ATOM     17  C   UNL     1      33.057  15.795  -6.771  1.00  0.00     0.066 CG0
ATOM     18  G   UNL     1      32.313  14.474  -6.791  1.00  0.00     0.000 G0
ENDBRANCH  13  17
ENDBRANCH  11  13
ENDBRANCH  10  11
ENDBRANCH   1  10
TORSDOF 0
ENDMDL
MODEL 9
REMARK VINA RESULT:    -2.707      2.239      4.930
REMARK INTER + INTRA:          -3.370
REMARK INTER:                  -4.894
REMARK INTRA:                   1.525
REMARK UNBOUND:                 0.445
REMARK SMILES CC1=CCC(=C(C)C)C(=O)CC(C)=CCC1
REMARK SMILES IDX 12 1 14 2 13 3 15 4 16 5 2 6 1 7 3 8 11 10 9 11 10 12 5 13
REMARK SMILES IDX 6 14 7 15 8 16 4 17
REMARK H PARENT
REMARK Flexibility Score: 60.00
ROOT
ATOM      1  C   UNL     1      19.048  25.976   6.968  1.00  0.00    -0.070 C 
ATOM      2  C   UNL     1      18.086  26.659   7.626  1.00  0.00    -0.027 C 
ATOM      3  C   UNL     1      20.468  26.471   7.079  1.00  0.00     0.039 C 
ENDROOT
BRANCH   2   4
ATOM      4  C   UNL     1      16.601  26.378   7.560  1.00  0.00     0.032 C 
BRANCH   4   5
ATOM      5  C   UNL     1      15.904  26.874   6.276  1.00  0.00     0.034 C 
BRANCH   5   6
ATOM      6  C   UNL     1      15.859  25.828   5.177  1.00  0.00    -0.077 C 
ATOM      7  C   UNL     1      14.881  24.692   5.331  1.00  0.00     0.039 C 
ATOM      8  C   UNL     1      16.687  25.811   4.104  1.00  0.00    -0.023 CG0
ATOM      9  G   UNL     1      17.728  26.849   3.735  1.00  0.00     0.000 G0
ENDBRANCH   5   6
ENDBRANCH   4   5
ENDBRANCH   2   4
BRANCH   1  10
ATOM     10  C   UNL     1      18.758  24.800   6.057  1.00  0.00     0.111 C 
BRANCH  10  11
ATOM     11  C   UNL     1      19.301  25.024   4.669  1.00  0.00     0.163 C 
ATOM     12  O   UNL     1      19.951  24.090   4.128  1.00  0.00    -0.294 OA
BRANCH  11  13
ATOM     13  C   UNL     1      19.147  26.324   3.949  1.00  0.00    -0.002 C 
ATOM     14  C   UNL     1      20.243  27.050   3.577  1.00  0.00    -0.069 C 
ATOM     15  C   UNL     1      21.642  26.497   3.736  1.00  0.00     0.039 C 
ATOM     16  C   UNL     1      20.121  28.440   2.991  1.00  0.00     0.039 C 
BRANCH  13  17
ATOM     17  C   UNL     1      17.732  26.839   3.740  1.00  0.00     0.066 CG0
ATOM     18  G   UNL     1      16.683  25.806   4.101  1.00  0.00     0.000 G0
ENDBRANCH  13  17
ENDBRANCH  11  13
ENDBRANCH  10  11
ENDBRANCH   1  10
TORSDOF 0
ENDMDL
