MODEL 1
REMARK VINA RESULT:    -4.209      0.000      0.000
REMARK INTER + INTRA:          -8.646
REMARK INTER:                  -7.407
REMARK INTRA:                  -1.239
REMARK UNBOUND:                -1.239
REMARK SMILES CCCCCCCCCCCCCCC(=O)[O-]
REMARK SMILES IDX 9 1 10 2 11 3 12 4 13 5 14 6 15 7 16 8 17 9 8 10 7 11 6 12
REMARK SMILES IDX 5 13 4 14 3 15 2 16 1 17
REMARK H PARENT
REMARK Flexibility Score: inf
ROOT
ATOM      1  C   UNL     1      98.523 -68.654   4.035  1.00  0.00     0.000 C 
ENDROOT
BRANCH   1   2
ATOM      2  C   UNL     1      97.717 -67.349   3.952  1.00  0.00     0.000 C 
BRANCH   2   3
ATOM      3  C   UNL     1      98.648 -66.128   3.942  1.00  0.00     0.000 C 
BRANCH   3   4
ATOM      4  C   UNL     1      98.584 -65.335   2.623  1.00  0.00     0.000 C 
BRANCH   4   5
ATOM      5  C   UNL     1      99.598 -65.773   1.550  1.00  0.00     0.006 C 
BRANCH   5   6
ATOM      6  C   UNL     1      99.041 -66.843   0.602  1.00  0.00     0.053 C 
BRANCH   6   7
ATOM      7  C   UNL     1      99.821 -68.113   0.732  1.00  0.00     0.041 C 
ATOM      8  O   UNL     1     101.005 -68.089   1.159  1.00  0.00    -0.550 OA
ATOM      9  O   UNL     1      99.222 -69.330   0.432  1.00  0.00    -0.550 OA
ENDBRANCH   6   7
ENDBRANCH   5   6
ENDBRANCH   4   5
ENDBRANCH   3   4
ENDBRANCH   2   3
ENDBRANCH   1   2
BRANCH   1  10
ATOM     10  C   UNL     1      99.896 -68.459   4.696  1.00  0.00     0.000 C 
BRANCH  10  11
ATOM     11  C   UNL     1     100.342 -69.688   5.508  1.00  0.00    -0.000 C 
BRANCH  11  12
ATOM     12  C   UNL     1     100.983 -69.304   6.852  1.00  0.00    -0.000 C 
BRANCH  12  13
ATOM     13  C   UNL     1     100.981 -67.785   7.092  1.00  0.00    -0.000 C 
BRANCH  13  14
ATOM     14  C   UNL     1     100.952 -67.416   8.587  1.00  0.00    -0.000 C 
BRANCH  14  15
ATOM     15  C   UNL     1     100.998 -68.615   9.550  1.00  0.00    -0.000 C 
BRANCH  15  16
ATOM     16  C   UNL     1     100.250 -68.355  10.865  1.00  0.00    -0.003 C 
ATOM     17  C   UNL     1     100.005 -66.863  11.073  1.00  0.00     0.004 C 
ENDBRANCH  15  16
ENDBRANCH  14  15
ENDBRANCH  13  14
ENDBRANCH  12  13
ENDBRANCH  11  12
ENDBRANCH  10  11
ENDBRANCH   1  10
TORSDOF 13
ENDMDL
MODEL 2
REMARK VINA RESULT:    -4.187      1.224      1.719
REMARK INTER + INTRA:          -8.608
REMARK INTER:                  -7.508
REMARK INTRA:                  -1.100
REMARK UNBOUND:                -1.239
REMARK SMILES CCCCCCCCCCCCCCC(=O)[O-]
REMARK SMILES IDX 9 1 10 2 11 3 12 4 13 5 14 6 15 7 16 8 17 9 8 10 7 11 6 12
REMARK SMILES IDX 5 13 4 14 3 15 2 16 1 17
REMARK H PARENT
REMARK Flexibility Score: inf
ROOT
ATOM      1  C   UNL     1      97.616 -67.760   3.929  1.00  0.00     0.000 C 
ENDROOT
BRANCH   1   2
ATOM      2  C   UNL     1      97.698 -66.384   3.250  1.00  0.00     0.000 C 
BRANCH   2   3
ATOM      3  C   UNL     1      98.926 -66.296   2.333  1.00  0.00     0.000 C 
BRANCH   3   4
ATOM      4  C   UNL     1      98.557 -66.095   0.851  1.00  0.00     0.000 C 
BRANCH   4   5
ATOM      5  C   UNL     1      99.463 -66.832  -0.152  1.00  0.00     0.006 C 
BRANCH   5   6
ATOM      6  C   UNL     1      99.815 -68.257   0.295  1.00  0.00     0.053 C 
BRANCH   6   7
ATOM      7  C   UNL     1      98.822 -69.235  -0.249  1.00  0.00     0.041 C 
ATOM      8  O   UNL     1      98.308 -69.053  -1.384  1.00  0.00    -0.550 OA
ATOM      9  O   UNL     1      98.502 -70.376   0.476  1.00  0.00    -0.550 OA
ENDBRANCH   6   7
ENDBRANCH   5   6
ENDBRANCH   4   5
ENDBRANCH   3   4
ENDBRANCH   2   3
ENDBRANCH   1   2
BRANCH   1  10
ATOM     10  C   UNL     1      98.890 -68.595   3.727  1.00  0.00     0.000 C 
BRANCH  10  11
ATOM     11  C   UNL     1      99.620 -68.889   5.048  1.00  0.00    -0.000 C 
BRANCH  11  12
ATOM     12  C   UNL     1     100.797 -67.931   5.295  1.00  0.00    -0.000 C 
BRANCH  12  13
ATOM     13  C   UNL     1     100.954 -67.562   6.780  1.00  0.00    -0.000 C 
BRANCH  13  14
ATOM     14  C   UNL     1     101.030 -68.796   7.698  1.00  0.00    -0.000 C 
BRANCH  14  15
ATOM     15  C   UNL     1     100.846 -68.500   9.197  1.00  0.00    -0.000 C 
BRANCH  15  16
ATOM     16  C   UNL     1     100.588 -67.014   9.486  1.00  0.00    -0.003 C 
ATOM     17  C   UNL     1     100.070 -66.812  10.907  1.00  0.00     0.004 C 
ENDBRANCH  15  16
ENDBRANCH  14  15
ENDBRANCH  13  14
ENDBRANCH  12  13
ENDBRANCH  11  12
ENDBRANCH  10  11
ENDBRANCH   1  10
TORSDOF 13
ENDMDL
MODEL 3
REMARK VINA RESULT:    -3.977      1.838      2.296
REMARK INTER + INTRA:          -8.239
REMARK INTER:                  -7.465
REMARK INTRA:                  -0.774
REMARK UNBOUND:                -1.239
REMARK SMILES CCCCCCCCCCCCCCC(=O)[O-]
REMARK SMILES IDX 9 1 10 2 11 3 12 4 13 5 14 6 15 7 16 8 17 9 8 10 7 11 6 12
REMARK SMILES IDX 5 13 4 14 3 15 2 16 1 17
REMARK H PARENT
REMARK Flexibility Score: inf
ROOT
ATOM      1  C   UNL     1      98.493 -68.376   3.710  1.00  0.00     0.000 C 
ENDROOT
BRANCH   1   2
ATOM      2  C   UNL     1      98.152 -67.055   3.004  1.00  0.00     0.000 C 
BRANCH   2   3
ATOM      3  C   UNL     1      98.896 -66.940   1.665  1.00  0.00     0.000 C 
BRANCH   3   4
ATOM      4  C   UNL     1      99.145 -68.305   0.997  1.00  0.00     0.000 C 
BRANCH   4   5
ATOM      5  C   UNL     1      99.583 -68.239  -0.477  1.00  0.00     0.006 C 
BRANCH   5   6
ATOM      6  C   UNL     1      98.442 -68.553  -1.454  1.00  0.00     0.053 C 
BRANCH   6   7
ATOM      7  C   UNL     1      97.953 -67.298  -2.106  1.00  0.00     0.041 C 
ATOM      8  O   UNL     1      98.429 -66.182  -1.770  1.00  0.00    -0.550 OA
ATOM      9  O   UNL     1      97.009 -67.367  -3.124  1.00  0.00    -0.550 OA
ENDBRANCH   6   7
ENDBRANCH   5   6
ENDBRANCH   4   5
ENDBRANCH   3   4
ENDBRANCH   2   3
ENDBRANCH   1   2
BRANCH   1  10
ATOM     10  C   UNL     1      99.667 -68.235   4.692  1.00  0.00     0.000 C 
BRANCH  10  11
ATOM     11  C   UNL     1      99.965 -69.540   5.449  1.00  0.00    -0.000 C 
BRANCH  11  12
ATOM     12  C   UNL     1     100.742 -69.300   6.753  1.00  0.00    -0.000 C 
BRANCH  12  13
ATOM     13  C   UNL     1     100.943 -67.804   7.051  1.00  0.00    -0.000 C 
BRANCH  13  14
ATOM     14  C   UNL     1     101.177 -67.518   8.546  1.00  0.00    -0.000 C 
BRANCH  14  15
ATOM     15  C   UNL     1     100.998 -68.733   9.473  1.00  0.00    -0.000 C 
BRANCH  15  16
ATOM     16  C   UNL     1     100.284 -68.382  10.786  1.00  0.00    -0.003 C 
ATOM     17  C   UNL     1     100.101 -66.873  10.927  1.00  0.00     0.004 C 
ENDBRANCH  15  16
ENDBRANCH  14  15
ENDBRANCH  13  14
ENDBRANCH  12  13
ENDBRANCH  11  12
ENDBRANCH  10  11
ENDBRANCH   1  10
TORSDOF 13
ENDMDL
MODEL 4
REMARK VINA RESULT:    -3.949      1.475      2.972
REMARK INTER + INTRA:          -8.189
REMARK INTER:                  -7.004
REMARK INTRA:                  -1.185
REMARK UNBOUND:                -1.239
REMARK SMILES CCCCCCCCCCCCCCC(=O)[O-]
REMARK SMILES IDX 9 1 10 2 11 3 12 4 13 5 14 6 15 7 16 8 17 9 8 10 7 11 6 12
REMARK SMILES IDX 5 13 4 14 3 15 2 16 1 17
REMARK H PARENT
REMARK Flexibility Score: inf
ROOT
ATOM      1  C   UNL     1     100.940 -69.000   7.008  1.00  0.00     0.000 C 
ENDROOT
BRANCH   1   2
ATOM      2  C   UNL     1     100.901 -69.414   5.529  1.00  0.00     0.000 C 
BRANCH   2   3
ATOM      3  C   UNL     1      99.480 -69.284   4.960  1.00  0.00     0.000 C 
BRANCH   3   4
ATOM      4  C   UNL     1      99.200 -67.895   4.355  1.00  0.00     0.000 C 
BRANCH   4   5
ATOM      5  C   UNL     1      98.632 -67.910   2.924  1.00  0.00     0.006 C 
BRANCH   5   6
ATOM      6  C   UNL     1      99.716 -68.091   1.853  1.00  0.00     0.053 C 
BRANCH   6   7
ATOM      7  C   UNL     1      99.117 -68.620   0.589  1.00  0.00     0.041 C 
ATOM      8  O   UNL     1      98.965 -67.864  -0.406  1.00  0.00    -0.550 OA
ATOM      9  O   UNL     1      98.775 -69.963   0.491  1.00  0.00    -0.550 OA
ENDBRANCH   6   7
ENDBRANCH   5   6
ENDBRANCH   4   5
ENDBRANCH   3   4
ENDBRANCH   2   3
ENDBRANCH   1   2
BRANCH   1  10
ATOM     10  C   UNL     1     101.775 -67.732   7.244  1.00  0.00     0.000 C 
BRANCH  10  11
ATOM     11  C   UNL     1     100.904 -66.495   7.528  1.00  0.00    -0.000 C 
BRANCH  11  12
ATOM     12  C   UNL     1     101.430 -65.664   8.709  1.00  0.00    -0.000 C 
BRANCH  12  13
ATOM     13  C   UNL     1     100.300 -65.148   9.615  1.00  0.00    -0.000 C 
BRANCH  13  14
ATOM     14  C   UNL     1      99.916 -66.147  10.721  1.00  0.00    -0.000 C 
BRANCH  14  15
ATOM     15  C   UNL     1     101.067 -66.547  11.660  1.00  0.00    -0.000 C 
BRANCH  15  16
ATOM     16  C   UNL     1     101.463 -68.024  11.527  1.00  0.00    -0.003 C 
ATOM     17  C   UNL     1     100.439 -68.796  10.700  1.00  0.00     0.004 C 
ENDBRANCH  15  16
ENDBRANCH  14  15
ENDBRANCH  13  14
ENDBRANCH  12  13
ENDBRANCH  11  12
ENDBRANCH  10  11
ENDBRANCH   1  10
TORSDOF 13
ENDMDL
MODEL 5
REMARK VINA RESULT:    -3.860      1.016      2.268
REMARK INTER + INTRA:          -8.032
REMARK INTER:                  -6.316
REMARK INTRA:                  -1.716
REMARK UNBOUND:                -1.239
REMARK SMILES CCCCCCCCCCCCCCC(=O)[O-]
REMARK SMILES IDX 9 1 10 2 11 3 12 4 13 5 14 6 15 7 16 8 17 9 8 10 7 11 6 12
REMARK SMILES IDX 5 13 4 14 3 15 2 16 1 17
REMARK H PARENT
REMARK Flexibility Score: inf
ROOT
ATOM      1  C   UNL     1      97.910 -66.236   4.184  1.00  0.00     0.000 C 
ENDROOT
BRANCH   1   2
ATOM      2  C   UNL     1      97.103 -65.232   3.347  1.00  0.00     0.000 C 
BRANCH   2   3
ATOM      3  C   UNL     1      97.643 -65.154   1.911  1.00  0.00     0.000 C 
BRANCH   3   4
ATOM      4  C   UNL     1      99.169 -64.959   1.853  1.00  0.00     0.000 C 
BRANCH   4   5
ATOM      5  C   UNL     1      99.909 -65.888   0.873  1.00  0.00     0.006 C 
BRANCH   5   6
ATOM      6  C   UNL     1      99.026 -67.028   0.350  1.00  0.00     0.053 C 
BRANCH   6   7
ATOM      7  C   UNL     1      99.733 -68.340   0.484  1.00  0.00     0.041 C 
ATOM      8  O   UNL     1     100.987 -68.377   0.583  1.00  0.00    -0.550 OA
ATOM      9  O   UNL     1      99.001 -69.519   0.554  1.00  0.00    -0.550 OA
ENDBRANCH   6   7
ENDBRANCH   5   6
ENDBRANCH   4   5
ENDBRANCH   3   4
ENDBRANCH   2   3
ENDBRANCH   1   2
BRANCH   1  10
ATOM     10  C   UNL     1      97.626 -67.694   3.793  1.00  0.00     0.000 C 
BRANCH  10  11
ATOM     11  C   UNL     1      98.796 -68.635   4.128  1.00  0.00    -0.000 C 
BRANCH  11  12
ATOM     12  C   UNL     1     100.152 -67.912   4.122  1.00  0.00    -0.000 C 
BRANCH  12  13
ATOM     13  C   UNL     1     101.324 -68.856   4.444  1.00  0.00    -0.000 C 
BRANCH  13  14
ATOM     14  C   UNL     1     101.123 -69.630   5.760  1.00  0.00    -0.000 C 
BRANCH  14  15
ATOM     15  C   UNL     1     101.835 -69.026   6.982  1.00  0.00    -0.000 C 
BRANCH  15  16
ATOM     16  C   UNL     1     100.906 -68.164   7.849  1.00  0.00    -0.003 C 
ATOM     17  C   UNL     1     100.851 -68.685   9.283  1.00  0.00     0.004 C 
ENDBRANCH  15  16
ENDBRANCH  14  15
ENDBRANCH  13  14
ENDBRANCH  12  13
ENDBRANCH  11  12
ENDBRANCH  10  11
ENDBRANCH   1  10
TORSDOF 13
ENDMDL
MODEL 6
REMARK VINA RESULT:    -3.836      2.811      4.319
REMARK INTER + INTRA:          -7.990
REMARK INTER:                  -6.528
REMARK INTRA:                  -1.462
REMARK UNBOUND:                -1.239
REMARK SMILES CCCCCCCCCCCCCCC(=O)[O-]
REMARK SMILES IDX 9 1 10 2 11 3 12 4 13 5 14 6 15 7 16 8 17 9 8 10 7 11 6 12
REMARK SMILES IDX 5 13 4 14 3 15 2 16 1 17
REMARK H PARENT
REMARK Flexibility Score: inf
ROOT
ATOM      1  C   UNL     1      98.456 -68.606   2.644  1.00  0.00     0.000 C 
ENDROOT
BRANCH   1   2
ATOM      2  C   UNL     1      99.703 -68.022   1.964  1.00  0.00     0.000 C 
BRANCH   2   3
ATOM      3  C   UNL     1      99.636 -68.206   0.441  1.00  0.00     0.000 C 
BRANCH   3   4
ATOM      4  C   UNL     1      98.703 -69.354   0.015  1.00  0.00     0.000 C 
BRANCH   4   5
ATOM      5  C   UNL     1      98.129 -69.234  -1.409  1.00  0.00     0.006 C 
BRANCH   5   6
ATOM      6  C   UNL     1      99.052 -68.463  -2.362  1.00  0.00     0.053 C 
BRANCH   6   7
ATOM      7  C   UNL     1      98.251 -67.786  -3.430  1.00  0.00     0.041 C 
ATOM      8  O   UNL     1      98.662 -67.776  -4.620  1.00  0.00    -0.550 OA
ATOM      9  O   UNL     1      97.024 -67.213  -3.120  1.00  0.00    -0.550 OA
ENDBRANCH   6   7
ENDBRANCH   5   6
ENDBRANCH   4   5
ENDBRANCH   3   4
ENDBRANCH   2   3
ENDBRANCH   1   2
BRANCH   1  10
ATOM     10  C   UNL     1      97.902 -67.692   3.748  1.00  0.00     0.000 C 
BRANCH  10  11
ATOM     11  C   UNL     1      97.976 -66.201   3.373  1.00  0.00    -0.000 C 
BRANCH  11  12
ATOM     12  C   UNL     1      98.581 -65.342   4.496  1.00  0.00    -0.000 C 
BRANCH  12  13
ATOM     13  C   UNL     1     100.108 -65.498   4.598  1.00  0.00    -0.000 C 
BRANCH  13  14
ATOM     14  C   UNL     1     100.547 -66.280   5.849  1.00  0.00    -0.000 C 
BRANCH  14  15
ATOM     15  C   UNL     1     101.272 -67.607   5.562  1.00  0.00    -0.000 C 
BRANCH  15  16
ATOM     16  C   UNL     1     100.812 -68.750   6.477  1.00  0.00    -0.003 C 
ATOM     17  C   UNL     1     100.216 -69.898   5.667  1.00  0.00     0.004 C 
ENDBRANCH  15  16
ENDBRANCH  14  15
ENDBRANCH  13  14
ENDBRANCH  12  13
ENDBRANCH  11  12
ENDBRANCH  10  11
ENDBRANCH   1  10
TORSDOF 13
ENDMDL
MODEL 7
REMARK VINA RESULT:    -3.717      3.362      7.645
REMARK INTER + INTRA:          -7.780
REMARK INTER:                  -6.534
REMARK INTRA:                  -1.246
REMARK UNBOUND:                -1.239
REMARK SMILES CCCCCCCCCCCCCCC(=O)[O-]
REMARK SMILES IDX 9 1 10 2 11 3 12 4 13 5 14 6 15 7 16 8 17 9 8 10 7 11 6 12
REMARK SMILES IDX 5 13 4 14 3 15 2 16 1 17
REMARK H PARENT
REMARK Flexibility Score: inf
ROOT
ATOM      1  C   UNL     1      98.655 -68.682   3.577  1.00  0.00     0.000 C 
ENDROOT
BRANCH   1   2
ATOM      2  C   UNL     1      99.977 -68.510   4.339  1.00  0.00     0.000 C 
BRANCH   2   3
ATOM      3  C   UNL     1     100.049 -69.467   5.539  1.00  0.00     0.000 C 
BRANCH   3   4
ATOM      4  C   UNL     1     101.237 -69.173   6.472  1.00  0.00     0.000 C 
BRANCH   4   5
ATOM      5  C   UNL     1     100.930 -68.215   7.638  1.00  0.00     0.006 C 
BRANCH   5   6
ATOM      6  C   UNL     1     101.335 -68.786   9.003  1.00  0.00     0.053 C 
BRANCH   6   7
ATOM      7  C   UNL     1     100.452 -68.240  10.080  1.00  0.00     0.041 C 
ATOM      8  O   UNL     1     100.052 -68.987  11.012  1.00  0.00    -0.550 OA
ATOM      9  O   UNL     1     100.113 -66.893  10.084  1.00  0.00    -0.550 OA
ENDBRANCH   6   7
ENDBRANCH   5   6
ENDBRANCH   4   5
ENDBRANCH   3   4
ENDBRANCH   2   3
ENDBRANCH   1   2
BRANCH   1  10
ATOM     10  C   UNL     1      97.596 -67.648   3.990  1.00  0.00     0.000 C 
BRANCH  10  11
ATOM     11  C   UNL     1      98.107 -66.201   3.879  1.00  0.00    -0.000 C 
BRANCH  11  12
ATOM     12  C   UNL     1      98.259 -65.741   2.421  1.00  0.00    -0.000 C 
BRANCH  12  13
ATOM     13  C   UNL     1      99.727 -65.510   2.026  1.00  0.00    -0.000 C 
BRANCH  13  14
ATOM     14  C   UNL     1     100.140 -66.300   0.771  1.00  0.00    -0.000 C 
BRANCH  14  15
ATOM     15  C   UNL     1      98.981 -66.983   0.025  1.00  0.00    -0.000 C 
BRANCH  15  16
ATOM     16  C   UNL     1      99.388 -68.314  -0.623  1.00  0.00    -0.003 C 
ATOM     17  C   UNL     1      98.609 -69.480  -0.021  1.00  0.00     0.004 C 
ENDBRANCH  15  16
ENDBRANCH  14  15
ENDBRANCH  13  14
ENDBRANCH  12  13
ENDBRANCH  11  12
ENDBRANCH  10  11
ENDBRANCH   1  10
TORSDOF 13
ENDMDL
MODEL 8
REMARK VINA RESULT:    -3.670      3.796      7.130
REMARK INTER + INTRA:          -7.699
REMARK INTER:                  -5.961
REMARK INTRA:                  -1.738
REMARK UNBOUND:                -1.239
REMARK SMILES CCCCCCCCCCCCCCC(=O)[O-]
REMARK SMILES IDX 9 1 10 2 11 3 12 4 13 5 14 6 15 7 16 8 17 9 8 10 7 11 6 12
REMARK SMILES IDX 5 13 4 14 3 15 2 16 1 17
REMARK H PARENT
REMARK Flexibility Score: inf
ROOT
ATOM      1  C   UNL     1     101.263 -69.157   5.103  1.00  0.00     0.000 C 
ENDROOT
BRANCH   1   2
ATOM      2  C   UNL     1     101.904 -69.083   6.497  1.00  0.00     0.000 C 
BRANCH   2   3
ATOM      3  C   UNL     1     100.902 -68.559   7.537  1.00  0.00     0.000 C 
BRANCH   3   4
ATOM      4  C   UNL     1     101.034 -67.046   7.789  1.00  0.00     0.000 C 
BRANCH   4   5
ATOM      5  C   UNL     1     101.396 -66.654   9.233  1.00  0.00     0.006 C 
BRANCH   5   6
ATOM      6  C   UNL     1     100.232 -66.846  10.214  1.00  0.00     0.053 C 
BRANCH   6   7
ATOM      7  C   UNL     1     100.515 -67.983  11.144  1.00  0.00     0.041 C 
ATOM      8  O   UNL     1     100.016 -69.119  10.928  1.00  0.00    -0.550 OA
ATOM      9  O   UNL     1     101.372 -67.802  12.222  1.00  0.00    -0.550 OA
ENDBRANCH   6   7
ENDBRANCH   5   6
ENDBRANCH   4   5
ENDBRANCH   3   4
ENDBRANCH   2   3
ENDBRANCH   1   2
BRANCH   1  10
ATOM     10  C   UNL     1      99.732 -69.274   5.163  1.00  0.00     0.000 C 
BRANCH  10  11
ATOM     11  C   UNL     1      99.048 -68.757   3.886  1.00  0.00    -0.000 C 
BRANCH  11  12
ATOM     12  C   UNL     1      97.996 -67.675   4.178  1.00  0.00    -0.000 C 
BRANCH  12  13
ATOM     13  C   UNL     1      98.466 -66.270   3.763  1.00  0.00    -0.000 C 
BRANCH  13  14
ATOM     14  C   UNL     1      99.506 -65.678   4.731  1.00  0.00    -0.000 C 
BRANCH  14  15
ATOM     15  C   UNL     1     100.897 -65.437   4.119  1.00  0.00    -0.000 C 
BRANCH  15  16
ATOM     16  C   UNL     1     100.951 -65.747   2.617  1.00  0.00    -0.003 C 
ATOM     17  C   UNL     1     101.928 -66.883   2.324  1.00  0.00     0.004 C 
ENDBRANCH  15  16
ENDBRANCH  14  15
ENDBRANCH  13  14
ENDBRANCH  12  13
ENDBRANCH  11  12
ENDBRANCH  10  11
ENDBRANCH   1  10
TORSDOF 13
ENDMDL
MODEL 9
REMARK VINA RESULT:    -3.565      4.065      8.586
REMARK INTER + INTRA:          -7.513
REMARK INTER:                  -6.888
REMARK INTRA:                  -0.624
REMARK UNBOUND:                -1.239
REMARK SMILES CCCCCCCCCCCCCCC(=O)[O-]
REMARK SMILES IDX 9 1 10 2 11 3 12 4 13 5 14 6 15 7 16 8 17 9 8 10 7 11 6 12
REMARK SMILES IDX 5 13 4 14 3 15 2 16 1 17
REMARK H PARENT
REMARK Flexibility Score: inf
ROOT
ATOM      1  C   UNL     1     100.238 -69.579   5.698  1.00  0.00     0.000 C 
ENDROOT
BRANCH   1   2
ATOM      2  C   UNL     1     101.706 -69.686   6.141  1.00  0.00     0.000 C 
BRANCH   2   3
ATOM      3  C   UNL     1     101.994 -68.744   7.319  1.00  0.00     0.000 C 
BRANCH   3   4
ATOM      4  C   UNL     1     100.893 -68.772   8.395  1.00  0.00     0.000 C 
BRANCH   4   5
ATOM      5  C   UNL     1     101.041 -67.719   9.508  1.00  0.00     0.006 C 
BRANCH   5   6
ATOM      6  C   UNL     1     100.301 -68.102  10.796  1.00  0.00     0.053 C 
BRANCH   6   7
ATOM      7  C   UNL     1     101.256 -68.668  11.799  1.00  0.00     0.041 C 
ATOM      8  O   UNL     1     101.479 -69.907  11.833  1.00  0.00    -0.550 OA
ATOM      9  O   UNL     1     101.939 -67.821  12.662  1.00  0.00    -0.550 OA
ENDBRANCH   6   7
ENDBRANCH   5   6
ENDBRANCH   4   5
ENDBRANCH   3   4
ENDBRANCH   2   3
ENDBRANCH   1   2
BRANCH   1  10
ATOM     10  C   UNL     1      99.999 -68.415   4.723  1.00  0.00     0.000 C 
BRANCH  10  11
ATOM     11  C   UNL     1      98.519 -68.270   4.327  1.00  0.00    -0.000 C 
BRANCH  11  12
ATOM     12  C   UNL     1      98.290 -68.479   2.822  1.00  0.00    -0.000 C 
BRANCH  12  13
ATOM     13  C   UNL     1      98.986 -67.407   1.966  1.00  0.00    -0.000 C 
BRANCH  13  14
ATOM     14  C   UNL     1      99.996 -68.002   0.968  1.00  0.00    -0.000 C 
BRANCH  14  15
ATOM     15  C   UNL     1      99.368 -68.684  -0.260  1.00  0.00    -0.000 C 
BRANCH  15  16
ATOM     16  C   UNL     1      99.009 -67.694  -1.376  1.00  0.00    -0.003 C 
ATOM     17  C   UNL     1      98.399 -68.414  -2.576  1.00  0.00     0.004 C 
ENDBRANCH  15  16
ENDBRANCH  14  15
ENDBRANCH  13  14
ENDBRANCH  12  13
ENDBRANCH  11  12
ENDBRANCH  10  11
ENDBRANCH   1  10
TORSDOF 13
ENDMDL
