MODEL 1
REMARK VINA RESULT:    -6.465      0.000      0.000
REMARK INTER + INTRA:          -6.804
REMARK INTER:                  -7.032
REMARK INTRA:                   0.229
REMARK UNBOUND:                 0.229
REMARK SMILES CC1(C)CC[C@]2(C(=O)[O-])CC[C@@]3(C)C(=CC[C@@H]4[C@@]5(C)CC[C@H](O)C(C)(C)[C@H]5CC[C@@]43C)[C@H]2C1
REMARK SMILES IDX 6 1 5 2 10 3 32 4 4 5 11 6 14 7 33 8 2 9 12 10 15 11 1 12
REMARK SMILES IDX 3 13 13 14 30 15 16 16 17 17 29 18 31 19 18 20 28 21 27 22
REMARK SMILES IDX 20 23 19 24 24 25 21 26 22 27 25 28 26 29 7 30 8 31 9 32
REMARK SMILES IDX 23 33
REMARK H PARENT 23 34
REMARK Flexibility Score: inf
ROOT
ATOM      1  C   UNL     1       9.259   3.765  30.542  1.00  0.00     0.017 C 
ATOM      2  C   UNL     1       9.009   2.600  29.523  1.00  0.00     0.014 C 
ATOM      3  C   UNL     1       9.549   3.174  31.930  1.00  0.00     0.014 C 
ATOM      4  C   UNL     1       7.960   4.615  30.676  1.00  0.00     0.028 C 
ATOM      5  C   UNL     1       7.861   2.840  28.520  1.00  0.00     0.007 C 
ATOM      6  C   UNL     1       9.927   4.266  32.935  1.00  0.00     0.013 C 
ATOM      7  C   UNL     1       7.919   5.558  31.896  1.00  0.00    -0.064 C 
ATOM      8  C   UNL     1       7.593   5.290  29.319  1.00  0.00     0.015 C 
ATOM      9  C   UNL     1       7.682   4.319  28.080  1.00  0.00    -0.035 C 
ATOM     10  C   UNL     1       8.902   5.458  33.100  1.00  0.00    -0.006 C 
ATOM     11  C   UNL     1       6.788   6.279  32.070  1.00  0.00    -0.027 C 
ATOM     12  C   UNL     1       8.828   4.735  27.126  1.00  0.00     0.011 C 
ATOM     13  C   UNL     1       6.366   4.414  27.265  1.00  0.00     0.011 C 
ATOM     14  C   UNL     1       9.771   6.756  33.110  1.00  0.00     0.017 C 
ATOM     15  C   UNL     1       8.036   5.314  34.463  1.00  0.00    -0.020 C 
ATOM     16  C   UNL     1       6.567   7.153  33.255  1.00  0.00     0.032 C 
ATOM     17  C   UNL     1       6.901   6.440  34.601  1.00  0.00     0.006 C 
ATOM     18  C   UNL     1       8.928   5.329  35.739  1.00  0.00     0.008 C 
ATOM     19  C   UNL     1       7.321   3.914  34.422  1.00  0.00     0.012 C 
ATOM     20  C   UNL     1       6.944   7.458  35.843  1.00  0.00    -0.025 C 
ATOM     21  C   UNL     1       8.105   5.380  37.024  1.00  0.00     0.005 C 
ATOM     22  C   UNL     1       7.339   6.711  37.201  1.00  0.00     0.003 C 
ATOM     23  C   UNL     1       5.531   8.176  35.910  1.00  0.00     0.010 C 
ATOM     24  C   UNL     1       7.982   8.608  35.627  1.00  0.00     0.012 C 
ATOM     25  C   UNL     1       6.212   6.641  38.290  1.00  0.00    -0.006 C 
ATOM     26  C   UNL     1       4.967   8.633  37.275  1.00  0.00     0.033 C 
ATOM     27  C   UNL     1       5.679   8.081  38.513  1.00  0.00     0.120 C 
ATOM     28  C   UNL     1       5.057   5.679  37.896  1.00  0.00     0.014 C 
ATOM     29  C   UNL     1       6.768   6.139  39.647  1.00  0.00     0.014 C 
ENDROOT
BRANCH   1  30
ATOM     30  C   UNL     1      10.477   4.566  30.084  1.00  0.00     0.048 C 
ATOM     31  O   UNL     1      10.440   5.814  29.941  1.00  0.00    -0.550 OA
ATOM     32  O   UNL     1      11.690   3.918  29.883  1.00  0.00    -0.550 OA
ENDBRANCH   1  30
BRANCH  27  33
ATOM     33  O   UNL     1       6.730   8.934  38.887  1.00  0.00    -0.393 OA
ATOM     34  H   UNL     1       7.054   9.387  38.063  1.00  0.00     0.210 HD
ENDBRANCH  27  33
TORSDOF 2
ENDMDL
MODEL 2
REMARK VINA RESULT:    -6.355      9.874     13.503
REMARK INTER + INTRA:          -6.684
REMARK INTER:                  -6.907
REMARK INTRA:                   0.223
REMARK UNBOUND:                 0.229
REMARK SMILES CC1(C)CC[C@]2(C(=O)[O-])CC[C@@]3(C)C(=CC[C@@H]4[C@@]5(C)CC[C@H](O)C(C)(C)[C@H]5CC[C@@]43C)[C@H]2C1
REMARK SMILES IDX 6 1 5 2 10 3 32 4 4 5 11 6 14 7 33 8 2 9 12 10 15 11 1 12
REMARK SMILES IDX 3 13 13 14 30 15 16 16 17 17 29 18 31 19 18 20 28 21 27 22
REMARK SMILES IDX 20 23 19 24 24 25 21 26 22 27 25 28 26 29 7 30 8 31 9 32
REMARK SMILES IDX 23 33
REMARK H PARENT 23 34
REMARK Flexibility Score: inf
ROOT
ATOM      1  C   UNL     1      -0.592  12.655  33.672  1.00  0.00     0.017 C 
ATOM      2  C   UNL     1      -1.001  11.143  33.585  1.00  0.00     0.014 C 
ATOM      3  C   UNL     1      -1.168  13.407  32.462  1.00  0.00     0.014 C 
ATOM      4  C   UNL     1       0.959  12.772  33.579  1.00  0.00     0.028 C 
ATOM      5  C   UNL     1       0.105  10.141  33.979  1.00  0.00     0.007 C 
ATOM      6  C   UNL     1      -0.907  14.913  32.565  1.00  0.00     0.013 C 
ATOM      7  C   UNL     1       1.491  14.187  33.277  1.00  0.00    -0.064 C 
ATOM      8  C   UNL     1       1.645  12.062  34.786  1.00  0.00     0.015 C 
ATOM      9  C   UNL     1       1.057  10.634  35.104  1.00  0.00    -0.035 C 
ATOM     10  C   UNL     1       0.598  15.355  32.762  1.00  0.00    -0.006 C 
ATOM     11  C   UNL     1       2.830  14.319  33.145  1.00  0.00    -0.027 C 
ATOM     12  C   UNL     1       0.325  10.621  36.467  1.00  0.00     0.011 C 
ATOM     13  C   UNL     1       2.224   9.618  35.213  1.00  0.00     0.011 C 
ATOM     14  C   UNL     1       0.566  16.452  33.874  1.00  0.00     0.017 C 
ATOM     15  C   UNL     1       1.237  15.926  31.386  1.00  0.00    -0.020 C 
ATOM     16  C   UNL     1       3.477  15.602  32.756  1.00  0.00     0.032 C 
ATOM     17  C   UNL     1       2.799  16.270  31.520  1.00  0.00     0.006 C 
ATOM     18  C   UNL     1       0.482  17.179  30.854  1.00  0.00     0.008 C 
ATOM     19  C   UNL     1       1.084  14.804  30.294  1.00  0.00     0.012 C 
ATOM     20  C   UNL     1       3.300  17.777  31.281  1.00  0.00    -0.025 C 
ATOM     21  C   UNL     1       1.191  17.826  29.666  1.00  0.00     0.005 C 
ATOM     22  C   UNL     1       2.552  18.454  30.041  1.00  0.00     0.003 C 
ATOM     23  C   UNL     1       4.876  17.726  31.112  1.00  0.00     0.010 C 
ATOM     24  C   UNL     1       3.048  18.687  32.529  1.00  0.00     0.012 C 
ATOM     25  C   UNL     1       3.454  18.776  28.798  1.00  0.00    -0.006 C 
ATOM     26  C   UNL     1       5.585  18.765  30.213  1.00  0.00     0.033 C 
ATOM     27  C   UNL     1       4.676  19.589  29.297  1.00  0.00     0.120 C 
ATOM     28  C   UNL     1       3.911  17.497  28.043  1.00  0.00     0.014 C 
ATOM     29  C   UNL     1       2.702  19.657  27.767  1.00  0.00     0.014 C 
ENDROOT
BRANCH   1  30
ATOM     30  C   UNL     1      -1.182  13.252  34.948  1.00  0.00     0.048 C 
ATOM     31  O   UNL     1      -0.478  13.879  35.779  1.00  0.00    -0.550 OA
ATOM     32  O   UNL     1      -2.549  13.168  35.178  1.00  0.00    -0.550 OA
ENDBRANCH   1  30
BRANCH  27  33
ATOM     33  O   UNL     1       4.248  20.751  29.960  1.00  0.00    -0.393 OA
ATOM     34  H   UNL     1       3.619  20.470  30.677  1.00  0.00     0.210 HD
ENDBRANCH  27  33
TORSDOF 2
ENDMDL
MODEL 3
REMARK VINA RESULT:    -6.282      1.717      8.115
REMARK INTER + INTRA:          -6.604
REMARK INTER:                  -6.867
REMARK INTRA:                   0.263
REMARK UNBOUND:                 0.229
REMARK SMILES CC1(C)CC[C@]2(C(=O)[O-])CC[C@@]3(C)C(=CC[C@@H]4[C@@]5(C)CC[C@H](O)C(C)(C)[C@H]5CC[C@@]43C)[C@H]2C1
REMARK SMILES IDX 6 1 5 2 10 3 32 4 4 5 11 6 14 7 33 8 2 9 12 10 15 11 1 12
REMARK SMILES IDX 3 13 13 14 30 15 16 16 17 17 29 18 31 19 18 20 28 21 27 22
REMARK SMILES IDX 20 23 19 24 24 25 21 26 22 27 25 28 26 29 7 30 8 31 9 32
REMARK SMILES IDX 23 33
REMARK H PARENT 23 34
REMARK Flexibility Score: inf
ROOT
ATOM      1  C   UNL     1       7.083   7.385  35.851  1.00  0.00     0.017 C 
ATOM      2  C   UNL     1       6.773   8.765  36.530  1.00  0.00     0.014 C 
ATOM      3  C   UNL     1       8.527   7.391  35.327  1.00  0.00     0.014 C 
ATOM      4  C   UNL     1       6.155   7.205  34.612  1.00  0.00     0.028 C 
ATOM      5  C   UNL     1       5.372   9.340  36.236  1.00  0.00     0.007 C 
ATOM      6  C   UNL     1       8.924   6.020  34.768  1.00  0.00     0.013 C 
ATOM      7  C   UNL     1       6.581   6.093  33.633  1.00  0.00    -0.064 C 
ATOM      8  C   UNL     1       4.657   7.155  35.042  1.00  0.00     0.015 C 
ATOM      9  C   UNL     1       4.253   8.275  36.076  1.00  0.00    -0.035 C 
ATOM     10  C   UNL     1       7.985   5.417  33.648  1.00  0.00    -0.006 C 
ATOM     11  C   UNL     1       5.825   5.936  32.523  1.00  0.00    -0.027 C 
ATOM     12  C   UNL     1       3.897   7.662  37.452  1.00  0.00     0.011 C 
ATOM     13  C   UNL     1       2.979   9.000  35.566  1.00  0.00     0.011 C 
ATOM     14  C   UNL     1       7.784   3.918  34.038  1.00  0.00     0.017 C 
ATOM     15  C   UNL     1       8.645   5.563  32.176  1.00  0.00    -0.020 C 
ATOM     16  C   UNL     1       6.173   4.973  31.443  1.00  0.00     0.032 C 
ATOM     17  C   UNL     1       7.665   5.073  31.003  1.00  0.00     0.006 C 
ATOM     18  C   UNL     1      10.003   4.811  32.055  1.00  0.00     0.008 C 
ATOM     19  C   UNL     1       8.947   7.089  31.942  1.00  0.00     0.012 C 
ATOM     20  C   UNL     1       8.113   3.852  30.058  1.00  0.00    -0.025 C 
ATOM     21  C   UNL     1      10.533   4.792  30.622  1.00  0.00     0.005 C 
ATOM     22  C   UNL     1       9.659   3.951  29.664  1.00  0.00     0.003 C 
ATOM     23  C   UNL     1       7.144   3.854  28.802  1.00  0.00     0.010 C 
ATOM     24  C   UNL     1       7.896   2.464  30.746  1.00  0.00     0.012 C 
ATOM     25  C   UNL     1       9.957   4.224  28.148  1.00  0.00    -0.006 C 
ATOM     26  C   UNL     1       7.661   3.351  27.434  1.00  0.00     0.033 C 
ATOM     27  C   UNL     1       9.177   3.173  27.315  1.00  0.00     0.120 C 
ATOM     28  C   UNL     1       9.578   5.667  27.713  1.00  0.00     0.014 C 
ATOM     29  C   UNL     1      11.464   4.042  27.827  1.00  0.00     0.014 C 
ENDROOT
BRANCH   1  30
ATOM     30  C   UNL     1       6.942   6.279  36.895  1.00  0.00     0.048 C 
ATOM     31  O   UNL     1       6.324   5.212  36.658  1.00  0.00    -0.550 OA
ATOM     32  O   UNL     1       7.571   6.414  38.127  1.00  0.00    -0.550 OA
ENDBRANCH   1  30
BRANCH  27  33
ATOM     33  O   UNL     1       9.544   1.875  27.706  1.00  0.00    -0.393 OA
ATOM     34  H   UNL     1      10.225   1.962  28.426  1.00  0.00     0.210 HD
ENDBRANCH  27  33
TORSDOF 2
ENDMDL
MODEL 4
REMARK VINA RESULT:    -6.222      1.825      3.740
REMARK INTER + INTRA:          -6.539
REMARK INTER:                  -6.773
REMARK INTRA:                   0.234
REMARK UNBOUND:                 0.229
REMARK SMILES CC1(C)CC[C@]2(C(=O)[O-])CC[C@@]3(C)C(=CC[C@@H]4[C@@]5(C)CC[C@H](O)C(C)(C)[C@H]5CC[C@@]43C)[C@H]2C1
REMARK SMILES IDX 6 1 5 2 10 3 32 4 4 5 11 6 14 7 33 8 2 9 12 10 15 11 1 12
REMARK SMILES IDX 3 13 13 14 30 15 16 16 17 17 29 18 31 19 18 20 28 21 27 22
REMARK SMILES IDX 20 23 19 24 24 25 21 26 22 27 25 28 26 29 7 30 8 31 9 32
REMARK SMILES IDX 23 33
REMARK H PARENT 23 34
REMARK Flexibility Score: inf
ROOT
ATOM      1  C   UNL     1       8.744   4.442  28.313  1.00  0.00     0.017 C 
ATOM      2  C   UNL     1       9.319   4.956  26.947  1.00  0.00     0.014 C 
ATOM      3  C   UNL     1       7.499   5.264  28.681  1.00  0.00     0.014 C 
ATOM      4  C   UNL     1       9.796   4.690  29.436  1.00  0.00     0.028 C 
ATOM      5  C   UNL     1      10.857   5.047  26.875  1.00  0.00     0.007 C 
ATOM      6  C   UNL     1       6.824   4.718  29.944  1.00  0.00     0.013 C 
ATOM      7  C   UNL     1       9.252   4.587  30.875  1.00  0.00    -0.064 C 
ATOM      8  C   UNL     1      11.096   3.871  29.171  1.00  0.00     0.015 C 
ATOM      9  C   UNL     1      11.611   3.955  27.683  1.00  0.00    -0.035 C 
ATOM     10  C   UNL     1       7.735   4.583  31.229  1.00  0.00    -0.006 C 
ATOM     11  C   UNL     1      10.126   4.840  31.876  1.00  0.00    -0.027 C 
ATOM     12  C   UNL     1      11.491   2.586  26.972  1.00  0.00     0.011 C 
ATOM     13  C   UNL     1      13.117   4.327  27.688  1.00  0.00     0.011 C 
ATOM     14  C   UNL     1       7.395   3.184  31.833  1.00  0.00     0.017 C 
ATOM     15  C   UNL     1       7.449   5.773  32.290  1.00  0.00    -0.020 C 
ATOM     16  C   UNL     1       9.720   4.876  33.307  1.00  0.00     0.032 C 
ATOM     17  C   UNL     1       8.443   5.736  33.550  1.00  0.00     0.006 C 
ATOM     18  C   UNL     1       5.978   5.775  32.800  1.00  0.00     0.008 C 
ATOM     19  C   UNL     1       7.673   7.138  31.542  1.00  0.00     0.012 C 
ATOM     20  C   UNL     1       7.840   5.541  35.027  1.00  0.00    -0.025 C 
ATOM     21  C   UNL     1       5.755   6.774  33.934  1.00  0.00     0.005 C 
ATOM     22  C   UNL     1       6.503   6.393  35.232  1.00  0.00     0.003 C 
ATOM     23  C   UNL     1       8.988   5.918  36.054  1.00  0.00     0.010 C 
ATOM     24  C   UNL     1       7.489   4.047  35.328  1.00  0.00     0.012 C 
ATOM     25  C   UNL     1       6.601   7.573  36.263  1.00  0.00    -0.006 C 
ATOM     26  C   UNL     1       8.619   6.519  37.431  1.00  0.00     0.033 C 
ATOM     27  C   UNL     1       7.173   6.999  37.586  1.00  0.00     0.120 C 
ATOM     28  C   UNL     1       7.474   8.749  35.746  1.00  0.00     0.014 C 
ATOM     29  C   UNL     1       5.202   8.162  36.582  1.00  0.00     0.014 C 
ENDROOT
BRANCH   1  30
ATOM     30  C   UNL     1       8.339   2.978  28.158  1.00  0.00     0.048 C 
ATOM     31  O   UNL     1       8.700   2.094  28.975  1.00  0.00    -0.550 OA
ATOM     32  O   UNL     1       7.488   2.606  27.124  1.00  0.00    -0.550 OA
ENDBRANCH   1  30
BRANCH  27  33
ATOM     33  O   UNL     1       6.363   5.951  38.050  1.00  0.00    -0.393 OA
ATOM     34  H   UNL     1       6.647   5.123  37.577  1.00  0.00     0.210 HD
ENDBRANCH  27  33
TORSDOF 2
ENDMDL
MODEL 5
REMARK VINA RESULT:    -6.135     10.477     13.022
REMARK INTER + INTRA:          -6.444
REMARK INTER:                  -6.667
REMARK INTRA:                   0.223
REMARK UNBOUND:                 0.229
REMARK SMILES CC1(C)CC[C@]2(C(=O)[O-])CC[C@@]3(C)C(=CC[C@@H]4[C@@]5(C)CC[C@H](O)C(C)(C)[C@H]5CC[C@@]43C)[C@H]2C1
REMARK SMILES IDX 6 1 5 2 10 3 32 4 4 5 11 6 14 7 33 8 2 9 12 10 15 11 1 12
REMARK SMILES IDX 3 13 13 14 30 15 16 16 17 17 29 18 31 19 18 20 28 21 27 22
REMARK SMILES IDX 20 23 19 24 24 25 21 26 22 27 25 28 26 29 7 30 8 31 9 32
REMARK SMILES IDX 23 33
REMARK H PARENT 23 34
REMARK Flexibility Score: inf
ROOT
ATOM      1  C   UNL     1       3.035  17.667  30.105  1.00  0.00     0.017 C 
ATOM      2  C   UNL     1       3.652  17.999  28.702  1.00  0.00     0.014 C 
ATOM      3  C   UNL     1       3.690  16.392  30.658  1.00  0.00     0.014 C 
ATOM      4  C   UNL     1       1.517  17.358  29.936  1.00  0.00     0.028 C 
ATOM      5  C   UNL     1       2.644  18.485  27.640  1.00  0.00     0.007 C 
ATOM      6  C   UNL     1       3.214  16.095  32.084  1.00  0.00     0.013 C 
ATOM      7  C   UNL     1       0.854  16.660  31.141  1.00  0.00    -0.064 C 
ATOM      8  C   UNL     1       0.750  18.607  29.404  1.00  0.00     0.015 C 
ATOM      9  C   UNL     1       1.467  19.330  28.200  1.00  0.00    -0.035 C 
ATOM     10  C   UNL     1       1.652  15.993  32.300  1.00  0.00    -0.006 C 
ATOM     11  C   UNL     1      -0.452  16.336  31.013  1.00  0.00    -0.027 C 
ATOM     12  C   UNL     1       1.967  20.736  28.611  1.00  0.00     0.011 C 
ATOM     13  C   UNL     1       0.445  19.537  27.052  1.00  0.00     0.011 C 
ATOM     14  C   UNL     1       1.359  16.802  33.603  1.00  0.00     0.017 C 
ATOM     15  C   UNL     1       1.169  14.452  32.438  1.00  0.00    -0.020 C 
ATOM     16  C   UNL     1      -1.196  15.572  32.052  1.00  0.00     0.032 C 
ATOM     17  C   UNL     1      -0.426  14.305  32.536  1.00  0.00     0.006 C 
ATOM     18  C   UNL     1       1.823  13.730  33.653  1.00  0.00     0.008 C 
ATOM     19  C   UNL     1       1.644  13.690  31.147  1.00  0.00     0.012 C 
ATOM     20  C   UNL     1      -1.081  13.649  33.848  1.00  0.00    -0.025 C 
ATOM     21  C   UNL     1       1.232  12.343  33.894  1.00  0.00     0.005 C 
ATOM     22  C   UNL     1      -0.244  12.384  34.352  1.00  0.00     0.003 C 
ATOM     23  C   UNL     1      -2.589  13.303  33.496  1.00  0.00     0.010 C 
ATOM     24  C   UNL     1      -1.156  14.661  35.038  1.00  0.00     0.012 C 
ATOM     25  C   UNL     1      -0.971  10.998  34.236  1.00  0.00    -0.006 C 
ATOM     26  C   UNL     1      -3.279  12.100  34.178  1.00  0.00     0.033 C 
ATOM     27  C   UNL     1      -2.356  11.131  34.922  1.00  0.00     0.120 C 
ATOM     28  C   UNL     1      -1.126  10.524  32.764  1.00  0.00     0.014 C 
ATOM     29  C   UNL     1      -0.190   9.886  34.983  1.00  0.00     0.014 C 
ENDROOT
BRANCH   1  30
ATOM     30  C   UNL     1       3.328  18.825  31.058  1.00  0.00     0.048 C 
ATOM     31  O   UNL     1       2.423  19.386  31.725  1.00  0.00    -0.550 OA
ATOM     32  O   UNL     1       4.640  19.235  31.258  1.00  0.00    -0.550 OA
ENDBRANCH   1  30
BRANCH  27  33
ATOM     33  O   UNL     1      -2.199  11.541  36.255  1.00  0.00    -0.393 OA
ATOM     34  H   UNL     1      -2.101  10.721  36.810  1.00  0.00     0.210 HD
ENDBRANCH  27  33
TORSDOF 2
ENDMDL
MODEL 6
REMARK VINA RESULT:    -6.089      1.577      8.044
REMARK INTER + INTRA:          -6.394
REMARK INTER:                  -6.618
REMARK INTRA:                   0.224
REMARK UNBOUND:                 0.229
REMARK SMILES CC1(C)CC[C@]2(C(=O)[O-])CC[C@@]3(C)C(=CC[C@@H]4[C@@]5(C)CC[C@H](O)C(C)(C)[C@H]5CC[C@@]43C)[C@H]2C1
REMARK SMILES IDX 6 1 5 2 10 3 32 4 4 5 11 6 14 7 33 8 2 9 12 10 15 11 1 12
REMARK SMILES IDX 3 13 13 14 30 15 16 16 17 17 29 18 31 19 18 20 28 21 27 22
REMARK SMILES IDX 20 23 19 24 24 25 21 26 22 27 25 28 26 29 7 30 8 31 9 32
REMARK SMILES IDX 23 33
REMARK H PARENT 23 34
REMARK Flexibility Score: inf
ROOT
ATOM      1  C   UNL     1       6.289   8.118  36.300  1.00  0.00     0.017 C 
ATOM      2  C   UNL     1       5.841   9.544  36.778  1.00  0.00     0.014 C 
ATOM      3  C   UNL     1       7.784   8.147  35.948  1.00  0.00     0.014 C 
ATOM      4  C   UNL     1       5.524   7.753  34.993  1.00  0.00     0.028 C 
ATOM      5  C   UNL     1       4.462  10.005  36.262  1.00  0.00     0.007 C 
ATOM      6  C   UNL     1       8.302   6.748  35.598  1.00  0.00     0.013 C 
ATOM      7  C   UNL     1       6.112   6.567  34.202  1.00  0.00    -0.064 C 
ATOM      8  C   UNL     1       3.989   7.667  35.251  1.00  0.00     0.015 C 
ATOM      9  C   UNL     1       3.416   8.868  36.098  1.00  0.00    -0.035 C 
ATOM     10  C   UNL     1       7.531   5.976  34.455  1.00  0.00    -0.006 C 
ATOM     11  C   UNL     1       5.501   6.249  33.038  1.00  0.00    -0.027 C 
ATOM     12  C   UNL     1       2.925   8.389  37.485  1.00  0.00     0.011 C 
ATOM     13  C   UNL     1       2.184   9.461  35.367  1.00  0.00     0.011 C 
ATOM     14  C   UNL     1       7.348   4.519  34.988  1.00  0.00     0.017 C 
ATOM     15  C   UNL     1       8.355   5.998  33.060  1.00  0.00    -0.020 C 
ATOM     16  C   UNL     1       6.016   5.195  32.122  1.00  0.00     0.032 C 
ATOM     17  C   UNL     1       7.545   5.329  31.847  1.00  0.00     0.006 C 
ATOM     18  C   UNL     1       9.749   5.314  33.182  1.00  0.00     0.008 C 
ATOM     19  C   UNL     1       8.617   7.504  32.690  1.00  0.00     0.012 C 
ATOM     20  C   UNL     1       8.153   4.041  31.105  1.00  0.00    -0.025 C 
ATOM     21  C   UNL     1      10.446   5.169  31.831  1.00  0.00     0.005 C 
ATOM     22  C   UNL     1       9.730   4.182  30.882  1.00  0.00     0.003 C 
ATOM     23  C   UNL     1       7.343   3.851  29.755  1.00  0.00     0.010 C 
ATOM     24  C   UNL     1       7.915   2.725  31.918  1.00  0.00     0.012 C 
ATOM     25  C   UNL     1      10.196   4.305  29.388  1.00  0.00    -0.006 C 
ATOM     26  C   UNL     1       8.040   3.232  28.522  1.00  0.00     0.033 C 
ATOM     27  C   UNL     1       9.566   3.128  28.598  1.00  0.00     0.120 C 
ATOM     28  C   UNL     1       9.811   5.669  28.751  1.00  0.00     0.014 C 
ATOM     29  C   UNL     1      11.736   4.173  29.264  1.00  0.00     0.014 C 
ENDROOT
BRANCH   1  30
ATOM     30  C   UNL     1       6.071   7.126  37.442  1.00  0.00     0.048 C 
ATOM     31  O   UNL     1       5.431   6.057  37.284  1.00  0.00    -0.550 OA
ATOM     32  O   UNL     1       6.653   7.366  38.681  1.00  0.00    -0.550 OA
ENDBRANCH   1  30
BRANCH  27  33
ATOM     33  O   UNL     1       9.939   1.903  29.174  1.00  0.00    -0.393 OA
ATOM     34  H   UNL     1      10.923   1.808  29.062  1.00  0.00     0.210 HD
ENDBRANCH  27  33
TORSDOF 2
ENDMDL
MODEL 7
REMARK VINA RESULT:    -6.044      8.937     12.693
REMARK INTER + INTRA:          -6.346
REMARK INTER:                  -6.573
REMARK INTRA:                   0.228
REMARK UNBOUND:                 0.229
REMARK SMILES CC1(C)CC[C@]2(C(=O)[O-])CC[C@@]3(C)C(=CC[C@@H]4[C@@]5(C)CC[C@H](O)C(C)(C)[C@H]5CC[C@@]43C)[C@H]2C1
REMARK SMILES IDX 6 1 5 2 10 3 32 4 4 5 11 6 14 7 33 8 2 9 12 10 15 11 1 12
REMARK SMILES IDX 3 13 13 14 30 15 16 16 17 17 29 18 31 19 18 20 28 21 27 22
REMARK SMILES IDX 20 23 19 24 24 25 21 26 22 27 25 28 26 29 7 30 8 31 9 32
REMARK SMILES IDX 23 33
REMARK H PARENT 23 34
REMARK Flexibility Score: inf
ROOT
ATOM      1  C   UNL     1      -0.708  10.891  34.052  1.00  0.00     0.017 C 
ATOM      2  C   UNL     1      -0.744   9.325  33.972  1.00  0.00     0.014 C 
ATOM      3  C   UNL     1      -1.136  11.479  32.699  1.00  0.00     0.014 C 
ATOM      4  C   UNL     1       0.757  11.358  34.304  1.00  0.00     0.028 C 
ATOM      5  C   UNL     1       0.430   8.606  34.668  1.00  0.00     0.007 C 
ATOM      6  C   UNL     1      -1.243  13.006  32.762  1.00  0.00     0.013 C 
ATOM      7  C   UNL     1       1.021  12.854  34.041  1.00  0.00    -0.064 C 
ATOM      8  C   UNL     1       1.279  10.836  35.678  1.00  0.00     0.015 C 
ATOM      9  C   UNL     1       0.961   9.314  35.944  1.00  0.00    -0.035 C 
ATOM     10  C   UNL     1       0.039  13.782  33.265  1.00  0.00    -0.006 C 
ATOM     11  C   UNL     1       2.291  13.286  34.206  1.00  0.00    -0.027 C 
ATOM     12  C   UNL     1      -0.049   9.150  37.106  1.00  0.00     0.011 C 
ATOM     13  C   UNL     1       2.264   8.593  36.378  1.00  0.00     0.011 C 
ATOM     14  C   UNL     1      -0.492  14.854  34.270  1.00  0.00     0.017 C 
ATOM     15  C   UNL     1       0.841  14.468  32.035  1.00  0.00    -0.020 C 
ATOM     16  C   UNL     1       2.713  14.679  33.893  1.00  0.00     0.032 C 
ATOM     17  C   UNL     1       2.214  15.161  32.496  1.00  0.00     0.006 C 
ATOM     18  C   UNL     1      -0.024  15.511  31.269  1.00  0.00     0.008 C 
ATOM     19  C   UNL     1       1.198  13.330  31.011  1.00  0.00     0.012 C 
ATOM     20  C   UNL     1       2.413  16.740  32.281  1.00  0.00    -0.025 C 
ATOM     21  C   UNL     1       0.784  16.289  30.232  1.00  0.00     0.005 C 
ATOM     22  C   UNL     1       1.847  17.216  30.864  1.00  0.00     0.003 C 
ATOM     23  C   UNL     1       3.958  17.047  32.475  1.00  0.00     0.010 C 
ATOM     24  C   UNL     1       1.684  17.581  33.380  1.00  0.00     0.012 C 
ATOM     25  C   UNL     1       2.922  17.721  29.838  1.00  0.00    -0.006 C 
ATOM     26  C   UNL     1       4.612  18.212  31.696  1.00  0.00     0.033 C 
ATOM     27  C   UNL     1       3.785  18.797  30.548  1.00  0.00     0.120 C 
ATOM     28  C   UNL     1       3.812  16.572  29.289  1.00  0.00     0.014 C 
ATOM     29  C   UNL     1       2.258  18.397  28.611  1.00  0.00     0.014 C 
ENDROOT
BRANCH   1  30
ATOM     30  C   UNL     1      -1.697  11.351  35.122  1.00  0.00     0.048 C 
ATOM     31  O   UNL     1      -1.361  12.127  36.052  1.00  0.00    -0.550 OA
ATOM     32  O   UNL     1      -3.029  10.964  35.040  1.00  0.00    -0.550 OA
ENDBRANCH   1  30
BRANCH  27  33
ATOM     33  O   UNL     1       2.969  19.838  31.022  1.00  0.00    -0.393 OA
ATOM     34  H   UNL     1       2.566  19.534  31.879  1.00  0.00     0.210 HD
ENDBRANCH  27  33
TORSDOF 2
ENDMDL
MODEL 8
REMARK VINA RESULT:    -6.021     10.323     13.708
REMARK INTER + INTRA:          -6.321
REMARK INTER:                  -6.579
REMARK INTRA:                   0.258
REMARK UNBOUND:                 0.229
REMARK SMILES CC1(C)CC[C@]2(C(=O)[O-])CC[C@@]3(C)C(=CC[C@@H]4[C@@]5(C)CC[C@H](O)C(C)(C)[C@H]5CC[C@@]43C)[C@H]2C1
REMARK SMILES IDX 6 1 5 2 10 3 32 4 4 5 11 6 14 7 33 8 2 9 12 10 15 11 1 12
REMARK SMILES IDX 3 13 13 14 30 15 16 16 17 17 29 18 31 19 18 20 28 21 27 22
REMARK SMILES IDX 20 23 19 24 24 25 21 26 22 27 25 28 26 29 7 30 8 31 9 32
REMARK SMILES IDX 23 33
REMARK H PARENT 23 34
REMARK Flexibility Score: inf
ROOT
ATOM      1  C   UNL     1       0.226  13.151  32.581  1.00  0.00     0.017 C 
ATOM      2  C   UNL     1       0.182  11.591  32.738  1.00  0.00     0.014 C 
ATOM      3  C   UNL     1       0.385  13.507  31.095  1.00  0.00     0.014 C 
ATOM      4  C   UNL     1       1.484  13.704  33.314  1.00  0.00     0.028 C 
ATOM      5  C   UNL     1       0.966  11.031  33.944  1.00  0.00     0.007 C 
ATOM      6  C   UNL     1       0.303  15.021  30.872  1.00  0.00     0.013 C 
ATOM      7  C   UNL     1       1.871  15.151  32.947  1.00  0.00    -0.064 C 
ATOM      8  C   UNL     1       1.406  13.420  34.846  1.00  0.00     0.015 C 
ATOM      9  C   UNL     1       0.967  11.947  35.199  1.00  0.00    -0.035 C 
ATOM     10  C   UNL     1       1.302  15.912  31.713  1.00  0.00    -0.006 C 
ATOM     11  C   UNL     1       2.984  15.650  33.531  1.00  0.00    -0.027 C 
ATOM     12  C   UNL     1      -0.424  11.926  35.878  1.00  0.00     0.011 C 
ATOM     13  C   UNL     1       1.972  11.349  36.218  1.00  0.00     0.011 C 
ATOM     14  C   UNL     1       0.446  17.105  32.245  1.00  0.00     0.017 C 
ATOM     15  C   UNL     1       2.543  16.430  30.808  1.00  0.00    -0.020 C 
ATOM     16  C   UNL     1       3.533  16.993  33.196  1.00  0.00     0.032 C 
ATOM     17  C   UNL     1       3.640  17.235  31.660  1.00  0.00     0.006 C 
ATOM     18  C   UNL     1       2.081  17.309  29.610  1.00  0.00     0.008 C 
ATOM     19  C   UNL     1       3.245  15.162  30.199  1.00  0.00     0.012 C 
ATOM     20  C   UNL     1       3.951  18.769  31.298  1.00  0.00    -0.025 C 
ATOM     21  C   UNL     1       3.253  17.948  28.869  1.00  0.00     0.005 C 
ATOM     22  C   UNL     1       4.005  19.000  29.717  1.00  0.00     0.003 C 
ATOM     23  C   UNL     1       5.301  19.160  32.035  1.00  0.00     0.010 C 
ATOM     24  C   UNL     1       2.870  19.742  31.873  1.00  0.00     0.012 C 
ATOM     25  C   UNL     1       5.411  19.381  29.133  1.00  0.00    -0.006 C 
ATOM     26  C   UNL     1       6.241  20.213  31.406  1.00  0.00     0.033 C 
ATOM     27  C   UNL     1       5.952  20.585  29.949  1.00  0.00     0.120 C 
ATOM     28  C   UNL     1       6.414  18.195  29.166  1.00  0.00     0.014 C 
ATOM     29  C   UNL     1       5.305  19.835  27.654  1.00  0.00     0.014 C 
ENDROOT
BRANCH   1  30
ATOM     30  C   UNL     1      -1.092  13.733  33.088  1.00  0.00     0.048 C 
ATOM     31  O   UNL     1      -2.206  13.270  32.736  1.00  0.00    -0.550 OA
ATOM     32  O   UNL     1      -1.075  14.762  34.021  1.00  0.00    -0.550 OA
ENDBRANCH   1  30
BRANCH  27  33
ATOM     33  O   UNL     1       5.044  21.654  29.893  1.00  0.00    -0.393 OA
ATOM     34  H   UNL     1       4.621  21.733  30.791  1.00  0.00     0.210 HD
ENDBRANCH  27  33
TORSDOF 2
ENDMDL
MODEL 9
REMARK VINA RESULT:    -5.983     10.431     12.908
REMARK INTER + INTRA:          -6.279
REMARK INTER:                  -6.505
REMARK INTRA:                   0.226
REMARK UNBOUND:                 0.229
REMARK SMILES CC1(C)CC[C@]2(C(=O)[O-])CC[C@@]3(C)C(=CC[C@@H]4[C@@]5(C)CC[C@H](O)C(C)(C)[C@H]5CC[C@@]43C)[C@H]2C1
REMARK SMILES IDX 6 1 5 2 10 3 32 4 4 5 11 6 14 7 33 8 2 9 12 10 15 11 1 12
REMARK SMILES IDX 3 13 13 14 30 15 16 16 17 17 29 18 31 19 18 20 28 21 27 22
REMARK SMILES IDX 20 23 19 24 24 25 21 26 22 27 25 28 26 29 7 30 8 31 9 32
REMARK SMILES IDX 23 33
REMARK H PARENT 23 34
REMARK Flexibility Score: inf
ROOT
ATOM      1  C   UNL     1      -3.012  11.048  35.003  1.00  0.00     0.017 C 
ATOM      2  C   UNL     1      -4.460  10.455  34.903  1.00  0.00     0.014 C 
ATOM      3  C   UNL     1      -3.099  12.562  35.251  1.00  0.00     0.014 C 
ATOM      4  C   UNL     1      -2.285  10.857  33.638  1.00  0.00     0.028 C 
ATOM      5  C   UNL     1      -4.659   9.391  33.804  1.00  0.00     0.007 C 
ATOM      6  C   UNL     1      -1.712  13.170  35.485  1.00  0.00     0.013 C 
ATOM      7  C   UNL     1      -1.009  11.702  33.452  1.00  0.00    -0.064 C 
ATOM      8  C   UNL     1      -2.117   9.342  33.304  1.00  0.00     0.015 C 
ATOM      9  C   UNL     1      -3.421   8.489  33.541  1.00  0.00    -0.035 C 
ATOM     10  C   UNL     1      -0.628  12.906  34.364  1.00  0.00    -0.006 C 
ATOM     11  C   UNL     1      -0.376  11.596  32.261  1.00  0.00    -0.027 C 
ATOM     12  C   UNL     1      -3.230   7.491  34.709  1.00  0.00     0.011 C 
ATOM     13  C   UNL     1      -3.712   7.644  32.273  1.00  0.00     0.011 C 
ATOM     14  C   UNL     1       0.677  12.523  35.132  1.00  0.00     0.017 C 
ATOM     15  C   UNL     1      -0.406  14.212  33.431  1.00  0.00    -0.020 C 
ATOM     16  C   UNL     1       0.807  12.425  31.904  1.00  0.00     0.032 C 
ATOM     17  C   UNL     1       0.597  13.940  32.208  1.00  0.00     0.006 C 
ATOM     18  C   UNL     1       0.098  15.443  34.240  1.00  0.00     0.008 C 
ATOM     19  C   UNL     1      -1.804  14.604  32.827  1.00  0.00     0.012 C 
ATOM     20  C   UNL     1       1.959  14.785  32.100  1.00  0.00    -0.025 C 
ATOM     21  C   UNL     1       0.483  16.614  33.339  1.00  0.00     0.005 C 
ATOM     22  C   UNL     1       1.725  16.324  32.466  1.00  0.00     0.003 C 
ATOM     23  C   UNL     1       2.529  14.569  30.635  1.00  0.00     0.010 C 
ATOM     24  C   UNL     1       3.068  14.242  33.059  1.00  0.00     0.012 C 
ATOM     25  C   UNL     1       1.906  17.339  31.283  1.00  0.00    -0.006 C 
ATOM     26  C   UNL     1       3.347  15.692  29.956  1.00  0.00     0.033 C 
ATOM     27  C   UNL     1       3.287  17.065  30.632  1.00  0.00     0.120 C 
ATOM     28  C   UNL     1       0.768  17.240  30.230  1.00  0.00     0.014 C 
ATOM     29  C   UNL     1       1.918  18.803  31.792  1.00  0.00     0.014 C 
ENDROOT
BRANCH   1  30
ATOM     30  C   UNL     1      -2.293  10.397  36.183  1.00  0.00     0.048 C 
ATOM     31  O   UNL     1      -1.168   9.849  36.060  1.00  0.00    -0.550 OA
ATOM     32  O   UNL     1      -2.854  10.464  37.452  1.00  0.00    -0.550 OA
ENDBRANCH   1  30
BRANCH  27  33
ATOM     33  O   UNL     1       4.306  17.177  31.591  1.00  0.00    -0.393 OA
ATOM     34  H   UNL     1       3.927  16.887  32.464  1.00  0.00     0.210 HD
ENDBRANCH  27  33
TORSDOF 2
ENDMDL
