MODEL 1
REMARK VINA RESULT:    -3.843      0.000      0.000
REMARK INTER + INTRA:          -3.843
REMARK INTER:                  -3.843
REMARK INTRA:                   0.000
REMARK UNBOUND:                 0.000
REMARK SMILES C=C1[C@H]2CC[C@H](C2)C1(C)C
REMARK SMILES IDX 9 1 8 2 6 3 5 4 4 5 3 6 7 7 2 8 1 9 10 10
REMARK H PARENT
REMARK Flexibility Score: inf
ROOT
ATOM      1  C   UNL     1     141.813 144.791 133.135  1.00  0.00     0.016 C 
ATOM      2  C   UNL     1     142.317 143.534 132.391  1.00  0.00    -0.012 C 
ATOM      3  C   UNL     1     142.559 143.832 130.870  1.00  0.00    -0.001 C 
ATOM      4  C   UNL     1     142.877 142.533 130.089  1.00  0.00     0.005 C 
ATOM      5  C   UNL     1     144.261 142.130 130.641  1.00  0.00     0.008 C 
ATOM      6  C   UNL     1     144.611 143.299 131.580  1.00  0.00     0.015 C 
ATOM      7  C   UNL     1     143.949 144.461 130.874  1.00  0.00     0.012 C 
ATOM      8  C   UNL     1     143.728 143.182 132.794  1.00  0.00    -0.068 C 
ATOM      9  C   UNL     1     144.132 142.778 134.005  1.00  0.00     0.008 C 
ATOM     10  C   UNL     1     141.335 142.368 132.652  1.00  0.00     0.016 C 
ENDROOT
TORSDOF 0
ENDMDL
MODEL 2
REMARK VINA RESULT:    -3.824      4.383      6.163
REMARK INTER + INTRA:          -3.824
REMARK INTER:                  -3.824
REMARK INTRA:                   0.000
REMARK UNBOUND:                 0.000
REMARK SMILES C=C1[C@H]2CC[C@H](C2)C1(C)C
REMARK SMILES IDX 9 1 8 2 6 3 5 4 4 5 3 6 7 7 2 8 1 9 10 10
REMARK H PARENT
REMARK Flexibility Score: inf
ROOT
ATOM      1  C   UNL     1     143.230 138.005 132.176  1.00  0.00     0.016 C 
ATOM      2  C   UNL     1     142.135 138.716 133.003  1.00  0.00    -0.012 C 
ATOM      3  C   UNL     1     140.722 138.088 132.737  1.00  0.00    -0.001 C 
ATOM      4  C   UNL     1     139.604 138.918 133.413  1.00  0.00     0.005 C 
ATOM      5  C   UNL     1     139.865 138.687 134.917  1.00  0.00     0.008 C 
ATOM      6  C   UNL     1     141.022 137.672 134.913  1.00  0.00     0.015 C 
ATOM      7  C   UNL     1     140.720 136.875 133.663  1.00  0.00     0.012 C 
ATOM      8  C   UNL     1     142.263 138.403 134.475  1.00  0.00    -0.068 C 
ATOM      9  C   UNL     1     143.273 138.757 135.278  1.00  0.00     0.008 C 
ATOM     10  C   UNL     1     142.206 140.236 132.730  1.00  0.00     0.016 C 
ENDROOT
TORSDOF 0
ENDMDL
MODEL 3
REMARK VINA RESULT:    -3.817      4.604      6.366
REMARK INTER + INTRA:          -3.817
REMARK INTER:                  -3.817
REMARK INTRA:                   0.000
REMARK UNBOUND:                 0.000
REMARK SMILES C=C1[C@H]2CC[C@H](C2)C1(C)C
REMARK SMILES IDX 9 1 8 2 6 3 5 4 4 5 3 6 7 7 2 8 1 9 10 10
REMARK H PARENT
REMARK Flexibility Score: inf
ROOT
ATOM      1  C   UNL     1     138.170 138.907 132.207  1.00  0.00     0.016 C 
ATOM      2  C   UNL     1     138.806 140.031 133.056  1.00  0.00    -0.012 C 
ATOM      3  C   UNL     1     138.141 141.419 132.752  1.00  0.00    -0.001 C 
ATOM      4  C   UNL     1     138.902 142.569 133.456  1.00  0.00     0.005 C 
ATOM      5  C   UNL     1     138.615 142.309 134.950  1.00  0.00     0.008 C 
ATOM      6  C   UNL     1     137.641 141.118 134.911  1.00  0.00     0.015 C 
ATOM      7  C   UNL     1     136.890 141.385 133.625  1.00  0.00     0.012 C 
ATOM      8  C   UNL     1     138.433 139.900 134.514  1.00  0.00    -0.068 C 
ATOM      9  C   UNL     1     138.787 138.908 135.339  1.00  0.00     0.008 C 
ATOM     10  C   UNL     1     140.338 140.011 132.850  1.00  0.00     0.016 C 
ENDROOT
TORSDOF 0
ENDMDL
MODEL 4
REMARK VINA RESULT:    -3.812      3.648      4.621
REMARK INTER + INTRA:          -3.812
REMARK INTER:                  -3.812
REMARK INTRA:                   0.000
REMARK UNBOUND:                 0.000
REMARK SMILES C=C1[C@H]2CC[C@H](C2)C1(C)C
REMARK SMILES IDX 9 1 8 2 6 3 5 4 4 5 3 6 7 7 2 8 1 9 10 10
REMARK H PARENT
REMARK Flexibility Score: inf
ROOT
ATOM      1  C   UNL     1     144.772 140.387 133.212  1.00  0.00     0.016 C 
ATOM      2  C   UNL     1     143.501 139.917 132.469  1.00  0.00    -0.012 C 
ATOM      3  C   UNL     1     143.776 139.725 130.936  1.00  0.00    -0.001 C 
ATOM      4  C   UNL     1     142.465 139.444 130.164  1.00  0.00     0.005 C 
ATOM      5  C   UNL     1     142.059 138.044 130.673  1.00  0.00     0.008 C 
ATOM      6  C   UNL     1     143.238 137.654 131.583  1.00  0.00     0.015 C 
ATOM      7  C   UNL     1     144.395 138.332 130.883  1.00  0.00     0.012 C 
ATOM      8  C   UNL     1     143.144 138.495 132.828  1.00  0.00    -0.068 C 
ATOM      9  C   UNL     1     142.755 138.052 134.029  1.00  0.00     0.008 C 
ATOM     10  C   UNL     1     142.346 140.897 132.780  1.00  0.00     0.016 C 
ENDROOT
TORSDOF 0
ENDMDL
MODEL 5
REMARK VINA RESULT:    -3.809      3.788      6.032
REMARK INTER + INTRA:          -3.809
REMARK INTER:                  -3.809
REMARK INTRA:                   0.000
REMARK UNBOUND:                 0.000
REMARK SMILES C=C1[C@H]2CC[C@H](C2)C1(C)C
REMARK SMILES IDX 9 1 8 2 6 3 5 4 4 5 3 6 7 7 2 8 1 9 10 10
REMARK H PARENT
REMARK Flexibility Score: inf
ROOT
ATOM      1  C   UNL     1     139.410 143.590 135.000  1.00  0.00     0.016 C 
ATOM      2  C   UNL     1     139.313 142.266 134.209  1.00  0.00    -0.012 C 
ATOM      3  C   UNL     1     138.647 141.136 135.070  1.00  0.00    -0.001 C 
ATOM      4  C   UNL     1     138.724 139.767 134.352  1.00  0.00     0.005 C 
ATOM      5  C   UNL     1     137.779 139.957 133.146  1.00  0.00     0.008 C 
ATOM      6  C   UNL     1     137.196 141.362 133.384  1.00  0.00     0.015 C 
ATOM      7  C   UNL     1     137.158 141.420 134.895  1.00  0.00     0.012 C 
ATOM      8  C   UNL     1     138.290 142.358 133.102  1.00  0.00    -0.068 C 
ATOM      9  C   UNL     1     138.357 143.143 132.020  1.00  0.00     0.008 C 
ATOM     10  C   UNL     1     140.714 141.899 133.669  1.00  0.00     0.016 C 
ENDROOT
TORSDOF 0
ENDMDL
MODEL 6
REMARK VINA RESULT:    -3.794      1.647      3.746
REMARK INTER + INTRA:          -3.794
REMARK INTER:                  -3.794
REMARK INTRA:                   0.000
REMARK UNBOUND:                 0.000
REMARK SMILES C=C1[C@H]2CC[C@H](C2)C1(C)C
REMARK SMILES IDX 9 1 8 2 6 3 5 4 4 5 3 6 7 7 2 8 1 9 10 10
REMARK H PARENT
REMARK Flexibility Score: inf
ROOT
ATOM      1  C   UNL     1     143.628 142.916 134.995  1.00  0.00     0.016 C 
ATOM      2  C   UNL     1     142.312 142.946 134.186  1.00  0.00    -0.012 C 
ATOM      3  C   UNL     1     141.147 143.588 135.017  1.00  0.00    -0.001 C 
ATOM      4  C   UNL     1     139.791 143.444 134.283  1.00  0.00     0.005 C 
ATOM      5  C   UNL     1     139.963 144.370 133.060  1.00  0.00     0.008 C 
ATOM      6  C   UNL     1     141.342 145.009 133.302  1.00  0.00     0.015 C 
ATOM      7  C   UNL     1     141.378 145.082 134.813  1.00  0.00     0.012 C 
ATOM      8  C   UNL     1     142.381 143.947 133.057  1.00  0.00    -0.068 C 
ATOM      9  C   UNL     1     143.182 143.886 131.987  1.00  0.00     0.008 C 
ATOM     10  C   UNL     1     142.005 141.521 133.672  1.00  0.00     0.016 C 
ENDROOT
TORSDOF 0
ENDMDL
MODEL 7
REMARK VINA RESULT:    -3.790      4.426      6.094
REMARK INTER + INTRA:          -3.790
REMARK INTER:                  -3.790
REMARK INTRA:                   0.000
REMARK UNBOUND:                 0.000
REMARK SMILES C=C1[C@H]2CC[C@H](C2)C1(C)C
REMARK SMILES IDX 9 1 8 2 6 3 5 4 4 5 3 6 7 7 2 8 1 9 10 10
REMARK H PARENT
REMARK Flexibility Score: inf
ROOT
ATOM      1  C   UNL     1     138.754 139.094 135.784  1.00  0.00     0.016 C 
ATOM      2  C   UNL     1     138.615 139.965 134.515  1.00  0.00    -0.012 C 
ATOM      3  C   UNL     1     137.403 140.955 134.635  1.00  0.00    -0.001 C 
ATOM      4  C   UNL     1     137.145 141.688 133.295  1.00  0.00     0.005 C 
ATOM      5  C   UNL     1     138.387 142.595 133.156  1.00  0.00     0.008 C 
ATOM      6  C   UNL     1     139.140 142.353 134.476  1.00  0.00     0.015 C 
ATOM      7  C   UNL     1     137.996 142.109 135.435  1.00  0.00     0.012 C 
ATOM      8  C   UNL     1     139.736 140.971 134.409  1.00  0.00    -0.068 C 
ATOM      9  C   UNL     1     141.033 140.700 134.229  1.00  0.00     0.008 C 
ATOM     10  C   UNL     1     138.550 139.043 133.276  1.00  0.00     0.016 C 
ENDROOT
TORSDOF 0
ENDMDL
MODEL 8
REMARK VINA RESULT:    -3.767      1.400      3.785
REMARK INTER + INTRA:          -3.767
REMARK INTER:                  -3.767
REMARK INTRA:                   0.000
REMARK UNBOUND:                 0.000
REMARK SMILES C=C1[C@H]2CC[C@H](C2)C1(C)C
REMARK SMILES IDX 9 1 8 2 6 3 5 4 4 5 3 6 7 7 2 8 1 9 10 10
REMARK H PARENT
REMARK Flexibility Score: inf
ROOT
ATOM      1  C   UNL     1     143.564 143.593 132.071  1.00  0.00     0.016 C 
ATOM      2  C   UNL     1     142.706 143.523 133.355  1.00  0.00    -0.012 C 
ATOM      3  C   UNL     1     141.830 144.813 133.525  1.00  0.00    -0.001 C 
ATOM      4  C   UNL     1     141.120 144.830 134.900  1.00  0.00     0.005 C 
ATOM      5  C   UNL     1     140.105 143.673 134.777  1.00  0.00     0.008 C 
ATOM      6  C   UNL     1     140.281 143.214 133.319  1.00  0.00     0.015 C 
ATOM      7  C   UNL     1     140.628 144.517 132.633  1.00  0.00     0.012 C 
ATOM      8  C   UNL     1     141.604 142.499 133.228  1.00  0.00    -0.068 C 
ATOM      9  C   UNL     1     141.757 141.175 133.111  1.00  0.00     0.008 C 
ATOM     10  C   UNL     1     143.629 143.229 134.560  1.00  0.00     0.016 C 
ENDROOT
TORSDOF 0
ENDMDL
MODEL 9
REMARK VINA RESULT:    -3.749      2.248      4.050
REMARK INTER + INTRA:          -3.749
REMARK INTER:                  -3.749
REMARK INTRA:                   0.000
REMARK UNBOUND:                 0.000
REMARK SMILES C=C1[C@H]2CC[C@H](C2)C1(C)C
REMARK SMILES IDX 9 1 8 2 6 3 5 4 4 5 3 6 7 7 2 8 1 9 10 10
REMARK H PARENT
REMARK Flexibility Score: inf
ROOT
ATOM      1  C   UNL     1     143.250 143.295 135.667  1.00  0.00     0.016 C 
ATOM      2  C   UNL     1     143.479 142.340 134.474  1.00  0.00    -0.012 C 
ATOM      3  C   UNL     1     144.698 141.387 134.732  1.00  0.00    -0.001 C 
ATOM      4  C   UNL     1     145.046 140.568 133.466  1.00  0.00     0.005 C 
ATOM      5  C   UNL     1     143.830 139.627 133.321  1.00  0.00     0.008 C 
ATOM      6  C   UNL     1     142.997 139.945 134.576  1.00  0.00     0.015 C 
ATOM      7  C   UNL     1     144.079 140.280 135.579  1.00  0.00     0.012 C 
ATOM      8  C   UNL     1     142.383 141.306 134.376  1.00  0.00    -0.068 C 
ATOM      9  C   UNL     1     141.093 141.536 134.104  1.00  0.00     0.008 C 
ATOM     10  C   UNL     1     143.599 143.175 133.178  1.00  0.00     0.016 C 
ENDROOT
TORSDOF 0
ENDMDL
