MODEL 1
REMARK VINA RESULT:    -5.200      0.000      0.000
REMARK INTER + INTRA:          -5.200
REMARK INTER:                  -5.200
REMARK INTRA:                   0.000
REMARK UNBOUND:                 0.000
REMARK SMILES CC1=CC(=O)[C@H]2C[C@@H]1C2(C)C
REMARK SMILES IDX 1 1 2 2 3 3 4 4 5 5 6 6 7 7 8 8 9 9 10 10 11 11
REMARK H PARENT
REMARK Flexibility Score: inf
ROOT
ATOM      1  C   UNL     1     -25.727  10.737 -27.503  1.00  0.00     0.040 C 
ATOM      2  C   UNL     1     -26.265  11.146 -28.838  1.00  0.00    -0.066 C 
ATOM      3  C   UNL     1     -25.755  12.199 -29.537  1.00  0.00     0.047 C 
ATOM      4  C   UNL     1     -26.397  12.491 -30.859  1.00  0.00     0.159 C 
ATOM      5  O   UNL     1     -26.045  13.461 -31.578  1.00  0.00    -0.295 OA
ATOM      6  C   UNL     1     -27.509  11.526 -31.273  1.00  0.00     0.067 C 
ATOM      7  C   UNL     1     -26.929  10.128 -30.969  1.00  0.00     0.021 C 
ATOM      8  C   UNL     1     -27.398  10.346 -29.513  1.00  0.00     0.022 C 
ATOM      9  C   UNL     1     -28.469  11.329 -30.065  1.00  0.00    -0.019 C 
ATOM     10  C   UNL     1     -28.838  12.572 -29.206  1.00  0.00     0.012 C 
ATOM     11  C   UNL     1     -29.782  10.609 -30.466  1.00  0.00     0.012 C 
ENDROOT
TORSDOF 0
ENDMDL
MODEL 2
REMARK VINA RESULT:    -5.115      9.535     11.284
REMARK INTER + INTRA:          -5.115
REMARK INTER:                  -5.115
REMARK INTRA:                   0.000
REMARK UNBOUND:                 0.000
REMARK SMILES CC1=CC(=O)[C@H]2C[C@@H]1C2(C)C
REMARK SMILES IDX 1 1 2 2 3 3 4 4 5 5 6 6 7 7 8 8 9 9 10 10 11 11
REMARK H PARENT
REMARK Flexibility Score: inf
ROOT
ATOM      1  C   UNL     1     -19.036  11.729 -29.386  1.00  0.00     0.040 C 
ATOM      2  C   UNL     1     -17.864  12.509 -29.892  1.00  0.00    -0.066 C 
ATOM      3  C   UNL     1     -17.772  12.926 -31.186  1.00  0.00     0.047 C 
ATOM      4  C   UNL     1     -16.538  13.697 -31.548  1.00  0.00     0.159 C 
ATOM      5  O   UNL     1     -16.317  14.100 -32.719  1.00  0.00    -0.295 OA
ATOM      6  C   UNL     1     -15.569  13.959 -30.394  1.00  0.00     0.067 C 
ATOM      7  C   UNL     1     -16.478  14.423 -29.235  1.00  0.00     0.021 C 
ATOM      8  C   UNL     1     -16.723  12.926 -28.943  1.00  0.00     0.022 C 
ATOM      9  C   UNL     1     -15.353  12.629 -29.618  1.00  0.00    -0.019 C 
ATOM     10  C   UNL     1     -15.206  11.313 -30.433  1.00  0.00     0.012 C 
ATOM     11  C   UNL     1     -14.171  12.715 -28.618  1.00  0.00     0.012 C 
ENDROOT
TORSDOF 0
ENDMDL
MODEL 3
REMARK VINA RESULT:    -5.057      0.822      3.135
REMARK INTER + INTRA:          -5.057
REMARK INTER:                  -5.057
REMARK INTRA:                   0.000
REMARK UNBOUND:                 0.000
REMARK SMILES CC1=CC(=O)[C@H]2C[C@@H]1C2(C)C
REMARK SMILES IDX 1 1 2 2 3 3 4 4 5 5 6 6 7 7 8 8 9 9 10 10 11 11
REMARK H PARENT
REMARK Flexibility Score: inf
ROOT
ATOM      1  C   UNL     1     -29.432   9.883 -30.586  1.00  0.00     0.040 C 
ATOM      2  C   UNL     1     -28.303  10.823 -30.305  1.00  0.00    -0.066 C 
ATOM      3  C   UNL     1     -27.756  11.612 -31.271  1.00  0.00     0.047 C 
ATOM      4  C   UNL     1     -26.629  12.503 -30.842  1.00  0.00     0.159 C 
ATOM      5  O   UNL     1     -26.014  13.247 -31.649  1.00  0.00    -0.295 OA
ATOM      6  C   UNL     1     -26.281  12.444 -29.354  1.00  0.00     0.067 C 
ATOM      7  C   UNL     1     -27.650  12.505 -28.643  1.00  0.00     0.021 C 
ATOM      8  C   UNL     1     -27.741  10.980 -28.877  1.00  0.00     0.022 C 
ATOM      9  C   UNL     1     -26.187  10.952 -28.926  1.00  0.00    -0.019 C 
ATOM     10  C   UNL     1     -25.500   9.948 -29.895  1.00  0.00     0.012 C 
ATOM     11  C   UNL     1     -25.555  10.780 -27.521  1.00  0.00     0.012 C 
ENDROOT
TORSDOF 0
ENDMDL
MODEL 4
REMARK VINA RESULT:    -5.030      2.062      3.164
REMARK INTER + INTRA:          -5.030
REMARK INTER:                  -5.030
REMARK INTRA:                   0.000
REMARK UNBOUND:                 0.000
REMARK SMILES CC1=CC(=O)[C@H]2C[C@@H]1C2(C)C
REMARK SMILES IDX 1 1 2 2 3 3 4 4 5 5 6 6 7 7 8 8 9 9 10 10 11 11
REMARK H PARENT
REMARK Flexibility Score: inf
ROOT
ATOM      1  C   UNL     1     -25.781  13.694 -30.108  1.00  0.00     0.040 C 
ATOM      2  C   UNL     1     -26.617  12.714 -29.348  1.00  0.00    -0.066 C 
ATOM      3  C   UNL     1     -26.135  12.024 -28.276  1.00  0.00     0.047 C 
ATOM      4  C   UNL     1     -27.088  11.074 -27.616  1.00  0.00     0.159 C 
ATOM      5  O   UNL     1     -26.750  10.350 -26.644  1.00  0.00    -0.295 OA
ATOM      6  C   UNL     1     -28.499  11.048 -28.205  1.00  0.00     0.067 C 
ATOM      7  C   UNL     1     -28.863  12.539 -28.378  1.00  0.00     0.021 C 
ATOM      8  C   UNL     1     -28.095  12.481 -29.718  1.00  0.00     0.022 C 
ATOM      9  C   UNL     1     -28.387  10.953 -29.753  1.00  0.00    -0.019 C 
ATOM     10  C   UNL     1     -27.306  10.013 -30.359  1.00  0.00     0.012 C 
ATOM     11  C   UNL     1     -29.746  10.626 -30.424  1.00  0.00     0.012 C 
ENDROOT
TORSDOF 0
ENDMDL
MODEL 5
REMARK VINA RESULT:    -4.807      1.741      2.855
REMARK INTER + INTRA:          -4.807
REMARK INTER:                  -4.807
REMARK INTRA:                   0.000
REMARK UNBOUND:                 0.000
REMARK SMILES CC1=CC(=O)[C@H]2C[C@@H]1C2(C)C
REMARK SMILES IDX 1 1 2 2 3 3 4 4 5 5 6 6 7 7 8 8 9 9 10 10 11 11
REMARK H PARENT
REMARK Flexibility Score: inf
ROOT
ATOM      1  C   UNL     1     -29.389  12.497 -28.266  1.00  0.00     0.040 C 
ATOM      2  C   UNL     1     -28.136  11.862 -28.780  1.00  0.00    -0.066 C 
ATOM      3  C   UNL     1     -27.053  11.640 -27.982  1.00  0.00     0.047 C 
ATOM      4  C   UNL     1     -25.868  10.997 -28.638  1.00  0.00     0.159 C 
ATOM      5  O   UNL     1     -24.794  10.778 -28.019  1.00  0.00    -0.295 OA
ATOM      6  C   UNL     1     -26.056  10.626 -30.109  1.00  0.00     0.067 C 
ATOM      7  C   UNL     1     -27.445   9.952 -30.154  1.00  0.00     0.021 C 
ATOM      8  C   UNL     1     -28.037  11.377 -30.240  1.00  0.00     0.022 C 
ATOM      9  C   UNL     1     -26.683  11.841 -30.850  1.00  0.00    -0.019 C 
ATOM     10  C   UNL     1     -26.169  13.266 -30.497  1.00  0.00     0.012 C 
ATOM     11  C   UNL     1     -26.643  11.678 -32.391  1.00  0.00     0.012 C 
ENDROOT
TORSDOF 0
ENDMDL
MODEL 6
REMARK VINA RESULT:    -4.689     10.973     12.504
REMARK INTER + INTRA:          -4.689
REMARK INTER:                  -4.689
REMARK INTRA:                   0.000
REMARK UNBOUND:                 0.000
REMARK SMILES CC1=CC(=O)[C@H]2C[C@@H]1C2(C)C
REMARK SMILES IDX 1 1 2 2 3 3 4 4 5 5 6 6 7 7 8 8 9 9 10 10 11 11
REMARK H PARENT
REMARK Flexibility Score: inf
ROOT
ATOM      1  C   UNL     1     -14.356  16.510 -30.485  1.00  0.00     0.040 C 
ATOM      2  C   UNL     1     -14.554  15.027 -30.463  1.00  0.00    -0.066 C 
ATOM      3  C   UNL     1     -13.606  14.160 -30.917  1.00  0.00     0.047 C 
ATOM      4  C   UNL     1     -13.946  12.703 -30.834  1.00  0.00     0.159 C 
ATOM      5  O   UNL     1     -13.172  11.806 -31.259  1.00  0.00    -0.295 OA
ATOM      6  C   UNL     1     -15.297  12.382 -30.195  1.00  0.00     0.067 C 
ATOM      7  C   UNL     1     -15.342  13.276 -28.936  1.00  0.00     0.021 C 
ATOM      8  C   UNL     1     -15.834  14.409 -29.865  1.00  0.00     0.022 C 
ATOM      9  C   UNL     1     -16.375  13.310 -30.824  1.00  0.00    -0.019 C 
ATOM     10  C   UNL     1     -16.316  13.576 -32.355  1.00  0.00     0.012 C 
ATOM     11  C   UNL     1     -17.817  12.869 -30.463  1.00  0.00     0.012 C 
ENDROOT
TORSDOF 0
ENDMDL
MODEL 7
REMARK VINA RESULT:    -4.672      1.574      2.917
REMARK INTER + INTRA:          -4.672
REMARK INTER:                  -4.672
REMARK INTRA:                   0.000
REMARK UNBOUND:                 0.000
REMARK SMILES CC1=CC(=O)[C@H]2C[C@@H]1C2(C)C
REMARK SMILES IDX 1 1 2 2 3 3 4 4 5 5 6 6 7 7 8 8 9 9 10 10 11 11
REMARK H PARENT
REMARK Flexibility Score: inf
ROOT
ATOM      1  C   UNL     1     -27.119  10.205 -27.124  1.00  0.00     0.040 C 
ATOM      2  C   UNL     1     -26.950  10.712 -28.521  1.00  0.00    -0.066 C 
ATOM      3  C   UNL     1     -26.693   9.881 -29.570  1.00  0.00     0.047 C 
ATOM      4  C   UNL     1     -26.546  10.533 -30.911  1.00  0.00     0.159 C 
ATOM      5  O   UNL     1     -26.265   9.879 -31.950  1.00  0.00    -0.295 OA
ATOM      6  C   UNL     1     -26.761  12.046 -30.930  1.00  0.00     0.067 C 
ATOM      7  C   UNL     1     -28.036  12.257 -30.086  1.00  0.00     0.021 C 
ATOM      8  C   UNL     1     -27.118  12.210 -28.845  1.00  0.00     0.022 C 
ATOM      9  C   UNL     1     -25.951  12.676 -29.762  1.00  0.00    -0.019 C 
ATOM     10  C   UNL     1     -24.525  12.127 -29.472  1.00  0.00     0.012 C 
ATOM     11  C   UNL     1     -25.864  14.220 -29.868  1.00  0.00     0.012 C 
ENDROOT
TORSDOF 0
ENDMDL
MODEL 8
REMARK VINA RESULT:    -4.599      1.521      2.598
REMARK INTER + INTRA:          -4.599
REMARK INTER:                  -4.599
REMARK INTRA:                   0.000
REMARK UNBOUND:                 0.000
REMARK SMILES CC1=CC(=O)[C@H]2C[C@@H]1C2(C)C
REMARK SMILES IDX 1 1 2 2 3 3 4 4 5 5 6 6 7 7 8 8 9 9 10 10 11 11
REMARK H PARENT
REMARK Flexibility Score: inf
ROOT
ATOM      1  C   UNL     1     -25.492  14.481 -30.150  1.00  0.00     0.040 C 
ATOM      2  C   UNL     1     -26.011  13.082 -30.247  1.00  0.00    -0.066 C 
ATOM      3  C   UNL     1     -26.467  12.554 -31.418  1.00  0.00     0.047 C 
ATOM      4  C   UNL     1     -26.960  11.140 -31.360  1.00  0.00     0.159 C 
ATOM      5  O   UNL     1     -27.444  10.555 -32.364  1.00  0.00    -0.295 OA
ATOM      6  C   UNL     1     -26.831  10.457 -29.998  1.00  0.00     0.067 C 
ATOM      7  C   UNL     1     -25.404  10.816 -29.529  1.00  0.00     0.021 C 
ATOM      8  C   UNL     1     -26.001  12.148 -29.020  1.00  0.00     0.022 C 
ATOM      9  C   UNL     1     -27.373  11.424 -28.907  1.00  0.00    -0.019 C 
ATOM     10  C   UNL     1     -28.661  12.239 -29.217  1.00  0.00     0.012 C 
ATOM     11  C   UNL     1     -27.560  10.723 -27.537  1.00  0.00     0.012 C 
ENDROOT
TORSDOF 0
ENDMDL
MODEL 9
REMARK VINA RESULT:    -4.578      1.673      3.447
REMARK INTER + INTRA:          -4.578
REMARK INTER:                  -4.578
REMARK INTRA:                   0.000
REMARK UNBOUND:                 0.000
REMARK SMILES CC1=CC(=O)[C@H]2C[C@@H]1C2(C)C
REMARK SMILES IDX 1 1 2 2 3 3 4 4 5 5 6 6 7 7 8 8 9 9 10 10 11 11
REMARK H PARENT
REMARK Flexibility Score: inf
ROOT
ATOM      1  C   UNL     1     -27.069  10.605 -32.370  1.00  0.00     0.040 C 
ATOM      2  C   UNL     1     -27.312  10.978 -30.942  1.00  0.00    -0.066 C 
ATOM      3  C   UNL     1     -28.335  11.797 -30.568  1.00  0.00     0.047 C 
ATOM      4  C   UNL     1     -28.453  12.083 -29.102  1.00  0.00     0.159 C 
ATOM      5  O   UNL     1     -29.330  12.857 -28.636  1.00  0.00    -0.295 OA
ATOM      6  C   UNL     1     -27.436  11.368 -28.211  1.00  0.00     0.067 C 
ATOM      7  C   UNL     1     -27.432   9.915 -28.734  1.00  0.00     0.021 C 
ATOM      8  C   UNL     1     -26.437  10.398 -29.813  1.00  0.00     0.022 C 
ATOM      9  C   UNL     1     -26.024  11.539 -28.839  1.00  0.00    -0.019 C 
ATOM     10  C   UNL     1     -25.647  12.921 -29.445  1.00  0.00     0.012 C 
ATOM     11  C   UNL     1     -24.892  11.108 -27.871  1.00  0.00     0.012 C 
ENDROOT
TORSDOF 0
ENDMDL
