MODEL 1
REMARK VINA RESULT:    -2.959      0.000      0.000
REMARK INTER + INTRA:          -6.566
REMARK INTER:                  -4.602
REMARK INTRA:                  -1.965
REMARK UNBOUND:                -1.965
REMARK SMILES COc1cc(CNC(=O)CCCCC=CC(C)C)ccc1O
REMARK SMILES IDX 11 1 12 2 13 3 14 4 15 5 16 6 17 7 18 8 10 9 8 10 9 11 7 12
REMARK SMILES IDX 6 14 5 15 4 16 19 17 3 18 20 19 21 20 2 21 1 22 22 23
REMARK H PARENT 7 13 22 24
REMARK Flexibility Score: inf
ROOT
ATOM      1  C   UNL     1     906.522  10.602   4.906  1.00  0.00     0.010 C 
ENDROOT
BRANCH   1   2
ATOM      2  C   UNL     1     906.326   9.851   3.579  1.00  0.00     0.005 C 
BRANCH   2   3
ATOM      3  C   UNL     1     904.880   9.931   3.067  1.00  0.00     0.027 C 
BRANCH   3   4
ATOM      4  C   UNL     1     903.915   9.430   4.106  1.00  0.00    -0.031 C 
ATOM      5  C   UNL     1     903.749   8.115   4.331  1.00  0.00    -0.028 C 
BRANCH   5   6
ATOM      6  C   UNL     1     902.784   7.578   5.364  1.00  0.00     0.005 C 
ATOM      7  C   UNL     1     901.373   8.141   5.159  1.00  0.00     0.012 C 
ATOM      8  C   UNL     1     902.775   6.045   5.372  1.00  0.00     0.012 C 
ENDBRANCH   5   6
ENDBRANCH   3   4
ENDBRANCH   2   3
ENDBRANCH   1   2
BRANCH   1   9
ATOM      9  C   UNL     1     907.360   9.805   5.912  1.00  0.00     0.100 C 
BRANCH   9  10
ATOM     10  C   UNL     1     906.705   9.818   7.260  1.00  0.00     0.220 C 
ATOM     11  O   UNL     1     907.399  10.059   8.285  1.00  0.00    -0.275 OA
ATOM     12  N   UNL     1     905.290   9.610   7.375  1.00  0.00    -0.352 N 
ATOM     13  H   UNL     1     904.729   9.453   6.507  1.00  0.00     0.163 HD
BRANCH  12  14
ATOM     14  C   UNL     1     904.593   9.652   8.657  1.00  0.00     0.151 C 
BRANCH  14  15
ATOM     15  C   UNL     1     903.696   8.451   8.807  1.00  0.00    -0.025 A 
ATOM     16  C   UNL     1     904.253   7.166   8.899  1.00  0.00     0.056 A 
ATOM     17  C   UNL     1     902.304   8.608   8.876  1.00  0.00     0.009 A 
ATOM     18  C   UNL     1     903.425   6.037   9.056  1.00  0.00     0.160 A 
ATOM     19  C   UNL     1     901.479   7.492   9.030  1.00  0.00     0.050 A 
ATOM     20  C   UNL     1     902.034   6.209   9.120  1.00  0.00     0.157 A 
BRANCH  18  21
ATOM     21  O   UNL     1     903.944   4.736   9.153  1.00  0.00    -0.493 OA
ATOM     22  C   UNL     1     904.451   3.987   8.053  1.00  0.00     0.278 C 
ENDBRANCH  18  21
BRANCH  20  23
ATOM     23  O   UNL     1     901.207   5.096   9.275  1.00  0.00    -0.504 OA
ATOM     24  H   UNL     1     901.544   4.242   9.703  1.00  0.00     0.293 HD
ENDBRANCH  20  23
ENDBRANCH  14  15
ENDBRANCH  12  14
ENDBRANCH   9  10
ENDBRANCH   1   9
TORSDOF 10
ENDMDL
MODEL 2
REMARK VINA RESULT:    -2.929      2.181      3.728
REMARK INTER + INTRA:          -6.521
REMARK INTER:                  -4.621
REMARK INTRA:                  -1.900
REMARK UNBOUND:                -1.965
REMARK SMILES COc1cc(CNC(=O)CCCCC=CC(C)C)ccc1O
REMARK SMILES IDX 11 1 12 2 13 3 14 4 15 5 16 6 17 7 18 8 10 9 8 10 9 11 7 12
REMARK SMILES IDX 6 14 5 15 4 16 19 17 3 18 20 19 21 20 2 21 1 22 22 23
REMARK H PARENT 7 13 22 24
REMARK Flexibility Score: inf
ROOT
ATOM      1  C   UNL     1     905.287   9.583   3.889  1.00  0.00     0.010 C 
ENDROOT
BRANCH   1   2
ATOM      2  C   UNL     1     906.302   9.435   5.033  1.00  0.00     0.005 C 
BRANCH   2   3
ATOM      3  C   UNL     1     906.124  10.506   6.119  1.00  0.00     0.027 C 
BRANCH   3   4
ATOM      4  C   UNL     1     905.482   9.923   7.346  1.00  0.00    -0.031 C 
ATOM      5  C   UNL     1     904.943   8.692   7.337  1.00  0.00    -0.028 C 
BRANCH   5   6
ATOM      6  C   UNL     1     904.285   8.077   8.552  1.00  0.00     0.005 C 
ATOM      7  C   UNL     1     905.229   7.106   9.271  1.00  0.00     0.012 C 
ATOM      8  C   UNL     1     903.764   9.157   9.508  1.00  0.00     0.012 C 
ENDBRANCH   5   6
ENDBRANCH   3   4
ENDBRANCH   2   3
ENDBRANCH   1   2
BRANCH   1   9
ATOM      9  C   UNL     1     905.036   8.262   3.153  1.00  0.00     0.100 C 
BRANCH   9  10
ATOM     10  C   UNL     1     903.637   7.786   3.401  1.00  0.00     0.220 C 
ATOM     11  O   UNL     1     903.109   6.967   2.601  1.00  0.00    -0.275 OA
ATOM     12  N   UNL     1     902.926   8.222   4.568  1.00  0.00    -0.352 N 
ATOM     13  H   UNL     1     903.399   8.869   5.238  1.00  0.00     0.163 HD
BRANCH  12  14
ATOM     14  C   UNL     1     901.576   7.761   4.881  1.00  0.00     0.151 C 
BRANCH  14  15
ATOM     15  C   UNL     1     901.575   6.961   6.156  1.00  0.00    -0.025 A 
ATOM     16  C   UNL     1     902.295   5.758   6.230  1.00  0.00     0.056 A 
ATOM     17  C   UNL     1     900.875   7.418   7.283  1.00  0.00     0.009 A 
ATOM     18  C   UNL     1     902.315   5.008   7.423  1.00  0.00     0.160 A 
ATOM     19  C   UNL     1     900.890   6.678   8.466  1.00  0.00     0.050 A 
ATOM     20  C   UNL     1     901.607   5.476   8.540  1.00  0.00     0.157 A 
BRANCH  18  21
ATOM     21  O   UNL     1     903.023   3.801   7.536  1.00  0.00    -0.493 OA
ATOM     22  C   UNL     1     904.424   3.709   7.775  1.00  0.00     0.278 C 
ENDBRANCH  18  21
BRANCH  20  23
ATOM     23  O   UNL     1     901.622   4.740   9.725  1.00  0.00    -0.504 OA
ATOM     24  H   UNL     1     900.839   4.754  10.367  1.00  0.00     0.293 HD
ENDBRANCH  20  23
ENDBRANCH  14  15
ENDBRANCH  12  14
ENDBRANCH   9  10
ENDBRANCH   1   9
TORSDOF 10
ENDMDL
MODEL 3
REMARK VINA RESULT:    -2.797      2.535      4.315
REMARK INTER + INTRA:          -6.315
REMARK INTER:                  -4.628
REMARK INTRA:                  -1.687
REMARK UNBOUND:                -1.965
REMARK SMILES COc1cc(CNC(=O)CCCCC=CC(C)C)ccc1O
REMARK SMILES IDX 11 1 12 2 13 3 14 4 15 5 16 6 17 7 18 8 10 9 8 10 9 11 7 12
REMARK SMILES IDX 6 14 5 15 4 16 19 17 3 18 20 19 21 20 2 21 1 22 22 23
REMARK H PARENT 7 13 22 24
REMARK Flexibility Score: inf
ROOT
ATOM      1  C   UNL     1     905.027   9.026   9.588  1.00  0.00     0.010 C 
ENDROOT
BRANCH   1   2
ATOM      2  C   UNL     1     906.161   9.948   9.116  1.00  0.00     0.005 C 
BRANCH   2   3
ATOM      3  C   UNL     1     905.932  10.482   7.694  1.00  0.00     0.027 C 
BRANCH   3   4
ATOM      4  C   UNL     1     905.417   9.396   6.791  1.00  0.00    -0.031 C 
ATOM      5  C   UNL     1     905.332   9.572   5.461  1.00  0.00    -0.028 C 
BRANCH   5   6
ATOM      6  C   UNL     1     904.814   8.503   4.526  1.00  0.00     0.005 C 
ATOM      7  C   UNL     1     904.649   9.039   3.098  1.00  0.00     0.012 C 
ATOM      8  C   UNL     1     905.708   7.258   4.553  1.00  0.00     0.012 C 
ENDBRANCH   5   6
ENDBRANCH   3   4
ENDBRANCH   2   3
ENDBRANCH   1   2
BRANCH   1   9
ATOM      9  C   UNL     1     903.819   9.806  10.120  1.00  0.00     0.100 C 
BRANCH   9  10
ATOM     10  C   UNL     1     902.550   9.261   9.540  1.00  0.00     0.220 C 
ATOM     11  O   UNL     1     901.555  10.022   9.397  1.00  0.00    -0.275 OA
ATOM     12  N   UNL     1     902.487   7.896   9.103  1.00  0.00    -0.352 N 
ATOM     13  H   UNL     1     903.338   7.295   9.194  1.00  0.00     0.163 HD
BRANCH  12  14
ATOM     14  C   UNL     1     901.291   7.321   8.494  1.00  0.00     0.151 C 
BRANCH  14  15
ATOM     15  C   UNL     1     901.521   7.055   7.030  1.00  0.00    -0.025 A 
ATOM     16  C   UNL     1     902.254   5.929   6.628  1.00  0.00     0.056 A 
ATOM     17  C   UNL     1     900.988   7.917   6.058  1.00  0.00     0.009 A 
ATOM     18  C   UNL     1     902.462   5.660   5.260  1.00  0.00     0.160 A 
ATOM     19  C   UNL     1     901.193   7.656   4.702  1.00  0.00     0.050 A 
ATOM     20  C   UNL     1     901.927   6.533   4.300  1.00  0.00     0.157 A 
BRANCH  18  21
ATOM     21  O   UNL     1     903.190   4.544   4.819  1.00  0.00    -0.493 OA
ATOM     22  C   UNL     1     902.743   3.196   4.929  1.00  0.00     0.278 C 
ENDBRANCH  18  21
BRANCH  20  23
ATOM     23  O   UNL     1     902.128   6.274   2.945  1.00  0.00    -0.504 OA
ATOM     24  H   UNL     1     902.949   6.614   2.457  1.00  0.00     0.293 HD
ENDBRANCH  20  23
ENDBRANCH  14  15
ENDBRANCH  12  14
ENDBRANCH   9  10
ENDBRANCH   1   9
TORSDOF 10
ENDMDL
MODEL 4
REMARK VINA RESULT:    -2.790      2.427      3.972
REMARK INTER + INTRA:          -6.304
REMARK INTER:                  -4.721
REMARK INTRA:                  -1.583
REMARK UNBOUND:                -1.965
REMARK SMILES COc1cc(CNC(=O)CCCCC=CC(C)C)ccc1O
REMARK SMILES IDX 11 1 12 2 13 3 14 4 15 5 16 6 17 7 18 8 10 9 8 10 9 11 7 12
REMARK SMILES IDX 6 14 5 15 4 16 19 17 3 18 20 19 21 20 2 21 1 22 22 23
REMARK H PARENT 7 13 22 24
REMARK Flexibility Score: inf
ROOT
ATOM      1  C   UNL     1     906.014   9.994   8.790  1.00  0.00     0.010 C 
ENDROOT
BRANCH   1   2
ATOM      2  C   UNL     1     905.804  10.537   7.368  1.00  0.00     0.005 C 
BRANCH   2   3
ATOM      3  C   UNL     1     905.547   9.421   6.345  1.00  0.00     0.027 C 
BRANCH   3   4
ATOM      4  C   UNL     1     905.553   9.966   4.944  1.00  0.00    -0.031 C 
ATOM      5  C   UNL     1     904.734   9.476   3.998  1.00  0.00    -0.028 C 
BRANCH   5   6
ATOM      6  C   UNL     1     904.718   9.997   2.578  1.00  0.00     0.005 C 
ATOM      7  C   UNL     1     905.912  10.921   2.307  1.00  0.00     0.012 C 
ATOM      8  C   UNL     1     904.662   8.849   1.564  1.00  0.00     0.012 C 
ENDBRANCH   5   6
ENDBRANCH   3   4
ENDBRANCH   2   3
ENDBRANCH   1   2
BRANCH   1   9
ATOM      9  C   UNL     1     904.931  10.470   9.765  1.00  0.00     0.100 C 
BRANCH   9  10
ATOM     10  C   UNL     1     903.650   9.733   9.519  1.00  0.00     0.220 C 
ATOM     11  O   UNL     1     902.560  10.367   9.520  1.00  0.00    -0.275 OA
ATOM     12  N   UNL     1     903.672   8.327   9.234  1.00  0.00    -0.352 N 
ATOM     13  H   UNL     1     904.591   7.832   9.199  1.00  0.00     0.163 HD
BRANCH  12  14
ATOM     14  C   UNL     1     902.459   7.566   8.949  1.00  0.00     0.151 C 
BRANCH  14  15
ATOM     15  C   UNL     1     902.284   7.393   7.463  1.00  0.00    -0.025 A 
ATOM     16  C   UNL     1     903.195   6.613   6.735  1.00  0.00     0.056 A 
ATOM     17  C   UNL     1     901.201   7.990   6.800  1.00  0.00     0.009 A 
ATOM     18  C   UNL     1     903.033   6.430   5.347  1.00  0.00     0.160 A 
ATOM     19  C   UNL     1     901.036   7.814   5.425  1.00  0.00     0.050 A 
ATOM     20  C   UNL     1     901.947   7.037   4.698  1.00  0.00     0.157 A 
BRANCH  18  21
ATOM     21  O   UNL     1     903.922   5.657   4.585  1.00  0.00    -0.493 OA
ATOM     22  C   UNL     1     905.338   5.812   4.598  1.00  0.00     0.278 C 
ENDBRANCH  18  21
BRANCH  20  23
ATOM     23  O   UNL     1     901.779   6.861   3.324  1.00  0.00    -0.504 OA
ATOM     24  H   UNL     1     902.564   6.661   2.716  1.00  0.00     0.293 HD
ENDBRANCH  20  23
ENDBRANCH  14  15
ENDBRANCH  12  14
ENDBRANCH   9  10
ENDBRANCH   1   9
TORSDOF 10
ENDMDL
MODEL 5
REMARK VINA RESULT:    -2.789      2.440      6.613
REMARK INTER + INTRA:          -6.303
REMARK INTER:                  -4.619
REMARK INTRA:                  -1.684
REMARK UNBOUND:                -1.965
REMARK SMILES COc1cc(CNC(=O)CCCCC=CC(C)C)ccc1O
REMARK SMILES IDX 11 1 12 2 13 3 14 4 15 5 16 6 17 7 18 8 10 9 8 10 9 11 7 12
REMARK SMILES IDX 6 14 5 15 4 16 19 17 3 18 20 19 21 20 2 21 1 22 22 23
REMARK H PARENT 7 13 22 24
REMARK Flexibility Score: inf
ROOT
ATOM      1  C   UNL     1     903.744   3.916   7.053  1.00  0.00     0.010 C 
ENDROOT
BRANCH   1   2
ATOM      2  C   UNL     1     903.448   4.322   8.506  1.00  0.00     0.005 C 
BRANCH   2   3
ATOM      3  C   UNL     1     904.358   5.459   8.995  1.00  0.00     0.027 C 
BRANCH   3   4
ATOM      4  C   UNL     1     903.617   6.767   9.012  1.00  0.00    -0.031 C 
ATOM      5  C   UNL     1     902.274   6.812   9.004  1.00  0.00    -0.028 C 
BRANCH   5   6
ATOM      6  C   UNL     1     901.499   8.110   9.016  1.00  0.00     0.005 C 
ATOM      7  C   UNL     1     902.368   9.279   9.494  1.00  0.00     0.012 C 
ATOM      8  C   UNL     1     900.881   8.402   7.643  1.00  0.00     0.012 C 
ENDBRANCH   5   6
ENDBRANCH   3   4
ENDBRANCH   2   3
ENDBRANCH   1   2
BRANCH   1   9
ATOM      9  C   UNL     1     902.467   3.659   6.245  1.00  0.00     0.100 C 
BRANCH   9  10
ATOM     10  C   UNL     1     902.276   4.733   5.218  1.00  0.00     0.220 C 
ATOM     11  O   UNL     1     901.702   4.456   4.130  1.00  0.00    -0.275 OA
ATOM     12  N   UNL     1     902.697   6.076   5.495  1.00  0.00    -0.352 N 
ATOM     13  H   UNL     1     903.133   6.290   6.421  1.00  0.00     0.163 HD
BRANCH  12  14
ATOM     14  C   UNL     1     902.501   7.171   4.549  1.00  0.00     0.151 C 
BRANCH  14  15
ATOM     15  C   UNL     1     903.628   8.164   4.653  1.00  0.00    -0.025 A 
ATOM     16  C   UNL     1     903.961   8.966   3.550  1.00  0.00     0.056 A 
ATOM     17  C   UNL     1     904.339   8.311   5.854  1.00  0.00     0.009 A 
ATOM     18  C   UNL     1     905.003   9.910   3.640  1.00  0.00     0.160 A 
ATOM     19  C   UNL     1     905.373   9.244   5.948  1.00  0.00     0.050 A 
ATOM     20  C   UNL     1     905.707  10.043   4.846  1.00  0.00     0.157 A 
BRANCH  18  21
ATOM     21  O   UNL     1     905.365  10.730   2.559  1.00  0.00    -0.493 OA
ATOM     22  C   UNL     1     905.615  10.259   1.239  1.00  0.00     0.278 C 
ENDBRANCH  18  21
BRANCH  20  23
ATOM     23  O   UNL     1     906.739  10.976   4.943  1.00  0.00    -0.504 OA
ATOM     24  H   UNL     1     907.549  10.935   4.336  1.00  0.00     0.293 HD
ENDBRANCH  20  23
ENDBRANCH  14  15
ENDBRANCH  12  14
ENDBRANCH   9  10
ENDBRANCH   1   9
TORSDOF 10
ENDMDL
MODEL 6
REMARK VINA RESULT:    -2.784      3.925      6.343
REMARK INTER + INTRA:          -6.295
REMARK INTER:                  -4.575
REMARK INTRA:                  -1.720
REMARK UNBOUND:                -1.965
REMARK SMILES COc1cc(CNC(=O)CCCCC=CC(C)C)ccc1O
REMARK SMILES IDX 11 1 12 2 13 3 14 4 15 5 16 6 17 7 18 8 10 9 8 10 9 11 7 12
REMARK SMILES IDX 6 14 5 15 4 16 19 17 3 18 20 19 21 20 2 21 1 22 22 23
REMARK H PARENT 7 13 22 24
REMARK Flexibility Score: inf
ROOT
ATOM      1  C   UNL     1     906.798   9.531   6.717  1.00  0.00     0.010 C 
ENDROOT
BRANCH   1   2
ATOM      2  C   UNL     1     905.833   8.451   7.229  1.00  0.00     0.005 C 
BRANCH   2   3
ATOM      3  C   UNL     1     905.673   7.288   6.238  1.00  0.00     0.027 C 
BRANCH   3   4
ATOM      4  C   UNL     1     904.221   7.026   5.949  1.00  0.00    -0.031 C 
ATOM      5  C   UNL     1     903.368   8.030   5.679  1.00  0.00    -0.028 C 
BRANCH   5   6
ATOM      6  C   UNL     1     901.902   7.802   5.390  1.00  0.00     0.005 C 
ATOM      7  C   UNL     1     901.705   6.878   4.182  1.00  0.00     0.012 C 
ATOM      8  C   UNL     1     901.167   7.267   6.625  1.00  0.00     0.012 C 
ENDBRANCH   5   6
ENDBRANCH   3   4
ENDBRANCH   2   3
ENDBRANCH   1   2
BRANCH   1   9
ATOM      9  C   UNL     1     906.065  10.741   6.126  1.00  0.00     0.100 C 
BRANCH   9  10
ATOM     10  C   UNL     1     906.260  10.793   4.641  1.00  0.00     0.220 C 
ATOM     11  O   UNL     1     907.422  10.939   4.173  1.00  0.00    -0.275 OA
ATOM     12  N   UNL     1     905.139  10.626   3.762  1.00  0.00    -0.352 N 
ATOM     13  H   UNL     1     904.191  10.466   4.173  1.00  0.00     0.163 HD
BRANCH  12  14
ATOM     14  C   UNL     1     905.275  10.629   2.308  1.00  0.00     0.151 C 
BRANCH  14  15
ATOM     15  C   UNL     1     904.939   9.274   1.745  1.00  0.00    -0.025 A 
ATOM     16  C   UNL     1     904.543   9.149   0.404  1.00  0.00     0.056 A 
ATOM     17  C   UNL     1     905.037   8.126   2.546  1.00  0.00     0.009 A 
ATOM     18  C   UNL     1     904.241   7.884  -0.139  1.00  0.00     0.160 A 
ATOM     19  C   UNL     1     904.738   6.871   2.014  1.00  0.00     0.050 A 
ATOM     20  C   UNL     1     904.341   6.746   0.676  1.00  0.00     0.157 A 
BRANCH  18  21
ATOM     21  O   UNL     1     903.842   7.719  -1.474  1.00  0.00    -0.493 OA
ATOM     22  C   UNL     1     904.721   7.791  -2.592  1.00  0.00     0.278 C 
ENDBRANCH  18  21
BRANCH  20  23
ATOM     23  O   UNL     1     904.044   5.491   0.146  1.00  0.00    -0.504 OA
ATOM     24  H   UNL     1     903.093   5.221  -0.078  1.00  0.00     0.293 HD
ENDBRANCH  20  23
ENDBRANCH  14  15
ENDBRANCH  12  14
ENDBRANCH   9  10
ENDBRANCH   1   9
TORSDOF 10
ENDMDL
MODEL 7
REMARK VINA RESULT:    -2.766      2.912      5.844
REMARK INTER + INTRA:          -6.266
REMARK INTER:                  -4.892
REMARK INTRA:                  -1.374
REMARK UNBOUND:                -1.965
REMARK SMILES COc1cc(CNC(=O)CCCCC=CC(C)C)ccc1O
REMARK SMILES IDX 11 1 12 2 13 3 14 4 15 5 16 6 17 7 18 8 10 9 8 10 9 11 7 12
REMARK SMILES IDX 6 14 5 15 4 16 19 17 3 18 20 19 21 20 2 21 1 22 22 23
REMARK H PARENT 7 13 22 24
REMARK Flexibility Score: inf
ROOT
ATOM      1  C   UNL     1     905.130   8.987   8.460  1.00  0.00     0.010 C 
ENDROOT
BRANCH   1   2
ATOM      2  C   UNL     1     904.361   9.348   9.741  1.00  0.00     0.005 C 
BRANCH   2   3
ATOM      3  C   UNL     1     902.858   9.056   9.626  1.00  0.00     0.027 C 
BRANCH   3   4
ATOM      4  C   UNL     1     902.587   8.060   8.533  1.00  0.00    -0.031 C 
ATOM      5  C   UNL     1     901.639   8.278   7.606  1.00  0.00    -0.028 C 
BRANCH   5   6
ATOM      6  C   UNL     1     901.338   7.295   6.497  1.00  0.00     0.005 C 
ATOM      7  C   UNL     1     901.033   8.014   5.177  1.00  0.00     0.012 C 
ATOM      8  C   UNL     1     902.475   6.281   6.328  1.00  0.00     0.012 C 
ENDBRANCH   5   6
ENDBRANCH   3   4
ENDBRANCH   2   3
ENDBRANCH   1   2
BRANCH   1   9
ATOM      9  C   UNL     1     906.510   9.652   8.398  1.00  0.00     0.100 C 
BRANCH   9  10
ATOM     10  C   UNL     1     906.840  10.035   6.987  1.00  0.00     0.220 C 
ATOM     11  O   UNL     1     908.029   9.937   6.580  1.00  0.00    -0.275 OA
ATOM     12  N   UNL     1     905.799  10.459   6.095  1.00  0.00    -0.352 N 
ATOM     13  H   UNL     1     904.815  10.492   6.445  1.00  0.00     0.163 HD
BRANCH  12  14
ATOM     14  C   UNL     1     906.056  10.807   4.701  1.00  0.00     0.151 C 
BRANCH  14  15
ATOM     15  C   UNL     1     905.405   9.807   3.781  1.00  0.00    -0.025 A 
ATOM     16  C   UNL     1     905.297  10.083   2.409  1.00  0.00     0.056 A 
ATOM     17  C   UNL     1     904.923   8.588   4.281  1.00  0.00     0.009 A 
ATOM     18  C   UNL     1     904.705   9.149   1.536  1.00  0.00     0.160 A 
ATOM     19  C   UNL     1     904.334   7.660   3.421  1.00  0.00     0.050 A 
ATOM     20  C   UNL     1     904.223   7.936   2.051  1.00  0.00     0.157 A 
BRANCH  18  21
ATOM     21  O   UNL     1     904.578   9.388   0.158  1.00  0.00    -0.493 OA
ATOM     22  C   UNL     1     905.202  10.465  -0.533  1.00  0.00     0.278 C 
ENDBRANCH  18  21
BRANCH  20  23
ATOM     23  O   UNL     1     903.636   7.006   1.194  1.00  0.00    -0.504 OA
ATOM     24  H   UNL     1     904.186   6.484   0.521  1.00  0.00     0.293 HD
ENDBRANCH  20  23
ENDBRANCH  14  15
ENDBRANCH  12  14
ENDBRANCH   9  10
ENDBRANCH   1   9
TORSDOF 10
ENDMDL
MODEL 8
REMARK VINA RESULT:    -2.744      2.468      6.396
REMARK INTER + INTRA:          -6.233
REMARK INTER:                  -4.109
REMARK INTRA:                  -2.124
REMARK UNBOUND:                -1.965
REMARK SMILES COc1cc(CNC(=O)CCCCC=CC(C)C)ccc1O
REMARK SMILES IDX 11 1 12 2 13 3 14 4 15 5 16 6 17 7 18 8 10 9 8 10 9 11 7 12
REMARK SMILES IDX 6 14 5 15 4 16 19 17 3 18 20 19 21 20 2 21 1 22 22 23
REMARK H PARENT 7 13 22 24
REMARK Flexibility Score: inf
ROOT
ATOM      1  C   UNL     1     903.146   2.312   7.846  1.00  0.00     0.010 C 
ENDROOT
BRANCH   1   2
ATOM      2  C   UNL     1     902.402   2.528   9.173  1.00  0.00     0.005 C 
BRANCH   2   3
ATOM      3  C   UNL     1     902.834   3.818   9.885  1.00  0.00     0.027 C 
BRANCH   3   4
ATOM      4  C   UNL     1     901.990   4.982   9.445  1.00  0.00    -0.031 C 
ATOM      5  C   UNL     1     902.546   6.127   9.014  1.00  0.00    -0.028 C 
BRANCH   5   6
ATOM      6  C   UNL     1     901.726   7.318   8.570  1.00  0.00     0.005 C 
ATOM      7  C   UNL     1     902.381   8.639   8.992  1.00  0.00     0.012 C 
ATOM      8  C   UNL     1     901.467   7.283   7.059  1.00  0.00     0.012 C 
ENDBRANCH   5   6
ENDBRANCH   3   4
ENDBRANCH   2   3
ENDBRANCH   1   2
BRANCH   1   9
ATOM      9  C   UNL     1     902.249   2.548   6.625  1.00  0.00     0.100 C 
BRANCH   9  10
ATOM     10  C   UNL     1     902.701   3.763   5.874  1.00  0.00     0.220 C 
ATOM     11  O   UNL     1     901.926   4.299   5.036  1.00  0.00    -0.275 OA
ATOM     12  N   UNL     1     903.986   4.341   6.147  1.00  0.00    -0.352 N 
ATOM     13  H   UNL     1     904.594   3.903   6.875  1.00  0.00     0.163 HD
BRANCH  12  14
ATOM     14  C   UNL     1     904.462   5.546   5.474  1.00  0.00     0.151 C 
BRANCH  14  15
ATOM     15  C   UNL     1     905.143   6.462   6.456  1.00  0.00    -0.025 A 
ATOM     16  C   UNL     1     905.266   7.830   6.170  1.00  0.00     0.056 A 
ATOM     17  C   UNL     1     905.639   5.962   7.669  1.00  0.00     0.009 A 
ATOM     18  C   UNL     1     905.887   8.701   7.088  1.00  0.00     0.160 A 
ATOM     19  C   UNL     1     906.256   6.820   8.582  1.00  0.00     0.050 A 
ATOM     20  C   UNL     1     906.382   8.186   8.296  1.00  0.00     0.157 A 
BRANCH  18  21
ATOM     21  O   UNL     1     906.029  10.075   6.838  1.00  0.00    -0.493 OA
ATOM     22  C   UNL     1     905.879  10.681   5.558  1.00  0.00     0.278 C 
ENDBRANCH  18  21
BRANCH  20  23
ATOM     23  O   UNL     1     906.997   9.040   9.210  1.00  0.00    -0.504 OA
ATOM     24  H   UNL     1     906.830   8.960  10.206  1.00  0.00     0.293 HD
ENDBRANCH  20  23
ENDBRANCH  14  15
ENDBRANCH  12  14
ENDBRANCH   9  10
ENDBRANCH   1   9
TORSDOF 10
ENDMDL
MODEL 9
REMARK VINA RESULT:    -2.171      2.591      4.289
REMARK INTER + INTRA:          -5.341
REMARK INTER:                  -3.160
REMARK INTRA:                  -2.180
REMARK UNBOUND:                -1.965
REMARK SMILES COc1cc(CNC(=O)CCCCC=CC(C)C)ccc1O
REMARK SMILES IDX 11 1 12 2 13 3 14 4 15 5 16 6 17 7 18 8 10 9 8 10 9 11 7 12
REMARK SMILES IDX 6 14 5 15 4 16 19 17 3 18 20 19 21 20 2 21 1 22 22 23
REMARK H PARENT 7 13 22 24
REMARK Flexibility Score: inf
ROOT
ATOM      1  C   UNL     1     904.429   9.590  10.076  1.00  0.00     0.010 C 
ENDROOT
BRANCH   1   2
ATOM      2  C   UNL     1     905.129   9.936   8.753  1.00  0.00     0.005 C 
BRANCH   2   3
ATOM      3  C   UNL     1     906.116   8.846   8.308  1.00  0.00     0.027 C 
BRANCH   3   4
ATOM      4  C   UNL     1     905.551   8.044   7.169  1.00  0.00    -0.031 C 
ATOM      5  C   UNL     1     904.413   8.407   6.553  1.00  0.00    -0.028 C 
BRANCH   5   6
ATOM      6  C   UNL     1     903.815   7.620   5.408  1.00  0.00     0.005 C 
ATOM      7  C   UNL     1     903.522   8.520   4.202  1.00  0.00     0.012 C 
ATOM      8  C   UNL     1     904.711   6.439   5.017  1.00  0.00     0.012 C 
ENDBRANCH   5   6
ENDBRANCH   3   4
ENDBRANCH   2   3
ENDBRANCH   1   2
BRANCH   1   9
ATOM      9  C   UNL     1     902.984  10.101  10.125  1.00  0.00     0.100 C 
BRANCH   9  10
ATOM     10  C   UNL     1     902.066   9.131   9.445  1.00  0.00     0.220 C 
ATOM     11  O   UNL     1     901.014   9.555   8.892  1.00  0.00    -0.275 OA
ATOM     12  N   UNL     1     902.410   7.740   9.378  1.00  0.00    -0.352 N 
ATOM     13  H   UNL     1     903.307   7.419   9.807  1.00  0.00     0.163 HD
BRANCH  12  14
ATOM     14  C   UNL     1     901.574   6.757   8.695  1.00  0.00     0.151 C 
BRANCH  14  15
ATOM     15  C   UNL     1     902.411   5.608   8.199  1.00  0.00    -0.025 A 
ATOM     16  C   UNL     1     901.953   4.813   7.137  1.00  0.00     0.056 A 
ATOM     17  C   UNL     1     903.660   5.336   8.777  1.00  0.00     0.009 A 
ATOM     18  C   UNL     1     902.735   3.746   6.652  1.00  0.00     0.160 A 
ATOM     19  C   UNL     1     904.438   4.278   8.303  1.00  0.00     0.050 A 
ATOM     20  C   UNL     1     903.981   3.483   7.244  1.00  0.00     0.157 A 
BRANCH  18  21
ATOM     21  O   UNL     1     902.312   2.929   5.592  1.00  0.00    -0.493 OA
ATOM     22  C   UNL     1     902.675   3.126   4.229  1.00  0.00     0.278 C 
ENDBRANCH  18  21
BRANCH  20  23
ATOM     23  O   UNL     1     904.761   2.428   6.771  1.00  0.00    -0.504 OA
ATOM     24  H   UNL     1     904.898   2.274   5.779  1.00  0.00     0.293 HD
ENDBRANCH  20  23
ENDBRANCH  14  15
ENDBRANCH  12  14
ENDBRANCH   9  10
ENDBRANCH   1   9
TORSDOF 10
ENDMDL
