MODEL 1
REMARK VINA RESULT:    -5.453      0.000      0.000
REMARK INTER + INTRA:          -5.862
REMARK INTER:                  -5.771
REMARK INTRA:                  -0.091
REMARK UNBOUND:                -0.091
REMARK SMILES C=C(C)[C@H]1CC=C(C)C(=O)C1
REMARK SMILES IDX 8 1 7 2 6 3 5 4 4 5 11 6 9 7 10 8 2 9 1 10 3 11
REMARK H PARENT
REMARK Flexibility Score: inf
ROOT
ATOM      1  C   UNL     1       4.502  21.641   1.342  1.00  0.00     0.048 C 
ATOM      2  C   UNL     1       4.856  21.238   2.747  1.00  0.00    -0.012 C 
ATOM      3  C   UNL     1       5.980  20.537   2.979  1.00  0.00    -0.019 C 
ATOM      4  C   UNL     1       6.371  20.093   4.363  1.00  0.00     0.036 C 
ATOM      5  C   UNL     1       5.907  21.108   5.423  1.00  0.00     0.025 C 
ATOM      6  C   UNL     1       4.393  21.357   5.299  1.00  0.00     0.089 C 
ATOM      7  C   UNL     1       4.031  21.718   3.884  1.00  0.00     0.158 C 
ATOM      8  O   UNL     1       2.997  22.405   3.671  1.00  0.00    -0.295 OA
ENDROOT
BRANCH   5   9
ATOM      9  C   UNL     1       6.282  20.657   6.829  1.00  0.00    -0.077 C 
ATOM     10  C   UNL     1       6.505  21.567   7.791  1.00  0.00     0.008 C 
ATOM     11  C   UNL     1       6.412  19.195   7.178  1.00  0.00     0.039 C 
ENDBRANCH   5   9
TORSDOF 1
ENDMDL
MODEL 2
REMARK VINA RESULT:    -5.383      3.138      4.400
REMARK INTER + INTRA:          -5.788
REMARK INTER:                  -5.695
REMARK INTRA:                  -0.093
REMARK UNBOUND:                -0.091
REMARK SMILES C=C(C)[C@H]1CC=C(C)C(=O)C1
REMARK SMILES IDX 8 1 7 2 6 3 5 4 4 5 11 6 9 7 10 8 2 9 1 10 3 11
REMARK H PARENT
REMARK Flexibility Score: inf
ROOT
ATOM      1  C   UNL     1       6.841  18.545   6.623  1.00  0.00     0.048 C 
ATOM      2  C   UNL     1       5.904  19.694   6.879  1.00  0.00    -0.012 C 
ATOM      3  C   UNL     1       6.393  20.941   6.993  1.00  0.00    -0.019 C 
ATOM      4  C   UNL     1       5.502  22.125   7.266  1.00  0.00     0.036 C 
ATOM      5  C   UNL     1       4.115  21.935   6.626  1.00  0.00     0.025 C 
ATOM      6  C   UNL     1       3.485  20.611   7.097  1.00  0.00     0.089 C 
ATOM      7  C   UNL     1       4.438  19.466   6.882  1.00  0.00     0.158 C 
ATOM      8  O   UNL     1       3.976  18.302   6.740  1.00  0.00    -0.295 OA
ENDROOT
BRANCH   5   9
ATOM      9  C   UNL     1       3.201  23.118   6.914  1.00  0.00    -0.077 C 
ATOM     10  C   UNL     1       3.574  24.359   6.560  1.00  0.00     0.008 C 
ATOM     11  C   UNL     1       1.868  22.934   7.595  1.00  0.00     0.039 C 
ENDBRANCH   5   9
TORSDOF 1
ENDMDL
MODEL 3
REMARK VINA RESULT:    -5.170      3.088      3.866
REMARK INTER + INTRA:          -5.562
REMARK INTER:                  -5.464
REMARK INTRA:                  -0.098
REMARK UNBOUND:                -0.091
REMARK SMILES C=C(C)[C@H]1CC=C(C)C(=O)C1
REMARK SMILES IDX 8 1 7 2 6 3 5 4 4 5 11 6 9 7 10 8 2 9 1 10 3 11
REMARK H PARENT
REMARK Flexibility Score: inf
ROOT
ATOM      1  C   UNL     1       1.343  23.568   7.378  1.00  0.00     0.048 C 
ATOM      2  C   UNL     1       2.541  22.693   7.132  1.00  0.00    -0.012 C 
ATOM      3  C   UNL     1       3.753  23.251   6.961  1.00  0.00    -0.019 C 
ATOM      4  C   UNL     1       4.981  22.423   6.694  1.00  0.00     0.036 C 
ATOM      5  C   UNL     1       4.895  21.058   7.400  1.00  0.00     0.025 C 
ATOM      6  C   UNL     1       3.601  20.327   6.995  1.00  0.00     0.089 C 
ATOM      7  C   UNL     1       2.405  21.217   7.200  1.00  0.00     0.158 C 
ATOM      8  O   UNL     1       1.276  20.692   7.395  1.00  0.00    -0.295 OA
ENDROOT
BRANCH   5   9
ATOM      9  C   UNL     1       6.125  20.206   7.119  1.00  0.00    -0.077 C 
ATOM     10  C   UNL     1       7.196  20.747   6.517  1.00  0.00     0.008 C 
ATOM     11  C   UNL     1       6.177  18.748   7.505  1.00  0.00     0.039 C 
ENDBRANCH   5   9
TORSDOF 1
ENDMDL
MODEL 4
REMARK VINA RESULT:    -5.150      2.974      3.891
REMARK INTER + INTRA:          -5.542
REMARK INTER:                  -5.444
REMARK INTRA:                  -0.098
REMARK UNBOUND:                -0.091
REMARK SMILES C=C(C)[C@H]1CC=C(C)C(=O)C1
REMARK SMILES IDX 8 1 7 2 6 3 5 4 4 5 11 6 9 7 10 8 2 9 1 10 3 11
REMARK H PARENT
REMARK Flexibility Score: inf
ROOT
ATOM      1  C   UNL     1       1.030  23.238   7.226  1.00  0.00     0.048 C 
ATOM      2  C   UNL     1       2.359  22.540   7.317  1.00  0.00    -0.012 C 
ATOM      3  C   UNL     1       2.417  21.265   7.739  1.00  0.00    -0.019 C 
ATOM      4  C   UNL     1       3.722  20.525   7.866  1.00  0.00     0.036 C 
ATOM      5  C   UNL     1       4.730  20.992   6.801  1.00  0.00     0.025 C 
ATOM      6  C   UNL     1       4.917  22.519   6.874  1.00  0.00     0.089 C 
ATOM      7  C   UNL     1       3.585  23.217   6.826  1.00  0.00     0.158 C 
ATOM      8  O   UNL     1       3.527  24.400   6.397  1.00  0.00    -0.295 OA
ENDROOT
BRANCH   5   9
ATOM      9  C   UNL     1       6.060  20.263   6.933  1.00  0.00    -0.077 C 
ATOM     10  C   UNL     1       7.203  20.877   6.586  1.00  0.00     0.008 C 
ATOM     11  C   UNL     1       6.133  18.848   7.454  1.00  0.00     0.039 C 
ENDBRANCH   5   9
TORSDOF 1
ENDMDL
MODEL 5
REMARK VINA RESULT:    -5.134      1.314      4.205
REMARK INTER + INTRA:          -5.525
REMARK INTER:                  -5.428
REMARK INTRA:                  -0.097
REMARK UNBOUND:                -0.091
REMARK SMILES C=C(C)[C@H]1CC=C(C)C(=O)C1
REMARK SMILES IDX 8 1 7 2 6 3 5 4 4 5 11 6 9 7 10 8 2 9 1 10 3 11
REMARK H PARENT
REMARK Flexibility Score: inf
ROOT
ATOM      1  C   UNL     1       6.317  21.178   7.563  1.00  0.00     0.048 C 
ATOM      2  C   UNL     1       5.992  21.335   6.103  1.00  0.00    -0.012 C 
ATOM      3  C   UNL     1       6.915  21.025   5.176  1.00  0.00    -0.019 C 
ATOM      4  C   UNL     1       6.649  21.180   3.702  1.00  0.00     0.036 C 
ATOM      5  C   UNL     1       5.166  20.925   3.376  1.00  0.00     0.025 C 
ATOM      6  C   UNL     1       4.266  21.837   4.230  1.00  0.00     0.089 C 
ATOM      7  C   UNL     1       4.619  21.713   5.687  1.00  0.00     0.158 C 
ATOM      8  O   UNL     1       3.742  21.969   6.555  1.00  0.00    -0.295 OA
ENDROOT
BRANCH   5   9
ATOM      9  C   UNL     1       4.883  21.099   1.890  1.00  0.00    -0.077 C 
ATOM     10  C   UNL     1       4.660  22.324   1.386  1.00  0.00     0.008 C 
ATOM     11  C   UNL     1       4.847  19.918   0.953  1.00  0.00     0.039 C 
ENDBRANCH   5   9
TORSDOF 1
ENDMDL
MODEL 6
REMARK VINA RESULT:    -4.945      1.361      2.092
REMARK INTER + INTRA:          -5.324
REMARK INTER:                  -5.226
REMARK INTRA:                  -0.098
REMARK UNBOUND:                -0.091
REMARK SMILES C=C(C)[C@H]1CC=C(C)C(=O)C1
REMARK SMILES IDX 8 1 7 2 6 3 5 4 4 5 11 6 9 7 10 8 2 9 1 10 3 11
REMARK H PARENT
REMARK Flexibility Score: inf
ROOT
ATOM      1  C   UNL     1       2.934  22.438   2.609  1.00  0.00     0.048 C 
ATOM      2  C   UNL     1       3.813  21.976   3.739  1.00  0.00    -0.012 C 
ATOM      3  C   UNL     1       3.455  22.226   5.010  1.00  0.00    -0.019 C 
ATOM      4  C   UNL     1       4.306  21.803   6.177  1.00  0.00     0.036 C 
ATOM      5  C   UNL     1       5.057  20.494   5.870  1.00  0.00     0.025 C 
ATOM      6  C   UNL     1       5.876  20.638   4.574  1.00  0.00     0.089 C 
ATOM      7  C   UNL     1       5.007  21.141   3.454  1.00  0.00     0.158 C 
ATOM      8  O   UNL     1       5.325  20.876   2.263  1.00  0.00    -0.295 OA
ENDROOT
BRANCH   5   9
ATOM      9  C   UNL     1       5.936  20.068   7.038  1.00  0.00    -0.077 C 
ATOM     10  C   UNL     1       6.361  20.978   7.929  1.00  0.00     0.008 C 
ATOM     11  C   UNL     1       6.349  18.629   7.227  1.00  0.00     0.039 C 
ENDBRANCH   5   9
TORSDOF 1
ENDMDL
MODEL 7
REMARK VINA RESULT:    -4.926      3.335      4.783
REMARK INTER + INTRA:          -5.305
REMARK INTER:                  -5.212
REMARK INTRA:                  -0.093
REMARK UNBOUND:                -0.091
REMARK SMILES C=C(C)[C@H]1CC=C(C)C(=O)C1
REMARK SMILES IDX 8 1 7 2 6 3 5 4 4 5 11 6 9 7 10 8 2 9 1 10 3 11
REMARK H PARENT
REMARK Flexibility Score: inf
ROOT
ATOM      1  C   UNL     1       6.513  18.505   6.967  1.00  0.00     0.048 C 
ATOM      2  C   UNL     1       5.384  19.498   6.944  1.00  0.00    -0.012 C 
ATOM      3  C   UNL     1       4.112  19.065   6.971  1.00  0.00    -0.019 C 
ATOM      4  C   UNL     1       2.945  20.016   6.931  1.00  0.00     0.036 C 
ATOM      5  C   UNL     1       3.284  21.341   7.637  1.00  0.00     0.025 C 
ATOM      6  C   UNL     1       4.559  21.959   7.033  1.00  0.00     0.089 C 
ATOM      7  C   UNL     1       5.677  20.952   7.016  1.00  0.00     0.158 C 
ATOM      8  O   UNL     1       6.870  21.359   7.027  1.00  0.00    -0.295 OA
ENDROOT
BRANCH   5   9
ATOM      9  C   UNL     1       2.116  22.316   7.585  1.00  0.00    -0.077 C 
ATOM     10  C   UNL     1       0.921  21.963   8.086  1.00  0.00     0.008 C 
ATOM     11  C   UNL     1       2.265  23.690   6.979  1.00  0.00     0.039 C 
ENDBRANCH   5   9
TORSDOF 1
ENDMDL
MODEL 8
REMARK VINA RESULT:    -4.718      3.046      4.639
REMARK INTER + INTRA:          -5.084
REMARK INTER:                  -4.994
REMARK INTRA:                  -0.091
REMARK UNBOUND:                -0.091
REMARK SMILES C=C(C)[C@H]1CC=C(C)C(=O)C1
REMARK SMILES IDX 8 1 7 2 6 3 5 4 4 5 11 6 9 7 10 8 2 9 1 10 3 11
REMARK H PARENT
REMARK Flexibility Score: inf
ROOT
ATOM      1  C   UNL     1       6.503  21.617   7.747  1.00  0.00     0.048 C 
ATOM      2  C   UNL     1       5.378  20.771   7.215  1.00  0.00    -0.012 C 
ATOM      3  C   UNL     1       5.515  19.435   7.159  1.00  0.00    -0.019 C 
ATOM      4  C   UNL     1       4.428  18.544   6.619  1.00  0.00     0.036 C 
ATOM      5  C   UNL     1       3.034  19.129   6.914  1.00  0.00     0.025 C 
ATOM      6  C   UNL     1       2.931  20.566   6.372  1.00  0.00     0.089 C 
ATOM      7  C   UNL     1       4.080  21.402   6.869  1.00  0.00     0.158 C 
ATOM      8  O   UNL     1       3.939  22.651   6.954  1.00  0.00    -0.295 OA
ENDROOT
BRANCH   5   9
ATOM      9  C   UNL     1       1.929  18.244   6.354  1.00  0.00    -0.077 C 
ATOM     10  C   UNL     1       1.659  17.059   6.926  1.00  0.00     0.008 C 
ATOM     11  C   UNL     1       1.113  18.667   5.157  1.00  0.00     0.039 C 
ENDBRANCH   5   9
TORSDOF 1
ENDMDL
MODEL 9
REMARK VINA RESULT:    -4.649      2.757      3.911
REMARK INTER + INTRA:          -5.011
REMARK INTER:                  -4.924
REMARK INTRA:                  -0.087
REMARK UNBOUND:                -0.091
REMARK SMILES C=C(C)[C@H]1CC=C(C)C(=O)C1
REMARK SMILES IDX 8 1 7 2 6 3 5 4 4 5 11 6 9 7 10 8 2 9 1 10 3 11
REMARK H PARENT
REMARK Flexibility Score: inf
ROOT
ATOM      1  C   UNL     1       1.379  17.574   6.605  1.00  0.00     0.048 C 
ATOM      2  C   UNL     1       2.589  18.462   6.717  1.00  0.00    -0.012 C 
ATOM      3  C   UNL     1       3.817  17.941   6.550  1.00  0.00    -0.019 C 
ATOM      4  C   UNL     1       5.061  18.780   6.668  1.00  0.00     0.036 C 
ATOM      5  C   UNL     1       4.805  20.223   6.197  1.00  0.00     0.025 C 
ATOM      6  C   UNL     1       3.617  20.833   6.962  1.00  0.00     0.089 C 
ATOM      7  C   UNL     1       2.418  19.926   6.888  1.00  0.00     0.158 C 
ATOM      8  O   UNL     1       1.265  20.420   7.010  1.00  0.00    -0.295 OA
ENDROOT
BRANCH   5   9
ATOM      9  C   UNL     1       6.053  21.084   6.331  1.00  0.00    -0.077 C 
ATOM     10  C   UNL     1       6.829  21.318   5.260  1.00  0.00     0.008 C 
ATOM     11  C   UNL     1       6.450  21.693   7.653  1.00  0.00     0.039 C 
ENDBRANCH   5   9
TORSDOF 1
ENDMDL
