MODEL 1
REMARK VINA RESULT:    -4.365      0.000      0.000
REMARK INTER + INTRA:          -8.951
REMARK INTER:                  -8.192
REMARK INTRA:                  -0.758
REMARK UNBOUND:                -0.758
REMARK SMILES CCCCCCCCC=CCCCCCCCC(=O)[O-]
REMARK SMILES IDX 10 1 9 2 11 3 12 4 13 5 14 6 15 7 16 8 17 9 18 10 19 11
REMARK SMILES IDX 20 12 8 13 7 14 6 15 5 16 4 17 3 18 2 19 1 20
REMARK H PARENT
REMARK Flexibility Score: inf
ROOT
ATOM      1  C   UNL     1      29.662  -7.593 -15.256  1.00  0.00    -0.031 C 
ATOM      2  C   UNL     1      30.315  -6.647 -15.959  1.00  0.00    -0.031 C 
ENDROOT
BRANCH   1   3
ATOM      3  C   UNL     1      30.019  -8.051 -13.860  1.00  0.00     0.027 C 
BRANCH   3   4
ATOM      4  C   UNL     1      29.171  -7.344 -12.790  1.00  0.00     0.004 C 
BRANCH   4   5
ATOM      5  C   UNL     1      28.718  -5.921 -13.168  1.00  0.00     0.000 C 
BRANCH   5   6
ATOM      6  C   UNL     1      29.810  -4.864 -12.922  1.00  0.00     0.000 C 
BRANCH   6   7
ATOM      7  C   UNL     1      30.639  -5.152 -11.661  1.00  0.00     0.000 C 
BRANCH   7   8
ATOM      8  C   UNL     1      32.105  -5.479 -11.981  1.00  0.00     0.006 C 
BRANCH   8   9
ATOM      9  C   UNL     1      32.565  -6.728 -11.223  1.00  0.00     0.053 C 
BRANCH   9  10
ATOM     10  C   UNL     1      32.906  -6.386  -9.807  1.00  0.00     0.041 C 
ATOM     11  O   UNL     1      32.428  -5.350  -9.273  1.00  0.00    -0.550 OA
ATOM     12  O   UNL     1      33.792  -7.183  -9.093  1.00  0.00    -0.550 OA
ENDBRANCH   9  10
ENDBRANCH   8   9
ENDBRANCH   7   8
ENDBRANCH   6   7
ENDBRANCH   5   6
ENDBRANCH   4   5
ENDBRANCH   3   4
ENDBRANCH   1   3
BRANCH   2  13
ATOM     13  C   UNL     1      31.536  -5.900 -15.483  1.00  0.00     0.027 C 
BRANCH  13  14
ATOM     14  C   UNL     1      32.196  -5.117 -16.628  1.00  0.00     0.004 C 
BRANCH  14  15
ATOM     15  C   UNL     1      33.703  -5.394 -16.743  1.00  0.00     0.000 C 
BRANCH  15  16
ATOM     16  C   UNL     1      34.191  -5.386 -18.203  1.00  0.00     0.000 C 
BRANCH  16  17
ATOM     17  C   UNL     1      35.707  -5.611 -18.320  1.00  0.00    -0.000 C 
BRANCH  17  18
ATOM     18  C   UNL     1      36.524  -4.530 -17.593  1.00  0.00    -0.000 C 
BRANCH  18  19
ATOM     19  C   UNL     1      37.288  -5.086 -16.381  1.00  0.00    -0.003 C 
ATOM     20  C   UNL     1      37.704  -6.545 -16.565  1.00  0.00     0.004 C 
ENDBRANCH  18  19
ENDBRANCH  17  18
ENDBRANCH  16  17
ENDBRANCH  15  16
ENDBRANCH  14  15
ENDBRANCH  13  14
ENDBRANCH   2  13
TORSDOF 15
ENDMDL
MODEL 2
REMARK VINA RESULT:    -3.997      1.112      1.879
REMARK INTER + INTRA:          -8.260
REMARK INTER:                  -7.551
REMARK INTRA:                  -0.709
REMARK UNBOUND:                -0.758
REMARK SMILES CCCCCCCCC=CCCCCCCCC(=O)[O-]
REMARK SMILES IDX 10 1 9 2 11 3 12 4 13 5 14 6 15 7 16 8 17 9 18 10 19 11
REMARK SMILES IDX 20 12 8 13 7 14 6 15 5 16 4 17 3 18 2 19 1 20
REMARK H PARENT
REMARK Flexibility Score: inf
ROOT
ATOM      1  C   UNL     1      30.323  -6.152 -15.716  1.00  0.00    -0.031 C 
ATOM      2  C   UNL     1      31.386  -5.335 -15.845  1.00  0.00    -0.031 C 
ENDROOT
BRANCH   1   3
ATOM      3  C   UNL     1      30.367  -7.663 -15.770  1.00  0.00     0.027 C 
BRANCH   3   4
ATOM      4  C   UNL     1      29.634  -8.301 -14.578  1.00  0.00     0.004 C 
BRANCH   4   5
ATOM      5  C   UNL     1      29.768  -7.526 -13.254  1.00  0.00     0.000 C 
BRANCH   5   6
ATOM      6  C   UNL     1      28.878  -6.271 -13.205  1.00  0.00     0.000 C 
BRANCH   6   7
ATOM      7  C   UNL     1      29.522  -5.120 -12.417  1.00  0.00     0.000 C 
BRANCH   7   8
ATOM      8  C   UNL     1      31.055  -5.194 -12.411  1.00  0.00     0.006 C 
BRANCH   8   9
ATOM      9  C   UNL     1      31.594  -5.269 -10.978  1.00  0.00     0.053 C 
BRANCH   9  10
ATOM     10  C   UNL     1      32.610  -6.360 -10.857  1.00  0.00     0.041 C 
ATOM     11  O   UNL     1      32.896  -7.074 -11.855  1.00  0.00    -0.550 OA
ATOM     12  O   UNL     1      33.206  -6.622  -9.629  1.00  0.00    -0.550 OA
ENDBRANCH   9  10
ENDBRANCH   8   9
ENDBRANCH   7   8
ENDBRANCH   6   7
ENDBRANCH   5   6
ENDBRANCH   4   5
ENDBRANCH   3   4
ENDBRANCH   1   3
BRANCH   2  13
ATOM     13  C   UNL     1      32.803  -5.787 -16.093  1.00  0.00     0.027 C 
BRANCH  13  14
ATOM     14  C   UNL     1      33.400  -5.106 -17.335  1.00  0.00     0.004 C 
BRANCH  14  15
ATOM     15  C   UNL     1      34.012  -6.111 -18.324  1.00  0.00     0.000 C 
BRANCH  15  16
ATOM     16  C   UNL     1      35.516  -5.873 -18.545  1.00  0.00     0.000 C 
BRANCH  16  17
ATOM     17  C   UNL     1      36.342  -6.090 -17.267  1.00  0.00    -0.000 C 
BRANCH  17  18
ATOM     18  C   UNL     1      37.120  -4.831 -16.843  1.00  0.00    -0.000 C 
BRANCH  18  19
ATOM     19  C   UNL     1      36.693  -3.583 -17.630  1.00  0.00    -0.003 C 
ATOM     20  C   UNL     1      37.636  -3.265 -18.790  1.00  0.00     0.004 C 
ENDBRANCH  18  19
ENDBRANCH  17  18
ENDBRANCH  16  17
ENDBRANCH  15  16
ENDBRANCH  14  15
ENDBRANCH  13  14
ENDBRANCH   2  13
TORSDOF 15
ENDMDL
MODEL 3
REMARK VINA RESULT:    -3.909      3.274      6.917
REMARK INTER + INTRA:          -8.096
REMARK INTER:                  -7.200
REMARK INTRA:                  -0.896
REMARK UNBOUND:                -0.758
REMARK SMILES CCCCCCCCC=CCCCCCCCC(=O)[O-]
REMARK SMILES IDX 10 1 9 2 11 3 12 4 13 5 14 6 15 7 16 8 17 9 18 10 19 11
REMARK SMILES IDX 20 12 8 13 7 14 6 15 5 16 4 17 3 18 2 19 1 20
REMARK H PARENT
REMARK Flexibility Score: inf
ROOT
ATOM      1  C   UNL     1      30.296  -6.683 -15.988  1.00  0.00    -0.031 C 
ATOM      2  C   UNL     1      29.667  -7.618 -15.248  1.00  0.00    -0.031 C 
ENDROOT
BRANCH   1   3
ATOM      3  C   UNL     1      31.526  -5.913 -15.564  1.00  0.00     0.027 C 
BRANCH   3   4
ATOM      4  C   UNL     1      32.129  -5.109 -16.729  1.00  0.00     0.004 C 
BRANCH   4   5
ATOM      5  C   UNL     1      33.659  -5.218 -16.858  1.00  0.00     0.000 C 
BRANCH   5   6
ATOM      6  C   UNL     1      34.103  -5.802 -18.211  1.00  0.00     0.000 C 
BRANCH   6   7
ATOM      7  C   UNL     1      35.579  -6.231 -18.214  1.00  0.00     0.000 C 
BRANCH   7   8
ATOM      8  C   UNL     1      36.237  -6.089 -16.834  1.00  0.00     0.006 C 
BRANCH   8   9
ATOM      9  C   UNL     1      37.418  -5.115 -16.888  1.00  0.00     0.053 C 
BRANCH   9  10
ATOM     10  C   UNL     1      37.092  -3.945 -17.762  1.00  0.00     0.041 C 
ATOM     11  O   UNL     1      36.285  -3.063 -17.366  1.00  0.00    -0.550 OA
ATOM     12  O   UNL     1      37.640  -3.855 -19.036  1.00  0.00    -0.550 OA
ENDBRANCH   9  10
ENDBRANCH   8   9
ENDBRANCH   7   8
ENDBRANCH   6   7
ENDBRANCH   5   6
ENDBRANCH   4   5
ENDBRANCH   3   4
ENDBRANCH   1   3
BRANCH   2  13
ATOM     13  C   UNL     1      30.067  -8.037 -13.856  1.00  0.00     0.027 C 
BRANCH  13  14
ATOM     14  C   UNL     1      29.205  -7.339 -12.791  1.00  0.00     0.004 C 
BRANCH  14  15
ATOM     15  C   UNL     1      28.778  -5.924 -13.210  1.00  0.00     0.000 C 
BRANCH  15  16
ATOM     16  C   UNL     1      29.871  -4.876 -12.937  1.00  0.00     0.000 C 
BRANCH  16  17
ATOM     17  C   UNL     1      30.696  -5.198 -11.680  1.00  0.00    -0.000 C 
BRANCH  17  18
ATOM     18  C   UNL     1      32.147  -5.592 -12.008  1.00  0.00    -0.000 C 
BRANCH  18  19
ATOM     19  C   UNL     1      32.629  -6.797 -11.186  1.00  0.00    -0.003 C 
ATOM     20  C   UNL     1      32.929  -6.436  -9.731  1.00  0.00     0.004 C 
ENDBRANCH  18  19
ENDBRANCH  17  18
ENDBRANCH  16  17
ENDBRANCH  15  16
ENDBRANCH  14  15
ENDBRANCH  13  14
ENDBRANCH   2  13
TORSDOF 15
ENDMDL
MODEL 4
REMARK VINA RESULT:    -3.731      2.644      6.506
REMARK INTER + INTRA:          -7.762
REMARK INTER:                  -7.413
REMARK INTRA:                  -0.349
REMARK UNBOUND:                -0.758
REMARK SMILES CCCCCCCCC=CCCCCCCCC(=O)[O-]
REMARK SMILES IDX 10 1 9 2 11 3 12 4 13 5 14 6 15 7 16 8 17 9 18 10 19 11
REMARK SMILES IDX 20 12 8 13 7 14 6 15 5 16 4 17 3 18 2 19 1 20
REMARK H PARENT
REMARK Flexibility Score: inf
ROOT
ATOM      1  C   UNL     1      30.004  -7.599 -15.496  1.00  0.00    -0.031 C 
ATOM      2  C   UNL     1      29.667  -8.147 -14.312  1.00  0.00    -0.031 C 
ENDROOT
BRANCH   1   3
ATOM      3  C   UNL     1      30.370  -6.149 -15.719  1.00  0.00     0.027 C 
BRANCH   3   4
ATOM      4  C   UNL     1      31.876  -5.901 -15.525  1.00  0.00     0.004 C 
BRANCH   4   5
ATOM      5  C   UNL     1      32.561  -5.179 -16.699  1.00  0.00     0.000 C 
BRANCH   5   6
ATOM      6  C   UNL     1      33.831  -5.901 -17.184  1.00  0.00     0.000 C 
BRANCH   6   7
ATOM      7  C   UNL     1      34.573  -5.121 -18.280  1.00  0.00     0.000 C 
BRANCH   7   8
ATOM      8  C   UNL     1      35.643  -4.178 -17.712  1.00  0.00     0.006 C 
BRANCH   8   9
ATOM      9  C   UNL     1      37.041  -4.788 -17.854  1.00  0.00     0.053 C 
BRANCH   9  10
ATOM     10  C   UNL     1      37.384  -5.598 -16.644  1.00  0.00     0.041 C 
ATOM     11  O   UNL     1      37.144  -5.150 -15.492  1.00  0.00    -0.550 OA
ATOM     12  O   UNL     1      38.016  -6.828 -16.786  1.00  0.00    -0.550 OA
ENDBRANCH   9  10
ENDBRANCH   8   9
ENDBRANCH   7   8
ENDBRANCH   6   7
ENDBRANCH   5   6
ENDBRANCH   4   5
ENDBRANCH   3   4
ENDBRANCH   1   3
BRANCH   2  13
ATOM     13  C   UNL     1      29.570  -7.398 -13.006  1.00  0.00     0.027 C 
BRANCH  13  14
ATOM     14  C   UNL     1      28.920  -6.019 -13.198  1.00  0.00     0.004 C 
BRANCH  14  15
ATOM     15  C   UNL     1      29.834  -4.867 -12.753  1.00  0.00     0.000 C 
BRANCH  15  16
ATOM     16  C   UNL     1      30.758  -5.268 -11.589  1.00  0.00     0.000 C 
BRANCH  16  17
ATOM     17  C   UNL     1      32.164  -5.669 -12.063  1.00  0.00    -0.000 C 
BRANCH  17  18
ATOM     18  C   UNL     1      32.792  -6.770 -11.190  1.00  0.00    -0.000 C 
BRANCH  18  19
ATOM     19  C   UNL     1      32.924  -6.350  -9.718  1.00  0.00    -0.003 C 
ATOM     20  C   UNL     1      33.744  -7.341  -8.893  1.00  0.00     0.004 C 
ENDBRANCH  18  19
ENDBRANCH  17  18
ENDBRANCH  16  17
ENDBRANCH  15  16
ENDBRANCH  14  15
ENDBRANCH  13  14
ENDBRANCH   2  13
TORSDOF 15
ENDMDL
MODEL 5
REMARK VINA RESULT:    -3.091      3.914      5.264
REMARK INTER + INTRA:          -6.560
REMARK INTER:                  -5.226
REMARK INTRA:                  -1.334
REMARK UNBOUND:                -0.758
REMARK SMILES CCCCCCCCC=CCCCCCCCC(=O)[O-]
REMARK SMILES IDX 10 1 9 2 11 3 12 4 13 5 14 6 15 7 16 8 17 9 18 10 19 11
REMARK SMILES IDX 20 12 8 13 7 14 6 15 5 16 4 17 3 18 2 19 1 20
REMARK H PARENT
REMARK Flexibility Score: inf
ROOT
ATOM      1  C   UNL     1      30.342  -5.169 -14.063  1.00  0.00    -0.031 C 
ATOM      2  C   UNL     1      30.744  -5.174 -15.349  1.00  0.00    -0.031 C 
ENDROOT
BRANCH   1   3
ATOM      3  C   UNL     1      31.096  -5.790 -12.908  1.00  0.00     0.027 C 
BRANCH   3   4
ATOM      4  C   UNL     1      30.824  -7.299 -12.790  1.00  0.00     0.004 C 
BRANCH   4   5
ATOM      5  C   UNL     1      29.351  -7.701 -12.984  1.00  0.00     0.000 C 
BRANCH   5   6
ATOM      6  C   UNL     1      29.040  -8.156 -14.421  1.00  0.00     0.000 C 
BRANCH   6   7
ATOM      7  C   UNL     1      30.123  -9.084 -14.994  1.00  0.00     0.000 C 
BRANCH   7   8
ATOM      8  C   UNL     1      30.131  -9.103 -16.529  1.00  0.00     0.006 C 
BRANCH   8   9
ATOM      9  C   UNL     1      28.812  -8.565 -17.091  1.00  0.00     0.053 C 
BRANCH   9  10
ATOM     10  C   UNL     1      28.486  -9.229 -18.391  1.00  0.00     0.041 C 
ATOM     11  O   UNL     1      29.404  -9.728 -19.095  1.00  0.00    -0.550 OA
ATOM     12  O   UNL     1      27.175  -9.254 -18.851  1.00  0.00    -0.550 OA
ENDBRANCH   9  10
ENDBRANCH   8   9
ENDBRANCH   7   8
ENDBRANCH   6   7
ENDBRANCH   5   6
ENDBRANCH   4   5
ENDBRANCH   3   4
ENDBRANCH   1   3
BRANCH   2  13
ATOM     13  C   UNL     1      32.004  -5.824 -15.863  1.00  0.00     0.027 C 
BRANCH  13  14
ATOM     14  C   UNL     1      32.578  -5.062 -17.067  1.00  0.00     0.004 C 
BRANCH  14  15
ATOM     15  C   UNL     1      33.906  -5.654 -17.564  1.00  0.00     0.000 C 
BRANCH  15  16
ATOM     16  C   UNL     1      35.075  -5.356 -16.608  1.00  0.00     0.000 C 
BRANCH  16  17
ATOM     17  C   UNL     1      36.376  -6.057 -17.029  1.00  0.00    -0.000 C 
BRANCH  17  18
ATOM     18  C   UNL     1      37.485  -5.064 -17.419  1.00  0.00    -0.000 C 
BRANCH  18  19
ATOM     19  C   UNL     1      36.925  -3.722 -17.914  1.00  0.00    -0.003 C 
ATOM     20  C   UNL     1      37.732  -3.136 -19.072  1.00  0.00     0.004 C 
ENDBRANCH  18  19
ENDBRANCH  17  18
ENDBRANCH  16  17
ENDBRANCH  15  16
ENDBRANCH  14  15
ENDBRANCH  13  14
ENDBRANCH   2  13
TORSDOF 15
ENDMDL
MODEL 6
REMARK VINA RESULT:    -2.858      2.675      6.807
REMARK INTER + INTRA:          -6.123
REMARK INTER:                  -5.265
REMARK INTRA:                  -0.858
REMARK UNBOUND:                -0.758
REMARK SMILES CCCCCCCCC=CCCCCCCCC(=O)[O-]
REMARK SMILES IDX 10 1 9 2 11 3 12 4 13 5 14 6 15 7 16 8 17 9 18 10 19 11
REMARK SMILES IDX 20 12 8 13 7 14 6 15 5 16 4 17 3 18 2 19 1 20
REMARK H PARENT
REMARK Flexibility Score: inf
ROOT
ATOM      1  C   UNL     1      30.808  -5.447 -15.540  1.00  0.00    -0.031 C 
ATOM      2  C   UNL     1      29.815  -6.354 -15.463  1.00  0.00    -0.031 C 
ENDROOT
BRANCH   1   3
ATOM      3  C   UNL     1      32.276  -5.768 -15.706  1.00  0.00     0.027 C 
BRANCH   3   4
ATOM      4  C   UNL     1      32.865  -5.126 -16.974  1.00  0.00     0.004 C 
BRANCH   4   5
ATOM      5  C   UNL     1      34.003  -5.929 -17.629  1.00  0.00     0.000 C 
BRANCH   5   6
ATOM      6  C   UNL     1      34.831  -5.090 -18.619  1.00  0.00     0.000 C 
BRANCH   6   7
ATOM      7  C   UNL     1      35.595  -3.947 -17.930  1.00  0.00     0.000 C 
BRANCH   7   8
ATOM      8  C   UNL     1      37.118  -4.134 -17.993  1.00  0.00     0.006 C 
BRANCH   8   9
ATOM      9  C   UNL     1      37.491  -5.618 -17.928  1.00  0.00     0.053 C 
BRANCH   9  10
ATOM     10  C   UNL     1      37.675  -6.050 -16.508  1.00  0.00     0.041 C 
ATOM     11  O   UNL     1      37.103  -5.425 -15.576  1.00  0.00    -0.550 OA
ATOM     12  O   UNL     1      38.518  -7.113 -16.208  1.00  0.00    -0.550 OA
ENDBRANCH   9  10
ENDBRANCH   8   9
ENDBRANCH   7   8
ENDBRANCH   6   7
ENDBRANCH   5   6
ENDBRANCH   4   5
ENDBRANCH   3   4
ENDBRANCH   1   3
BRANCH   2  13
ATOM     13  C   UNL     1      30.000  -7.850 -15.501  1.00  0.00     0.027 C 
BRANCH  13  14
ATOM     14  C   UNL     1      29.643  -8.494 -14.152  1.00  0.00     0.004 C 
BRANCH  14  15
ATOM     15  C   UNL     1      29.303  -7.455 -13.072  1.00  0.00     0.000 C 
BRANCH  15  16
ATOM     16  C   UNL     1      30.405  -7.338 -12.004  1.00  0.00     0.000 C 
BRANCH  16  17
ATOM     17  C   UNL     1      31.467  -6.286 -12.364  1.00  0.00    -0.000 C 
BRANCH  17  18
ATOM     18  C   UNL     1      32.794  -6.504 -11.617  1.00  0.00    -0.000 C 
BRANCH  18  19
ATOM     19  C   UNL     1      32.689  -6.171 -10.121  1.00  0.00    -0.003 C 
ATOM     20  C   UNL     1      33.562  -7.076  -9.252  1.00  0.00     0.004 C 
ENDBRANCH  18  19
ENDBRANCH  17  18
ENDBRANCH  16  17
ENDBRANCH  15  16
ENDBRANCH  14  15
ENDBRANCH  13  14
ENDBRANCH   2  13
TORSDOF 15
ENDMDL
MODEL 7
REMARK VINA RESULT:    -2.710      3.313      6.684
REMARK INTER + INTRA:          -5.845
REMARK INTER:                  -5.323
REMARK INTRA:                  -0.522
REMARK UNBOUND:                -0.758
REMARK SMILES CCCCCCCCC=CCCCCCCCC(=O)[O-]
REMARK SMILES IDX 10 1 9 2 11 3 12 4 13 5 14 6 15 7 16 8 17 9 18 10 19 11
REMARK SMILES IDX 20 12 8 13 7 14 6 15 5 16 4 17 3 18 2 19 1 20
REMARK H PARENT
REMARK Flexibility Score: inf
ROOT
ATOM      1  C   UNL     1      30.542  -5.123 -12.554  1.00  0.00    -0.031 C 
ATOM      2  C   UNL     1      29.306  -5.277 -13.069  1.00  0.00    -0.031 C 
ENDROOT
BRANCH   1   3
ATOM      3  C   UNL     1      31.690  -6.093 -12.726  1.00  0.00     0.027 C 
BRANCH   3   4
ATOM      4  C   UNL     1      32.387  -5.920 -14.086  1.00  0.00     0.004 C 
BRANCH   4   5
ATOM      5  C   UNL     1      31.514  -5.270 -15.175  1.00  0.00     0.000 C 
BRANCH   5   6
ATOM      6  C   UNL     1      32.096  -5.446 -16.589  1.00  0.00     0.000 C 
BRANCH   6   7
ATOM      7  C   UNL     1      33.633  -5.441 -16.601  1.00  0.00     0.000 C 
BRANCH   7   8
ATOM      8  C   UNL     1      34.212  -5.480 -18.022  1.00  0.00     0.006 C 
BRANCH   8   9
ATOM      9  C   UNL     1      35.697  -5.857 -17.998  1.00  0.00     0.053 C 
BRANCH   9  10
ATOM     10  C   UNL     1      36.491  -4.811 -17.281  1.00  0.00     0.041 C 
ATOM     11  O   UNL     1      37.004  -5.064 -16.159  1.00  0.00    -0.550 OA
ATOM     12  O   UNL     1      36.621  -3.540 -17.827  1.00  0.00    -0.550 OA
ENDBRANCH   9  10
ENDBRANCH   8   9
ENDBRANCH   7   8
ENDBRANCH   6   7
ENDBRANCH   5   6
ENDBRANCH   4   5
ENDBRANCH   3   4
ENDBRANCH   1   3
BRANCH   2  13
ATOM     13  C   UNL     1      28.847  -6.460 -13.884  1.00  0.00     0.027 C 
BRANCH  13  14
ATOM     14  C   UNL     1      29.267  -7.787 -13.233  1.00  0.00     0.004 C 
BRANCH  14  15
ATOM     15  C   UNL     1      29.665  -8.852 -14.266  1.00  0.00     0.000 C 
BRANCH  15  16
ATOM     16  C   UNL     1      29.497  -8.357 -15.714  1.00  0.00     0.000 C 
BRANCH  16  17
ATOM     17  C   UNL     1      30.365  -9.141 -16.710  1.00  0.00    -0.000 C 
BRANCH  17  18
ATOM     18  C   UNL     1      29.632  -9.436 -18.031  1.00  0.00    -0.000 C 
BRANCH  18  19
ATOM     19  C   UNL     1      28.201  -8.878 -18.046  1.00  0.00    -0.003 C 
ATOM     20  C   UNL     1      27.329  -9.518 -19.125  1.00  0.00     0.004 C 
ENDBRANCH  18  19
ENDBRANCH  17  18
ENDBRANCH  16  17
ENDBRANCH  15  16
ENDBRANCH  14  15
ENDBRANCH  13  14
ENDBRANCH   2  13
TORSDOF 15
ENDMDL
MODEL 8
REMARK VINA RESULT:    -2.282      3.165      6.733
REMARK INTER + INTRA:          -5.042
REMARK INTER:                  -4.732
REMARK INTRA:                  -0.310
REMARK UNBOUND:                -0.758
REMARK SMILES CCCCCCCCC=CCCCCCCCC(=O)[O-]
REMARK SMILES IDX 10 1 9 2 11 3 12 4 13 5 14 6 15 7 16 8 17 9 18 10 19 11
REMARK SMILES IDX 20 12 8 13 7 14 6 15 5 16 4 17 3 18 2 19 1 20
REMARK H PARENT
REMARK Flexibility Score: inf
ROOT
ATOM      1  C   UNL     1      31.741  -5.735 -11.809  1.00  0.00    -0.031 C 
ATOM      2  C   UNL     1      30.661  -4.929 -11.838  1.00  0.00    -0.031 C 
ENDROOT
BRANCH   1   3
ATOM      3  C   UNL     1      32.200  -6.624 -12.942  1.00  0.00     0.027 C 
BRANCH   3   4
ATOM      4  C   UNL     1      32.677  -5.808 -14.156  1.00  0.00     0.004 C 
BRANCH   4   5
ATOM      5  C   UNL     1      31.703  -5.806 -15.348  1.00  0.00     0.000 C 
BRANCH   5   6
ATOM      6  C   UNL     1      32.324  -5.209 -16.624  1.00  0.00     0.000 C 
BRANCH   6   7
ATOM      7  C   UNL     1      33.853  -5.359 -16.663  1.00  0.00     0.000 C 
BRANCH   7   8
ATOM      8  C   UNL     1      34.400  -5.453 -18.094  1.00  0.00     0.006 C 
BRANCH   8   9
ATOM      9  C   UNL     1      35.889  -5.813 -18.088  1.00  0.00     0.053 C 
BRANCH   9  10
ATOM     10  C   UNL     1      36.674  -4.783 -17.338  1.00  0.00     0.041 C 
ATOM     11  O   UNL     1      36.666  -3.582 -17.715  1.00  0.00    -0.550 OA
ATOM     12  O   UNL     1      37.455  -5.160 -16.252  1.00  0.00    -0.550 OA
ENDBRANCH   9  10
ENDBRANCH   8   9
ENDBRANCH   7   8
ENDBRANCH   6   7
ENDBRANCH   5   6
ENDBRANCH   4   5
ENDBRANCH   3   4
ENDBRANCH   1   3
BRANCH   2  13
ATOM     13  C   UNL     1      29.706  -4.798 -12.998  1.00  0.00     0.027 C 
BRANCH  13  14
ATOM     14  C   UNL     1      28.803  -6.034 -13.124  1.00  0.00     0.004 C 
BRANCH  14  15
ATOM     15  C   UNL     1      29.087  -6.848 -14.397  1.00  0.00     0.000 C 
BRANCH  15  16
ATOM     16  C   UNL     1      29.669  -8.238 -14.086  1.00  0.00     0.000 C 
BRANCH  16  17
ATOM     17  C   UNL     1      29.804  -9.116 -15.341  1.00  0.00    -0.000 C 
BRANCH  17  18
ATOM     18  C   UNL     1      29.266  -8.426 -16.607  1.00  0.00    -0.000 C 
BRANCH  18  19
ATOM     19  C   UNL     1      28.280  -9.311 -17.385  1.00  0.00    -0.003 C 
ATOM     20  C   UNL     1      28.108  -8.868 -18.837  1.00  0.00     0.004 C 
ENDBRANCH  18  19
ENDBRANCH  17  18
ENDBRANCH  16  17
ENDBRANCH  15  16
ENDBRANCH  14  15
ENDBRANCH  13  14
ENDBRANCH   2  13
TORSDOF 15
ENDMDL
MODEL 9
REMARK VINA RESULT:    -2.150      2.916      6.969
REMARK INTER + INTRA:          -4.795
REMARK INTER:                  -4.813
REMARK INTRA:                   0.018
REMARK UNBOUND:                -0.758
REMARK SMILES CCCCCCCCC=CCCCCCCCC(=O)[O-]
REMARK SMILES IDX 10 1 9 2 11 3 12 4 13 5 14 6 15 7 16 8 17 9 18 10 19 11
REMARK SMILES IDX 20 12 8 13 7 14 6 15 5 16 4 17 3 18 2 19 1 20
REMARK H PARENT
REMARK Flexibility Score: inf
ROOT
ATOM      1  C   UNL     1      31.853  -5.838 -14.139  1.00  0.00    -0.031 C 
ATOM      2  C   UNL     1      31.114  -5.518 -13.058  1.00  0.00    -0.031 C 
ENDROOT
BRANCH   1   3
ATOM      3  C   UNL     1      31.358  -5.842 -15.568  1.00  0.00     0.027 C 
BRANCH   3   4
ATOM      4  C   UNL     1      32.221  -4.949 -16.476  1.00  0.00     0.004 C 
BRANCH   4   5
ATOM      5  C   UNL     1      33.314  -5.700 -17.259  1.00  0.00     0.000 C 
BRANCH   5   6
ATOM      6  C   UNL     1      34.252  -4.754 -18.030  1.00  0.00     0.000 C 
BRANCH   6   7
ATOM      7  C   UNL     1      35.589  -5.416 -18.396  1.00  0.00     0.000 C 
BRANCH   7   8
ATOM      8  C   UNL     1      36.797  -4.526 -18.069  1.00  0.00     0.006 C 
BRANCH   8   9
ATOM      9  C   UNL     1      37.382  -4.878 -16.698  1.00  0.00     0.053 C 
BRANCH   9  10
ATOM     10  C   UNL     1      37.423  -6.362 -16.511  1.00  0.00     0.041 C 
ATOM     11  O   UNL     1      36.357  -7.009 -16.337  1.00  0.00    -0.550 OA
ATOM     12  O   UNL     1      38.644  -7.026 -16.480  1.00  0.00    -0.550 OA
ENDBRANCH   9  10
ENDBRANCH   8   9
ENDBRANCH   7   8
ENDBRANCH   6   7
ENDBRANCH   5   6
ENDBRANCH   4   5
ENDBRANCH   3   4
ENDBRANCH   1   3
BRANCH   2  13
ATOM     13  C   UNL     1      29.656  -5.135 -13.086  1.00  0.00     0.027 C 
BRANCH  13  14
ATOM     14  C   UNL     1      28.763  -6.348 -13.393  1.00  0.00     0.004 C 
BRANCH  14  15
ATOM     15  C   UNL     1      29.294  -7.647 -12.766  1.00  0.00     0.000 C 
BRANCH  15  16
ATOM     16  C   UNL     1      29.657  -8.703 -13.825  1.00  0.00     0.000 C 
BRANCH  16  17
ATOM     17  C   UNL     1      29.504  -8.176 -15.261  1.00  0.00    -0.000 C 
BRANCH  17  18
ATOM     18  C   UNL     1      29.742  -9.266 -16.320  1.00  0.00    -0.000 C 
BRANCH  18  19
ATOM     19  C   UNL     1      29.378  -8.797 -17.738  1.00  0.00    -0.003 C 
ATOM     20  C   UNL     1      27.986  -9.252 -18.171  1.00  0.00     0.004 C 
ENDBRANCH  18  19
ENDBRANCH  17  18
ENDBRANCH  16  17
ENDBRANCH  15  16
ENDBRANCH  14  15
ENDBRANCH  13  14
ENDBRANCH   2  13
TORSDOF 15
ENDMDL
