MODEL 1
REMARK VINA RESULT:    -4.737      0.000      0.000
REMARK INTER + INTRA:          -8.222
REMARK INTER:                  -6.814
REMARK INTRA:                  -1.408
REMARK UNBOUND:                -1.408
REMARK SMILES O=C(CO)[C@@H](O)[C@H](O)[C@@H](O)CO
REMARK SMILES IDX 7 1 9 2 11 3 12 4 10 6 5 8 2 9 1 10 3 11 4 12 6 14 8 16
REMARK H PARENT 12 5 10 7 4 13 6 15 8 17
REMARK Flexibility Score: inf
ROOT
ATOM      1  C   UNL     1      11.805   4.912  55.796  1.00  0.00     0.181 C 
ENDROOT
BRANCH   1   2
ATOM      2  C   UNL     1      12.881   3.832  55.533  1.00  0.00     0.171 C 
BRANCH   2   3
ATOM      3  C   UNL     1      13.349   3.193  56.850  1.00  0.00     0.190 C 
BRANCH   3   4
ATOM      4  O   UNL     1      12.833   3.900  57.946  1.00  0.00    -0.394 OA
ATOM      5  H   UNL     1      11.853   3.740  57.954  1.00  0.00     0.210 HD
ENDBRANCH   3   4
ENDBRANCH   2   3
BRANCH   2   6
ATOM      6  O   UNL     1      13.990   4.398  54.880  1.00  0.00    -0.388 OA
ATOM      7  H   UNL     1      14.666   4.607  55.576  1.00  0.00     0.211 HD
ENDBRANCH   2   6
ENDBRANCH   1   2
BRANCH   1   8
ATOM      8  C   UNL     1      10.786   5.000  54.637  1.00  0.00     0.214 C 
BRANCH   8   9
ATOM      9  C   UNL     1      10.827   6.377  54.003  1.00  0.00     0.189 C 
ATOM     10  O   UNL     1      10.145   7.273  54.479  1.00  0.00    -0.294 OA
BRANCH   9  11
ATOM     11  C   UNL     1      11.643   6.678  52.770  1.00  0.00     0.234 C 
BRANCH  11  12
ATOM     12  O   UNL     1      12.978   6.269  52.910  1.00  0.00    -0.388 OA
ATOM     13  H   UNL     1      13.037   5.351  52.538  1.00  0.00     0.211 HD
ENDBRANCH  11  12
ENDBRANCH   9  11
ENDBRANCH   8   9
BRANCH   8  14
ATOM     14  O   UNL     1      11.073   4.019  53.671  1.00  0.00    -0.382 OA
ATOM     15  H   UNL     1      11.857   4.345  53.155  1.00  0.00     0.211 HD
ENDBRANCH   8  14
ENDBRANCH   1   8
BRANCH   1  16
ATOM     16  O   UNL     1      12.426   6.158  55.994  1.00  0.00    -0.387 OA
ATOM     17  H   UNL     1      11.707   6.842  56.013  1.00  0.00     0.211 HD
ENDBRANCH   1  16
TORSDOF 10
ENDMDL
MODEL 2
REMARK VINA RESULT:    -4.631      1.160      4.155
REMARK INTER + INTRA:          -8.070
REMARK INTER:                  -6.736
REMARK INTRA:                  -1.335
REMARK UNBOUND:                -1.408
REMARK SMILES O=C(CO)[C@@H](O)[C@H](O)[C@@H](O)CO
REMARK SMILES IDX 7 1 9 2 11 3 12 4 10 6 5 8 2 9 1 10 3 11 4 12 6 14 8 16
REMARK H PARENT 12 5 10 7 4 13 6 15 8 17
REMARK Flexibility Score: inf
ROOT
ATOM      1  C   UNL     1      11.000   5.655  54.279  1.00  0.00     0.181 C 
ENDROOT
BRANCH   1   2
ATOM      2  C   UNL     1      11.711   6.816  53.542  1.00  0.00     0.171 C 
BRANCH   2   3
ATOM      3  C   UNL     1      10.814   7.395  52.438  1.00  0.00     0.190 C 
BRANCH   3   4
ATOM      4  O   UNL     1       9.492   6.959  52.604  1.00  0.00    -0.394 OA
ATOM      5  H   UNL     1       9.316   6.943  53.581  1.00  0.00     0.210 HD
ENDBRANCH   3   4
ENDBRANCH   2   3
BRANCH   2   6
ATOM      6  O   UNL     1      12.912   6.366  52.967  1.00  0.00    -0.388 OA
ATOM      7  H   UNL     1      12.957   5.385  53.112  1.00  0.00     0.211 HD
ENDBRANCH   2   6
ENDBRANCH   1   2
BRANCH   1   8
ATOM      8  C   UNL     1      11.597   5.416  55.684  1.00  0.00     0.214 C 
BRANCH   8   9
ATOM      9  C   UNL     1      12.300   4.074  55.736  1.00  0.00     0.189 C 
ATOM     10  O   UNL     1      11.631   3.050  55.738  1.00  0.00    -0.294 OA
BRANCH   9  11
ATOM     11  C   UNL     1      13.801   3.947  55.835  1.00  0.00     0.234 C 
BRANCH  11  12
ATOM     12  O   UNL     1      14.459   4.703  54.853  1.00  0.00    -0.388 OA
ATOM     13  H   UNL     1      14.057   4.450  53.981  1.00  0.00     0.211 HD
ENDBRANCH  11  12
ENDBRANCH   9  11
ENDBRANCH   8   9
BRANCH   8  14
ATOM     14  O   UNL     1      12.503   6.444  56.001  1.00  0.00    -0.382 OA
ATOM     15  H   UNL     1      13.274   6.349  55.381  1.00  0.00     0.211 HD
ENDBRANCH   8  14
ENDBRANCH   1   8
BRANCH   1  16
ATOM     16  O   UNL     1      11.088   4.483  53.506  1.00  0.00    -0.387 OA
ATOM     17  H   UNL     1      11.310   3.741  54.127  1.00  0.00     0.211 HD
ENDBRANCH   1  16
TORSDOF 10
ENDMDL
MODEL 3
REMARK VINA RESULT:    -4.555      1.463      1.556
REMARK INTER + INTRA:          -7.961
REMARK INTER:                  -6.626
REMARK INTRA:                  -1.335
REMARK UNBOUND:                -1.408
REMARK SMILES O=C(CO)[C@@H](O)[C@H](O)[C@@H](O)CO
REMARK SMILES IDX 7 1 9 2 11 3 12 4 10 6 5 8 2 9 1 10 3 11 4 12 6 14 8 16
REMARK H PARENT 12 5 10 7 4 13 6 15 8 17
REMARK Flexibility Score: inf
ROOT
ATOM      1  C   UNL     1      11.715   5.248  55.699  1.00  0.00     0.181 C 
ENDROOT
BRANCH   1   2
ATOM      2  C   UNL     1      12.693   4.459  54.795  1.00  0.00     0.171 C 
BRANCH   2   3
ATOM      3  C   UNL     1      13.903   3.962  55.600  1.00  0.00     0.190 C 
BRANCH   3   4
ATOM      4  O   UNL     1      14.417   4.995  56.397  1.00  0.00    -0.394 OA
ATOM      5  H   UNL     1      13.643   5.414  56.857  1.00  0.00     0.210 HD
ENDBRANCH   3   4
ENDBRANCH   2   3
BRANCH   2   6
ATOM      6  O   UNL     1      13.146   5.273  53.742  1.00  0.00    -0.388 OA
ATOM      7  H   UNL     1      14.005   5.677  54.032  1.00  0.00     0.211 HD
ENDBRANCH   2   6
ENDBRANCH   1   2
BRANCH   1   8
ATOM      8  C   UNL     1      10.252   5.111  55.219  1.00  0.00     0.214 C 
BRANCH   8   9
ATOM      9  C   UNL     1       9.668   6.476  54.913  1.00  0.00     0.189 C 
ATOM     10  O   UNL     1       9.147   7.117  55.814  1.00  0.00    -0.294 OA
BRANCH   9  11
ATOM     11  C   UNL     1       9.660   7.061  53.522  1.00  0.00     0.234 C 
BRANCH  11  12
ATOM     12  O   UNL     1      10.794   6.684  52.786  1.00  0.00    -0.388 OA
ATOM     13  H   UNL     1      11.570   7.147  53.198  1.00  0.00     0.211 HD
ENDBRANCH  11  12
ENDBRANCH   9  11
ENDBRANCH   8   9
BRANCH   8  14
ATOM     14  O   UNL     1      10.198   4.298  54.072  1.00  0.00    -0.382 OA
ATOM     15  H   UNL     1       9.751   4.832  53.363  1.00  0.00     0.211 HD
ENDBRANCH   8  14
ENDBRANCH   1   8
BRANCH   1  16
ATOM     16  O   UNL     1      12.092   6.602  55.733  1.00  0.00    -0.387 OA
ATOM     17  H   UNL     1      11.295   7.120  56.019  1.00  0.00     0.211 HD
ENDBRANCH   1  16
TORSDOF 10
ENDMDL
MODEL 4
REMARK VINA RESULT:    -4.504      1.255      3.766
REMARK INTER + INTRA:          -7.888
REMARK INTER:                  -7.151
REMARK INTRA:                  -0.736
REMARK UNBOUND:                -1.408
REMARK SMILES O=C(CO)[C@@H](O)[C@H](O)[C@@H](O)CO
REMARK SMILES IDX 7 1 9 2 11 3 12 4 10 6 5 8 2 9 1 10 3 11 4 12 6 14 8 16
REMARK H PARENT 12 5 10 7 4 13 6 15 8 17
REMARK Flexibility Score: inf
ROOT
ATOM      1  C   UNL     1      10.531   4.972  55.014  1.00  0.00     0.181 C 
ENDROOT
BRANCH   1   2
ATOM      2  C   UNL     1      11.127   6.261  54.399  1.00  0.00     0.171 C 
BRANCH   2   3
ATOM      3  C   UNL     1      11.869   5.951  53.091  1.00  0.00     0.190 C 
BRANCH   3   4
ATOM      4  O   UNL     1      13.254   6.079  53.273  1.00  0.00    -0.394 OA
ATOM      5  H   UNL     1      13.687   5.491  52.600  1.00  0.00     0.210 HD
ENDBRANCH   3   4
ENDBRANCH   2   3
BRANCH   2   6
ATOM      6  O   UNL     1      12.021   6.863  55.302  1.00  0.00    -0.388 OA
ATOM      7  H   UNL     1      11.494   7.490  55.863  1.00  0.00     0.211 HD
ENDBRANCH   2   6
ENDBRANCH   1   2
BRANCH   1   8
ATOM      8  C   UNL     1      11.416   3.737  54.726  1.00  0.00     0.214 C 
BRANCH   8   9
ATOM      9  C   UNL     1      12.326   3.455  55.905  1.00  0.00     0.189 C 
ATOM     10  O   UNL     1      11.842   3.025  56.942  1.00  0.00    -0.294 OA
BRANCH   9  11
ATOM     11  C   UNL     1      13.809   3.729  55.869  1.00  0.00     0.234 C 
BRANCH  11  12
ATOM     12  O   UNL     1      14.104   5.068  56.174  1.00  0.00    -0.388 OA
ATOM     13  H   UNL     1      13.360   5.615  55.808  1.00  0.00     0.211 HD
ENDBRANCH  11  12
ENDBRANCH   9  11
ENDBRANCH   8   9
BRANCH   8  14
ATOM     14  O   UNL     1      10.606   2.617  54.466  1.00  0.00    -0.382 OA
ATOM     15  H   UNL     1      11.179   1.951  54.002  1.00  0.00     0.211 HD
ENDBRANCH   8  14
ENDBRANCH   1   8
BRANCH   1  16
ATOM     16  O   UNL     1       9.232   4.768  54.515  1.00  0.00    -0.387 OA
ATOM     17  H   UNL     1       8.923   5.636  54.145  1.00  0.00     0.211 HD
ENDBRANCH   1  16
TORSDOF 10
ENDMDL
MODEL 5
REMARK VINA RESULT:    -4.455      1.510      2.541
REMARK INTER + INTRA:          -7.817
REMARK INTER:                  -6.600
REMARK INTRA:                  -1.217
REMARK UNBOUND:                -1.408
REMARK SMILES O=C(CO)[C@@H](O)[C@H](O)[C@@H](O)CO
REMARK SMILES IDX 7 1 9 2 11 3 12 4 10 6 5 8 2 9 1 10 3 11 4 12 6 14 8 16
REMARK H PARENT 12 5 10 7 4 13 6 15 8 17
REMARK Flexibility Score: inf
ROOT
ATOM      1  C   UNL     1      11.327   5.004  53.900  1.00  0.00     0.181 C 
ENDROOT
BRANCH   1   2
ATOM      2  C   UNL     1      12.378   4.774  55.013  1.00  0.00     0.171 C 
BRANCH   2   3
ATOM      3  C   UNL     1      12.013   3.549  55.866  1.00  0.00     0.190 C 
BRANCH   3   4
ATOM      4  O   UNL     1      11.070   2.754  55.199  1.00  0.00    -0.394 OA
ATOM      5  H   UNL     1      10.849   2.001  55.807  1.00  0.00     0.210 HD
ENDBRANCH   3   4
ENDBRANCH   2   3
BRANCH   2   6
ATOM      6  O   UNL     1      12.460   5.904  55.846  1.00  0.00    -0.388 OA
ATOM      7  H   UNL     1      11.711   5.846  56.494  1.00  0.00     0.211 HD
ENDBRANCH   2   6
ENDBRANCH   1   2
BRANCH   1   8
ATOM      8  C   UNL     1      11.777   6.098  52.904  1.00  0.00     0.214 C 
BRANCH   8   9
ATOM      9  C   UNL     1      10.981   7.369  53.124  1.00  0.00     0.189 C 
ATOM     10  O   UNL     1      11.228   8.067  54.097  1.00  0.00    -0.294 OA
BRANCH   9  11
ATOM     11  C   UNL     1       9.854   7.789  52.213  1.00  0.00     0.234 C 
BRANCH  11  12
ATOM     12  O   UNL     1       8.647   7.149  52.539  1.00  0.00    -0.388 OA
ATOM     13  H   UNL     1       8.016   7.334  51.795  1.00  0.00     0.211 HD
ENDBRANCH  11  12
ENDBRANCH   9  11
ENDBRANCH   8   9
BRANCH   8  14
ATOM     14  O   UNL     1      13.149   6.357  53.065  1.00  0.00    -0.382 OA
ATOM     15  H   UNL     1      13.466   5.778  53.808  1.00  0.00     0.211 HD
ENDBRANCH   8  14
ENDBRANCH   1   8
BRANCH   1  16
ATOM     16  O   UNL     1      10.094   5.351  54.481  1.00  0.00    -0.387 OA
ATOM     17  H   UNL     1       9.486   5.611  53.740  1.00  0.00     0.211 HD
ENDBRANCH   1  16
TORSDOF 10
ENDMDL
MODEL 6
REMARK VINA RESULT:    -4.437      1.389      2.333
REMARK INTER + INTRA:          -7.791
REMARK INTER:                  -6.749
REMARK INTRA:                  -1.042
REMARK UNBOUND:                -1.408
REMARK SMILES O=C(CO)[C@@H](O)[C@H](O)[C@@H](O)CO
REMARK SMILES IDX 7 1 9 2 11 3 12 4 10 6 5 8 2 9 1 10 3 11 4 12 6 14 8 16
REMARK H PARENT 12 5 10 7 4 13 6 15 8 17
REMARK Flexibility Score: inf
ROOT
ATOM      1  C   UNL     1      11.712   3.645  54.576  1.00  0.00     0.181 C 
ENDROOT
BRANCH   1   2
ATOM      2  C   UNL     1      11.936   3.951  56.076  1.00  0.00     0.171 C 
BRANCH   2   3
ATOM      3  C   UNL     1      13.422   3.825  56.445  1.00  0.00     0.190 C 
BRANCH   3   4
ATOM      4  O   UNL     1      14.047   5.079  56.388  1.00  0.00    -0.394 OA
ATOM      5  H   UNL     1      13.650   5.563  55.617  1.00  0.00     0.210 HD
ENDBRANCH   3   4
ENDBRANCH   2   3
BRANCH   2   6
ATOM      6  O   UNL     1      11.190   3.063  56.871  1.00  0.00    -0.388 OA
ATOM      7  H   UNL     1      11.379   2.146  56.543  1.00  0.00     0.211 HD
ENDBRANCH   2   6
ENDBRANCH   1   2
BRANCH   1   8
ATOM      8  C   UNL     1      11.653   4.937  53.729  1.00  0.00     0.214 C 
BRANCH   8   9
ATOM      9  C   UNL     1      10.723   5.947  54.374  1.00  0.00     0.189 C 
ATOM     10  O   UNL     1       9.564   5.630  54.601  1.00  0.00    -0.294 OA
BRANCH   9  11
ATOM     11  C   UNL     1      11.157   7.354  54.704  1.00  0.00     0.234 C 
BRANCH  11  12
ATOM     12  O   UNL     1      12.131   7.381  55.715  1.00  0.00    -0.388 OA
ATOM     13  H   UNL     1      12.678   6.559  55.606  1.00  0.00     0.211 HD
ENDBRANCH  11  12
ENDBRANCH   9  11
ENDBRANCH   8   9
BRANCH   8  14
ATOM     14  O   UNL     1      12.941   5.486  53.602  1.00  0.00    -0.382 OA
ATOM     15  H   UNL     1      13.303   5.170  52.732  1.00  0.00     0.211 HD
ENDBRANCH   8  14
ENDBRANCH   1   8
BRANCH   1  16
ATOM     16  O   UNL     1      10.526   2.905  54.417  1.00  0.00    -0.387 OA
ATOM     17  H   UNL     1       9.771   3.520  54.605  1.00  0.00     0.211 HD
ENDBRANCH   1  16
TORSDOF 10
ENDMDL
MODEL 7
REMARK VINA RESULT:    -4.392      1.379      4.276
REMARK INTER + INTRA:          -7.726
REMARK INTER:                  -6.788
REMARK INTRA:                  -0.938
REMARK UNBOUND:                -1.408
REMARK SMILES O=C(CO)[C@@H](O)[C@H](O)[C@@H](O)CO
REMARK SMILES IDX 7 1 9 2 11 3 12 4 10 6 5 8 2 9 1 10 3 11 4 12 6 14 8 16
REMARK H PARENT 12 5 10 7 4 13 6 15 8 17
REMARK Flexibility Score: inf
ROOT
ATOM      1  C   UNL     1      12.234   4.590  54.474  1.00  0.00     0.181 C 
ENDROOT
BRANCH   1   2
ATOM      2  C   UNL     1      11.552   5.887  54.973  1.00  0.00     0.171 C 
BRANCH   2   3
ATOM      3  C   UNL     1      11.367   6.886  53.821  1.00  0.00     0.190 C 
BRANCH   3   4
ATOM      4  O   UNL     1      12.590   7.118  53.174  1.00  0.00    -0.394 OA
ATOM      5  H   UNL     1      13.259   7.299  53.884  1.00  0.00     0.210 HD
ENDBRANCH   3   4
ENDBRANCH   2   3
BRANCH   2   6
ATOM      6  O   UNL     1      12.326   6.488  55.980  1.00  0.00    -0.388 OA
ATOM      7  H   UNL     1      12.366   5.851  56.740  1.00  0.00     0.211 HD
ENDBRANCH   2   6
ENDBRANCH   1   2
BRANCH   1   8
ATOM      8  C   UNL     1      11.830   3.365  55.327  1.00  0.00     0.214 C 
BRANCH   8   9
ATOM      9  C   UNL     1      12.797   3.185  56.480  1.00  0.00     0.189 C 
ATOM     10  O   UNL     1      13.954   2.870  56.245  1.00  0.00    -0.294 OA
BRANCH   9  11
ATOM     11  C   UNL     1      12.376   3.331  57.923  1.00  0.00     0.234 C 
BRANCH  11  12
ATOM     12  O   UNL     1      11.649   4.512  58.141  1.00  0.00    -0.388 OA
ATOM     13  H   UNL     1      11.144   4.385  58.987  1.00  0.00     0.211 HD
ENDBRANCH  11  12
ENDBRANCH   9  11
ENDBRANCH   8   9
BRANCH   8  14
ATOM     14  O   UNL     1      10.523   3.533  55.819  1.00  0.00    -0.382 OA
ATOM     15  H   UNL     1      10.500   4.415  56.276  1.00  0.00     0.211 HD
ENDBRANCH   8  14
ENDBRANCH   1   8
BRANCH   1  16
ATOM     16  O   UNL     1      13.630   4.756  54.490  1.00  0.00    -0.387 OA
ATOM     17  H   UNL     1      14.027   3.864  54.671  1.00  0.00     0.211 HD
ENDBRANCH   1  16
TORSDOF 10
ENDMDL
MODEL 8
REMARK VINA RESULT:    -4.376      1.404      2.591
REMARK INTER + INTRA:          -7.704
REMARK INTER:                  -7.001
REMARK INTRA:                  -0.702
REMARK UNBOUND:                -1.408
REMARK SMILES O=C(CO)[C@@H](O)[C@H](O)[C@@H](O)CO
REMARK SMILES IDX 7 1 9 2 11 3 12 4 10 6 5 8 2 9 1 10 3 11 4 12 6 14 8 16
REMARK H PARENT 12 5 10 7 4 13 6 15 8 17
REMARK Flexibility Score: inf
ROOT
ATOM      1  C   UNL     1      12.277   3.270  55.992  1.00  0.00     0.181 C 
ENDROOT
BRANCH   1   2
ATOM      2  C   UNL     1      12.974   3.159  57.369  1.00  0.00     0.171 C 
BRANCH   2   3
ATOM      3  C   UNL     1      13.265   1.691  57.719  1.00  0.00     0.190 C 
BRANCH   3   4
ATOM      4  O   UNL     1      13.380   1.534  59.107  1.00  0.00    -0.394 OA
ATOM      5  H   UNL     1      13.028   0.631  59.323  1.00  0.00     0.210 HD
ENDBRANCH   3   4
ENDBRANCH   2   3
BRANCH   2   6
ATOM      6  O   UNL     1      12.162   3.716  58.373  1.00  0.00    -0.388 OA
ATOM      7  H   UNL     1      11.231   3.718  58.029  1.00  0.00     0.211 HD
ENDBRANCH   2   6
ENDBRANCH   1   2
BRANCH   1   8
ATOM      8  C   UNL     1      12.819   4.462  55.170  1.00  0.00     0.214 C 
BRANCH   8   9
ATOM      9  C   UNL     1      11.991   4.654  53.914  1.00  0.00     0.189 C 
ATOM     10  O   UNL     1      11.625   3.673  53.284  1.00  0.00    -0.294 OA
BRANCH   9  11
ATOM     11  C   UNL     1      11.637   6.020  53.378  1.00  0.00     0.234 C 
BRANCH  11  12
ATOM     12  O   UNL     1      12.778   6.763  53.037  1.00  0.00    -0.388 OA
ATOM     13  H   UNL     1      13.398   6.705  53.811  1.00  0.00     0.211 HD
ENDBRANCH  11  12
ENDBRANCH   9  11
ENDBRANCH   8   9
BRANCH   8  14
ATOM     14  O   UNL     1      12.790   5.633  55.947  1.00  0.00    -0.382 OA
ATOM     15  H   UNL     1      13.244   6.340  55.417  1.00  0.00     0.211 HD
ENDBRANCH   8  14
ENDBRANCH   1   8
BRANCH   1  16
ATOM     16  O   UNL     1      10.888   3.395  56.175  1.00  0.00    -0.387 OA
ATOM     17  H   UNL     1      10.736   4.234  56.683  1.00  0.00     0.211 HD
ENDBRANCH   1  16
TORSDOF 10
ENDMDL
MODEL 9
REMARK VINA RESULT:    -4.364      1.407      4.480
REMARK INTER + INTRA:          -7.685
REMARK INTER:                  -6.923
REMARK INTRA:                  -0.762
REMARK UNBOUND:                -1.408
REMARK SMILES O=C(CO)[C@@H](O)[C@H](O)[C@@H](O)CO
REMARK SMILES IDX 7 1 9 2 11 3 12 4 10 6 5 8 2 9 1 10 3 11 4 12 6 14 8 16
REMARK H PARENT 12 5 10 7 4 13 6 15 8 17
REMARK Flexibility Score: inf
ROOT
ATOM      1  C   UNL     1      12.664   4.461  55.181  1.00  0.00     0.181 C 
ENDROOT
BRANCH   1   2
ATOM      2  C   UNL     1      12.282   4.694  53.699  1.00  0.00     0.171 C 
BRANCH   2   3
ATOM      3  C   UNL     1      11.668   6.088  53.504  1.00  0.00     0.190 C 
BRANCH   3   4
ATOM      4  O   UNL     1      12.665   7.022  53.188  1.00  0.00    -0.394 OA
ATOM      5  H   UNL     1      12.214   7.780  52.733  1.00  0.00     0.210 HD
ENDBRANCH   3   4
ENDBRANCH   2   3
BRANCH   2   6
ATOM      6  O   UNL     1      11.358   3.723  53.275  1.00  0.00    -0.388 OA
ATOM      7  H   UNL     1      11.880   2.943  52.951  1.00  0.00     0.211 HD
ENDBRANCH   2   6
ENDBRANCH   1   2
BRANCH   1   8
ATOM      8  C   UNL     1      11.820   3.335  55.820  1.00  0.00     0.214 C 
BRANCH   8   9
ATOM      9  C   UNL     1      12.344   3.006  57.204  1.00  0.00     0.189 C 
ATOM     10  O   UNL     1      12.015   3.709  58.149  1.00  0.00    -0.294 OA
BRANCH   9  11
ATOM     11  C   UNL     1      13.302   1.868  57.460  1.00  0.00     0.234 C 
BRANCH  11  12
ATOM     12  O   UNL     1      13.300   1.472  58.807  1.00  0.00    -0.388 OA
ATOM     13  H   UNL     1      13.047   0.512  58.822  1.00  0.00     0.211 HD
ENDBRANCH  11  12
ENDBRANCH   9  11
ENDBRANCH   8   9
BRANCH   8  14
ATOM     14  O   UNL     1      10.473   3.730  55.899  1.00  0.00    -0.382 OA
ATOM     15  H   UNL     1      10.133   3.416  56.778  1.00  0.00     0.211 HD
ENDBRANCH   8  14
ENDBRANCH   1   8
BRANCH   1  16
ATOM     16  O   UNL     1      12.505   5.658  55.902  1.00  0.00    -0.387 OA
ATOM     17  H   UNL     1      13.385   6.117  55.903  1.00  0.00     0.211 HD
ENDBRANCH   1  16
TORSDOF 10
ENDMDL
