MODEL 1
REMARK VINA RESULT:    -3.414      0.000      0.000
REMARK INTER + INTRA:          -3.854
REMARK INTER:                  -3.813
REMARK INTRA:                  -0.041
REMARK UNBOUND:                -0.041
REMARK SMILES CCCC(=O)[O-]
REMARK SMILES IDX 3 1 4 2 5 3 6 4 2 5 1 6
REMARK H PARENT
REMARK Flexibility Score: inf
ROOT
ATOM      1  C   UNL     1       7.539   1.641   8.773  1.00  0.00     0.052 C 
ENDROOT
BRANCH   1   2
ATOM      2  C   UNL     1       6.586   2.710   8.333  1.00  0.00     0.041 C 
ATOM      3  O   UNL     1       5.939   2.580   7.261  1.00  0.00    -0.550 OA
ATOM      4  O   UNL     1       6.389   3.835   9.123  1.00  0.00    -0.550 OA
ENDBRANCH   1   2
BRANCH   1   5
ATOM      5  C   UNL     1       8.837   2.235   9.334  1.00  0.00     0.003 C 
ATOM      6  C   UNL     1       9.902   2.427   8.254  1.00  0.00     0.004 C 
ENDBRANCH   1   5
TORSDOF 2
ENDMDL
MODEL 2
REMARK VINA RESULT:    -3.298      1.042      2.345
REMARK INTER + INTRA:          -3.725
REMARK INTER:                  -3.690
REMARK INTRA:                  -0.034
REMARK UNBOUND:                -0.041
REMARK SMILES CCCC(=O)[O-]
REMARK SMILES IDX 3 1 4 2 5 3 6 4 2 5 1 6
REMARK H PARENT
REMARK Flexibility Score: inf
ROOT
ATOM      1  C   UNL     1       7.850   2.049   8.909  1.00  0.00     0.052 C 
ENDROOT
BRANCH   1   2
ATOM      2  C   UNL     1       6.647   2.889   8.603  1.00  0.00     0.041 C 
ATOM      3  O   UNL     1       6.293   3.801   9.395  1.00  0.00    -0.550 OA
ATOM      4  O   UNL     1       5.936   2.684   7.428  1.00  0.00    -0.550 OA
ENDBRANCH   1   2
BRANCH   1   5
ATOM      5  C   UNL     1       7.569   0.556   8.696  1.00  0.00     0.003 C 
ATOM      6  C   UNL     1       7.154  -0.147   9.988  1.00  0.00     0.004 C 
ENDBRANCH   1   5
TORSDOF 2
ENDMDL
MODEL 3
REMARK VINA RESULT:    -3.188     12.758     13.556
REMARK INTER + INTRA:          -3.602
REMARK INTER:                  -3.594
REMARK INTRA:                  -0.008
REMARK UNBOUND:                -0.041
REMARK SMILES CCCC(=O)[O-]
REMARK SMILES IDX 3 1 4 2 5 3 6 4 2 5 1 6
REMARK H PARENT
REMARK Flexibility Score: inf
ROOT
ATOM      1  C   UNL     1       4.951  -9.336   3.418  1.00  0.00     0.052 C 
ENDROOT
BRANCH   1   2
ATOM      2  C   UNL     1       3.705  -9.376   2.588  1.00  0.00     0.041 C 
ATOM      3  O   UNL     1       3.016 -10.428   2.528  1.00  0.00    -0.550 OA
ATOM      4  O   UNL     1       3.287  -8.241   1.905  1.00  0.00    -0.550 OA
ENDBRANCH   1   2
BRANCH   1   5
ATOM      5  C   UNL     1       4.757 -10.040   4.767  1.00  0.00     0.003 C 
ATOM      6  C   UNL     1       5.527  -9.355   5.896  1.00  0.00     0.004 C 
ENDBRANCH   1   5
TORSDOF 2
ENDMDL
MODEL 4
REMARK VINA RESULT:    -2.958     12.470     13.228
REMARK INTER + INTRA:          -3.345
REMARK INTER:                  -3.335
REMARK INTRA:                  -0.009
REMARK UNBOUND:                -0.041
REMARK SMILES CCCC(=O)[O-]
REMARK SMILES IDX 3 1 4 2 5 3 6 4 2 5 1 6
REMARK H PARENT
REMARK Flexibility Score: inf
ROOT
ATOM      1  C   UNL     1       4.971  -9.569   4.424  1.00  0.00     0.052 C 
ENDROOT
BRANCH   1   2
ATOM      2  C   UNL     1       4.205  -9.914   3.183  1.00  0.00     0.041 C 
ATOM      3  O   UNL     1       4.708  -9.704   2.048  1.00  0.00    -0.550 OA
ATOM      4  O   UNL     1       2.948 -10.497   3.281  1.00  0.00    -0.550 OA
ENDBRANCH   1   2
BRANCH   1   5
ATOM      5  C   UNL     1       6.006  -8.468   4.163  1.00  0.00     0.003 C 
ATOM      6  C   UNL     1       6.694  -8.001   5.446  1.00  0.00     0.004 C 
ENDBRANCH   1   5
TORSDOF 2
ENDMDL
MODEL 5
REMARK VINA RESULT:    -2.757     22.154     22.620
REMARK INTER + INTRA:          -3.121
REMARK INTER:                  -3.102
REMARK INTRA:                  -0.019
REMARK UNBOUND:                -0.041
REMARK SMILES CCCC(=O)[O-]
REMARK SMILES IDX 3 1 4 2 5 3 6 4 2 5 1 6
REMARK H PARENT
REMARK Flexibility Score: inf
ROOT
ATOM      1  C   UNL     1      -7.356   3.326  -8.583  1.00  0.00     0.052 C 
ENDROOT
BRANCH   1   2
ATOM      2  C   UNL     1      -6.201   2.515  -9.086  1.00  0.00     0.041 C 
ATOM      3  O   UNL     1      -6.388   1.352  -9.529  1.00  0.00    -0.550 OA
ATOM      4  O   UNL     1      -4.923   3.058  -9.095  1.00  0.00    -0.550 OA
ENDBRANCH   1   2
BRANCH   1   5
ATOM      5  C   UNL     1      -8.512   2.434  -8.112  1.00  0.00     0.003 C 
ATOM      6  C   UNL     1      -8.901   2.707  -6.659  1.00  0.00     0.004 C 
ENDBRANCH   1   5
TORSDOF 2
ENDMDL
MODEL 6
REMARK VINA RESULT:    -2.757     21.923     22.355
REMARK INTER + INTRA:          -3.120
REMARK INTER:                  -3.111
REMARK INTRA:                  -0.009
REMARK UNBOUND:                -0.041
REMARK SMILES CCCC(=O)[O-]
REMARK SMILES IDX 3 1 4 2 5 3 6 4 2 5 1 6
REMARK H PARENT
REMARK Flexibility Score: inf
ROOT
ATOM      1  C   UNL     1      -5.094 -10.013  -5.417  1.00  0.00     0.052 C 
ENDROOT
BRANCH   1   2
ATOM      2  C   UNL     1      -6.095  -9.441  -4.460  1.00  0.00     0.041 C 
ATOM      3  O   UNL     1      -7.127  -8.864  -4.893  1.00  0.00    -0.550 OA
ATOM      4  O   UNL     1      -5.904  -9.574  -3.091  1.00  0.00    -0.550 OA
ENDBRANCH   1   2
BRANCH   1   5
ATOM      5  C   UNL     1      -4.814  -9.058  -6.584  1.00  0.00     0.003 C 
ATOM      6  C   UNL     1      -3.321  -8.929  -6.884  1.00  0.00     0.004 C 
ENDBRANCH   1   5
TORSDOF 2
ENDMDL
MODEL 7
REMARK VINA RESULT:    -2.698     21.361     22.175
REMARK INTER + INTRA:          -3.055
REMARK INTER:                  -3.008
REMARK INTRA:                  -0.048
REMARK UNBOUND:                -0.041
REMARK SMILES CCCC(=O)[O-]
REMARK SMILES IDX 3 1 4 2 5 3 6 4 2 5 1 6
REMARK H PARENT
REMARK Flexibility Score: inf
ROOT
ATOM      1  C   UNL     1      -5.083   3.120  -8.904  1.00  0.00     0.052 C 
ENDROOT
BRANCH   1   2
ATOM      2  C   UNL     1      -5.362   4.589  -9.001  1.00  0.00     0.041 C 
ATOM      3  O   UNL     1      -5.949   5.058 -10.011  1.00  0.00    -0.550 OA
ATOM      4  O   UNL     1      -5.003   5.436  -7.960  1.00  0.00    -0.550 OA
ENDBRANCH   1   2
BRANCH   1   5
ATOM      5  C   UNL     1      -6.259   2.284  -9.423  1.00  0.00     0.003 C 
ATOM      6  C   UNL     1      -7.441   2.280  -8.454  1.00  0.00     0.004 C 
ENDBRANCH   1   5
TORSDOF 2
ENDMDL
MODEL 8
REMARK VINA RESULT:    -2.697     21.814     22.497
REMARK INTER + INTRA:          -3.054
REMARK INTER:                  -3.009
REMARK INTRA:                  -0.045
REMARK UNBOUND:                -0.041
REMARK SMILES CCCC(=O)[O-]
REMARK SMILES IDX 3 1 4 2 5 3 6 4 2 5 1 6
REMARK H PARENT
REMARK Flexibility Score: inf
ROOT
ATOM      1  C   UNL     1      -5.640   2.525  -8.999  1.00  0.00     0.052 C 
ENDROOT
BRANCH   1   2
ATOM      2  C   UNL     1      -7.124   2.322  -9.036  1.00  0.00     0.041 C 
ATOM      3  O   UNL     1      -7.693   2.000 -10.112  1.00  0.00    -0.550 OA
ATOM      4  O   UNL     1      -7.874   2.456  -7.875  1.00  0.00    -0.550 OA
ENDBRANCH   1   2
BRANCH   1   5
ATOM      5  C   UNL     1      -5.241   3.896  -9.559  1.00  0.00     0.003 C 
ATOM      6  C   UNL     1      -5.250   4.986  -8.488  1.00  0.00     0.004 C 
ENDBRANCH   1   5
TORSDOF 2
ENDMDL
MODEL 9
REMARK VINA RESULT:    -2.543     21.387     21.945
REMARK INTER + INTRA:          -2.882
REMARK INTER:                  -2.849
REMARK INTRA:                  -0.033
REMARK UNBOUND:                -0.041
REMARK SMILES CCCC(=O)[O-]
REMARK SMILES IDX 3 1 4 2 5 3 6 4 2 5 1 6
REMARK H PARENT
REMARK Flexibility Score: inf
ROOT
ATOM      1  C   UNL     1      -4.899   4.623  -8.577  1.00  0.00     0.052 C 
ENDROOT
BRANCH   1   2
ATOM      2  C   UNL     1      -5.798   5.803  -8.372  1.00  0.00     0.041 C 
ATOM      3  O   UNL     1      -7.041   5.641  -8.255  1.00  0.00    -0.550 OA
ATOM      4  O   UNL     1      -5.260   7.080  -8.278  1.00  0.00    -0.550 OA
ENDBRANCH   1   2
BRANCH   1   5
ATOM      5  C   UNL     1      -5.466   3.652  -9.619  1.00  0.00     0.003 C 
ATOM      6  C   UNL     1      -5.982   2.359  -8.988  1.00  0.00     0.004 C 
ENDBRANCH   1   5
TORSDOF 2
ENDMDL
