MODEL 1
REMARK VINA RESULT:    -5.072      0.000      0.000
REMARK INTER + INTRA:          -6.092
REMARK INTER:                  -5.962
REMARK INTRA:                  -0.130
REMARK UNBOUND:                -0.130
REMARK SMILES O=C([O-])C=Cc1ccc(O)c(O)c1
REMARK SMILES IDX 6 1 13 2 7 3 11 4 8 5 9 6 5 7 4 8 2 9 1 10 3 11 12 12 10 14
REMARK H PARENT 12 13 10 15
REMARK Flexibility Score: inf
ROOT
ATOM      1  C   UNL     1      54.124  14.550  89.042  1.00  0.00    -0.022 A 
ATOM      2  C   UNL     1      52.968  14.491  89.838  1.00  0.00     0.058 A 
ATOM      3  C   UNL     1      55.367  14.226  89.622  1.00  0.00     0.012 A 
ATOM      4  C   UNL     1      53.046  14.141  91.191  1.00  0.00     0.157 A 
ATOM      5  C   UNL     1      55.446  13.877  90.972  1.00  0.00     0.051 A 
ATOM      6  C   UNL     1      54.291  13.835  91.763  1.00  0.00     0.157 A 
ENDROOT
BRANCH   1   7
ATOM      7  C   UNL     1      53.982  14.917  87.611  1.00  0.00     0.010 C 
ATOM      8  C   UNL     1      52.889  14.653  86.878  1.00  0.00     0.025 C 
BRANCH   8   9
ATOM      9  C   UNL     1      52.788  15.023  85.457  1.00  0.00     0.064 C 
ATOM     10  O   UNL     1      52.395  16.167  85.107  1.00  0.00    -0.545 OA
ATOM     11  O   UNL     1      53.133  14.093  84.484  1.00  0.00    -0.545 OA
ENDBRANCH   8   9
ENDBRANCH   1   7
BRANCH   4  12
ATOM     12  O   UNL     1      51.876  14.103  91.949  1.00  0.00    -0.504 OA
ATOM     13  H   UNL     1      51.072  13.553  91.671  1.00  0.00     0.293 HD
ENDBRANCH   4  12
BRANCH   6  14
ATOM     14  O   UNL     1      54.376  13.486  93.109  1.00  0.00    -0.504 OA
ATOM     15  H   UNL     1      54.055  14.108  93.842  1.00  0.00     0.293 HD
ENDBRANCH   6  14
TORSDOF 4
ENDMDL
MODEL 2
REMARK VINA RESULT:    -4.936      1.487      2.336
REMARK INTER + INTRA:          -5.932
REMARK INTER:                  -5.804
REMARK INTRA:                  -0.128
REMARK UNBOUND:                -0.130
REMARK SMILES O=C([O-])C=Cc1ccc(O)c(O)c1
REMARK SMILES IDX 6 1 13 2 7 3 11 4 8 5 9 6 5 7 4 8 2 9 1 10 3 11 12 12 10 14
REMARK H PARENT 12 13 10 15
REMARK Flexibility Score: inf
ROOT
ATOM      1  C   UNL     1      53.289  14.983  87.984  1.00  0.00    -0.022 A 
ATOM      2  C   UNL     1      54.643  14.758  88.282  1.00  0.00     0.058 A 
ATOM      3  C   UNL     1      52.321  14.713  88.971  1.00  0.00     0.012 A 
ATOM      4  C   UNL     1      55.029  14.250  89.528  1.00  0.00     0.157 A 
ATOM      5  C   UNL     1      52.704  14.206  90.215  1.00  0.00     0.051 A 
ATOM      6  C   UNL     1      54.055  13.970  90.500  1.00  0.00     0.157 A 
ENDROOT
BRANCH   1   7
ATOM      7  C   UNL     1      52.938  15.532  86.650  1.00  0.00     0.010 C 
ATOM      8  C   UNL     1      53.195  14.902  85.494  1.00  0.00     0.025 C 
BRANCH   8   9
ATOM      9  C   UNL     1      52.841  15.483  84.188  1.00  0.00     0.064 C 
ATOM     10  O   UNL     1      52.128  16.518  84.106  1.00  0.00    -0.545 OA
ATOM     11  O   UNL     1      53.302  14.879  83.025  1.00  0.00    -0.545 OA
ENDBRANCH   8   9
ENDBRANCH   1   7
BRANCH   4  12
ATOM     12  O   UNL     1      56.383  14.032  89.781  1.00  0.00    -0.504 OA
ATOM     13  H   UNL     1      57.102  14.290  89.117  1.00  0.00     0.293 HD
ENDBRANCH   4  12
BRANCH   6  14
ATOM     14  O   UNL     1      54.431  13.464  91.743  1.00  0.00    -0.504 OA
ATOM     15  H   UNL     1      54.270  13.981  92.599  1.00  0.00     0.293 HD
ENDBRANCH   6  14
TORSDOF 4
ENDMDL
MODEL 3
REMARK VINA RESULT:    -4.883      1.901      2.233
REMARK INTER + INTRA:          -5.870
REMARK INTER:                  -5.736
REMARK INTRA:                  -0.134
REMARK UNBOUND:                -0.130
REMARK SMILES O=C([O-])C=Cc1ccc(O)c(O)c1
REMARK SMILES IDX 6 1 13 2 7 3 11 4 8 5 9 6 5 7 4 8 2 9 1 10 3 11 12 12 10 14
REMARK H PARENT 12 13 10 15
REMARK Flexibility Score: inf
ROOT
ATOM      1  C   UNL     1      53.858  14.412  87.604  1.00  0.00    -0.022 A 
ATOM      2  C   UNL     1      53.442  13.077  87.744  1.00  0.00     0.058 A 
ATOM      3  C   UNL     1      54.673  14.978  88.605  1.00  0.00     0.012 A 
ATOM      4  C   UNL     1      53.806  12.326  88.867  1.00  0.00     0.157 A 
ATOM      5  C   UNL     1      55.037  14.230  89.726  1.00  0.00     0.051 A 
ATOM      6  C   UNL     1      54.605  12.905  89.865  1.00  0.00     0.157 A 
ENDROOT
BRANCH   1   7
ATOM      7  C   UNL     1      53.451  15.159  86.387  1.00  0.00     0.010 C 
ATOM      8  C   UNL     1      53.039  14.570  85.255  1.00  0.00     0.025 C 
BRANCH   8   9
ATOM      9  C   UNL     1      52.653  15.344  84.063  1.00  0.00     0.064 C 
ATOM     10  O   UNL     1      52.153  16.495  84.167  1.00  0.00    -0.545 OA
ATOM     11  O   UNL     1      52.844  14.794  82.802  1.00  0.00    -0.545 OA
ENDBRANCH   8   9
ENDBRANCH   1   7
BRANCH   4  12
ATOM     12  O   UNL     1      53.364  11.007  88.972  1.00  0.00    -0.504 OA
ATOM     13  H   UNL     1      52.939  10.519  88.194  1.00  0.00     0.293 HD
ENDBRANCH   4  12
BRANCH   6  14
ATOM     14  O   UNL     1      54.971  12.163  90.987  1.00  0.00    -0.504 OA
ATOM     15  H   UNL     1      54.589  12.361  91.904  1.00  0.00     0.293 HD
ENDBRANCH   6  14
TORSDOF 4
ENDMDL
MODEL 4
REMARK VINA RESULT:    -4.836      2.677      3.587
REMARK INTER + INTRA:          -5.814
REMARK INTER:                  -5.686
REMARK INTRA:                  -0.128
REMARK UNBOUND:                -0.130
REMARK SMILES O=C([O-])C=Cc1ccc(O)c(O)c1
REMARK SMILES IDX 6 1 13 2 7 3 11 4 8 5 9 6 5 7 4 8 2 9 1 10 3 11 12 12 10 14
REMARK H PARENT 12 13 10 15
REMARK Flexibility Score: inf
ROOT
ATOM      1  C   UNL     1      52.666  14.656  86.342  1.00  0.00    -0.022 A 
ATOM      2  C   UNL     1      52.401  15.982  86.725  1.00  0.00     0.058 A 
ATOM      3  C   UNL     1      52.714  13.659  87.336  1.00  0.00     0.012 A 
ATOM      4  C   UNL     1      52.212  16.317  88.070  1.00  0.00     0.157 A 
ATOM      5  C   UNL     1      52.525  13.991  88.679  1.00  0.00     0.051 A 
ATOM      6  C   UNL     1      52.276  15.318  89.054  1.00  0.00     0.157 A 
ENDROOT
BRANCH   1   7
ATOM      7  C   UNL     1      52.849  14.357  84.900  1.00  0.00     0.010 C 
ATOM      8  C   UNL     1      53.634  15.075  84.083  1.00  0.00     0.025 C 
BRANCH   8   9
ATOM      9  C   UNL     1      53.782  14.754  82.654  1.00  0.00     0.064 C 
ATOM     10  O   UNL     1      52.792  14.770  81.875  1.00  0.00    -0.545 OA
ATOM     11  O   UNL     1      55.036  14.426  82.155  1.00  0.00    -0.545 OA
ENDBRANCH   8   9
ENDBRANCH   1   7
BRANCH   4  12
ATOM     12  O   UNL     1      51.961  17.646  88.409  1.00  0.00    -0.504 OA
ATOM     13  H   UNL     1      51.338  17.900  89.165  1.00  0.00     0.293 HD
ENDBRANCH   4  12
BRANCH   6  14
ATOM     14  O   UNL     1      52.090  15.643  90.396  1.00  0.00    -0.504 OA
ATOM     15  H   UNL     1      52.293  16.570  90.752  1.00  0.00     0.293 HD
ENDBRANCH   6  14
TORSDOF 4
ENDMDL
MODEL 5
REMARK VINA RESULT:    -4.789      3.201      4.856
REMARK INTER + INTRA:          -5.759
REMARK INTER:                  -5.628
REMARK INTRA:                  -0.131
REMARK UNBOUND:                -0.130
REMARK SMILES O=C([O-])C=Cc1ccc(O)c(O)c1
REMARK SMILES IDX 6 1 13 2 7 3 11 4 8 5 9 6 5 7 4 8 2 9 1 10 3 11 12 12 10 14
REMARK H PARENT 12 13 10 15
REMARK Flexibility Score: inf
ROOT
ATOM      1  C   UNL     1      53.130  15.340  87.486  1.00  0.00    -0.022 A 
ATOM      2  C   UNL     1      53.532  14.268  88.301  1.00  0.00     0.058 A 
ATOM      3  C   UNL     1      52.700  15.071  86.172  1.00  0.00     0.012 A 
ATOM      4  C   UNL     1      53.532  12.957  87.813  1.00  0.00     0.157 A 
ATOM      5  C   UNL     1      52.700  13.763  85.683  1.00  0.00     0.051 A 
ATOM      6  C   UNL     1      53.117  12.701  86.497  1.00  0.00     0.157 A 
ENDROOT
BRANCH   1   7
ATOM      7  C   UNL     1      53.140  16.710  88.059  1.00  0.00     0.010 C 
ATOM      8  C   UNL     1      52.033  17.369  88.432  1.00  0.00     0.025 C 
BRANCH   8   9
ATOM      9  C   UNL     1      52.081  18.732  88.987  1.00  0.00     0.064 C 
ATOM     10  O   UNL     1      53.141  19.412  88.957  1.00  0.00    -0.545 OA
ATOM     11  O   UNL     1      50.937  19.278  89.554  1.00  0.00    -0.545 OA
ENDBRANCH   8   9
ENDBRANCH   1   7
BRANCH   4  12
ATOM     12  O   UNL     1      53.948  11.923  88.651  1.00  0.00    -0.504 OA
ATOM     13  H   UNL     1      54.272  11.034  88.289  1.00  0.00     0.293 HD
ENDBRANCH   4  12
BRANCH   6  14
ATOM     14  O   UNL     1      53.115  11.398  86.004  1.00  0.00    -0.504 OA
ATOM     15  H   UNL     1      53.947  10.821  86.021  1.00  0.00     0.293 HD
ENDBRANCH   6  14
TORSDOF 4
ENDMDL
MODEL 6
REMARK VINA RESULT:    -4.700      2.525      3.166
REMARK INTER + INTRA:          -5.655
REMARK INTER:                  -5.527
REMARK INTRA:                  -0.128
REMARK UNBOUND:                -0.130
REMARK SMILES O=C([O-])C=Cc1ccc(O)c(O)c1
REMARK SMILES IDX 6 1 13 2 7 3 11 4 8 5 9 6 5 7 4 8 2 9 1 10 3 11 12 12 10 14
REMARK H PARENT 12 13 10 15
REMARK Flexibility Score: inf
ROOT
ATOM      1  C   UNL     1      53.108  12.918  86.637  1.00  0.00    -0.022 A 
ATOM      2  C   UNL     1      53.492  13.545  87.834  1.00  0.00     0.058 A 
ATOM      3  C   UNL     1      53.098  11.510  86.580  1.00  0.00     0.012 A 
ATOM      4  C   UNL     1      53.884  12.791  88.946  1.00  0.00     0.157 A 
ATOM      5  C   UNL     1      53.489  10.756  87.688  1.00  0.00     0.051 A 
ATOM      6  C   UNL     1      53.885  11.389  88.873  1.00  0.00     0.157 A 
ENDROOT
BRANCH   1   7
ATOM      7  C   UNL     1      52.693  13.767  85.492  1.00  0.00     0.010 C 
ATOM      8  C   UNL     1      53.334  14.886  85.123  1.00  0.00     0.025 C 
BRANCH   8   9
ATOM      9  C   UNL     1      52.886  15.709  83.987  1.00  0.00     0.064 C 
ATOM     10  O   UNL     1      51.977  16.570  84.124  1.00  0.00    -0.545 OA
ATOM     11  O   UNL     1      53.476  15.532  82.742  1.00  0.00    -0.545 OA
ENDBRANCH   8   9
ENDBRANCH   1   7
BRANCH   4  12
ATOM     12  O   UNL     1      54.267  13.453  90.112  1.00  0.00    -0.504 OA
ATOM     13  H   UNL     1      55.092  14.039  90.152  1.00  0.00     0.293 HD
ENDBRANCH   4  12
BRANCH   6  14
ATOM     14  O   UNL     1      54.274  10.631  89.976  1.00  0.00    -0.504 OA
ATOM     15  H   UNL     1      54.901   9.840  89.884  1.00  0.00     0.293 HD
ENDBRANCH   6  14
TORSDOF 4
ENDMDL
MODEL 7
REMARK VINA RESULT:    -4.649      3.442      5.823
REMARK INTER + INTRA:          -5.594
REMARK INTER:                  -5.456
REMARK INTRA:                  -0.138
REMARK UNBOUND:                -0.130
REMARK SMILES O=C([O-])C=Cc1ccc(O)c(O)c1
REMARK SMILES IDX 6 1 13 2 7 3 11 4 8 5 9 6 5 7 4 8 2 9 1 10 3 11 12 12 10 14
REMARK H PARENT 12 13 10 15
REMARK Flexibility Score: inf
ROOT
ATOM      1  C   UNL     1      53.512  12.596  87.855  1.00  0.00    -0.022 A 
ATOM      2  C   UNL     1      53.875  13.899  88.235  1.00  0.00     0.058 A 
ATOM      3  C   UNL     1      52.855  12.405  86.623  1.00  0.00     0.012 A 
ATOM      4  C   UNL     1      53.570  14.995  87.420  1.00  0.00     0.157 A 
ATOM      5  C   UNL     1      52.550  13.497  85.809  1.00  0.00     0.051 A 
ATOM      6  C   UNL     1      52.901  14.795  86.202  1.00  0.00     0.157 A 
ENDROOT
BRANCH   1   7
ATOM      7  C   UNL     1      53.870  11.469  88.753  1.00  0.00     0.010 C 
ATOM      8  C   UNL     1      53.902  10.186  88.362  1.00  0.00     0.025 C 
BRANCH   8   9
ATOM      9  C   UNL     1      54.252   9.093  89.285  1.00  0.00     0.064 C 
ATOM     10  O   UNL     1      53.595   8.019  89.303  1.00  0.00    -0.545 OA
ATOM     11  O   UNL     1      55.326   9.250  90.151  1.00  0.00    -0.545 OA
ENDBRANCH   8   9
ENDBRANCH   1   7
BRANCH   4  12
ATOM     12  O   UNL     1      53.938  16.273  87.838  1.00  0.00    -0.504 OA
ATOM     13  H   UNL     1      53.548  17.109  87.421  1.00  0.00     0.293 HD
ENDBRANCH   4  12
BRANCH   6  14
ATOM     14  O   UNL     1      52.593  15.882  85.385  1.00  0.00    -0.504 OA
ATOM     15  H   UNL     1      52.561  15.797  84.376  1.00  0.00     0.293 HD
ENDBRANCH   6  14
TORSDOF 4
ENDMDL
MODEL 8
REMARK VINA RESULT:    -4.647      3.508      3.742
REMARK INTER + INTRA:          -5.593
REMARK INTER:                  -5.455
REMARK INTRA:                  -0.138
REMARK UNBOUND:                -0.130
REMARK SMILES O=C([O-])C=Cc1ccc(O)c(O)c1
REMARK SMILES IDX 6 1 13 2 7 3 11 4 8 5 9 6 5 7 4 8 2 9 1 10 3 11 12 12 10 14
REMARK H PARENT 12 13 10 15
REMARK Flexibility Score: inf
ROOT
ATOM      1  C   UNL     1      53.894  11.938  88.680  1.00  0.00    -0.022 A 
ATOM      2  C   UNL     1      53.851  10.594  88.275  1.00  0.00     0.058 A 
ATOM      3  C   UNL     1      54.400  12.247  89.959  1.00  0.00     0.012 A 
ATOM      4  C   UNL     1      54.277   9.572  89.132  1.00  0.00     0.157 A 
ATOM      5  C   UNL     1      54.826  11.230  90.814  1.00  0.00     0.051 A 
ATOM      6  C   UNL     1      54.765   9.890  90.409  1.00  0.00     0.157 A 
ENDROOT
BRANCH   1   7
ATOM      7  C   UNL     1      53.439  12.982  87.727  1.00  0.00     0.010 C 
ATOM      8  C   UNL     1      53.710  14.288  87.867  1.00  0.00     0.025 C 
BRANCH   8   9
ATOM      9  C   UNL     1      53.232  15.296  86.906  1.00  0.00     0.064 C 
ATOM     10  O   UNL     1      53.589  15.268  85.699  1.00  0.00    -0.545 OA
ATOM     11  O   UNL     1      52.372  16.297  87.340  1.00  0.00    -0.545 OA
ENDBRANCH   8   9
ENDBRANCH   1   7
BRANCH   4  12
ATOM     12  O   UNL     1      54.208   8.249  88.695  1.00  0.00    -0.504 OA
ATOM     13  H   UNL     1      54.914   7.845  88.092  1.00  0.00     0.293 HD
ENDBRANCH   4  12
BRANCH   6  14
ATOM     14  O   UNL     1      55.190   8.878  91.268  1.00  0.00    -0.504 OA
ATOM     15  H   UNL     1      55.535   9.080  92.199  1.00  0.00     0.293 HD
ENDBRANCH   6  14
TORSDOF 4
ENDMDL
MODEL 9
REMARK VINA RESULT:    -4.628      2.514      3.447
REMARK INTER + INTRA:          -5.570
REMARK INTER:                  -5.441
REMARK INTRA:                  -0.129
REMARK UNBOUND:                -0.130
REMARK SMILES O=C([O-])C=Cc1ccc(O)c(O)c1
REMARK SMILES IDX 6 1 13 2 7 3 11 4 8 5 9 6 5 7 4 8 2 9 1 10 3 11 12 12 10 14
REMARK H PARENT 12 13 10 15
REMARK Flexibility Score: inf
ROOT
ATOM      1  C   UNL     1      52.712  15.025  86.215  1.00  0.00    -0.022 A 
ATOM      2  C   UNL     1      52.640  13.765  86.832  1.00  0.00     0.058 A 
ATOM      3  C   UNL     1      52.720  16.179  87.024  1.00  0.00     0.012 A 
ATOM      4  C   UNL     1      52.552  13.651  88.224  1.00  0.00     0.157 A 
ATOM      5  C   UNL     1      52.633  16.067  88.413  1.00  0.00     0.051 A 
ATOM      6  C   UNL     1      52.546  14.808  89.020  1.00  0.00     0.157 A 
ENDROOT
BRANCH   1   7
ATOM      7  C   UNL     1      52.814  15.086  84.735  1.00  0.00     0.010 C 
ATOM      8  C   UNL     1      53.813  14.531  84.033  1.00  0.00     0.025 C 
BRANCH   8   9
ATOM      9  C   UNL     1      53.886  14.621  82.566  1.00  0.00     0.064 C 
ATOM     10  O   UNL     1      52.863  14.874  81.875  1.00  0.00    -0.545 OA
ATOM     11  O   UNL     1      55.105  14.424  81.930  1.00  0.00    -0.545 OA
ENDBRANCH   8   9
ENDBRANCH   1   7
BRANCH   4  12
ATOM     12  O   UNL     1      52.473  12.382  88.796  1.00  0.00    -0.504 OA
ATOM     13  H   UNL     1      52.967  12.144  89.647  1.00  0.00     0.293 HD
ENDBRANCH   4  12
BRANCH   6  14
ATOM     14  O   UNL     1      52.458  14.702  90.407  1.00  0.00    -0.504 OA
ATOM     15  H   UNL     1      51.624  14.980  90.910  1.00  0.00     0.293 HD
ENDBRANCH   6  14
TORSDOF 4
ENDMDL
