MODEL 1
REMARK VINA RESULT:    12.946      0.000      0.000
REMARK INTER + INTRA:          22.443
REMARK INTER:                  18.244
REMARK INTRA:                   4.199
REMARK UNBOUND:                 4.199
REMARK SMILES CC1=CCC(=C(C)C)C(=O)CC(C)=CCC1
REMARK SMILES IDX 12 1 14 2 13 3 15 4 16 5 2 6 1 7 3 8 11 10 9 11 10 12 5 13
REMARK SMILES IDX 6 14 7 15 8 16 4 17
REMARK H PARENT
REMARK Flexibility Score: 60.00
ROOT
ATOM      1  C   UNL     1      -3.210  -8.983  -5.770  1.00  0.00    -0.070 C 
ATOM      2  C   UNL     1      -3.677  -8.789  -7.023  1.00  0.00    -0.027 C 
ATOM      3  C   UNL     1      -2.248  -7.965  -5.210  1.00  0.00     0.039 C 
ENDROOT
BRANCH   2   4
ATOM      4  C   UNL     1      -4.717  -9.640  -7.720  1.00  0.00     0.032 C 
BRANCH   4   5
ATOM      5  C   UNL     1      -4.343 -10.075  -9.151  1.00  0.00     0.034 C 
BRANCH   5   6
ATOM      6  C   UNL     1      -4.426 -11.577  -9.360  1.00  0.00    -0.077 C 
ATOM      7  C   UNL     1      -4.633 -12.079 -10.767  1.00  0.00     0.039 C 
ATOM      8  C   UNL     1      -4.259 -12.495  -8.377  1.00  0.00    -0.023 CG0
ATOM      9  G   UNL     1      -4.060 -12.226  -6.899  1.00  0.00     0.000 G0
ENDBRANCH   5   6
ENDBRANCH   4   5
ENDBRANCH   2   4
BRANCH   1  10
ATOM     10  C   UNL     1      -3.673 -10.115  -4.876  1.00  0.00     0.111 C 
BRANCH  10  11
ATOM     11  C   UNL     1      -5.049 -10.595  -5.254  1.00  0.00     0.163 C 
ATOM     12  O   UNL     1      -6.040  -9.911  -4.876  1.00  0.00    -0.294 OA
BRANCH  11  13
ATOM     13  C   UNL     1      -5.273 -11.801  -6.105  1.00  0.00    -0.002 C 
ATOM     14  C   UNL     1      -6.524 -12.334  -6.247  1.00  0.00    -0.069 C 
ATOM     15  C   UNL     1      -7.691 -11.823  -5.431  1.00  0.00     0.039 C 
ATOM     16  C   UNL     1      -6.810 -13.454  -7.222  1.00  0.00     0.039 C 
BRANCH  13  17
ATOM     17  C   UNL     1      -4.076 -12.343  -6.871  1.00  0.00     0.066 CG0
ATOM     18  G   UNL     1      -4.300 -12.332  -8.369  1.00  0.00     0.000 G0
ENDBRANCH  13  17
ENDBRANCH  11  13
ENDBRANCH  10  11
ENDBRANCH   1  10
TORSDOF 0
ENDMDL
