MODEL 1
REMARK VINA RESULT:    -4.034      0.000      0.000
REMARK INTER + INTRA:          -5.683
REMARK INTER:                  -5.450
REMARK INTRA:                  -0.233
REMARK UNBOUND:                -0.233
REMARK SMILES CCCCCCCC(=O)[O-]
REMARK SMILES IDX 5 1 6 2 7 3 8 4 9 5 10 6 4 7 3 8 2 9 1 10
REMARK H PARENT
REMARK Flexibility Score: inf
ROOT
ATOM      1  C   UNL     1       2.680 -36.948  18.367  1.00  0.00     0.000 C 
ENDROOT
BRANCH   1   2
ATOM      2  C   UNL     1       3.435 -36.686  19.680  1.00  0.00     0.006 C 
BRANCH   2   3
ATOM      3  C   UNL     1       4.954 -36.608  19.482  1.00  0.00     0.053 C 
BRANCH   3   4
ATOM      4  C   UNL     1       5.494 -35.349  20.084  1.00  0.00     0.041 C 
ATOM      5  O   UNL     1       5.802 -34.376  19.347  1.00  0.00    -0.550 OA
ATOM      6  O   UNL     1       5.704 -35.267  21.454  1.00  0.00    -0.550 OA
ENDBRANCH   3   4
ENDBRANCH   2   3
ENDBRANCH   1   2
BRANCH   1   7
ATOM      7  C   UNL     1       3.461 -36.475  17.129  1.00  0.00     0.000 C 
BRANCH   7   8
ATOM      8  C   UNL     1       2.525 -36.011  15.993  1.00  0.00    -0.000 C 
BRANCH   8   9
ATOM      9  C   UNL     1       3.245 -35.801  14.650  1.00  0.00    -0.003 C 
ATOM     10  C   UNL     1       4.156 -36.966  14.271  1.00  0.00     0.004 C 
ENDBRANCH   8   9
ENDBRANCH   7   8
ENDBRANCH   1   7
TORSDOF 6
ENDMDL
MODEL 2
REMARK VINA RESULT:    -3.950      3.296      6.469
REMARK INTER + INTRA:          -5.568
REMARK INTER:                  -5.374
REMARK INTRA:                  -0.194
REMARK UNBOUND:                -0.233
REMARK SMILES CCCCCCCC(=O)[O-]
REMARK SMILES IDX 5 1 6 2 7 3 8 4 9 5 10 6 4 7 3 8 2 9 1 10
REMARK H PARENT
REMARK Flexibility Score: inf
ROOT
ATOM      1  C   UNL     1       5.001 -34.897  21.592  1.00  0.00     0.000 C 
ENDROOT
BRANCH   1   2
ATOM      2  C   UNL     1       5.512 -35.241  20.184  1.00  0.00     0.006 C 
BRANCH   2   3
ATOM      3  C   UNL     1       5.139 -36.664  19.751  1.00  0.00     0.053 C 
BRANCH   3   4
ATOM      4  C   UNL     1       3.814 -36.668  19.058  1.00  0.00     0.041 C 
ATOM      5  O   UNL     1       3.734 -36.360  17.840  1.00  0.00    -0.550 OA
ATOM      6  O   UNL     1       2.658 -36.964  19.769  1.00  0.00    -0.550 OA
ENDBRANCH   3   4
ENDBRANCH   2   3
ENDBRANCH   1   2
BRANCH   1   7
ATOM      7  C   UNL     1       6.021 -35.236  22.693  1.00  0.00     0.000 C 
BRANCH   7   8
ATOM      8  C   UNL     1       5.694 -34.532  24.026  1.00  0.00    -0.000 C 
BRANCH   8   9
ATOM      9  C   UNL     1       6.123 -35.334  25.267  1.00  0.00    -0.003 C 
ATOM     10  C   UNL     1       5.538 -36.744  25.300  1.00  0.00     0.004 C 
ENDBRANCH   8   9
ENDBRANCH   7   8
ENDBRANCH   1   7
TORSDOF 6
ENDMDL
MODEL 3
REMARK VINA RESULT:    -3.757      3.761      6.973
REMARK INTER + INTRA:          -5.308
REMARK INTER:                  -5.189
REMARK INTRA:                  -0.119
REMARK UNBOUND:                -0.233
REMARK SMILES CCCCCCCC(=O)[O-]
REMARK SMILES IDX 5 1 6 2 7 3 8 4 9 5 10 6 4 7 3 8 2 9 1 10
REMARK H PARENT
REMARK Flexibility Score: inf
ROOT
ATOM      1  C   UNL     1       5.931 -35.632  22.680  1.00  0.00     0.000 C 
ENDROOT
BRANCH   1   2
ATOM      2  C   UNL     1       6.040 -34.991  21.287  1.00  0.00     0.006 C 
BRANCH   2   3
ATOM      3  C   UNL     1       4.726 -35.061  20.500  1.00  0.00     0.053 C 
BRANCH   3   4
ATOM      4  C   UNL     1       4.643 -36.344  19.735  1.00  0.00     0.041 C 
ATOM      5  O   UNL     1       3.647 -36.583  19.004  1.00  0.00    -0.550 OA
ATOM      6  O   UNL     1       5.644 -37.298  19.868  1.00  0.00    -0.550 OA
ENDBRANCH   3   4
ENDBRANCH   2   3
ENDBRANCH   1   2
BRANCH   1   7
ATOM      7  C   UNL     1       5.857 -34.590  23.809  1.00  0.00     0.000 C 
BRANCH   7   8
ATOM      8  C   UNL     1       6.091 -35.219  25.198  1.00  0.00    -0.000 C 
BRANCH   8   9
ATOM      9  C   UNL     1       5.106 -36.352  25.534  1.00  0.00    -0.003 C 
ATOM     10  C   UNL     1       5.759 -37.508  26.290  1.00  0.00     0.004 C 
ENDBRANCH   8   9
ENDBRANCH   7   8
ENDBRANCH   1   7
TORSDOF 6
ENDMDL
MODEL 4
REMARK VINA RESULT:    -3.723      2.963      5.437
REMARK INTER + INTRA:          -5.262
REMARK INTER:                  -5.079
REMARK INTRA:                  -0.183
REMARK UNBOUND:                -0.233
REMARK SMILES CCCCCCCC(=O)[O-]
REMARK SMILES IDX 5 1 6 2 7 3 8 4 9 5 10 6 4 7 3 8 2 9 1 10
REMARK H PARENT
REMARK Flexibility Score: inf
ROOT
ATOM      1  C   UNL     1       3.256 -36.883  19.378  1.00  0.00     0.000 C 
ENDROOT
BRANCH   1   2
ATOM      2  C   UNL     1       2.560 -36.865  18.008  1.00  0.00     0.006 C 
BRANCH   2   3
ATOM      3  C   UNL     1       3.494 -36.420  16.876  1.00  0.00     0.053 C 
BRANCH   3   4
ATOM      4  C   UNL     1       2.702 -35.874  15.731  1.00  0.00     0.041 C 
ATOM      5  O   UNL     1       1.550 -35.404  15.923  1.00  0.00    -0.550 OA
ATOM      6  O   UNL     1       3.216 -35.927  14.441  1.00  0.00    -0.550 OA
ENDBRANCH   3   4
ENDBRANCH   2   3
ENDBRANCH   1   2
BRANCH   1   7
ATOM      7  C   UNL     1       4.664 -36.265  19.336  1.00  0.00     0.000 C 
BRANCH   7   8
ATOM      8  C   UNL     1       5.389 -36.376  20.694  1.00  0.00    -0.000 C 
BRANCH   8   9
ATOM      9  C   UNL     1       5.754 -35.014  21.310  1.00  0.00    -0.003 C 
ATOM     10  C   UNL     1       5.951 -35.075  22.823  1.00  0.00     0.004 C 
ENDBRANCH   8   9
ENDBRANCH   7   8
ENDBRANCH   1   7
TORSDOF 6
ENDMDL
MODEL 5
REMARK VINA RESULT:    -3.689      2.916      4.749
REMARK INTER + INTRA:          -5.217
REMARK INTER:                  -4.848
REMARK INTRA:                  -0.368
REMARK UNBOUND:                -0.233
REMARK SMILES CCCCCCCC(=O)[O-]
REMARK SMILES IDX 5 1 6 2 7 3 8 4 9 5 10 6 4 7 3 8 2 9 1 10
REMARK H PARENT
REMARK Flexibility Score: inf
ROOT
ATOM      1  C   UNL     1       3.082 -36.915  19.463  1.00  0.00     0.000 C 
ENDROOT
BRANCH   1   2
ATOM      2  C   UNL     1       2.501 -36.862  18.041  1.00  0.00     0.006 C 
BRANCH   2   3
ATOM      3  C   UNL     1       3.547 -36.472  16.990  1.00  0.00     0.053 C 
BRANCH   3   4
ATOM      4  C   UNL     1       2.882 -35.880  15.788  1.00  0.00     0.041 C 
ATOM      5  O   UNL     1       1.678 -35.515  15.844  1.00  0.00    -0.550 OA
ATOM      6  O   UNL     1       3.577 -35.775  14.590  1.00  0.00    -0.550 OA
ENDBRANCH   3   4
ENDBRANCH   2   3
ENDBRANCH   1   2
BRANCH   1   7
ATOM      7  C   UNL     1       4.586 -36.595  19.502  1.00  0.00     0.000 C 
BRANCH   7   8
ATOM      8  C   UNL     1       4.912 -35.450  20.483  1.00  0.00    -0.000 C 
BRANCH   8   9
ATOM      9  C   UNL     1       6.106 -34.585  20.044  1.00  0.00    -0.003 C 
ATOM     10  C   UNL     1       5.863 -33.855  18.725  1.00  0.00     0.004 C 
ENDBRANCH   8   9
ENDBRANCH   7   8
ENDBRANCH   1   7
TORSDOF 6
ENDMDL
MODEL 6
REMARK VINA RESULT:    -3.627      1.181      1.426
REMARK INTER + INTRA:          -5.133
REMARK INTER:                  -4.971
REMARK INTRA:                  -0.161
REMARK UNBOUND:                -0.233
REMARK SMILES CCCCCCCC(=O)[O-]
REMARK SMILES IDX 5 1 6 2 7 3 8 4 9 5 10 6 4 7 3 8 2 9 1 10
REMARK H PARENT
REMARK Flexibility Score: inf
ROOT
ATOM      1  C   UNL     1       3.778 -36.671  18.779  1.00  0.00     0.000 C 
ENDROOT
BRANCH   1   2
ATOM      2  C   UNL     1       5.074 -36.645  19.604  1.00  0.00     0.006 C 
BRANCH   2   3
ATOM      3  C   UNL     1       5.466 -35.229  20.045  1.00  0.00     0.053 C 
BRANCH   3   4
ATOM      4  C   UNL     1       5.092 -35.007  21.476  1.00  0.00     0.041 C 
ATOM      5  O   UNL     1       4.061 -34.345  21.766  1.00  0.00    -0.550 OA
ATOM      6  O   UNL     1       5.909 -35.488  22.491  1.00  0.00    -0.550 OA
ENDBRANCH   3   4
ENDBRANCH   2   3
ENDBRANCH   1   2
BRANCH   1   7
ATOM      7  C   UNL     1       3.904 -35.902  17.452  1.00  0.00     0.000 C 
BRANCH   7   8
ATOM      8  C   UNL     1       3.020 -36.509  16.342  1.00  0.00    -0.000 C 
BRANCH   8   9
ATOM      9  C   UNL     1       3.252 -35.879  14.958  1.00  0.00    -0.003 C 
ATOM     10  C   UNL     1       4.196 -36.696  14.079  1.00  0.00     0.004 C 
ENDBRANCH   8   9
ENDBRANCH   7   8
ENDBRANCH   1   7
TORSDOF 6
ENDMDL
MODEL 7
REMARK VINA RESULT:    -3.606      1.208      1.652
REMARK INTER + INTRA:          -5.104
REMARK INTER:                  -4.924
REMARK INTRA:                  -0.180
REMARK UNBOUND:                -0.233
REMARK SMILES CCCCCCCC(=O)[O-]
REMARK SMILES IDX 5 1 6 2 7 3 8 4 9 5 10 6 4 7 3 8 2 9 1 10
REMARK H PARENT
REMARK Flexibility Score: inf
ROOT
ATOM      1  C   UNL     1       3.829 -36.690  19.160  1.00  0.00     0.000 C 
ENDROOT
BRANCH   1   2
ATOM      2  C   UNL     1       5.192 -36.757  19.869  1.00  0.00     0.006 C 
BRANCH   2   3
ATOM      3  C   UNL     1       5.772 -35.368  20.164  1.00  0.00     0.053 C 
BRANCH   3   4
ATOM      4  C   UNL     1       5.358 -34.909  21.526  1.00  0.00     0.041 C 
ATOM      5  O   UNL     1       6.124 -35.072  22.511  1.00  0.00    -0.550 OA
ATOM      6  O   UNL     1       4.103 -34.345  21.717  1.00  0.00    -0.550 OA
ENDBRANCH   3   4
ENDBRANCH   2   3
ENDBRANCH   1   2
BRANCH   1   7
ATOM      7  C   UNL     1       3.871 -35.851  17.872  1.00  0.00     0.000 C 
BRANCH   7   8
ATOM      8  C   UNL     1       3.134 -36.541  16.704  1.00  0.00    -0.000 C 
BRANCH   8   9
ATOM      9  C   UNL     1       3.189 -35.747  15.387  1.00  0.00    -0.003 C 
ATOM     10  C   UNL     1       3.892 -36.502  14.262  1.00  0.00     0.004 C 
ENDBRANCH   8   9
ENDBRANCH   7   8
ENDBRANCH   1   7
TORSDOF 6
ENDMDL
MODEL 8
REMARK VINA RESULT:    -3.309      2.667      4.310
REMARK INTER + INTRA:          -4.702
REMARK INTER:                  -4.476
REMARK INTRA:                  -0.227
REMARK UNBOUND:                -0.233
REMARK SMILES CCCCCCCC(=O)[O-]
REMARK SMILES IDX 5 1 6 2 7 3 8 4 9 5 10 6 4 7 3 8 2 9 1 10
REMARK H PARENT
REMARK Flexibility Score: inf
ROOT
ATOM      1  C   UNL     1       4.823 -34.690  21.031  1.00  0.00     0.000 C 
ENDROOT
BRANCH   1   2
ATOM      2  C   UNL     1       5.768 -34.598  22.239  1.00  0.00     0.006 C 
BRANCH   2   3
ATOM      3  C   UNL     1       5.758 -35.869  23.097  1.00  0.00     0.053 C 
BRANCH   3   4
ATOM      4  C   UNL     1       5.741 -35.518  24.550  1.00  0.00     0.041 C 
ATOM      5  O   UNL     1       5.338 -36.354  25.400  1.00  0.00    -0.550 OA
ATOM      6  O   UNL     1       6.125 -34.248  24.963  1.00  0.00    -0.550 OA
ENDBRANCH   3   4
ENDBRANCH   2   3
ENDBRANCH   1   2
BRANCH   1   7
ATOM      7  C   UNL     1       5.440 -35.461  19.852  1.00  0.00     0.000 C 
BRANCH   7   8
ATOM      8  C   UNL     1       4.834 -36.872  19.698  1.00  0.00    -0.000 C 
BRANCH   8   9
ATOM      9  C   UNL     1       3.451 -36.877  19.024  1.00  0.00    -0.003 C 
ATOM     10  C   UNL     1       3.497 -36.447  17.560  1.00  0.00     0.004 C 
ENDBRANCH   8   9
ENDBRANCH   7   8
ENDBRANCH   1   7
TORSDOF 6
ENDMDL
MODEL 9
REMARK VINA RESULT:    -2.875      1.874      2.403
REMARK INTER + INTRA:          -4.117
REMARK INTER:                  -3.968
REMARK INTRA:                  -0.149
REMARK UNBOUND:                -0.233
REMARK SMILES CCCCCCCC(=O)[O-]
REMARK SMILES IDX 5 1 6 2 7 3 8 4 9 5 10 6 4 7 3 8 2 9 1 10
REMARK H PARENT
REMARK Flexibility Score: inf
ROOT
ATOM      1  C   UNL     1       3.602 -36.672  19.243  1.00  0.00     0.000 C 
ENDROOT
BRANCH   1   2
ATOM      2  C   UNL     1       4.977 -36.513  19.911  1.00  0.00     0.006 C 
BRANCH   2   3
ATOM      3  C   UNL     1       5.647 -37.860  20.211  1.00  0.00     0.053 C 
BRANCH   3   4
ATOM      4  C   UNL     1       5.679 -38.109  21.685  1.00  0.00     0.041 C 
ATOM      5  O   UNL     1       5.778 -37.145  22.489  1.00  0.00    -0.550 OA
ATOM      6  O   UNL     1       5.651 -39.410  22.172  1.00  0.00    -0.550 OA
ENDBRANCH   3   4
ENDBRANCH   2   3
ENDBRANCH   1   2
BRANCH   1   7
ATOM      7  C   UNL     1       3.668 -36.548  17.711  1.00  0.00     0.000 C 
BRANCH   7   8
ATOM      8  C   UNL     1       2.265 -36.472  17.073  1.00  0.00    -0.000 C 
BRANCH   8   9
ATOM      9  C   UNL     1       2.251 -35.781  15.698  1.00  0.00    -0.003 C 
ATOM     10  C   UNL     1       3.521 -36.034  14.889  1.00  0.00     0.004 C 
ENDBRANCH   8   9
ENDBRANCH   7   8
ENDBRANCH   1   7
TORSDOF 6
ENDMDL
