MODEL 1
REMARK VINA RESULT:    -4.854      0.000      0.000
REMARK INTER + INTRA:          -4.854
REMARK INTER:                  -4.854
REMARK INTRA:                   0.000
REMARK UNBOUND:                 0.000
REMARK SMILES O=c1ccc2ccccc2o1
REMARK SMILES IDX 7 1 8 2 9 3 10 4 5 5 6 6 4 7 3 8 2 9 1 10 11 11
REMARK H PARENT
REMARK Flexibility Score: inf
ROOT
ATOM      1  C   UNL     1     181.520 -23.155  22.794  1.00  0.00     0.001 A 
ATOM      2  C   UNL     1     182.007 -21.971  22.229  1.00  0.00     0.004 A 
ATOM      3  C   UNL     1     181.626 -20.732  22.752  1.00  0.00     0.048 A 
ATOM      4  C   UNL     1     180.753 -20.672  23.845  1.00  0.00     0.138 A 
ATOM      5  C   UNL     1     180.261 -21.867  24.416  1.00  0.00     0.018 A 
ATOM      6  C   UNL     1     180.648 -23.106  23.886  1.00  0.00     0.012 A 
ATOM      7  C   UNL     1     179.390 -21.775  25.507  1.00  0.00     0.019 A 
ATOM      8  C   UNL     1     179.037 -20.519  25.996  1.00  0.00     0.094 A 
ATOM      9  C   UNL     1     179.564 -19.378  25.380  1.00  0.00     0.336 A 
ATOM     10  O   UNL     1     179.256 -18.234  25.808  1.00  0.00    -0.246 OA
ATOM     11  O   UNL     1     180.391 -19.492  24.344  1.00  0.00    -0.423 OA
ENDROOT
TORSDOF 0
ENDMDL
MODEL 2
REMARK VINA RESULT:    -4.826      9.956     10.324
REMARK INTER + INTRA:          -4.826
REMARK INTER:                  -4.826
REMARK INTRA:                   0.000
REMARK UNBOUND:                 0.000
REMARK SMILES O=c1ccc2ccccc2o1
REMARK SMILES IDX 7 1 8 2 9 3 10 4 5 5 6 6 4 7 3 8 2 9 1 10 11 11
REMARK H PARENT
REMARK Flexibility Score: inf
ROOT
ATOM      1  C   UNL     1     189.134 -26.327  22.282  1.00  0.00     0.001 A 
ATOM      2  C   UNL     1     188.404 -26.235  21.091  1.00  0.00     0.004 A 
ATOM      3  C   UNL     1     187.272 -27.033  20.896  1.00  0.00     0.048 A 
ATOM      4  C   UNL     1     186.865 -27.928  21.892  1.00  0.00     0.138 A 
ATOM      5  C   UNL     1     187.602 -28.021  23.094  1.00  0.00     0.018 A 
ATOM      6  C   UNL     1     188.736 -27.218  23.284  1.00  0.00     0.012 A 
ATOM      7  C   UNL     1     187.170 -28.924  24.071  1.00  0.00     0.019 A 
ATOM      8  C   UNL     1     186.037 -29.699  23.834  1.00  0.00     0.094 A 
ATOM      9  C   UNL     1     185.357 -29.553  22.619  1.00  0.00     0.336 A 
ATOM     10  O   UNL     1     184.330 -30.244  22.387  1.00  0.00    -0.246 OA
ATOM     11  O   UNL     1     185.787 -28.686  21.706  1.00  0.00    -0.423 OA
ENDROOT
TORSDOF 0
ENDMDL
MODEL 3
REMARK VINA RESULT:    -4.807     14.794     16.722
REMARK INTER + INTRA:          -4.807
REMARK INTER:                  -4.807
REMARK INTRA:                   0.000
REMARK UNBOUND:                 0.000
REMARK SMILES O=c1ccc2ccccc2o1
REMARK SMILES IDX 7 1 8 2 9 3 10 4 5 5 6 6 4 7 3 8 2 9 1 10 11 11
REMARK H PARENT
REMARK Flexibility Score: inf
ROOT
ATOM      1  C   UNL     1     176.084 -13.823  40.570  1.00  0.00     0.001 A 
ATOM      2  C   UNL     1     175.358 -14.893  40.031  1.00  0.00     0.004 A 
ATOM      3  C   UNL     1     176.019 -15.921  39.353  1.00  0.00     0.048 A 
ATOM      4  C   UNL     1     177.411 -15.884  39.209  1.00  0.00     0.138 A 
ATOM      5  C   UNL     1     178.144 -14.805  39.752  1.00  0.00     0.018 A 
ATOM      6  C   UNL     1     177.474 -13.777  40.432  1.00  0.00     0.012 A 
ATOM      7  C   UNL     1     179.533 -14.796  39.592  1.00  0.00     0.019 A 
ATOM      8  C   UNL     1     180.150 -15.842  38.909  1.00  0.00     0.094 A 
ATOM      9  C   UNL     1     179.360 -16.878  38.397  1.00  0.00     0.336 A 
ATOM     10  O   UNL     1     179.900 -17.832  37.777  1.00  0.00    -0.246 OA
ATOM     11  O   UNL     1     178.040 -16.863  38.563  1.00  0.00    -0.423 OA
ENDROOT
TORSDOF 0
ENDMDL
MODEL 4
REMARK VINA RESULT:    -4.798     14.475     15.705
REMARK INTER + INTRA:          -4.798
REMARK INTER:                  -4.798
REMARK INTRA:                   0.000
REMARK UNBOUND:                 0.000
REMARK SMILES O=c1ccc2ccccc2o1
REMARK SMILES IDX 7 1 8 2 9 3 10 4 5 5 6 6 4 7 3 8 2 9 1 10 11 11
REMARK H PARENT
REMARK Flexibility Score: inf
ROOT
ATOM      1  C   UNL     1     182.000 -26.102  40.741  1.00  0.00     0.001 A 
ATOM      2  C   UNL     1     182.290 -26.622  39.474  1.00  0.00     0.004 A 
ATOM      3  C   UNL     1     182.835 -25.800  38.484  1.00  0.00     0.048 A 
ATOM      4  C   UNL     1     183.093 -24.451  38.756  1.00  0.00     0.138 A 
ATOM      5  C   UNL     1     182.800 -23.926  40.035  1.00  0.00     0.018 A 
ATOM      6  C   UNL     1     182.253 -24.756  41.024  1.00  0.00     0.012 A 
ATOM      7  C   UNL     1     183.068 -22.575  40.277  1.00  0.00     0.019 A 
ATOM      8  C   UNL     1     183.613 -21.792  39.260  1.00  0.00     0.094 A 
ATOM      9  C   UNL     1     183.877 -22.381  38.018  1.00  0.00     0.336 A 
ATOM     10  O   UNL     1     184.368 -21.690  37.088  1.00  0.00    -0.246 OA
ATOM     11  O   UNL     1     183.613 -23.669  37.813  1.00  0.00    -0.423 OA
ENDROOT
TORSDOF 0
ENDMDL
MODEL 5
REMARK VINA RESULT:    -4.771     15.321     16.936
REMARK INTER + INTRA:          -4.771
REMARK INTER:                  -4.771
REMARK INTRA:                   0.000
REMARK UNBOUND:                 0.000
REMARK SMILES O=c1ccc2ccccc2o1
REMARK SMILES IDX 7 1 8 2 9 3 10 4 5 5 6 6 4 7 3 8 2 9 1 10 11 11
REMARK H PARENT
REMARK Flexibility Score: inf
ROOT
ATOM      1  C   UNL     1     177.728 -13.265  40.553  1.00  0.00     0.001 A 
ATOM      2  C   UNL     1     176.338 -13.315  40.395  1.00  0.00     0.004 A 
ATOM      3  C   UNL     1     175.725 -14.475  39.913  1.00  0.00     0.048 A 
ATOM      4  C   UNL     1     176.501 -15.594  39.585  1.00  0.00     0.138 A 
ATOM      5  C   UNL     1     177.904 -15.544  39.745  1.00  0.00     0.018 A 
ATOM      6  C   UNL     1     178.512 -14.376  40.229  1.00  0.00     0.012 A 
ATOM      7  C   UNL     1     178.653 -16.676  39.410  1.00  0.00     0.019 A 
ATOM      8  C   UNL     1     178.001 -17.811  38.933  1.00  0.00     0.094 A 
ATOM      9  C   UNL     1     176.607 -17.788  38.801  1.00  0.00     0.336 A 
ATOM     10  O   UNL     1     176.000 -18.805  38.372  1.00  0.00    -0.246 OA
ATOM     11  O   UNL     1     175.918 -16.698  39.127  1.00  0.00    -0.423 OA
ENDROOT
TORSDOF 0
ENDMDL
MODEL 6
REMARK VINA RESULT:    -4.770     14.807     15.991
REMARK INTER + INTRA:          -4.770
REMARK INTER:                  -4.770
REMARK INTRA:                   0.000
REMARK UNBOUND:                 0.000
REMARK SMILES O=c1ccc2ccccc2o1
REMARK SMILES IDX 7 1 8 2 9 3 10 4 5 5 6 6 4 7 3 8 2 9 1 10 11 11
REMARK H PARENT
REMARK Flexibility Score: inf
ROOT
ATOM      1  C   UNL     1     183.756 -21.812  38.836  1.00  0.00     0.001 A 
ATOM      2  C   UNL     1     183.909 -22.542  37.651  1.00  0.00     0.004 A 
ATOM      3  C   UNL     1     183.529 -23.886  37.598  1.00  0.00     0.048 A 
ATOM      4  C   UNL     1     182.995 -24.509  38.733  1.00  0.00     0.138 A 
ATOM      5  C   UNL     1     182.841 -23.773  39.929  1.00  0.00     0.018 A 
ATOM      6  C   UNL     1     183.224 -22.424  39.975  1.00  0.00     0.012 A 
ATOM      7  C   UNL     1     182.305 -24.421  41.046  1.00  0.00     0.019 A 
ATOM      8  C   UNL     1     181.941 -25.763  40.948  1.00  0.00     0.094 A 
ATOM      9  C   UNL     1     182.122 -26.429  39.731  1.00  0.00     0.336 A 
ATOM     10  O   UNL     1     181.799 -27.641  39.623  1.00  0.00    -0.246 OA
ATOM     11  O   UNL     1     182.634 -25.788  38.682  1.00  0.00    -0.423 OA
ENDROOT
TORSDOF 0
ENDMDL
MODEL 7
REMARK VINA RESULT:    -4.731     14.567     15.777
REMARK INTER + INTRA:          -4.731
REMARK INTER:                  -4.731
REMARK INTRA:                   0.000
REMARK UNBOUND:                 0.000
REMARK SMILES O=c1ccc2ccccc2o1
REMARK SMILES IDX 7 1 8 2 9 3 10 4 5 5 6 6 4 7 3 8 2 9 1 10 11 11
REMARK H PARENT
REMARK Flexibility Score: inf
ROOT
ATOM      1  C   UNL     1     183.842 -21.848  38.405  1.00  0.00     0.001 A 
ATOM      2  C   UNL     1     183.538 -21.913  39.770  1.00  0.00     0.004 A 
ATOM      3  C   UNL     1     183.094 -23.111  40.336  1.00  0.00     0.048 A 
ATOM      4  C   UNL     1     182.950 -24.252  39.538  1.00  0.00     0.138 A 
ATOM      5  C   UNL     1     183.256 -24.187  38.160  1.00  0.00     0.018 A 
ATOM      6  C   UNL     1     183.702 -22.981  37.599  1.00  0.00     0.012 A 
ATOM      7  C   UNL     1     183.103 -25.343  37.388  1.00  0.00     0.019 A 
ATOM      8  C   UNL     1     182.657 -26.516  37.994  1.00  0.00     0.094 A 
ATOM      9  C   UNL     1     182.373 -26.506  39.365  1.00  0.00     0.336 A 
ATOM     10  O   UNL     1     181.969 -27.556  39.930  1.00  0.00    -0.246 OA
ATOM     11  O   UNL     1     182.527 -25.393  40.077  1.00  0.00    -0.423 OA
ENDROOT
TORSDOF 0
ENDMDL
MODEL 8
REMARK VINA RESULT:    -4.695     13.697     14.602
REMARK INTER + INTRA:          -4.695
REMARK INTER:                  -4.695
REMARK INTRA:                   0.000
REMARK UNBOUND:                 0.000
REMARK SMILES O=c1ccc2ccccc2o1
REMARK SMILES IDX 7 1 8 2 9 3 10 4 5 5 6 6 4 7 3 8 2 9 1 10 11 11
REMARK H PARENT
REMARK Flexibility Score: inf
ROOT
ATOM      1  C   UNL     1     184.120 -26.061  36.221  1.00  0.00     0.001 A 
ATOM      2  C   UNL     1     184.487 -24.809  35.714  1.00  0.00     0.004 A 
ATOM      3  C   UNL     1     184.276 -23.653  36.472  1.00  0.00     0.048 A 
ATOM      4  C   UNL     1     183.696 -23.744  37.742  1.00  0.00     0.138 A 
ATOM      5  C   UNL     1     183.325 -25.008  38.255  1.00  0.00     0.018 A 
ATOM      6  C   UNL     1     183.540 -26.163  37.490  1.00  0.00     0.012 A 
ATOM      7  C   UNL     1     182.748 -25.067  39.527  1.00  0.00     0.019 A 
ATOM      8  C   UNL     1     182.557 -23.890  40.247  1.00  0.00     0.094 A 
ATOM      9  C   UNL     1     182.948 -22.673  39.676  1.00  0.00     0.336 A 
ATOM     10  O   UNL     1     182.783 -21.599  40.311  1.00  0.00    -0.246 OA
ATOM     11  O   UNL     1     183.496 -22.644  38.463  1.00  0.00    -0.423 OA
ENDROOT
TORSDOF 0
ENDMDL
MODEL 9
REMARK VINA RESULT:    -4.664     14.027     15.000
REMARK INTER + INTRA:          -4.664
REMARK INTER:                  -4.664
REMARK INTRA:                   0.000
REMARK UNBOUND:                 0.000
REMARK SMILES O=c1ccc2ccccc2o1
REMARK SMILES IDX 7 1 8 2 9 3 10 4 5 5 6 6 4 7 3 8 2 9 1 10 11 11
REMARK H PARENT
REMARK Flexibility Score: inf
ROOT
ATOM      1  C   UNL     1     184.556 -24.136  35.811  1.00  0.00     0.001 A 
ATOM      2  C   UNL     1     184.422 -25.528  35.879  1.00  0.00     0.004 A 
ATOM      3  C   UNL     1     183.829 -26.124  36.996  1.00  0.00     0.048 A 
ATOM      4  C   UNL     1     183.367 -25.330  38.052  1.00  0.00     0.138 A 
ATOM      5  C   UNL     1     183.502 -23.925  37.984  1.00  0.00     0.018 A 
ATOM      6  C   UNL     1     184.098 -23.334  36.860  1.00  0.00     0.012 A 
ATOM      7  C   UNL     1     183.032 -23.158  39.054  1.00  0.00     0.019 A 
ATOM      8  C   UNL     1     182.447 -23.795  40.147  1.00  0.00     0.094 A 
ATOM      9  C   UNL     1     182.347 -25.191  40.146  1.00  0.00     0.336 A 
ATOM     10  O   UNL     1     181.823 -25.784  41.125  1.00  0.00    -0.246 OA
ATOM     11  O   UNL     1     182.803 -25.898  39.115  1.00  0.00    -0.423 OA
ENDROOT
TORSDOF 0
ENDMDL
