MODEL 1
REMARK VINA RESULT:    -3.687      0.000      0.000
REMARK INTER + INTRA:          -5.621
REMARK INTER:                  -4.981
REMARK INTRA:                  -0.640
REMARK UNBOUND:                -0.640
REMARK SMILES CCCCCCCC(=O)[O-]
REMARK SMILES IDX 5 1 6 2 7 3 8 4 9 5 10 6 4 7 3 8 2 9 1 10
REMARK H PARENT
REMARK Flexibility Score: inf
ROOT
ATOM      1  C   UNL     1     -39.756  19.545 -28.780  1.00  0.00     0.000 C 
ENDROOT
BRANCH   1   2
ATOM      2  C   UNL     1     -39.674  20.958 -29.394  1.00  0.00     0.006 C 
BRANCH   2   3
ATOM      3  C   UNL     1     -38.843  21.962 -28.579  1.00  0.00     0.053 C 
BRANCH   3   4
ATOM      4  C   UNL     1     -37.456  22.113 -29.124  1.00  0.00     0.041 C 
ATOM      5  O   UNL     1     -37.106  21.478 -30.153  1.00  0.00    -0.550 OA
ATOM      6  O   UNL     1     -36.560  22.980 -28.511  1.00  0.00    -0.550 OA
ENDBRANCH   3   4
ENDBRANCH   2   3
ENDBRANCH   1   2
BRANCH   1   7
ATOM      7  C   UNL     1     -39.153  18.424 -29.648  1.00  0.00     0.000 C 
BRANCH   7   8
ATOM      8  C   UNL     1     -37.741  18.012 -29.195  1.00  0.00    -0.000 C 
BRANCH   8   9
ATOM      9  C   UNL     1     -37.465  18.377 -27.729  1.00  0.00    -0.003 C 
ATOM     10  C   UNL     1     -36.047  18.904 -27.510  1.00  0.00     0.004 C 
ENDBRANCH   8   9
ENDBRANCH   7   8
ENDBRANCH   1   7
TORSDOF 6
ENDMDL
MODEL 2
REMARK VINA RESULT:    -3.640      2.449      3.078
REMARK INTER + INTRA:          -5.557
REMARK INTER:                  -5.033
REMARK INTRA:                  -0.524
REMARK UNBOUND:                -0.640
REMARK SMILES CCCCCCCC(=O)[O-]
REMARK SMILES IDX 5 1 6 2 7 3 8 4 9 5 10 6 4 7 3 8 2 9 1 10
REMARK H PARENT
REMARK Flexibility Score: inf
ROOT
ATOM      1  C   UNL     1     -38.493  17.721 -30.763  1.00  0.00     0.000 C 
ENDROOT
BRANCH   1   2
ATOM      2  C   UNL     1     -38.392  19.260 -30.735  1.00  0.00     0.006 C 
BRANCH   2   3
ATOM      3  C   UNL     1     -38.479  19.881 -29.332  1.00  0.00     0.053 C 
BRANCH   3   4
ATOM      4  C   UNL     1     -39.884  20.253 -28.971  1.00  0.00     0.041 C 
ATOM      5  O   UNL     1     -40.580  19.486 -28.256  1.00  0.00    -0.550 OA
ATOM      6  O   UNL     1     -40.414  21.464 -29.400  1.00  0.00    -0.550 OA
ENDBRANCH   3   4
ENDBRANCH   2   3
ENDBRANCH   1   2
BRANCH   1   7
ATOM      7  C   UNL     1     -37.576  16.992 -29.762  1.00  0.00     0.000 C 
BRANCH   7   8
ATOM      8  C   UNL     1     -36.122  16.884 -30.255  1.00  0.00    -0.000 C 
BRANCH   8   9
ATOM      9  C   UNL     1     -35.164  17.781 -29.457  1.00  0.00    -0.003 C 
ATOM     10  C   UNL     1     -34.692  18.996 -30.255  1.00  0.00     0.004 C 
ENDBRANCH   8   9
ENDBRANCH   7   8
ENDBRANCH   1   7
TORSDOF 6
ENDMDL
MODEL 3
REMARK VINA RESULT:    -3.639      2.361      4.062
REMARK INTER + INTRA:          -5.555
REMARK INTER:                  -5.113
REMARK INTRA:                  -0.442
REMARK UNBOUND:                -0.640
REMARK SMILES CCCCCCCC(=O)[O-]
REMARK SMILES IDX 5 1 6 2 7 3 8 4 9 5 10 6 4 7 3 8 2 9 1 10
REMARK H PARENT
REMARK Flexibility Score: inf
ROOT
ATOM      1  C   UNL     1     -38.377  18.283 -30.747  1.00  0.00     0.000 C 
ENDROOT
BRANCH   1   2
ATOM      2  C   UNL     1     -37.595  17.455 -29.706  1.00  0.00     0.006 C 
BRANCH   2   3
ATOM      3  C   UNL     1     -36.092  17.318 -29.996  1.00  0.00     0.053 C 
BRANCH   3   4
ATOM      4  C   UNL     1     -35.261  18.091 -29.019  1.00  0.00     0.041 C 
ATOM      5  O   UNL     1     -35.781  18.558 -27.973  1.00  0.00    -0.550 OA
ATOM      6  O   UNL     1     -33.902  18.267 -29.251  1.00  0.00    -0.550 OA
ENDBRANCH   3   4
ENDBRANCH   2   3
ENDBRANCH   1   2
BRANCH   1   7
ATOM      7  C   UNL     1     -38.270  19.810 -30.576  1.00  0.00     0.000 C 
BRANCH   7   8
ATOM      8  C   UNL     1     -38.577  20.272 -29.141  1.00  0.00    -0.000 C 
BRANCH   8   9
ATOM      9  C   UNL     1     -40.082  20.447 -28.890  1.00  0.00    -0.003 C 
ATOM     10  C   UNL     1     -40.690  19.276 -28.118  1.00  0.00     0.004 C 
ENDBRANCH   8   9
ENDBRANCH   7   8
ENDBRANCH   1   7
TORSDOF 6
ENDMDL
MODEL 4
REMARK VINA RESULT:    -3.579      2.809      4.174
REMARK INTER + INTRA:          -5.474
REMARK INTER:                  -4.969
REMARK INTRA:                  -0.506
REMARK UNBOUND:                -0.640
REMARK SMILES CCCCCCCC(=O)[O-]
REMARK SMILES IDX 5 1 6 2 7 3 8 4 9 5 10 6 4 7 3 8 2 9 1 10
REMARK H PARENT
REMARK Flexibility Score: inf
ROOT
ATOM      1  C   UNL     1     -39.466  19.391 -28.528  1.00  0.00     0.000 C 
ENDROOT
BRANCH   1   2
ATOM      2  C   UNL     1     -38.156  18.634 -28.225  1.00  0.00     0.006 C 
BRANCH   2   3
ATOM      3  C   UNL     1     -37.170  18.566 -29.402  1.00  0.00     0.053 C 
BRANCH   3   4
ATOM      4  C   UNL     1     -37.223  17.243 -30.101  1.00  0.00     0.041 C 
ATOM      5  O   UNL     1     -38.324  16.777 -30.496  1.00  0.00    -0.550 OA
ATOM      6  O   UNL     1     -36.051  16.538 -30.344  1.00  0.00    -0.550 OA
ENDBRANCH   3   4
ENDBRANCH   2   3
ENDBRANCH   1   2
BRANCH   1   7
ATOM      7  C   UNL     1     -39.327  20.554 -29.528  1.00  0.00     0.000 C 
BRANCH   7   8
ATOM      8  C   UNL     1     -39.310  21.932 -28.843  1.00  0.00    -0.000 C 
BRANCH   8   9
ATOM      9  C   UNL     1     -37.890  22.389 -28.479  1.00  0.00    -0.003 C 
ATOM     10  C   UNL     1     -36.925  22.314 -29.662  1.00  0.00     0.004 C 
ENDBRANCH   8   9
ENDBRANCH   7   8
ENDBRANCH   1   7
TORSDOF 6
ENDMDL
MODEL 5
REMARK VINA RESULT:    -3.558      1.409      1.955
REMARK INTER + INTRA:          -5.447
REMARK INTER:                  -4.888
REMARK INTRA:                  -0.559
REMARK UNBOUND:                -0.640
REMARK SMILES CCCCCCCC(=O)[O-]
REMARK SMILES IDX 5 1 6 2 7 3 8 4 9 5 10 6 4 7 3 8 2 9 1 10
REMARK H PARENT
REMARK Flexibility Score: inf
ROOT
ATOM      1  C   UNL     1     -39.852  20.263 -28.903  1.00  0.00     0.000 C 
ENDROOT
BRANCH   1   2
ATOM      2  C   UNL     1     -39.012  21.557 -28.861  1.00  0.00     0.006 C 
BRANCH   2   3
ATOM      3  C   UNL     1     -37.493  21.334 -28.916  1.00  0.00     0.053 C 
BRANCH   3   4
ATOM      4  C   UNL     1     -36.931  21.642 -30.269  1.00  0.00     0.041 C 
ATOM      5  O   UNL     1     -36.047  22.528 -30.403  1.00  0.00    -0.550 OA
ATOM      6  O   UNL     1     -37.361  20.925 -31.379  1.00  0.00    -0.550 OA
ENDBRANCH   3   4
ENDBRANCH   2   3
ENDBRANCH   1   2
BRANCH   1   7
ATOM      7  C   UNL     1     -39.045  18.960 -28.751  1.00  0.00     0.000 C 
BRANCH   7   8
ATOM      8  C   UNL     1     -39.100  18.074 -30.008  1.00  0.00    -0.000 C 
BRANCH   8   9
ATOM      9  C   UNL     1     -37.883  17.145 -30.125  1.00  0.00    -0.003 C 
ATOM     10  C   UNL     1     -36.593  17.798 -29.633  1.00  0.00     0.004 C 
ENDBRANCH   8   9
ENDBRANCH   7   8
ENDBRANCH   1   7
TORSDOF 6
ENDMDL
MODEL 6
REMARK VINA RESULT:    -3.552     13.829     14.719
REMARK INTER + INTRA:          -5.439
REMARK INTER:                  -5.008
REMARK INTRA:                  -0.431
REMARK UNBOUND:                -0.640
REMARK SMILES CCCCCCCC(=O)[O-]
REMARK SMILES IDX 5 1 6 2 7 3 8 4 9 5 10 6 4 7 3 8 2 9 1 10
REMARK H PARENT
REMARK Flexibility Score: inf
ROOT
ATOM      1  C   UNL     1     -52.301  17.175 -31.126  1.00  0.00     0.000 C 
ENDROOT
BRANCH   1   2
ATOM      2  C   UNL     1     -51.790  17.811 -29.816  1.00  0.00     0.006 C 
BRANCH   2   3
ATOM      3  C   UNL     1     -52.898  18.300 -28.870  1.00  0.00     0.053 C 
BRANCH   3   4
ATOM      4  C   UNL     1     -53.132  17.343 -27.742  1.00  0.00     0.041 C 
ATOM      5  O   UNL     1     -54.002  16.440 -27.846  1.00  0.00    -0.550 OA
ATOM      6  O   UNL     1     -52.365  17.431 -26.586  1.00  0.00    -0.550 OA
ENDBRANCH   3   4
ENDBRANCH   2   3
ENDBRANCH   1   2
BRANCH   1   7
ATOM      7  C   UNL     1     -51.691  15.801 -31.461  1.00  0.00     0.000 C 
BRANCH   7   8
ATOM      8  C   UNL     1     -50.285  15.611 -30.866  1.00  0.00    -0.000 C 
BRANCH   8   9
ATOM      9  C   UNL     1     -50.121  14.254 -30.165  1.00  0.00    -0.003 C 
ATOM     10  C   UNL     1     -50.839  14.197 -28.817  1.00  0.00     0.004 C 
ENDBRANCH   8   9
ENDBRANCH   7   8
ENDBRANCH   1   7
TORSDOF 6
ENDMDL
MODEL 7
REMARK VINA RESULT:    -3.531      1.816      2.981
REMARK INTER + INTRA:          -5.409
REMARK INTER:                  -5.029
REMARK INTRA:                  -0.380
REMARK UNBOUND:                -0.640
REMARK SMILES CCCCCCCC(=O)[O-]
REMARK SMILES IDX 5 1 6 2 7 3 8 4 9 5 10 6 4 7 3 8 2 9 1 10
REMARK H PARENT
REMARK Flexibility Score: inf
ROOT
ATOM      1  C   UNL     1     -36.894  19.009 -28.561  1.00  0.00     0.000 C 
ENDROOT
BRANCH   1   2
ATOM      2  C   UNL     1     -36.593  20.474 -28.941  1.00  0.00     0.006 C 
BRANCH   2   3
ATOM      3  C   UNL     1     -37.693  21.159 -29.766  1.00  0.00     0.053 C 
BRANCH   3   4
ATOM      4  C   UNL     1     -38.864  21.554 -28.919  1.00  0.00     0.041 C 
ATOM      5  O   UNL     1     -39.903  20.845 -28.903  1.00  0.00    -0.550 OA
ATOM      6  O   UNL     1     -38.792  22.690 -28.123  1.00  0.00    -0.550 OA
ENDBRANCH   3   4
ENDBRANCH   2   3
ENDBRANCH   1   2
BRANCH   1   7
ATOM      7  C   UNL     1     -36.188  17.954 -29.432  1.00  0.00     0.000 C 
BRANCH   7   8
ATOM      8  C   UNL     1     -37.172  16.990 -30.118  1.00  0.00    -0.000 C 
BRANCH   8   9
ATOM      9  C   UNL     1     -38.559  17.617 -30.326  1.00  0.00    -0.003 C 
ATOM     10  C   UNL     1     -39.478  16.744 -31.180  1.00  0.00     0.004 C 
ENDBRANCH   8   9
ENDBRANCH   7   8
ENDBRANCH   1   7
TORSDOF 6
ENDMDL
MODEL 8
REMARK VINA RESULT:    -3.525      2.049      3.685
REMARK INTER + INTRA:          -5.402
REMARK INTER:                  -4.771
REMARK INTRA:                  -0.631
REMARK UNBOUND:                -0.640
REMARK SMILES CCCCCCCC(=O)[O-]
REMARK SMILES IDX 5 1 6 2 7 3 8 4 9 5 10 6 4 7 3 8 2 9 1 10
REMARK H PARENT
REMARK Flexibility Score: inf
ROOT
ATOM      1  C   UNL     1     -38.694  18.211 -30.242  1.00  0.00     0.000 C 
ENDROOT
BRANCH   1   2
ATOM      2  C   UNL     1     -37.608  17.282 -29.660  1.00  0.00     0.006 C 
BRANCH   2   3
ATOM      3  C   UNL     1     -36.179  17.841 -29.743  1.00  0.00     0.053 C 
BRANCH   3   4
ATOM      4  C   UNL     1     -35.756  18.490 -28.461  1.00  0.00     0.041 C 
ATOM      5  O   UNL     1     -34.658  19.102 -28.392  1.00  0.00    -0.550 OA
ATOM      6  O   UNL     1     -36.590  18.444 -27.352  1.00  0.00    -0.550 OA
ENDBRANCH   3   4
ENDBRANCH   2   3
ENDBRANCH   1   2
BRANCH   1   7
ATOM      7  C   UNL     1     -39.502  19.001 -29.196  1.00  0.00     0.000 C 
BRANCH   7   8
ATOM      8  C   UNL     1     -39.496  20.517 -29.457  1.00  0.00    -0.000 C 
BRANCH   8   9
ATOM      9  C   UNL     1     -38.281  21.217 -28.831  1.00  0.00    -0.003 C 
ATOM     10  C   UNL     1     -37.232  21.617 -29.868  1.00  0.00     0.004 C 
ENDBRANCH   8   9
ENDBRANCH   7   8
ENDBRANCH   1   7
TORSDOF 6
ENDMDL
MODEL 9
REMARK VINA RESULT:    -3.523     13.817     15.117
REMARK INTER + INTRA:          -5.398
REMARK INTER:                  -4.807
REMARK INTRA:                  -0.591
REMARK UNBOUND:                -0.640
REMARK SMILES CCCCCCCC(=O)[O-]
REMARK SMILES IDX 5 1 6 2 7 3 8 4 9 5 10 6 4 7 3 8 2 9 1 10
REMARK H PARENT
REMARK Flexibility Score: inf
ROOT
ATOM      1  C   UNL     1     -52.351  17.810 -31.106  1.00  0.00     0.000 C 
ENDROOT
BRANCH   1   2
ATOM      2  C   UNL     1     -51.112  17.286 -30.349  1.00  0.00     0.006 C 
BRANCH   2   3
ATOM      3  C   UNL     1     -50.705  15.849 -30.708  1.00  0.00     0.053 C 
BRANCH   3   4
ATOM      4  C   UNL     1     -51.259  14.851 -29.737  1.00  0.00     0.041 C 
ATOM      5  O   UNL     1     -52.467  14.505 -29.802  1.00  0.00    -0.550 OA
ATOM      6  O   UNL     1     -50.430  14.281 -28.779  1.00  0.00    -0.550 OA
ENDBRANCH   3   4
ENDBRANCH   2   3
ENDBRANCH   1   2
BRANCH   1   7
ATOM      7  C   UNL     1     -53.592  18.057 -30.228  1.00  0.00     0.000 C 
BRANCH   7   8
ATOM      8  C   UNL     1     -53.234  18.505 -28.800  1.00  0.00    -0.000 C 
BRANCH   8   9
ATOM      9  C   UNL     1     -53.743  17.526 -27.732  1.00  0.00    -0.003 C 
ATOM     10  C   UNL     1     -52.609  16.860 -26.953  1.00  0.00     0.004 C 
ENDBRANCH   8   9
ENDBRANCH   7   8
ENDBRANCH   1   7
TORSDOF 6
ENDMDL
