MODEL 1
REMARK VINA RESULT:    -7.224      0.000      0.000
REMARK INTER + INTRA:          -7.809
REMARK INTER:                  -7.647
REMARK INTRA:                  -0.163
REMARK UNBOUND:                -0.163
REMARK SMILES C=C(C)[C@H]1CC[C@@H](C)[C@@]12CC=C(C)CC2
REMARK SMILES IDX 8 1 7 2 6 3 5 4 4 5 9 6 15 7 14 8 12 9 11 10 10 11 13 12
REMARK SMILES IDX 2 13 1 14 3 15
REMARK H PARENT
REMARK Flexibility Score: inf
ROOT
ATOM      1  C   UNL     1     109.870 112.373 114.572  1.00  0.00     0.008 C 
ATOM      2  C   UNL     1     110.787 111.360 113.866  1.00  0.00    -0.007 C 
ATOM      3  C   UNL     1     112.255 111.689 114.077  1.00  0.00     0.004 C 
ATOM      4  C   UNL     1     112.991 110.828 113.070  1.00  0.00     0.009 C 
ATOM      5  C   UNL     1     112.026 110.627 111.883  1.00  0.00     0.021 C 
ATOM      6  C   UNL     1     110.617 111.193 112.324  1.00  0.00    -0.017 C 
ATOM      7  C   UNL     1     109.476 110.177 112.040  1.00  0.00     0.012 C 
ATOM      8  C   UNL     1     109.243 109.952 110.537  1.00  0.00     0.031 C 
ATOM      9  C   UNL     1     109.326 111.213 109.700  1.00  0.00    -0.077 C 
ATOM     10  C   UNL     1     109.848 112.358 110.183  1.00  0.00    -0.027 C 
ATOM     11  C   UNL     1     110.206 112.531 111.636  1.00  0.00     0.035 C 
ATOM     12  C   UNL     1     108.935 111.146 108.250  1.00  0.00     0.039 C 
ENDROOT
BRANCH   5  13
ATOM     13  C   UNL     1     112.619 111.147 110.568  1.00  0.00    -0.077 C 
ATOM     14  C   UNL     1     113.196 112.360 110.478  1.00  0.00     0.008 C 
ATOM     15  C   UNL     1     112.653 110.260 109.349  1.00  0.00     0.039 C 
ENDBRANCH   5  13
TORSDOF 1
ENDMDL
MODEL 2
REMARK VINA RESULT:    -7.210      1.082      3.394
REMARK INTER + INTRA:          -7.794
REMARK INTER:                  -7.642
REMARK INTRA:                  -0.152
REMARK UNBOUND:                -0.163
REMARK SMILES C=C(C)[C@H]1CC[C@@H](C)[C@@]12CC=C(C)CC2
REMARK SMILES IDX 8 1 7 2 6 3 5 4 4 5 9 6 15 7 14 8 12 9 11 10 10 11 13 12
REMARK SMILES IDX 2 13 1 14 3 15
REMARK H PARENT
REMARK Flexibility Score: inf
ROOT
ATOM      1  C   UNL     1     112.503 110.035 114.630  1.00  0.00     0.008 C 
ATOM      2  C   UNL     1     111.570 111.028 113.916  1.00  0.00    -0.007 C 
ATOM      3  C   UNL     1     110.108 110.709 114.175  1.00  0.00     0.004 C 
ATOM      4  C   UNL     1     109.349 111.541 113.161  1.00  0.00     0.009 C 
ATOM      5  C   UNL     1     110.283 111.704 111.944  1.00  0.00     0.021 C 
ATOM      6  C   UNL     1     111.702 111.149 112.367  1.00  0.00    -0.017 C 
ATOM      7  C   UNL     1     112.837 112.152 112.023  1.00  0.00     0.012 C 
ATOM      8  C   UNL     1     113.033 112.331 110.508  1.00  0.00     0.031 C 
ATOM      9  C   UNL     1     112.926 111.046 109.712  1.00  0.00    -0.077 C 
ATOM     10  C   UNL     1     112.415 109.918 110.243  1.00  0.00    -0.027 C 
ATOM     11  C   UNL     1     112.093 109.789 111.709  1.00  0.00     0.035 C 
ATOM     12  C   UNL     1     113.281 111.068 108.252  1.00  0.00     0.039 C 
ENDROOT
BRANCH   5  13
ATOM     13  C   UNL     1     109.656 111.146 110.661  1.00  0.00    -0.077 C 
ATOM     14  C   UNL     1     109.104 109.920 110.614  1.00  0.00     0.008 C 
ATOM     15  C   UNL     1     109.561 112.008 109.428  1.00  0.00     0.039 C 
ENDBRANCH   5  13
TORSDOF 1
ENDMDL
MODEL 3
REMARK VINA RESULT:    -7.162      3.183      5.963
REMARK INTER + INTRA:          -7.743
REMARK INTER:                  -7.582
REMARK INTRA:                  -0.161
REMARK UNBOUND:                -0.163
REMARK SMILES C=C(C)[C@H]1CC[C@@H](C)[C@@]12CC=C(C)CC2
REMARK SMILES IDX 8 1 7 2 6 3 5 4 4 5 9 6 15 7 14 8 12 9 11 10 10 11 13 12
REMARK SMILES IDX 2 13 1 14 3 15
REMARK H PARENT
REMARK Flexibility Score: inf
ROOT
ATOM      1  C   UNL     1     112.512 110.019 119.485  1.00  0.00     0.008 C 
ATOM      2  C   UNL     1     111.583 111.012 118.765  1.00  0.00    -0.007 C 
ATOM      3  C   UNL     1     110.120 110.708 119.035  1.00  0.00     0.004 C 
ATOM      4  C   UNL     1     109.361 111.535 118.016  1.00  0.00     0.009 C 
ATOM      5  C   UNL     1     110.291 111.675 116.792  1.00  0.00     0.021 C 
ATOM      6  C   UNL     1     111.707 111.113 117.213  1.00  0.00    -0.017 C 
ATOM      7  C   UNL     1     112.848 112.103 116.851  1.00  0.00     0.012 C 
ATOM      8  C   UNL     1     113.037 112.263 115.333  1.00  0.00     0.031 C 
ATOM      9  C   UNL     1     112.915 110.969 114.553  1.00  0.00    -0.077 C 
ATOM     10  C   UNL     1     112.397 109.851 115.100  1.00  0.00    -0.027 C 
ATOM     11  C   UNL     1     112.083 109.742 116.569  1.00  0.00     0.035 C 
ATOM     12  C   UNL     1     113.261 110.971 113.090  1.00  0.00     0.039 C 
ENDROOT
BRANCH   5  13
ATOM     13  C   UNL     1     109.652 111.107 115.519  1.00  0.00    -0.077 C 
ATOM     14  C   UNL     1     109.066 109.896 115.496  1.00  0.00     0.008 C 
ATOM     15  C   UNL     1     109.582 111.946 114.268  1.00  0.00     0.039 C 
ENDBRANCH   5  13
TORSDOF 1
ENDMDL
MODEL 4
REMARK VINA RESULT:    -7.148      3.132      5.875
REMARK INTER + INTRA:          -7.728
REMARK INTER:                  -7.561
REMARK INTRA:                  -0.168
REMARK UNBOUND:                -0.163
REMARK SMILES C=C(C)[C@H]1CC[C@@H](C)[C@@]12CC=C(C)CC2
REMARK SMILES IDX 8 1 7 2 6 3 5 4 4 5 9 6 15 7 14 8 12 9 11 10 10 11 13 12
REMARK SMILES IDX 2 13 1 14 3 15
REMARK H PARENT
REMARK Flexibility Score: inf
ROOT
ATOM      1  C   UNL     1     112.505 110.032 109.773  1.00  0.00     0.008 C 
ATOM      2  C   UNL     1     111.564 111.021 109.064  1.00  0.00    -0.007 C 
ATOM      3  C   UNL     1     110.104 110.690 109.324  1.00  0.00     0.004 C 
ATOM      4  C   UNL     1     109.338 111.520 108.313  1.00  0.00     0.009 C 
ATOM      5  C   UNL     1     110.270 111.694 107.097  1.00  0.00     0.021 C 
ATOM      6  C   UNL     1     111.693 111.148 107.515  1.00  0.00    -0.017 C 
ATOM      7  C   UNL     1     112.820 112.161 107.174  1.00  0.00     0.012 C 
ATOM      8  C   UNL     1     113.013 112.347 105.659  1.00  0.00     0.031 C 
ATOM      9  C   UNL     1     112.914 111.064 104.859  1.00  0.00    -0.077 C 
ATOM     10  C   UNL     1     112.412 109.930 105.386  1.00  0.00    -0.027 C 
ATOM     11  C   UNL     1     112.093 109.793 106.852  1.00  0.00     0.035 C 
ATOM     12  C   UNL     1     113.267 111.094 103.398  1.00  0.00     0.039 C 
ENDROOT
BRANCH   5  13
ATOM     13  C   UNL     1     109.645 111.136 105.812  1.00  0.00    -0.077 C 
ATOM     14  C   UNL     1     109.067 109.922 105.771  1.00  0.00     0.008 C 
ATOM     15  C   UNL     1     109.582 111.988 104.569  1.00  0.00     0.039 C 
ENDBRANCH   5  13
TORSDOF 1
ENDMDL
MODEL 5
REMARK VINA RESULT:    -7.140      2.944      4.830
REMARK INTER + INTRA:          -7.720
REMARK INTER:                  -7.557
REMARK INTRA:                  -0.163
REMARK UNBOUND:                -0.163
REMARK SMILES C=C(C)[C@H]1CC[C@@H](C)[C@@]12CC=C(C)CC2
REMARK SMILES IDX 8 1 7 2 6 3 5 4 4 5 9 6 15 7 14 8 12 9 11 10 10 11 13 12
REMARK SMILES IDX 2 13 1 14 3 15
REMARK H PARENT
REMARK Flexibility Score: inf
ROOT
ATOM      1  C   UNL     1     109.867 112.402 119.416  1.00  0.00     0.008 C 
ATOM      2  C   UNL     1     110.804 111.417 118.695  1.00  0.00    -0.007 C 
ATOM      3  C   UNL     1     112.265 111.765 118.921  1.00  0.00     0.004 C 
ATOM      4  C   UNL     1     113.020 110.935 117.902  1.00  0.00     0.009 C 
ATOM      5  C   UNL     1     112.065 110.742 116.706  1.00  0.00     0.021 C 
ATOM      6  C   UNL     1     110.645 111.277 117.149  1.00  0.00    -0.017 C 
ATOM      7  C   UNL     1     109.521 110.249 116.839  1.00  0.00     0.012 C 
ATOM      8  C   UNL     1     109.299 110.049 115.330  1.00  0.00     0.031 C 
ATOM      9  C   UNL     1     109.368 111.327 114.518  1.00  0.00    -0.077 C 
ATOM     10  C   UNL     1     109.869 112.470 115.027  1.00  0.00    -0.027 C 
ATOM     11  C   UNL     1     110.216 112.622 116.485  1.00  0.00     0.035 C 
ATOM     12  C   UNL     1     108.986 111.282 113.065  1.00  0.00     0.039 C 
ENDROOT
BRANCH   5  13
ATOM     13  C   UNL     1     112.657 111.297 115.404  1.00  0.00    -0.077 C 
ATOM     14  C   UNL     1     113.204 112.524 115.338  1.00  0.00     0.008 C 
ATOM     15  C   UNL     1     112.724 110.429 114.172  1.00  0.00     0.039 C 
ENDBRANCH   5  13
TORSDOF 1
ENDMDL
MODEL 6
REMARK VINA RESULT:    -7.109      2.955      4.810
REMARK INTER + INTRA:          -7.688
REMARK INTER:                  -7.520
REMARK INTRA:                  -0.167
REMARK UNBOUND:                -0.163
REMARK SMILES C=C(C)[C@H]1CC[C@@H](C)[C@@]12CC=C(C)CC2
REMARK SMILES IDX 8 1 7 2 6 3 5 4 4 5 9 6 15 7 14 8 12 9 11 10 10 11 13 12
REMARK SMILES IDX 2 13 1 14 3 15
REMARK H PARENT
REMARK Flexibility Score: inf
ROOT
ATOM      1  C   UNL     1     109.867 112.191 109.809  1.00  0.00     0.008 C 
ATOM      2  C   UNL     1     110.782 111.208 109.059  1.00  0.00    -0.007 C 
ATOM      3  C   UNL     1     112.250 111.529 109.280  1.00  0.00     0.004 C 
ATOM      4  C   UNL     1     112.984 110.710 108.236  1.00  0.00     0.009 C 
ATOM      5  C   UNL     1     112.016 110.558 107.045  1.00  0.00     0.021 C 
ATOM      6  C   UNL     1     110.608 111.104 107.512  1.00  0.00    -0.017 C 
ATOM      7  C   UNL     1     109.466 110.100 107.189  1.00  0.00     0.012 C 
ATOM      8  C   UNL     1     109.228 109.937 105.679  1.00  0.00     0.031 C 
ATOM      9  C   UNL     1     109.310 111.231 104.894  1.00  0.00    -0.077 C 
ATOM     10  C   UNL     1     109.833 112.355 105.423  1.00  0.00    -0.027 C 
ATOM     11  C   UNL     1     110.194 112.469 106.881  1.00  0.00     0.035 C 
ATOM     12  C   UNL     1     108.914 111.224 103.444  1.00  0.00     0.039 C 
ENDROOT
BRANCH   5  13
ATOM     13  C   UNL     1     112.605 111.131 105.750  1.00  0.00    -0.077 C 
ATOM     14  C   UNL     1     113.195 112.340 105.712  1.00  0.00     0.008 C 
ATOM     15  C   UNL     1     112.620 110.301 104.491  1.00  0.00     0.039 C 
ENDBRANCH   5  13
TORSDOF 1
ENDMDL
MODEL 7
REMARK VINA RESULT:    -7.025      1.280      4.756
REMARK INTER + INTRA:          -7.599
REMARK INTER:                  -7.442
REMARK INTRA:                  -0.157
REMARK UNBOUND:                -0.163
REMARK SMILES C=C(C)[C@H]1CC[C@@H](C)[C@@]12CC=C(C)CC2
REMARK SMILES IDX 8 1 7 2 6 3 5 4 4 5 9 6 15 7 14 8 12 9 11 10 10 11 13 12
REMARK SMILES IDX 2 13 1 14 3 15
REMARK H PARENT
REMARK Flexibility Score: inf
ROOT
ATOM      1  C   UNL     1     112.918 111.822 107.463  1.00  0.00     0.008 C 
ATOM      2  C   UNL     1     111.683 111.223 108.157  1.00  0.00    -0.007 C 
ATOM      3  C   UNL     1     110.432 112.039 107.879  1.00  0.00     0.004 C 
ATOM      4  C   UNL     1     109.411 111.528 108.876  1.00  0.00     0.009 C 
ATOM      5  C   UNL     1     110.209 111.044 110.105  1.00  0.00     0.021 C 
ATOM      6  C   UNL     1     111.739 111.061 109.707  1.00  0.00    -0.017 C 
ATOM      7  C   UNL     1     112.439 109.721 110.061  1.00  0.00     0.012 C 
ATOM      8  C   UNL     1     112.535 109.482 111.577  1.00  0.00     0.031 C 
ATOM      9  C   UNL     1     112.877 110.721 112.380  1.00  0.00    -0.077 C 
ATOM     10  C   UNL     1     112.806 111.958 111.849  1.00  0.00    -0.027 C 
ATOM     11  C   UNL     1     112.575 112.194 110.380  1.00  0.00     0.035 C 
ATOM     12  C   UNL     1     113.177 110.573 113.845  1.00  0.00     0.039 C 
ENDROOT
BRANCH   5  13
ATOM     13  C   UNL     1     109.799 111.786 111.383  1.00  0.00    -0.077 C 
ATOM     14  C   UNL     1     109.697 113.127 111.425  1.00  0.00     0.008 C 
ATOM     15  C   UNL     1     109.405 111.011 112.616  1.00  0.00     0.039 C 
ENDBRANCH   5  13
TORSDOF 1
ENDMDL
MODEL 8
REMARK VINA RESULT:    -6.992      2.169      5.413
REMARK INTER + INTRA:          -7.564
REMARK INTER:                  -7.412
REMARK INTRA:                  -0.152
REMARK UNBOUND:                -0.163
REMARK SMILES C=C(C)[C@H]1CC[C@@H](C)[C@@]12CC=C(C)CC2
REMARK SMILES IDX 8 1 7 2 6 3 5 4 4 5 9 6 15 7 14 8 12 9 11 10 10 11 13 12
REMARK SMILES IDX 2 13 1 14 3 15
REMARK H PARENT
REMARK Flexibility Score: inf
ROOT
ATOM      1  C   UNL     1     109.483 110.251 112.113  1.00  0.00     0.008 C 
ATOM      2  C   UNL     1     110.722 110.849 112.802  1.00  0.00    -0.007 C 
ATOM      3  C   UNL     1     111.943 109.962 112.629  1.00  0.00     0.004 C 
ATOM      4  C   UNL     1     112.954 110.503 113.619  1.00  0.00     0.009 C 
ATOM      5  C   UNL     1     112.142 111.113 114.780  1.00  0.00     0.021 C 
ATOM      6  C   UNL     1     110.626 111.130 114.333  1.00  0.00    -0.017 C 
ATOM      7  C   UNL     1     109.975 112.522 114.561  1.00  0.00     0.012 C 
ATOM      8  C   UNL     1     109.844 112.880 116.051  1.00  0.00     0.031 C 
ATOM      9  C   UNL     1     109.422 111.720 116.933  1.00  0.00    -0.077 C 
ATOM     10  C   UNL     1     109.454 110.445 116.498  1.00  0.00    -0.027 C 
ATOM     11  C   UNL     1     109.719 110.088 115.059  1.00  0.00     0.035 C 
ATOM     12  C   UNL     1     109.084 111.992 118.372  1.00  0.00     0.039 C 
ENDROOT
BRANCH   5  13
ATOM     13  C   UNL     1     112.479 110.453 116.124  1.00  0.00    -0.077 C 
ATOM     14  C   UNL     1     112.501 109.117 116.274  1.00  0.00     0.008 C 
ATOM     15  C   UNL     1     112.890 111.301 117.302  1.00  0.00     0.039 C 
ENDBRANCH   5  13
TORSDOF 1
ENDMDL
MODEL 9
REMARK VINA RESULT:    -6.976      2.378      6.047
REMARK INTER + INTRA:          -7.547
REMARK INTER:                  -7.394
REMARK INTRA:                  -0.153
REMARK UNBOUND:                -0.163
REMARK SMILES C=C(C)[C@H]1CC[C@@H](C)[C@@]12CC=C(C)CC2
REMARK SMILES IDX 8 1 7 2 6 3 5 4 4 5 9 6 15 7 14 8 12 9 11 10 10 11 13 12
REMARK SMILES IDX 2 13 1 14 3 15
REMARK H PARENT
REMARK Flexibility Score: inf
ROOT
ATOM      1  C   UNL     1     112.850 111.812 112.273  1.00  0.00     0.008 C 
ATOM      2  C   UNL     1     111.618 111.252 113.004  1.00  0.00    -0.007 C 
ATOM      3  C   UNL     1     110.382 112.097 112.749  1.00  0.00     0.004 C 
ATOM      4  C   UNL     1     109.374 111.625 113.777  1.00  0.00     0.009 C 
ATOM      5  C   UNL     1     110.190 111.134 114.991  1.00  0.00     0.021 C 
ATOM      6  C   UNL     1     111.709 111.108 114.555  1.00  0.00    -0.017 C 
ATOM      7  C   UNL     1     112.384 109.754 114.907  1.00  0.00     0.012 C 
ATOM      8  C   UNL     1     112.513 109.530 116.423  1.00  0.00     0.031 C 
ATOM      9  C   UNL     1     112.906 110.769 117.202  1.00  0.00    -0.077 C 
ATOM     10  C   UNL     1     112.854 112.001 116.658  1.00  0.00    -0.027 C 
ATOM     11  C   UNL     1     112.591 112.226 115.192  1.00  0.00     0.035 C 
ATOM     12  C   UNL     1     113.241 110.630 118.661  1.00  0.00     0.039 C 
ENDROOT
BRANCH   5  13
ATOM     13  C   UNL     1     109.832 111.901 116.271  1.00  0.00    -0.077 C 
ATOM     14  C   UNL     1     109.786 113.246 116.304  1.00  0.00     0.008 C 
ATOM     15  C   UNL     1     109.427 111.152 117.515  1.00  0.00     0.039 C 
ENDBRANCH   5  13
TORSDOF 1
ENDMDL
