MODEL 1
REMARK VINA RESULT:    -5.890      0.000      0.000
REMARK INTER + INTRA:          -7.052
REMARK INTER:                  -6.923
REMARK INTRA:                  -0.129
REMARK UNBOUND:                -0.129
REMARK SMILES O=C([O-])C=Cc1ccc(O)c(O)c1
REMARK SMILES IDX 6 1 13 2 7 3 11 4 8 5 9 6 5 7 4 8 2 9 1 10 3 11 12 12 10 14
REMARK H PARENT 12 13 10 15
REMARK Flexibility Score: inf
ROOT
ATOM      1  C   UNL     1     -33.260  -3.590 -18.632  1.00  0.00    -0.022 A 
ATOM      2  C   UNL     1     -33.557  -3.149 -19.932  1.00  0.00     0.058 A 
ATOM      3  C   UNL     1     -31.966  -3.371 -18.120  1.00  0.00     0.012 A 
ATOM      4  C   UNL     1     -32.579  -2.525 -20.720  1.00  0.00     0.157 A 
ATOM      5  C   UNL     1     -30.991  -2.748 -18.903  1.00  0.00     0.051 A 
ATOM      6  C   UNL     1     -31.289  -2.327 -20.202  1.00  0.00     0.157 A 
ENDROOT
BRANCH   1   7
ATOM      7  C   UNL     1     -34.335  -4.237 -17.838  1.00  0.00     0.010 C 
ATOM      8  C   UNL     1     -35.270  -5.039 -18.365  1.00  0.00     0.025 C 
BRANCH   8   9
ATOM      9  C   UNL     1     -36.325  -5.650 -17.541  1.00  0.00     0.064 C 
ATOM     10  O   UNL     1     -37.496  -5.195 -17.595  1.00  0.00    -0.545 OA
ATOM     11  O   UNL     1     -36.048  -6.726 -16.703  1.00  0.00    -0.545 OA
ENDBRANCH   8   9
ENDBRANCH   1   7
BRANCH   4  12
ATOM     12  O   UNL     1     -32.885  -2.101 -22.013  1.00  0.00    -0.504 OA
ATOM     13  H   UNL     1     -33.843  -1.998 -22.324  1.00  0.00     0.293 HD
ENDBRANCH   4  12
BRANCH   6  14
ATOM     14  O   UNL     1     -30.294  -1.709 -20.959  1.00  0.00    -0.504 OA
ATOM     15  H   UNL     1     -29.404  -1.436 -20.560  1.00  0.00     0.293 HD
ENDBRANCH   6  14
TORSDOF 4
ENDMDL
MODEL 2
REMARK VINA RESULT:    -5.418      3.242      4.428
REMARK INTER + INTRA:          -6.497
REMARK INTER:                  -6.366
REMARK INTRA:                  -0.131
REMARK UNBOUND:                -0.129
REMARK SMILES O=C([O-])C=Cc1ccc(O)c(O)c1
REMARK SMILES IDX 6 1 13 2 7 3 11 4 8 5 9 6 5 7 4 8 2 9 1 10 3 11 12 12 10 14
REMARK H PARENT 12 13 10 15
REMARK Flexibility Score: inf
ROOT
ATOM      1  C   UNL     1     -35.854  -5.329 -16.675  1.00  0.00    -0.022 A 
ATOM      2  C   UNL     1     -36.451  -5.750 -17.874  1.00  0.00     0.058 A 
ATOM      3  C   UNL     1     -35.163  -4.101 -16.654  1.00  0.00     0.012 A 
ATOM      4  C   UNL     1     -36.342  -4.978 -19.040  1.00  0.00     0.157 A 
ATOM      5  C   UNL     1     -35.054  -3.332 -17.814  1.00  0.00     0.051 A 
ATOM      6  C   UNL     1     -35.637  -3.764 -19.009  1.00  0.00     0.157 A 
ENDROOT
BRANCH   1   7
ATOM      7  C   UNL     1     -36.008  -6.179 -15.467  1.00  0.00     0.010 C 
ATOM      8  C   UNL     1     -36.292  -7.488 -15.510  1.00  0.00     0.025 C 
BRANCH   8   9
ATOM      9  C   UNL     1     -36.447  -8.291 -14.287  1.00  0.00     0.064 C 
ATOM     10  O   UNL     1     -37.506  -8.944 -14.102  1.00  0.00    -0.545 OA
ATOM     11  O   UNL     1     -35.439  -8.341 -13.329  1.00  0.00    -0.545 OA
ENDBRANCH   8   9
ENDBRANCH   1   7
BRANCH   4  12
ATOM     12  O   UNL     1     -36.932  -5.413 -20.226  1.00  0.00    -0.504 OA
ATOM     13  H   UNL     1     -36.792  -6.353 -20.575  1.00  0.00     0.293 HD
ENDBRANCH   4  12
BRANCH   6  14
ATOM     14  O   UNL     1     -35.511  -2.974 -20.151  1.00  0.00    -0.504 OA
ATOM     15  H   UNL     1     -35.949  -3.223 -21.030  1.00  0.00     0.293 HD
ENDBRANCH   6  14
TORSDOF 4
ENDMDL
MODEL 3
REMARK VINA RESULT:    -5.186      3.347      7.757
REMARK INTER + INTRA:          -6.224
REMARK INTER:                  -6.096
REMARK INTRA:                  -0.128
REMARK UNBOUND:                -0.129
REMARK SMILES O=C([O-])C=Cc1ccc(O)c(O)c1
REMARK SMILES IDX 6 1 13 2 7 3 11 4 8 5 9 6 5 7 4 8 2 9 1 10 3 11 12 12 10 14
REMARK H PARENT 12 13 10 15
REMARK Flexibility Score: inf
ROOT
ATOM      1  C   UNL     1     -36.750  -6.804 -16.253  1.00  0.00    -0.022 A 
ATOM      2  C   UNL     1     -38.029  -6.366 -15.871  1.00  0.00     0.058 A 
ATOM      3  C   UNL     1     -36.278  -8.036 -15.759  1.00  0.00     0.012 A 
ATOM      4  C   UNL     1     -38.815  -7.126 -14.992  1.00  0.00     0.157 A 
ATOM      5  C   UNL     1     -37.060  -8.793 -14.884  1.00  0.00     0.051 A 
ATOM      6  C   UNL     1     -38.325  -8.344 -14.495  1.00  0.00     0.157 A 
ENDROOT
BRANCH   1   7
ATOM      7  C   UNL     1     -35.964  -5.966 -17.193  1.00  0.00     0.010 C 
ATOM      8  C   UNL     1     -35.847  -4.635 -17.085  1.00  0.00     0.025 C 
BRANCH   8   9
ATOM      9  C   UNL     1     -35.066  -3.843 -18.047  1.00  0.00     0.064 C 
ATOM     10  O   UNL     1     -33.842  -3.641 -17.836  1.00  0.00    -0.545 OA
ATOM     11  O   UNL     1     -35.657  -3.313 -19.190  1.00  0.00    -0.545 OA
ENDBRANCH   8   9
ENDBRANCH   1   7
BRANCH   4  12
ATOM     12  O   UNL     1     -40.079  -6.674 -14.613  1.00  0.00    -0.504 OA
ATOM     13  H   UNL     1     -40.876  -7.297 -14.577  1.00  0.00     0.293 HD
ENDBRANCH   4  12
BRANCH   6  14
ATOM     14  O   UNL     1     -39.082  -9.123 -13.620  1.00  0.00    -0.504 OA
ATOM     15  H   UNL     1     -39.347 -10.076 -13.838  1.00  0.00     0.293 HD
ENDBRANCH   6  14
TORSDOF 4
ENDMDL
MODEL 4
REMARK VINA RESULT:    -5.110      2.012      2.862
REMARK INTER + INTRA:          -6.135
REMARK INTER:                  -6.009
REMARK INTRA:                  -0.126
REMARK UNBOUND:                -0.129
REMARK SMILES O=C([O-])C=Cc1ccc(O)c(O)c1
REMARK SMILES IDX 6 1 13 2 7 3 11 4 8 5 9 6 5 7 4 8 2 9 1 10 3 11 12 12 10 14
REMARK H PARENT 12 13 10 15
REMARK Flexibility Score: inf
ROOT
ATOM      1  C   UNL     1     -35.231  -4.736 -18.174  1.00  0.00    -0.022 A 
ATOM      2  C   UNL     1     -35.561  -5.308 -19.414  1.00  0.00     0.058 A 
ATOM      3  C   UNL     1     -34.116  -3.879 -18.095  1.00  0.00     0.012 A 
ATOM      4  C   UNL     1     -34.780  -5.053 -20.551  1.00  0.00     0.157 A 
ATOM      5  C   UNL     1     -33.339  -3.625 -19.227  1.00  0.00     0.051 A 
ATOM      6  C   UNL     1     -33.662  -4.210 -20.455  1.00  0.00     0.157 A 
ENDROOT
BRANCH   1   7
ATOM      7  C   UNL     1     -36.097  -5.030 -17.004  1.00  0.00     0.010 C 
ATOM      8  C   UNL     1     -36.405  -6.270 -16.599  1.00  0.00     0.025 C 
BRANCH   8   9
ATOM      9  C   UNL     1     -37.276  -6.515 -15.439  1.00  0.00     0.064 C 
ATOM     10  O   UNL     1     -38.499  -6.750 -15.620  1.00  0.00    -0.545 OA
ATOM     11  O   UNL     1     -36.770  -6.493 -14.143  1.00  0.00    -0.545 OA
ENDBRANCH   8   9
ENDBRANCH   1   7
BRANCH   4  12
ATOM     12  O   UNL     1     -35.113  -5.636 -21.774  1.00  0.00    -0.504 OA
ATOM     13  H   UNL     1     -36.069  -5.876 -22.004  1.00  0.00     0.293 HD
ENDBRANCH   4  12
BRANCH   6  14
ATOM     14  O   UNL     1     -32.866  -3.937 -21.567  1.00  0.00    -0.504 OA
ATOM     15  H   UNL     1     -32.672  -2.991 -21.872  1.00  0.00     0.293 HD
ENDBRANCH   6  14
TORSDOF 4
ENDMDL
MODEL 5
REMARK VINA RESULT:    -5.104      5.120      7.172
REMARK INTER + INTRA:          -6.128
REMARK INTER:                  -5.998
REMARK INTRA:                  -0.129
REMARK UNBOUND:                -0.129
REMARK SMILES O=C([O-])C=Cc1ccc(O)c(O)c1
REMARK SMILES IDX 6 1 13 2 7 3 11 4 8 5 9 6 5 7 4 8 2 9 1 10 3 11 12 12 10 14
REMARK H PARENT 12 13 10 15
REMARK Flexibility Score: inf
ROOT
ATOM      1  C   UNL     1     -37.011  -6.742 -15.814  1.00  0.00    -0.022 A 
ATOM      2  C   UNL     1     -36.470  -5.983 -14.763  1.00  0.00     0.058 A 
ATOM      3  C   UNL     1     -36.835  -8.139 -15.804  1.00  0.00     0.012 A 
ATOM      4  C   UNL     1     -35.743  -6.600 -13.733  1.00  0.00     0.157 A 
ATOM      5  C   UNL     1     -36.111  -8.754 -14.779  1.00  0.00     0.051 A 
ATOM      6  C   UNL     1     -35.561  -7.992 -13.745  1.00  0.00     0.157 A 
ENDROOT
BRANCH   1   7
ATOM      7  C   UNL     1     -37.780  -6.041 -16.873  1.00  0.00     0.010 C 
ATOM      8  C   UNL     1     -37.357  -4.927 -17.486  1.00  0.00     0.025 C 
BRANCH   8   9
ATOM      9  C   UNL     1     -38.158  -4.259 -18.524  1.00  0.00     0.064 C 
ATOM     10  O   UNL     1     -39.398  -4.125 -18.361  1.00  0.00    -0.545 OA
ATOM     11  O   UNL     1     -37.566  -3.770 -19.684  1.00  0.00    -0.545 OA
ENDBRANCH   8   9
ENDBRANCH   1   7
BRANCH   4  12
ATOM     12  O   UNL     1     -35.202  -5.833 -12.701  1.00  0.00    -0.504 OA
ATOM     13  H   UNL     1     -35.190  -6.165 -11.744  1.00  0.00     0.293 HD
ENDBRANCH   4  12
BRANCH   6  14
ATOM     14  O   UNL     1     -34.844  -8.634 -12.736  1.00  0.00    -0.504 OA
ATOM     15  H   UNL     1     -34.123  -8.162 -12.203  1.00  0.00     0.293 HD
ENDBRANCH   6  14
TORSDOF 4
ENDMDL
MODEL 6
REMARK VINA RESULT:    -5.044      2.554      3.768
REMARK INTER + INTRA:          -6.058
REMARK INTER:                  -5.932
REMARK INTRA:                  -0.126
REMARK UNBOUND:                -0.129
REMARK SMILES O=C([O-])C=Cc1ccc(O)c(O)c1
REMARK SMILES IDX 6 1 13 2 7 3 11 4 8 5 9 6 5 7 4 8 2 9 1 10 3 11 12 12 10 14
REMARK H PARENT 12 13 10 15
REMARK Flexibility Score: inf
ROOT
ATOM      1  C   UNL     1     -36.063  -5.070 -17.651  1.00  0.00    -0.022 A 
ATOM      2  C   UNL     1     -34.859  -4.434 -17.306  1.00  0.00     0.058 A 
ATOM      3  C   UNL     1     -36.528  -4.971 -18.977  1.00  0.00     0.012 A 
ATOM      4  C   UNL     1     -34.143  -3.691 -18.256  1.00  0.00     0.157 A 
ATOM      5  C   UNL     1     -35.815  -4.232 -19.923  1.00  0.00     0.051 A 
ATOM      6  C   UNL     1     -34.626  -3.588 -19.570  1.00  0.00     0.157 A 
ENDROOT
BRANCH   1   7
ATOM      7  C   UNL     1     -36.777  -5.852 -16.611  1.00  0.00     0.010 C 
ATOM      8  C   UNL     1     -36.476  -7.119 -16.294  1.00  0.00     0.025 C 
BRANCH   8   9
ATOM      9  C   UNL     1     -37.218  -7.860 -15.262  1.00  0.00     0.064 C 
ATOM     10  O   UNL     1     -38.094  -8.695 -15.606  1.00  0.00    -0.545 OA
ATOM     11  O   UNL     1     -36.966  -7.654 -13.909  1.00  0.00    -0.545 OA
ENDBRANCH   8   9
ENDBRANCH   1   7
BRANCH   4  12
ATOM     12  O   UNL     1     -32.954  -3.056 -17.897  1.00  0.00    -0.504 OA
ATOM     13  H   UNL     1     -32.185  -3.567 -17.480  1.00  0.00     0.293 HD
ENDBRANCH   4  12
BRANCH   6  14
ATOM     14  O   UNL     1     -33.937  -2.856 -20.537  1.00  0.00    -0.504 OA
ATOM     15  H   UNL     1     -33.980  -1.845 -20.579  1.00  0.00     0.293 HD
ENDBRANCH   6  14
TORSDOF 4
ENDMDL
MODEL 7
REMARK VINA RESULT:    -5.028      2.119      3.079
REMARK INTER + INTRA:          -6.038
REMARK INTER:                  -5.898
REMARK INTRA:                  -0.141
REMARK UNBOUND:                -0.129
REMARK SMILES O=C([O-])C=Cc1ccc(O)c(O)c1
REMARK SMILES IDX 6 1 13 2 7 3 11 4 8 5 9 6 5 7 4 8 2 9 1 10 3 11 12 12 10 14
REMARK H PARENT 12 13 10 15
REMARK Flexibility Score: inf
ROOT
ATOM      1  C   UNL     1     -34.715  -4.213 -17.783  1.00  0.00    -0.022 A 
ATOM      2  C   UNL     1     -33.520  -3.543 -18.096  1.00  0.00     0.058 A 
ATOM      3  C   UNL     1     -35.356  -4.965 -18.786  1.00  0.00     0.012 A 
ATOM      4  C   UNL     1     -32.986  -3.598 -19.392  1.00  0.00     0.157 A 
ATOM      5  C   UNL     1     -34.824  -5.020 -20.077  1.00  0.00     0.051 A 
ATOM      6  C   UNL     1     -33.645  -4.338 -20.387  1.00  0.00     0.157 A 
ENDROOT
BRANCH   1   7
ATOM      7  C   UNL     1     -35.231  -4.130 -16.393  1.00  0.00     0.010 C 
ATOM      8  C   UNL     1     -35.932  -5.106 -15.800  1.00  0.00     0.025 C 
BRANCH   8   9
ATOM      9  C   UNL     1     -36.435  -4.976 -14.423  1.00  0.00     0.064 C 
ATOM     10  O   UNL     1     -37.445  -4.261 -14.196  1.00  0.00    -0.545 OA
ATOM     11  O   UNL     1     -35.811  -5.632 -13.366  1.00  0.00    -0.545 OA
ENDBRANCH   8   9
ENDBRANCH   1   7
BRANCH   4  12
ATOM     12  O   UNL     1     -31.805  -2.920 -19.692  1.00  0.00    -0.504 OA
ATOM     13  H   UNL     1     -30.934  -3.414 -19.844  1.00  0.00     0.293 HD
ENDBRANCH   4  12
BRANCH   6  14
ATOM     14  O   UNL     1     -33.139  -4.413 -21.685  1.00  0.00    -0.504 OA
ATOM     15  H   UNL     1     -32.680  -5.244 -22.037  1.00  0.00     0.293 HD
ENDBRANCH   6  14
TORSDOF 4
ENDMDL
MODEL 8
REMARK VINA RESULT:    -4.984      4.514      7.003
REMARK INTER + INTRA:          -5.987
REMARK INTER:                  -5.860
REMARK INTRA:                  -0.127
REMARK UNBOUND:                -0.129
REMARK SMILES O=C([O-])C=Cc1ccc(O)c(O)c1
REMARK SMILES IDX 6 1 13 2 7 3 11 4 8 5 9 6 5 7 4 8 2 9 1 10 3 11 12 12 10 14
REMARK H PARENT 12 13 10 15
REMARK Flexibility Score: inf
ROOT
ATOM      1  C   UNL     1     -36.534  -5.474 -15.255  1.00  0.00    -0.022 A 
ATOM      2  C   UNL     1     -36.485  -6.752 -15.835  1.00  0.00     0.058 A 
ATOM      3  C   UNL     1     -36.104  -5.315 -13.923  1.00  0.00     0.012 A 
ATOM      4  C   UNL     1     -36.042  -7.859 -15.097  1.00  0.00     0.157 A 
ATOM      5  C   UNL     1     -35.663  -6.417 -13.187  1.00  0.00     0.051 A 
ATOM      6  C   UNL     1     -35.632  -7.689 -13.765  1.00  0.00     0.157 A 
ENDROOT
BRANCH   1   7
ATOM      7  C   UNL     1     -37.002  -4.335 -16.085  1.00  0.00     0.010 C 
ATOM      8  C   UNL     1     -36.190  -3.387 -16.573  1.00  0.00     0.025 C 
BRANCH   8   9
ATOM      9  C   UNL     1     -36.700  -2.269 -17.383  1.00  0.00     0.064 C 
ATOM     10  O   UNL     1     -36.657  -1.099 -16.922  1.00  0.00    -0.545 OA
ATOM     11  O   UNL     1     -37.227  -2.484 -18.653  1.00  0.00    -0.545 OA
ENDBRANCH   8   9
ENDBRANCH   1   7
BRANCH   4  12
ATOM     12  O   UNL     1     -36.008  -9.124 -15.682  1.00  0.00    -0.504 OA
ATOM     13  H   UNL     1     -36.849  -9.575 -16.022  1.00  0.00     0.293 HD
ENDBRANCH   4  12
BRANCH   6  14
ATOM     14  O   UNL     1     -35.187  -8.770 -13.003  1.00  0.00    -0.504 OA
ATOM     15  H   UNL     1     -35.546  -8.959 -12.075  1.00  0.00     0.293 HD
ENDBRANCH   6  14
TORSDOF 4
ENDMDL
MODEL 9
REMARK VINA RESULT:    -4.949      6.981      8.511
REMARK INTER + INTRA:          -5.945
REMARK INTER:                  -5.806
REMARK INTRA:                  -0.139
REMARK UNBOUND:                -0.129
REMARK SMILES O=C([O-])C=Cc1ccc(O)c(O)c1
REMARK SMILES IDX 6 1 13 2 7 3 11 4 8 5 9 6 5 7 4 8 2 9 1 10 3 11 12 12 10 14
REMARK H PARENT 12 13 10 15
REMARK Flexibility Score: inf
ROOT
ATOM      1  C   UNL     1     -38.232  -6.072 -13.766  1.00  0.00    -0.022 A 
ATOM      2  C   UNL     1     -39.003  -7.089 -14.352  1.00  0.00     0.058 A 
ATOM      3  C   UNL     1     -36.836  -6.082 -13.956  1.00  0.00     0.012 A 
ATOM      4  C   UNL     1     -38.395  -8.114 -15.092  1.00  0.00     0.157 A 
ATOM      5  C   UNL     1     -36.230  -7.102 -14.693  1.00  0.00     0.051 A 
ATOM      6  C   UNL     1     -37.001  -8.120 -15.260  1.00  0.00     0.157 A 
ENDROOT
BRANCH   1   7
ATOM      7  C   UNL     1     -38.927  -5.006 -13.000  1.00  0.00     0.010 C 
ATOM      8  C   UNL     1     -38.330  -4.247 -12.072  1.00  0.00     0.025 C 
BRANCH   8   9
ATOM      9  C   UNL     1     -39.061  -3.208 -11.329  1.00  0.00     0.064 C 
ATOM     10  O   UNL     1     -38.458  -2.522 -10.464  1.00  0.00    -0.545 OA
ATOM     11  O   UNL     1     -40.411  -2.969 -11.570  1.00  0.00    -0.545 OA
ENDBRANCH   8   9
ENDBRANCH   1   7
BRANCH   4  12
ATOM     12  O   UNL     1     -39.172  -9.124 -15.660  1.00  0.00    -0.504 OA
ATOM     13  H   UNL     1     -40.076  -9.376 -15.279  1.00  0.00     0.293 HD
ENDBRANCH   4  12
BRANCH   6  14
ATOM     14  O   UNL     1     -36.367  -9.125 -15.990  1.00  0.00    -0.504 OA
ATOM     15  H   UNL     1     -36.481  -9.217 -16.992  1.00  0.00     0.293 HD
ENDBRANCH   6  14
TORSDOF 4
ENDMDL
