MODEL 1
REMARK VINA RESULT:    -5.617      0.000      0.000
REMARK INTER + INTRA:          -6.110
REMARK INTER:                  -6.110
REMARK INTRA:                   0.000
REMARK UNBOUND:                 0.000
REMARK SMILES Oc1cccc(O)c1O
REMARK SMILES IDX 4 1 5 2 6 3 8 4 2 5 3 6 7 7 1 9 9 11
REMARK H PARENT 7 8 1 10 9 12
REMARK Flexibility Score: inf
ROOT
ATOM      1  C   UNL     1       0.532   8.730  10.284  1.00  0.00     0.008 A 
ATOM      2  C   UNL     1       1.107   9.552   9.314  1.00  0.00     0.050 A 
ATOM      3  C   UNL     1       2.387   9.278   8.816  1.00  0.00     0.161 A 
ATOM      4  C   UNL     1       3.102   8.156   9.305  1.00  0.00     0.200 A 
ATOM      5  C   UNL     1       2.511   7.333  10.285  1.00  0.00     0.161 A 
ATOM      6  C   UNL     1       1.232   7.625  10.768  1.00  0.00     0.050 A 
ENDROOT
BRANCH   3   7
ATOM      7  O   UNL     1       2.903  10.140   7.847  1.00  0.00    -0.504 OA
ATOM      8  H   UNL     1       3.718  10.721   7.982  1.00  0.00     0.293 HD
ENDBRANCH   3   7
BRANCH   5   9
ATOM      9  O   UNL     1       3.182   6.220  10.791  1.00  0.00    -0.504 OA
ATOM     10  H   UNL     1       4.024   6.304  11.348  1.00  0.00     0.293 HD
ENDBRANCH   5   9
BRANCH   4  11
ATOM     11  O   UNL     1       4.383   7.831   8.848  1.00  0.00    -0.502 OA
ATOM     12  H   UNL     1       4.586   7.052   8.240  1.00  0.00     0.293 HD
ENDBRANCH   4  11
TORSDOF 3
ENDMDL
MODEL 2
REMARK VINA RESULT:    -5.561      0.105      2.826
REMARK INTER + INTRA:          -6.049
REMARK INTER:                  -6.049
REMARK INTRA:                   0.000
REMARK UNBOUND:                 0.000
REMARK SMILES Oc1cccc(O)c1O
REMARK SMILES IDX 4 1 5 2 6 3 8 4 2 5 3 6 7 7 1 9 9 11
REMARK H PARENT 7 8 1 10 9 12
REMARK Flexibility Score: inf
ROOT
ATOM      1  C   UNL     1       0.573   8.728  10.196  1.00  0.00     0.008 A 
ATOM      2  C   UNL     1       1.241   7.621  10.721  1.00  0.00     0.050 A 
ATOM      3  C   UNL     1       2.531   7.294  10.283  1.00  0.00     0.161 A 
ATOM      4  C   UNL     1       3.158   8.096   9.298  1.00  0.00     0.200 A 
ATOM      5  C   UNL     1       2.474   9.212   8.776  1.00  0.00     0.161 A 
ATOM      6  C   UNL     1       1.188   9.520   9.227  1.00  0.00     0.050 A 
ENDROOT
BRANCH   3   7
ATOM      7  O   UNL     1       3.142   6.173  10.848  1.00  0.00    -0.504 OA
ATOM      8  H   UNL     1       3.045   5.904  11.817  1.00  0.00     0.293 HD
ENDBRANCH   3   7
BRANCH   5   9
ATOM      9  O   UNL     1       3.058  10.026   7.806  1.00  0.00    -0.504 OA
ATOM     10  H   UNL     1       2.512  10.490   7.089  1.00  0.00     0.293 HD
ENDBRANCH   5   9
BRANCH   4  11
ATOM     11  O   UNL     1       4.443   7.821   8.821  1.00  0.00    -0.502 OA
ATOM     12  H   UNL     1       4.864   8.282   8.028  1.00  0.00     0.293 HD
ENDBRANCH   4  11
TORSDOF 3
ENDMDL
MODEL 3
REMARK VINA RESULT:    -5.095      1.863      2.607
REMARK INTER + INTRA:          -5.542
REMARK INTER:                  -5.542
REMARK INTRA:                   0.000
REMARK UNBOUND:                 0.000
REMARK SMILES Oc1cccc(O)c1O
REMARK SMILES IDX 4 1 5 2 6 3 8 4 2 5 3 6 7 7 1 9 9 11
REMARK H PARENT 7 8 1 10 9 12
REMARK Flexibility Score: inf
ROOT
ATOM      1  C   UNL     1       2.802   6.863  10.158  1.00  0.00     0.008 A 
ATOM      2  C   UNL     1       3.377   7.708   9.209  1.00  0.00     0.050 A 
ATOM      3  C   UNL     1       3.139   9.088   9.246  1.00  0.00     0.161 A 
ATOM      4  C   UNL     1       2.304   9.625  10.258  1.00  0.00     0.200 A 
ATOM      5  C   UNL     1       1.730   8.761  11.212  1.00  0.00     0.161 A 
ATOM      6  C   UNL     1       1.982   7.388  11.156  1.00  0.00     0.050 A 
ENDROOT
BRANCH   3   7
ATOM      7  O   UNL     1       3.744   9.877   8.266  1.00  0.00    -0.504 OA
ATOM      8  H   UNL     1       4.132  10.794   8.437  1.00  0.00     0.293 HD
ENDBRANCH   3   7
BRANCH   5   9
ATOM      9  O   UNL     1       0.903   9.251  12.223  1.00  0.00    -0.504 OA
ATOM     10  H   UNL     1       0.282   8.651  12.752  1.00  0.00     0.293 HD
ENDBRANCH   5   9
BRANCH   4  11
ATOM     11  O   UNL     1       2.028  10.993  10.348  1.00  0.00    -0.502 OA
ATOM     12  H   UNL     1       2.590  11.713   9.919  1.00  0.00     0.293 HD
ENDBRANCH   4  11
TORSDOF 3
ENDMDL
MODEL 4
REMARK VINA RESULT:    -5.088      1.732      2.794
REMARK INTER + INTRA:          -5.534
REMARK INTER:                  -5.534
REMARK INTRA:                   0.000
REMARK UNBOUND:                 0.000
REMARK SMILES Oc1cccc(O)c1O
REMARK SMILES IDX 4 1 5 2 6 3 8 4 2 5 3 6 7 7 1 9 9 11
REMARK H PARENT 7 8 1 10 9 12
REMARK Flexibility Score: inf
ROOT
ATOM      1  C   UNL     1       1.407   7.819  11.252  1.00  0.00     0.008 A 
ATOM      2  C   UNL     1       2.334   7.282  10.358  1.00  0.00     0.050 A 
ATOM      3  C   UNL     1       3.274   8.105   9.726  1.00  0.00     0.161 A 
ATOM      4  C   UNL     1       3.280   9.496   9.999  1.00  0.00     0.200 A 
ATOM      5  C   UNL     1       2.340  10.027  10.904  1.00  0.00     0.161 A 
ATOM      6  C   UNL     1       1.410   9.187  11.524  1.00  0.00     0.050 A 
ENDROOT
BRANCH   3   7
ATOM      7  O   UNL     1       4.172   7.503   8.842  1.00  0.00    -0.504 OA
ATOM      8  H   UNL     1       4.324   6.507   8.780  1.00  0.00     0.293 HD
ENDBRANCH   3   7
BRANCH   5   9
ATOM      9  O   UNL     1       2.313  11.390  11.199  1.00  0.00    -0.504 OA
ATOM     10  H   UNL     1       3.159  11.929  11.341  1.00  0.00     0.293 HD
ENDBRANCH   5   9
BRANCH   4  11
ATOM     11  O   UNL     1       4.193  10.369   9.399  1.00  0.00    -0.502 OA
ATOM     12  H   UNL     1       4.696  10.165   8.548  1.00  0.00     0.293 HD
ENDBRANCH   4  11
TORSDOF 3
ENDMDL
MODEL 5
REMARK VINA RESULT:    -5.075      1.856      3.369
REMARK INTER + INTRA:          -5.520
REMARK INTER:                  -5.520
REMARK INTRA:                   0.000
REMARK UNBOUND:                 0.000
REMARK SMILES Oc1cccc(O)c1O
REMARK SMILES IDX 4 1 5 2 6 3 8 4 2 5 3 6 7 7 1 9 9 11
REMARK H PARENT 7 8 1 10 9 12
REMARK Flexibility Score: inf
ROOT
ATOM      1  C   UNL     1       2.824   6.831  10.189  1.00  0.00     0.008 A 
ATOM      2  C   UNL     1       2.056   7.353  11.231  1.00  0.00     0.050 A 
ATOM      3  C   UNL     1       1.807   8.729  11.313  1.00  0.00     0.161 A 
ATOM      4  C   UNL     1       2.343   9.596  10.327  1.00  0.00     0.200 A 
ATOM      5  C   UNL     1       3.116   9.057   9.279  1.00  0.00     0.161 A 
ATOM      6  C   UNL     1       3.352   7.681   9.217  1.00  0.00     0.050 A 
ENDROOT
BRANCH   3   7
ATOM      7  O   UNL     1       1.033   9.184  12.381  1.00  0.00    -0.504 OA
ATOM      8  H   UNL     1       0.254   8.675  12.773  1.00  0.00     0.293 HD
ENDBRANCH   3   7
BRANCH   5   9
ATOM      9  O   UNL     1       3.661   9.877   8.291  1.00  0.00    -0.504 OA
ATOM     10  H   UNL     1       3.304  10.806   8.103  1.00  0.00     0.293 HD
ENDBRANCH   5   9
BRANCH   4  11
ATOM     11  O   UNL     1       2.130  10.977  10.355  1.00  0.00    -0.502 OA
ATOM     12  H   UNL     1       1.828  11.487  11.173  1.00  0.00     0.293 HD
ENDBRANCH   4  11
TORSDOF 3
ENDMDL
MODEL 6
REMARK VINA RESULT:    -5.037      1.899      2.759
REMARK INTER + INTRA:          -5.479
REMARK INTER:                  -5.479
REMARK INTRA:                   0.000
REMARK UNBOUND:                 0.000
REMARK SMILES Oc1cccc(O)c1O
REMARK SMILES IDX 4 1 5 2 6 3 8 4 2 5 3 6 7 7 1 9 9 11
REMARK H PARENT 7 8 1 10 9 12
REMARK Flexibility Score: inf
ROOT
ATOM      1  C   UNL     1       2.245   8.761   8.701  1.00  0.00     0.008 A 
ATOM      2  C   UNL     1       1.228   9.352   9.451  1.00  0.00     0.050 A 
ATOM      3  C   UNL     1       0.911   8.869  10.728  1.00  0.00     0.161 A 
ATOM      4  C   UNL     1       1.632   7.769  11.257  1.00  0.00     0.200 A 
ATOM      5  C   UNL     1       2.657   7.180  10.490  1.00  0.00     0.161 A 
ATOM      6  C   UNL     1       2.957   7.679   9.219  1.00  0.00     0.050 A 
ENDROOT
BRANCH   3   7
ATOM      7  O   UNL     1      -0.118   9.505  11.424  1.00  0.00    -0.504 OA
ATOM      8  H   UNL     1      -0.881   9.021  11.874  1.00  0.00     0.293 HD
ENDBRANCH   3   7
BRANCH   5   9
ATOM      9  O   UNL     1       3.389   6.097  10.976  1.00  0.00    -0.504 OA
ATOM     10  H   UNL     1       4.016   6.179  11.767  1.00  0.00     0.293 HD
ENDBRANCH   5   9
BRANCH   4  11
ATOM     11  O   UNL     1       1.362   7.242  12.524  1.00  0.00    -0.502 OA
ATOM     12  H   UNL     1       0.467   7.310  12.987  1.00  0.00     0.293 HD
ENDBRANCH   4  11
TORSDOF 3
ENDMDL
MODEL 7
REMARK VINA RESULT:    -5.027      3.155      4.068
REMARK INTER + INTRA:          -5.468
REMARK INTER:                  -5.468
REMARK INTRA:                   0.000
REMARK UNBOUND:                 0.000
REMARK SMILES Oc1cccc(O)c1O
REMARK SMILES IDX 4 1 5 2 6 3 8 4 2 5 3 6 7 7 1 9 9 11
REMARK H PARENT 7 8 1 10 9 12
REMARK Flexibility Score: inf
ROOT
ATOM      1  C   UNL     1       2.676   8.356  10.612  1.00  0.00     0.008 A 
ATOM      2  C   UNL     1       1.299   8.412  10.834  1.00  0.00     0.050 A 
ATOM      3  C   UNL     1       0.697   9.595  11.283  1.00  0.00     0.161 A 
ATOM      4  C   UNL     1       1.498  10.742  11.513  1.00  0.00     0.200 A 
ATOM      5  C   UNL     1       2.887  10.673  11.284  1.00  0.00     0.161 A 
ATOM      6  C   UNL     1       3.466   9.483  10.836  1.00  0.00     0.050 A 
ENDROOT
BRANCH   3   7
ATOM      7  O   UNL     1      -0.684   9.583  11.486  1.00  0.00    -0.504 OA
ATOM      8  H   UNL     1      -1.309  10.307  11.165  1.00  0.00     0.293 HD
ENDBRANCH   3   7
BRANCH   5   9
ATOM      9  O   UNL     1       3.708  11.780  11.499  1.00  0.00    -0.504 OA
ATOM     10  H   UNL     1       3.341  12.723  11.553  1.00  0.00     0.293 HD
ENDBRANCH   5   9
BRANCH   4  11
ATOM     11  O   UNL     1       0.956  11.951  11.961  1.00  0.00    -0.502 OA
ATOM     12  H   UNL     1       0.405  12.571  11.387  1.00  0.00     0.293 HD
ENDBRANCH   4  11
TORSDOF 3
ENDMDL
MODEL 8
REMARK VINA RESULT:    -5.014      3.188      3.776
REMARK INTER + INTRA:          -5.453
REMARK INTER:                  -5.453
REMARK INTRA:                   0.000
REMARK UNBOUND:                 0.000
REMARK SMILES Oc1cccc(O)c1O
REMARK SMILES IDX 4 1 5 2 6 3 8 4 2 5 3 6 7 7 1 9 9 11
REMARK H PARENT 7 8 1 10 9 12
REMARK Flexibility Score: inf
ROOT
ATOM      1  C   UNL     1       2.705   8.408  10.597  1.00  0.00     0.008 A 
ATOM      2  C   UNL     1       3.481   9.547  10.813  1.00  0.00     0.050 A 
ATOM      3  C   UNL     1       2.897  10.728  11.289  1.00  0.00     0.161 A 
ATOM      4  C   UNL     1       1.504  10.762  11.551  1.00  0.00     0.200 A 
ATOM      5  C   UNL     1       0.731   9.605  11.329  1.00  0.00     0.161 A 
ATOM      6  C   UNL     1       1.335   8.437  10.854  1.00  0.00     0.050 A 
ENDROOT
BRANCH   3   7
ATOM      7  O   UNL     1       3.730  11.831  11.483  1.00  0.00    -0.504 OA
ATOM      8  H   UNL     1       3.410  12.733  11.806  1.00  0.00     0.293 HD
ENDBRANCH   3   7
BRANCH   5   9
ATOM      9  O   UNL     1      -0.642   9.598  11.574  1.00  0.00    -0.504 OA
ATOM     10  H   UNL     1      -1.243  10.369  11.308  1.00  0.00     0.293 HD
ENDBRANCH   5   9
BRANCH   4  11
ATOM     11  O   UNL     1       0.863  11.910  12.026  1.00  0.00    -0.502 OA
ATOM     12  H   UNL     1       0.490  12.637  11.433  1.00  0.00     0.293 HD
ENDBRANCH   4  11
TORSDOF 3
ENDMDL
MODEL 9
REMARK VINA RESULT:    -4.950      1.973      3.402
REMARK INTER + INTRA:          -5.384
REMARK INTER:                  -5.384
REMARK INTRA:                   0.000
REMARK UNBOUND:                 0.000
REMARK SMILES Oc1cccc(O)c1O
REMARK SMILES IDX 4 1 5 2 6 3 8 4 2 5 3 6 7 7 1 9 9 11
REMARK H PARENT 7 8 1 10 9 12
REMARK Flexibility Score: inf
ROOT
ATOM      1  C   UNL     1       1.979   8.825   8.619  1.00  0.00     0.008 A 
ATOM      2  C   UNL     1       2.884   7.959   9.233  1.00  0.00     0.050 A 
ATOM      3  C   UNL     1       2.740   7.620  10.585  1.00  0.00     0.161 A 
ATOM      4  C   UNL     1       1.665   8.166  11.331  1.00  0.00     0.200 A 
ATOM      5  C   UNL     1       0.758   9.039  10.699  1.00  0.00     0.161 A 
ATOM      6  C   UNL     1       0.920   9.364   9.349  1.00  0.00     0.050 A 
ENDROOT
BRANCH   3   7
ATOM      7  O   UNL     1       3.679   6.748  11.138  1.00  0.00    -0.504 OA
ATOM      8  H   UNL     1       3.651   6.416  12.091  1.00  0.00     0.293 HD
ENDBRANCH   3   7
BRANCH   5   9
ATOM      9  O   UNL     1      -0.312   9.597  11.399  1.00  0.00    -0.504 OA
ATOM     10  H   UNL     1      -0.872   9.058  12.049  1.00  0.00     0.293 HD
ENDBRANCH   5   9
BRANCH   4  11
ATOM     11  O   UNL     1       1.469   7.866  12.683  1.00  0.00    -0.502 OA
ATOM     12  H   UNL     1       0.584   7.957  13.160  1.00  0.00     0.293 HD
ENDBRANCH   4  11
TORSDOF 3
ENDMDL
