MODEL 1
REMARK VINA RESULT:    -6.556      0.000      0.000
REMARK INTER + INTRA:          -8.000
REMARK INTER:                  -7.706
REMARK INTRA:                  -0.295
REMARK UNBOUND:                -0.295
REMARK SMILES O=c1cc(-c2ccc(O)c(O)c2)oc2cc(O)cc(O)c12
REMARK SMILES IDX 4 1 3 2 2 3 1 4 21 5 19 6 18 7 16 8 15 9 14 10 13 11 5 12
REMARK SMILES IDX 6 13 7 14 8 15 12 16 10 17 9 18 11 20 20 22 17 24
REMARK H PARENT 9 19 11 21 20 23 17 25
REMARK Flexibility Score: inf
ROOT
ATOM      1  C   UNL     1     -12.466 -17.158  21.122  1.00  0.00     0.138 A 
ATOM      2  C   UNL     1     -11.294 -17.651  21.713  1.00  0.00     0.100 A 
ATOM      3  C   UNL     1     -10.177 -16.822  21.824  1.00  0.00     0.197 A 
ATOM      4  O   UNL     1      -9.160 -17.271  22.413  1.00  0.00    -0.289 OA
ATOM      5  C   UNL     1     -10.225 -15.503  21.313  1.00  0.00     0.107 A 
ATOM      6  C   UNL     1      -9.134 -14.583  21.333  1.00  0.00     0.134 A 
ATOM      7  C   UNL     1      -9.336 -13.265  20.903  1.00  0.00     0.093 A 
ATOM      8  C   UNL     1     -10.571 -12.852  20.396  1.00  0.00     0.123 A 
ATOM      9  C   UNL     1     -11.626 -13.758  20.322  1.00  0.00     0.094 A 
ATOM     10  C   UNL     1     -11.468 -15.070  20.776  1.00  0.00     0.146 A 
ATOM     11  O   UNL     1     -12.504 -15.899  20.701  1.00  0.00    -0.456 OA
ENDROOT
BRANCH   1  12
ATOM     12  C   UNL     1     -13.683 -17.997  20.978  1.00  0.00     0.021 A 
ATOM     13  C   UNL     1     -14.725 -17.564  20.140  1.00  0.00     0.016 A 
ATOM     14  C   UNL     1     -15.877 -18.339  19.981  1.00  0.00     0.051 A 
ATOM     15  C   UNL     1     -16.005 -19.560  20.647  1.00  0.00     0.157 A 
ATOM     16  C   UNL     1     -13.812 -19.235  21.638  1.00  0.00     0.062 A 
ATOM     17  C   UNL     1     -14.967 -20.013  21.477  1.00  0.00     0.158 A 
BRANCH  15  18
ATOM     18  O   UNL     1     -17.168 -20.310  20.470  1.00  0.00    -0.504 OA
ATOM     19  H   UNL     1     -17.518 -20.550  19.550  1.00  0.00     0.293 HD
ENDBRANCH  15  18
BRANCH  17  20
ATOM     20  O   UNL     1     -15.085 -21.237  22.136  1.00  0.00    -0.504 OA
ATOM     21  H   UNL     1     -15.148 -21.291  23.147  1.00  0.00     0.293 HD
ENDBRANCH  17  20
ENDBRANCH   1  12
BRANCH   6  22
ATOM     22  O   UNL     1      -7.839 -14.916  21.739  1.00  0.00    -0.507 OA
ATOM     23  H   UNL     1      -7.549 -15.033  22.698  1.00  0.00     0.293 HD
ENDBRANCH   6  22
BRANCH   8  24
ATOM     24  O   UNL     1     -10.757 -11.543  19.957  1.00  0.00    -0.508 OA
ATOM     25  H   UNL     1     -10.173 -10.785  20.289  1.00  0.00     0.293 HD
ENDBRANCH   8  24
TORSDOF 5
ENDMDL
MODEL 2
REMARK VINA RESULT:    -6.389      4.917      7.727
REMARK INTER + INTRA:          -7.804
REMARK INTER:                  -7.532
REMARK INTRA:                  -0.272
REMARK UNBOUND:                -0.295
REMARK SMILES O=c1cc(-c2ccc(O)c(O)c2)oc2cc(O)cc(O)c12
REMARK SMILES IDX 4 1 3 2 2 3 1 4 21 5 19 6 18 7 16 8 15 9 14 10 13 11 5 12
REMARK SMILES IDX 6 13 7 14 8 15 12 16 10 17 9 18 11 20 20 22 17 24
REMARK H PARENT 9 19 11 21 20 23 17 25
REMARK Flexibility Score: inf
ROOT
ATOM      1  C   UNL     1      -7.802 -14.658  18.422  1.00  0.00     0.138 A 
ATOM      2  C   UNL     1      -7.493 -15.966  18.822  1.00  0.00     0.100 A 
ATOM      3  C   UNL     1      -7.892 -16.415  20.082  1.00  0.00     0.197 A 
ATOM      4  O   UNL     1      -7.655 -17.611  20.389  1.00  0.00    -0.289 OA
ATOM      5  C   UNL     1      -8.578 -15.539  20.956  1.00  0.00     0.107 A 
ATOM      6  C   UNL     1      -8.997 -15.874  22.279  1.00  0.00     0.134 A 
ATOM      7  C   UNL     1      -9.771 -14.962  23.008  1.00  0.00     0.093 A 
ATOM      8  C   UNL     1     -10.088 -13.705  22.487  1.00  0.00     0.123 A 
ATOM      9  C   UNL     1      -9.637 -13.349  21.218  1.00  0.00     0.094 A 
ATOM     10  C   UNL     1      -8.894 -14.248  20.451  1.00  0.00     0.146 A 
ATOM     11  O   UNL     1      -8.495 -13.874  19.240  1.00  0.00    -0.456 OA
ENDROOT
BRANCH   1  12
ATOM     12  C   UNL     1      -7.400 -14.130  17.094  1.00  0.00     0.021 A 
ATOM     13  C   UNL     1      -6.696 -12.916  17.018  1.00  0.00     0.016 A 
ATOM     14  C   UNL     1      -6.299 -12.401  15.781  1.00  0.00     0.051 A 
ATOM     15  C   UNL     1      -6.591 -13.091  14.601  1.00  0.00     0.157 A 
ATOM     16  C   UNL     1      -7.680 -14.828  15.903  1.00  0.00     0.062 A 
ATOM     17  C   UNL     1      -7.282 -14.312  14.662  1.00  0.00     0.158 A 
BRANCH  15  18
ATOM     18  O   UNL     1      -6.184 -12.551  13.382  1.00  0.00    -0.504 OA
ATOM     19  H   UNL     1      -6.576 -12.858  12.500  1.00  0.00     0.293 HD
ENDBRANCH  15  18
BRANCH  17  20
ATOM     20  O   UNL     1      -7.565 -15.011  13.489  1.00  0.00    -0.504 OA
ATOM     21  H   UNL     1      -7.296 -14.652  12.579  1.00  0.00     0.293 HD
ENDBRANCH  17  20
ENDBRANCH   1  12
BRANCH   6  22
ATOM     22  O   UNL     1      -8.663 -17.067  22.925  1.00  0.00    -0.507 OA
ATOM     23  H   UNL     1      -7.934 -17.698  22.629  1.00  0.00     0.293 HD
ENDBRANCH   6  22
BRANCH   8  24
ATOM     24  O   UNL     1     -10.846 -12.800  23.227  1.00  0.00    -0.508 OA
ATOM     25  H   UNL     1     -11.383 -12.067  22.779  1.00  0.00     0.293 HD
ENDBRANCH   8  24
TORSDOF 5
ENDMDL
MODEL 3
REMARK VINA RESULT:    -6.376      4.595      8.237
REMARK INTER + INTRA:          -7.788
REMARK INTER:                  -7.502
REMARK INTRA:                  -0.287
REMARK UNBOUND:                -0.295
REMARK SMILES O=c1cc(-c2ccc(O)c(O)c2)oc2cc(O)cc(O)c12
REMARK SMILES IDX 4 1 3 2 2 3 1 4 21 5 19 6 18 7 16 8 15 9 14 10 13 11 5 12
REMARK SMILES IDX 6 13 7 14 8 15 12 16 10 17 9 18 11 20 20 22 17 24
REMARK H PARENT 9 19 11 21 20 23 17 25
REMARK Flexibility Score: inf
ROOT
ATOM      1  C   UNL     1     -16.744 -18.672  17.746  1.00  0.00     0.138 A 
ATOM      2  C   UNL     1     -16.818 -19.717  16.814  1.00  0.00     0.100 A 
ATOM      3  C   UNL     1     -17.530 -19.533  15.627  1.00  0.00     0.197 A 
ATOM      4  O   UNL     1     -17.528 -20.466  14.783  1.00  0.00    -0.289 OA
ATOM      5  C   UNL     1     -18.196 -18.307  15.388  1.00  0.00     0.107 A 
ATOM      6  C   UNL     1     -18.985 -18.023  14.234  1.00  0.00     0.134 A 
ATOM      7  C   UNL     1     -19.500 -16.733  14.052  1.00  0.00     0.093 A 
ATOM      8  C   UNL     1     -19.306 -15.736  15.011  1.00  0.00     0.123 A 
ATOM      9  C   UNL     1     -18.583 -16.020  16.167  1.00  0.00     0.094 A 
ATOM     10  C   UNL     1     -18.026 -17.286  16.362  1.00  0.00     0.146 A 
ATOM     11  O   UNL     1     -17.331 -17.512  17.472  1.00  0.00    -0.456 OA
ENDROOT
BRANCH   1  12
ATOM     12  C   UNL     1     -16.001 -18.813  19.024  1.00  0.00     0.021 A 
ATOM     13  C   UNL     1     -15.391 -17.684  19.598  1.00  0.00     0.016 A 
ATOM     14  C   UNL     1     -14.694 -17.790  20.804  1.00  0.00     0.051 A 
ATOM     15  C   UNL     1     -14.600 -19.019  21.461  1.00  0.00     0.157 A 
ATOM     16  C   UNL     1     -15.915 -20.048  19.697  1.00  0.00     0.062 A 
ATOM     17  C   UNL     1     -15.216 -20.154  20.908  1.00  0.00     0.158 A 
BRANCH  15  18
ATOM     18  O   UNL     1     -13.895 -19.092  22.662  1.00  0.00    -0.504 OA
ATOM     19  H   UNL     1     -12.907 -18.874  22.721  1.00  0.00     0.293 HD
ENDBRANCH  15  18
BRANCH  17  20
ATOM     20  O   UNL     1     -15.135 -21.380  21.566  1.00  0.00    -0.504 OA
ATOM     21  H   UNL     1     -15.855 -22.087  21.463  1.00  0.00     0.293 HD
ENDBRANCH  17  20
ENDBRANCH   1  12
BRANCH   6  22
ATOM     22  O   UNL     1     -19.310 -18.968  13.257  1.00  0.00    -0.507 OA
ATOM     23  H   UNL     1     -19.468 -19.949  13.434  1.00  0.00     0.293 HD
ENDBRANCH   6  22
BRANCH   8  24
ATOM     24  O   UNL     1     -19.835 -14.460  14.827  1.00  0.00    -0.508 OA
ATOM     25  H   UNL     1     -19.961 -14.067  13.903  1.00  0.00     0.293 HD
ENDBRANCH   8  24
TORSDOF 5
ENDMDL
MODEL 4
REMARK VINA RESULT:    -6.248      5.382      7.971
REMARK INTER + INTRA:          -7.638
REMARK INTER:                  -7.353
REMARK INTRA:                  -0.285
REMARK UNBOUND:                -0.295
REMARK SMILES O=c1cc(-c2ccc(O)c(O)c2)oc2cc(O)cc(O)c12
REMARK SMILES IDX 4 1 3 2 2 3 1 4 21 5 19 6 18 7 16 8 15 9 14 10 13 11 5 12
REMARK SMILES IDX 6 13 7 14 8 15 12 16 10 17 9 18 11 20 20 22 17 24
REMARK H PARENT 9 19 11 21 20 23 17 25
REMARK Flexibility Score: inf
ROOT
ATOM      1  C   UNL     1      -7.230 -14.225  19.480  1.00  0.00     0.138 A 
ATOM      2  C   UNL     1      -7.402 -13.945  18.117  1.00  0.00     0.100 A 
ATOM      3  C   UNL     1      -6.466 -14.412  17.194  1.00  0.00     0.197 A 
ATOM      4  O   UNL     1      -6.679 -14.197  15.972  1.00  0.00    -0.289 OA
ATOM      5  C   UNL     1      -5.336 -15.137  17.642  1.00  0.00     0.107 A 
ATOM      6  C   UNL     1      -4.296 -15.626  16.795  1.00  0.00     0.134 A 
ATOM      7  C   UNL     1      -3.288 -16.431  17.338  1.00  0.00     0.093 A 
ATOM      8  C   UNL     1      -3.247 -16.714  18.706  1.00  0.00     0.123 A 
ATOM      9  C   UNL     1      -4.228 -16.196  19.549  1.00  0.00     0.094 A 
ATOM     10  C   UNL     1      -5.267 -15.419  19.033  1.00  0.00     0.146 A 
ATOM     11  O   UNL     1      -6.191 -14.955  19.869  1.00  0.00    -0.456 OA
ENDROOT
BRANCH   1  12
ATOM     12  C   UNL     1      -8.195 -13.752  20.505  1.00  0.00     0.021 A 
ATOM     13  C   UNL     1      -9.565 -14.023  20.342  1.00  0.00     0.016 A 
ATOM     14  C   UNL     1     -10.492 -13.596  21.296  1.00  0.00     0.051 A 
ATOM     15  C   UNL     1     -10.068 -12.900  22.432  1.00  0.00     0.157 A 
ATOM     16  C   UNL     1      -7.772 -13.062  21.658  1.00  0.00     0.062 A 
ATOM     17  C   UNL     1      -8.701 -12.634  22.616  1.00  0.00     0.158 A 
BRANCH  15  18
ATOM     18  O   UNL     1     -11.017 -12.485  23.365  1.00  0.00    -0.504 OA
ATOM     19  H   UNL     1     -10.804 -12.410  24.353  1.00  0.00     0.293 HD
ENDBRANCH  15  18
BRANCH  17  20
ATOM     20  O   UNL     1      -8.272 -11.950  23.753  1.00  0.00    -0.504 OA
ATOM     21  H   UNL     1      -8.064 -10.958  23.728  1.00  0.00     0.293 HD
ENDBRANCH  17  20
ENDBRANCH   1  12
BRANCH   6  22
ATOM     22  O   UNL     1      -4.195 -15.333  15.433  1.00  0.00    -0.507 OA
ATOM     23  H   UNL     1      -3.367 -15.471  14.873  1.00  0.00     0.293 HD
ENDBRANCH   6  22
BRANCH   8  24
ATOM     24  O   UNL     1      -2.231 -17.504  19.239  1.00  0.00    -0.508 OA
ATOM     25  H   UNL     1      -2.425 -18.237  19.910  1.00  0.00     0.293 HD
ENDBRANCH   8  24
TORSDOF 5
ENDMDL
MODEL 5
REMARK VINA RESULT:    -6.244      1.433      7.444
REMARK INTER + INTRA:          -7.634
REMARK INTER:                  -7.343
REMARK INTRA:                  -0.291
REMARK UNBOUND:                -0.295
REMARK SMILES O=c1cc(-c2ccc(O)c(O)c2)oc2cc(O)cc(O)c12
REMARK SMILES IDX 4 1 3 2 2 3 1 4 21 5 19 6 18 7 16 8 15 9 14 10 13 11 5 12
REMARK SMILES IDX 6 13 7 14 8 15 12 16 10 17 9 18 11 20 20 22 17 24
REMARK H PARENT 9 19 11 21 20 23 17 25
REMARK Flexibility Score: inf
ROOT
ATOM      1  C   UNL     1     -12.798 -16.103  20.347  1.00  0.00     0.138 A 
ATOM      2  C   UNL     1     -13.659 -15.947  19.252  1.00  0.00     0.100 A 
ATOM      3  C   UNL     1     -14.624 -16.920  18.989  1.00  0.00     0.197 A 
ATOM      4  O   UNL     1     -15.422 -16.722  18.036  1.00  0.00    -0.289 OA
ATOM      5  C   UNL     1     -14.707 -18.070  19.809  1.00  0.00     0.107 A 
ATOM      6  C   UNL     1     -15.623 -19.146  19.611  1.00  0.00     0.134 A 
ATOM      7  C   UNL     1     -15.690 -20.176  20.557  1.00  0.00     0.093 A 
ATOM      8  C   UNL     1     -14.832 -20.202  21.660  1.00  0.00     0.123 A 
ATOM      9  C   UNL     1     -13.897 -19.184  21.832  1.00  0.00     0.094 A 
ATOM     10  C   UNL     1     -13.829 -18.123  20.926  1.00  0.00     0.146 A 
ATOM     11  O   UNL     1     -12.932 -17.165  21.134  1.00  0.00    -0.456 OA
ENDROOT
BRANCH   1  12
ATOM     12  C   UNL     1     -11.753 -15.100  20.672  1.00  0.00     0.021 A 
ATOM     13  C   UNL     1     -10.626 -15.491  21.415  1.00  0.00     0.016 A 
ATOM     14  C   UNL     1      -9.624 -14.568  21.727  1.00  0.00     0.051 A 
ATOM     15  C   UNL     1      -9.726 -13.243  21.296  1.00  0.00     0.157 A 
ATOM     16  C   UNL     1     -11.844 -13.766  20.229  1.00  0.00     0.062 A 
ATOM     17  C   UNL     1     -10.839 -12.839  20.540  1.00  0.00     0.158 A 
BRANCH  15  18
ATOM     18  O   UNL     1      -8.711 -12.344  21.625  1.00  0.00    -0.504 OA
ATOM     19  H   UNL     1      -8.844 -11.611  22.311  1.00  0.00     0.293 HD
ENDBRANCH  15  18
BRANCH  17  20
ATOM     20  O   UNL     1     -10.939 -11.520  20.098  1.00  0.00    -0.504 OA
ATOM     21  H   UNL     1     -11.081 -10.753  20.746  1.00  0.00     0.293 HD
ENDBRANCH  17  20
ENDBRANCH   1  12
BRANCH   6  22
ATOM     22  O   UNL     1     -16.465 -19.261  18.501  1.00  0.00    -0.507 OA
ATOM     23  H   UNL     1     -16.194 -19.061  17.550  1.00  0.00     0.293 HD
ENDBRANCH   6  22
BRANCH   8  24
ATOM     24  O   UNL     1     -14.897 -21.240  22.587  1.00  0.00    -0.508 OA
ATOM     25  H   UNL     1     -14.704 -21.086  23.569  1.00  0.00     0.293 HD
ENDBRANCH   8  24
TORSDOF 5
ENDMDL
MODEL 6
REMARK VINA RESULT:    -6.217      2.239      3.411
REMARK INTER + INTRA:          -7.602
REMARK INTER:                  -7.284
REMARK INTRA:                  -0.318
REMARK UNBOUND:                -0.295
REMARK SMILES O=c1cc(-c2ccc(O)c(O)c2)oc2cc(O)cc(O)c12
REMARK SMILES IDX 4 1 3 2 2 3 1 4 21 5 19 6 18 7 16 8 15 9 14 10 13 11 5 12
REMARK SMILES IDX 6 13 7 14 8 15 12 16 10 17 9 18 11 20 20 22 17 24
REMARK H PARENT 9 19 11 21 20 23 17 25
REMARK Flexibility Score: inf
ROOT
ATOM      1  C   UNL     1     -14.821 -17.499  19.750  1.00  0.00     0.138 A 
ATOM      2  C   UNL     1     -14.076 -18.291  20.636  1.00  0.00     0.100 A 
ATOM      3  C   UNL     1     -12.876 -17.802  21.156  1.00  0.00     0.197 A 
ATOM      4  O   UNL     1     -12.261 -18.509  21.995  1.00  0.00    -0.289 OA
ATOM      5  C   UNL     1     -12.406 -16.527  20.761  1.00  0.00     0.107 A 
ATOM      6  C   UNL     1     -11.177 -15.945  21.193  1.00  0.00     0.134 A 
ATOM      7  C   UNL     1     -10.872 -14.628  20.827  1.00  0.00     0.093 A 
ATOM      8  C   UNL     1     -11.722 -13.894  19.995  1.00  0.00     0.123 A 
ATOM      9  C   UNL     1     -12.897 -14.474  19.524  1.00  0.00     0.094 A 
ATOM     10  C   UNL     1     -13.247 -15.773  19.899  1.00  0.00     0.146 A 
ATOM     11  O   UNL     1     -14.385 -16.284  19.439  1.00  0.00    -0.456 OA
ENDROOT
BRANCH   1  12
ATOM     12  C   UNL     1     -16.103 -17.970  19.168  1.00  0.00     0.021 A 
ATOM     13  C   UNL     1     -16.564 -19.264  19.467  1.00  0.00     0.016 A 
ATOM     14  C   UNL     1     -17.771 -19.727  18.937  1.00  0.00     0.051 A 
ATOM     15  C   UNL     1     -18.542 -18.907  18.109  1.00  0.00     0.157 A 
ATOM     16  C   UNL     1     -16.889 -17.142  18.342  1.00  0.00     0.062 A 
ATOM     17  C   UNL     1     -18.102 -17.607  17.812  1.00  0.00     0.158 A 
BRANCH  15  18
ATOM     18  O   UNL     1     -19.741 -19.399  17.595  1.00  0.00    -0.504 OA
ATOM     19  H   UNL     1     -19.835 -19.683  16.627  1.00  0.00     0.293 HD
ENDBRANCH  15  18
BRANCH  17  20
ATOM     20  O   UNL     1     -18.872 -16.780  16.996  1.00  0.00    -0.504 OA
ATOM     21  H   UNL     1     -18.697 -15.783  16.934  1.00  0.00     0.293 HD
ENDBRANCH  17  20
ENDBRANCH   1  12
BRANCH   6  22
ATOM     22  O   UNL     1     -10.219 -16.618  21.956  1.00  0.00    -0.507 OA
ATOM     23  H   UNL     1      -9.221 -16.498  21.866  1.00  0.00     0.293 HD
ENDBRANCH   6  22
BRANCH   8  24
ATOM     24  O   UNL     1     -11.402 -12.590  19.625  1.00  0.00    -0.508 OA
ATOM     25  H   UNL     1     -11.110 -11.901  20.308  1.00  0.00     0.293 HD
ENDBRANCH   8  24
TORSDOF 5
ENDMDL
MODEL 7
REMARK VINA RESULT:    -6.211      3.997      7.007
REMARK INTER + INTRA:          -7.595
REMARK INTER:                  -7.319
REMARK INTRA:                  -0.276
REMARK UNBOUND:                -0.295
REMARK SMILES O=c1cc(-c2ccc(O)c(O)c2)oc2cc(O)cc(O)c12
REMARK SMILES IDX 4 1 3 2 2 3 1 4 21 5 19 6 18 7 16 8 15 9 14 10 13 11 5 12
REMARK SMILES IDX 6 13 7 14 8 15 12 16 10 17 9 18 11 20 20 22 17 24
REMARK H PARENT 9 19 11 21 20 23 17 25
REMARK Flexibility Score: inf
ROOT
ATOM      1  C   UNL     1     -16.367 -17.469  17.704  1.00  0.00     0.138 A 
ATOM      2  C   UNL     1     -15.338 -16.539  17.912  1.00  0.00     0.100 A 
ATOM      3  C   UNL     1     -14.442 -16.726  18.966  1.00  0.00     0.197 A 
ATOM      4  O   UNL     1     -13.493 -15.910  19.090  1.00  0.00    -0.289 OA
ATOM      5  C   UNL     1     -14.597 -17.833  19.834  1.00  0.00     0.107 A 
ATOM      6  C   UNL     1     -13.770 -18.101  20.965  1.00  0.00     0.134 A 
ATOM      7  C   UNL     1     -13.947 -19.291  21.682  1.00  0.00     0.093 A 
ATOM      8  C   UNL     1     -14.961 -20.192  21.347  1.00  0.00     0.123 A 
ATOM      9  C   UNL     1     -15.809 -19.912  20.277  1.00  0.00     0.094 A 
ATOM     10  C   UNL     1     -15.636 -18.752  19.520  1.00  0.00     0.146 A 
ATOM     11  O   UNL     1     -16.457 -18.529  18.499  1.00  0.00    -0.456 OA
ENDROOT
BRANCH   1  12
ATOM     12  C   UNL     1     -17.347 -17.319  16.599  1.00  0.00     0.021 A 
ATOM     13  C   UNL     1     -17.630 -18.419  15.771  1.00  0.00     0.016 A 
ATOM     14  C   UNL     1     -18.555 -18.305  14.730  1.00  0.00     0.051 A 
ATOM     15  C   UNL     1     -19.218 -17.097  14.502  1.00  0.00     0.157 A 
ATOM     16  C   UNL     1     -18.028 -16.106  16.373  1.00  0.00     0.062 A 
ATOM     17  C   UNL     1     -18.957 -15.992  15.329  1.00  0.00     0.158 A 
BRANCH  15  18
ATOM     18  O   UNL     1     -20.134 -17.014  13.454  1.00  0.00    -0.504 OA
ATOM     19  H   UNL     1     -20.955 -16.423  13.502  1.00  0.00     0.293 HD
ENDBRANCH  15  18
BRANCH  17  20
ATOM     20  O   UNL     1     -19.625 -14.788  15.113  1.00  0.00    -0.504 OA
ATOM     21  H   UNL     1     -19.193 -14.025  14.602  1.00  0.00     0.293 HD
ENDBRANCH  17  20
ENDBRANCH   1  12
BRANCH   6  22
ATOM     22  O   UNL     1     -12.784 -17.229  21.436  1.00  0.00    -0.507 OA
ATOM     23  H   UNL     1     -12.936 -16.503  22.120  1.00  0.00     0.293 HD
ENDBRANCH   6  22
BRANCH   8  24
ATOM     24  O   UNL     1     -15.139 -21.366  22.076  1.00  0.00    -0.508 OA
ATOM     25  H   UNL     1     -14.352 -21.874  22.463  1.00  0.00     0.293 HD
ENDBRANCH   8  24
TORSDOF 5
ENDMDL
MODEL 8
REMARK VINA RESULT:    -6.174      1.725      6.720
REMARK INTER + INTRA:          -7.551
REMARK INTER:                  -7.256
REMARK INTRA:                  -0.296
REMARK UNBOUND:                -0.295
REMARK SMILES O=c1cc(-c2ccc(O)c(O)c2)oc2cc(O)cc(O)c12
REMARK SMILES IDX 4 1 3 2 2 3 1 4 21 5 19 6 18 7 16 8 15 9 14 10 13 11 5 12
REMARK SMILES IDX 6 13 7 14 8 15 12 16 10 17 9 18 11 20 20 22 17 24
REMARK H PARENT 9 19 11 21 20 23 17 25
REMARK Flexibility Score: inf
ROOT
ATOM      1  C   UNL     1     -12.950 -17.738  21.108  1.00  0.00     0.138 A 
ATOM      2  C   UNL     1     -13.464 -18.898  21.705  1.00  0.00     0.100 A 
ATOM      3  C   UNL     1     -14.695 -19.403  21.283  1.00  0.00     0.197 A 
ATOM      4  O   UNL     1     -15.102 -20.478  21.793  1.00  0.00    -0.289 OA
ATOM      5  C   UNL     1     -15.427 -18.725  20.279  1.00  0.00     0.107 A 
ATOM      6  C   UNL     1     -16.711 -19.124  19.800  1.00  0.00     0.134 A 
ATOM      7  C   UNL     1     -17.287 -18.441  18.722  1.00  0.00     0.093 A 
ATOM      8  C   UNL     1     -16.655 -17.335  18.147  1.00  0.00     0.123 A 
ATOM      9  C   UNL     1     -15.427 -16.905  18.644  1.00  0.00     0.094 A 
ATOM     10  C   UNL     1     -14.809 -17.586  19.695  1.00  0.00     0.146 A 
ATOM     11  O   UNL     1     -13.631 -17.152  20.130  1.00  0.00    -0.456 OA
ENDROOT
BRANCH   1  12
ATOM     12  C   UNL     1     -11.647 -17.157  21.519  1.00  0.00     0.021 A 
ATOM     13  C   UNL     1     -11.268 -15.894  21.033  1.00  0.00     0.016 A 
ATOM     14  C   UNL     1     -10.051 -15.322  21.411  1.00  0.00     0.051 A 
ATOM     15  C   UNL     1      -9.195 -15.996  22.287  1.00  0.00     0.157 A 
ATOM     16  C   UNL     1     -10.786 -17.826  22.412  1.00  0.00     0.062 A 
ATOM     17  C   UNL     1      -9.565 -17.252  22.793  1.00  0.00     0.158 A 
BRANCH  15  18
ATOM     18  O   UNL     1      -7.986 -15.400  22.644  1.00  0.00    -0.504 OA
ATOM     19  H   UNL     1      -7.941 -14.619  23.288  1.00  0.00     0.293 HD
ENDBRANCH  15  18
BRANCH  17  20
ATOM     20  O   UNL     1      -8.720 -17.923  23.676  1.00  0.00    -0.504 OA
ATOM     21  H   UNL     1      -7.997 -18.552  23.344  1.00  0.00     0.293 HD
ENDBRANCH  17  20
ENDBRANCH   1  12
BRANCH   6  22
ATOM     22  O   UNL     1     -17.465 -20.160  20.357  1.00  0.00    -0.507 OA
ATOM     23  H   UNL     1     -17.990 -20.840  19.828  1.00  0.00     0.293 HD
ENDBRANCH   6  22
BRANCH   8  24
ATOM     24  O   UNL     1     -17.244 -16.653  17.084  1.00  0.00    -0.508 OA
ATOM     25  H   UNL     1     -18.244 -16.677  16.928  1.00  0.00     0.293 HD
ENDBRANCH   8  24
TORSDOF 5
ENDMDL
MODEL 9
REMARK VINA RESULT:    -6.043      5.624      8.717
REMARK INTER + INTRA:          -7.398
REMARK INTER:                  -7.131
REMARK INTRA:                  -0.266
REMARK UNBOUND:                -0.295
REMARK SMILES O=c1cc(-c2ccc(O)c(O)c2)oc2cc(O)cc(O)c12
REMARK SMILES IDX 4 1 3 2 2 3 1 4 21 5 19 6 18 7 16 8 15 9 14 10 13 11 5 12
REMARK SMILES IDX 6 13 7 14 8 15 12 16 10 17 9 18 11 20 20 22 17 24
REMARK H PARENT 9 19 11 21 20 23 17 25
REMARK Flexibility Score: inf
ROOT
ATOM      1  C   UNL     1      -6.305 -14.187  20.117  1.00  0.00     0.138 A 
ATOM      2  C   UNL     1      -6.522 -13.776  21.440  1.00  0.00     0.100 A 
ATOM      3  C   UNL     1      -7.759 -13.240  21.801  1.00  0.00     0.197 A 
ATOM      4  O   UNL     1      -7.945 -12.936  23.008  1.00  0.00    -0.289 OA
ATOM      5  C   UNL     1      -8.773 -13.087  20.825  1.00  0.00     0.107 A 
ATOM      6  C   UNL     1     -10.057 -12.515  21.069  1.00  0.00     0.134 A 
ATOM      7  C   UNL     1     -11.020 -12.523  20.052  1.00  0.00     0.093 A 
ATOM      8  C   UNL     1     -10.724 -13.026  18.782  1.00  0.00     0.123 A 
ATOM      9  C   UNL     1      -9.456 -13.537  18.519  1.00  0.00     0.094 A 
ATOM     10  C   UNL     1      -8.484 -13.576  19.522  1.00  0.00     0.146 A 
ATOM     11  O   UNL     1      -7.291 -14.084  19.233  1.00  0.00    -0.456 OA
ENDROOT
BRANCH   1  12
ATOM     12  C   UNL     1      -5.008 -14.762  19.679  1.00  0.00     0.021 A 
ATOM     13  C   UNL     1      -4.859 -16.159  19.611  1.00  0.00     0.016 A 
ATOM     14  C   UNL     1      -3.652 -16.725  19.194  1.00  0.00     0.051 A 
ATOM     15  C   UNL     1      -2.577 -15.910  18.829  1.00  0.00     0.157 A 
ATOM     16  C   UNL     1      -3.926 -13.945  19.297  1.00  0.00     0.062 A 
ATOM     17  C   UNL     1      -2.715 -14.513  18.877  1.00  0.00     0.158 A 
BRANCH  15  18
ATOM     18  O   UNL     1      -1.385 -16.505  18.419  1.00  0.00    -0.504 OA
ATOM     19  H   UNL     1      -1.203 -16.732  17.448  1.00  0.00     0.293 HD
ENDBRANCH  15  18
BRANCH  17  20
ATOM     20  O   UNL     1      -1.649 -13.695  18.503  1.00  0.00    -0.504 OA
ATOM     21  H   UNL     1      -0.908 -14.033  17.899  1.00  0.00     0.293 HD
ENDBRANCH  17  20
ENDBRANCH   1  12
BRANCH   6  22
ATOM     22  O   UNL     1     -10.426 -11.910  22.274  1.00  0.00    -0.507 OA
ATOM     23  H   UNL     1      -9.791 -11.687  23.025  1.00  0.00     0.293 HD
ENDBRANCH   6  22
BRANCH   8  24
ATOM     24  O   UNL     1     -11.685 -13.016  17.773  1.00  0.00    -0.508 OA
ATOM     25  H   UNL     1     -12.294 -12.220  17.629  1.00  0.00     0.293 HD
ENDBRANCH   8  24
TORSDOF 5
ENDMDL
