MODEL 1
REMARK VINA RESULT:    -3.844      0.000      0.000
REMARK INTER + INTRA:          -4.379
REMARK INTER:                  -4.293
REMARK INTRA:                  -0.086
REMARK UNBOUND:                -0.086
REMARK SMILES CCc1ccc(O)cc1O
REMARK SMILES IDX 3 1 9 2 8 3 6 4 5 5 4 6 2 7 1 8 10 9 7 11
REMARK H PARENT 10 10 7 12
REMARK Flexibility Score: inf
ROOT
ATOM      1  C   UNL     1     -12.982  81.964 -10.453  1.00  0.00    -0.006 A 
ATOM      2  C   UNL     1     -13.141  81.564  -9.102  1.00  0.00     0.122 A 
ATOM      3  C   UNL     1     -13.789  82.415  -8.199  1.00  0.00     0.092 A 
ATOM      4  C   UNL     1     -14.297  83.648  -8.618  1.00  0.00     0.119 A 
ATOM      5  C   UNL     1     -14.159  84.036  -9.955  1.00  0.00     0.047 A 
ATOM      6  C   UNL     1     -13.512  83.200 -10.866  1.00  0.00     0.011 A 
ENDROOT
BRANCH   1   7
ATOM      7  C   UNL     1     -12.303  81.086 -11.478  1.00  0.00     0.036 C 
ATOM      8  C   UNL     1     -13.038  81.136 -12.814  1.00  0.00     0.009 C 
ENDBRANCH   1   7
BRANCH   2   9
ATOM      9  O   UNL     1     -12.675  80.337  -8.624  1.00  0.00    -0.508 OA
ATOM     10  H   UNL     1     -12.845  80.002  -7.686  1.00  0.00     0.293 HD
ENDBRANCH   2   9
BRANCH   4  11
ATOM     11  O   UNL     1     -14.941  84.475  -7.700  1.00  0.00    -0.508 OA
ATOM     12  H   UNL     1     -15.774  84.174  -7.209  1.00  0.00     0.293 HD
ENDBRANCH   4  11
TORSDOF 3
ENDMDL
MODEL 2
REMARK VINA RESULT:    -3.786      2.169      2.645
REMARK INTER + INTRA:          -4.315
REMARK INTER:                  -4.231
REMARK INTRA:                  -0.084
REMARK UNBOUND:                -0.086
REMARK SMILES CCc1ccc(O)cc1O
REMARK SMILES IDX 3 1 9 2 8 3 6 4 5 5 4 6 2 7 1 8 10 9 7 11
REMARK H PARENT 10 10 7 12
REMARK Flexibility Score: inf
ROOT
ATOM      1  C   UNL     1     -11.809  81.421 -10.477  1.00  0.00    -0.006 A 
ATOM      2  C   UNL     1     -10.753  81.951  -9.694  1.00  0.00     0.122 A 
ATOM      3  C   UNL     1     -10.961  82.210  -8.334  1.00  0.00     0.092 A 
ATOM      4  C   UNL     1     -12.194  81.936  -7.735  1.00  0.00     0.119 A 
ATOM      5  C   UNL     1     -13.232  81.395  -8.502  1.00  0.00     0.047 A 
ATOM      6  C   UNL     1     -13.040  81.135  -9.860  1.00  0.00     0.011 A 
ENDROOT
BRANCH   1   7
ATOM      7  C   UNL     1     -11.643  81.110 -11.946  1.00  0.00     0.036 C 
ATOM      8  C   UNL     1     -12.981  81.188 -12.676  1.00  0.00     0.009 C 
ENDBRANCH   1   7
BRANCH   2   9
ATOM      9  O   UNL     1      -9.491  82.228 -10.225  1.00  0.00    -0.508 OA
ATOM     10  H   UNL     1      -8.726  81.568 -10.220  1.00  0.00     0.293 HD
ENDBRANCH   2   9
BRANCH   4  11
ATOM     11  O   UNL     1     -12.375  82.201  -6.379  1.00  0.00    -0.508 OA
ATOM     12  H   UNL     1     -12.734  83.092  -6.057  1.00  0.00     0.293 HD
ENDBRANCH   4  11
TORSDOF 3
ENDMDL
MODEL 3
REMARK VINA RESULT:    -3.736     13.514     14.175
REMARK INTER + INTRA:          -4.259
REMARK INTER:                  -4.164
REMARK INTRA:                  -0.095
REMARK UNBOUND:                -0.086
REMARK SMILES CCc1ccc(O)cc1O
REMARK SMILES IDX 3 1 9 2 8 3 6 4 5 5 4 6 2 7 1 8 10 9 7 11
REMARK H PARENT 10 10 7 12
REMARK Flexibility Score: inf
ROOT
ATOM      1  C   UNL     1      -5.025  90.242 -15.578  1.00  0.00    -0.006 A 
ATOM      2  C   UNL     1      -3.665  90.518 -15.292  1.00  0.00     0.122 A 
ATOM      3  C   UNL     1      -2.995  91.520 -16.005  1.00  0.00     0.092 A 
ATOM      4  C   UNL     1      -3.658  92.264 -16.984  1.00  0.00     0.119 A 
ATOM      5  C   UNL     1      -5.007  92.008 -17.255  1.00  0.00     0.047 A 
ATOM      6  C   UNL     1      -5.686  91.009 -16.555  1.00  0.00     0.011 A 
ENDROOT
BRANCH   1   7
ATOM      7  C   UNL     1      -5.805  89.183 -14.836  1.00  0.00     0.036 C 
ATOM      8  C   UNL     1      -6.918  89.808 -14.001  1.00  0.00     0.009 C 
ENDBRANCH   1   7
BRANCH   2   9
ATOM      9  O   UNL     1      -2.950  89.826 -14.311  1.00  0.00    -0.508 OA
ATOM     10  H   UNL     1      -3.028  88.829 -14.162  1.00  0.00     0.293 HD
ENDBRANCH   2   9
BRANCH   4  11
ATOM     11  O   UNL     1      -2.971  93.258 -17.678  1.00  0.00    -0.508 OA
ATOM     12  H   UNL     1      -3.070  94.237 -17.438  1.00  0.00     0.293 HD
ENDBRANCH   4  11
TORSDOF 3
ENDMDL
MODEL 4
REMARK VINA RESULT:    -3.685      9.183      9.675
REMARK INTER + INTRA:          -4.203
REMARK INTER:                  -4.107
REMARK INTRA:                  -0.095
REMARK UNBOUND:                -0.086
REMARK SMILES CCc1ccc(O)cc1O
REMARK SMILES IDX 3 1 9 2 8 3 6 4 5 5 4 6 2 7 1 8 10 9 7 11
REMARK H PARENT 10 10 7 12
REMARK Flexibility Score: inf
ROOT
ATOM      1  C   UNL     1      -3.659  83.198  -8.896  1.00  0.00    -0.006 A 
ATOM      2  C   UNL     1      -4.766  83.253  -9.780  1.00  0.00     0.122 A 
ATOM      3  C   UNL     1      -5.449  84.461  -9.963  1.00  0.00     0.092 A 
ATOM      4  C   UNL     1      -5.040  85.620  -9.297  1.00  0.00     0.119 A 
ATOM      5  C   UNL     1      -3.936  85.574  -8.440  1.00  0.00     0.047 A 
ATOM      6  C   UNL     1      -3.248  84.375  -8.244  1.00  0.00     0.011 A 
ENDROOT
BRANCH   1   7
ATOM      7  C   UNL     1      -2.875  81.928  -8.665  1.00  0.00     0.036 C 
ATOM      8  C   UNL     1      -3.138  81.369  -7.270  1.00  0.00     0.009 C 
ENDBRANCH   1   7
BRANCH   2   9
ATOM      9  O   UNL     1      -5.213  82.136 -10.491  1.00  0.00    -0.508 OA
ATOM     10  H   UNL     1      -5.899  81.485 -10.136  1.00  0.00     0.293 HD
ENDBRANCH   2   9
BRANCH   4  11
ATOM     11  O   UNL     1      -5.734  86.811  -9.498  1.00  0.00    -0.508 OA
ATOM     12  H   UNL     1      -6.411  86.910 -10.246  1.00  0.00     0.293 HD
ENDBRANCH   4  11
TORSDOF 3
ENDMDL
MODEL 5
REMARK VINA RESULT:    -3.663      2.235      2.693
REMARK INTER + INTRA:          -4.177
REMARK INTER:                  -4.101
REMARK INTRA:                  -0.076
REMARK UNBOUND:                -0.086
REMARK SMILES CCc1ccc(O)cc1O
REMARK SMILES IDX 3 1 9 2 8 3 6 4 5 5 4 6 2 7 1 8 10 9 7 11
REMARK H PARENT 10 10 7 12
REMARK Flexibility Score: inf
ROOT
ATOM      1  C   UNL     1     -12.530  82.395 -10.180  1.00  0.00    -0.006 A 
ATOM      2  C   UNL     1     -13.408  83.452 -10.524  1.00  0.00     0.122 A 
ATOM      3  C   UNL     1     -13.214  84.724  -9.972  1.00  0.00     0.092 A 
ATOM      4  C   UNL     1     -12.152  84.967  -9.097  1.00  0.00     0.119 A 
ATOM      5  C   UNL     1     -11.271  83.930  -8.770  1.00  0.00     0.047 A 
ATOM      6  C   UNL     1     -11.455  82.656  -9.311  1.00  0.00     0.011 A 
ENDROOT
BRANCH   1   7
ATOM      7  C   UNL     1     -12.680  81.005 -10.752  1.00  0.00     0.036 C 
ATOM      8  C   UNL     1     -12.106  80.929 -12.163  1.00  0.00     0.009 C 
ENDBRANCH   1   7
BRANCH   2   9
ATOM      9  O   UNL     1     -14.476  83.281 -11.409  1.00  0.00    -0.508 OA
ATOM     10  H   UNL     1     -14.364  82.998 -12.372  1.00  0.00     0.293 HD
ENDBRANCH   2   9
BRANCH   4  11
ATOM     11  O   UNL     1     -11.978  86.242  -8.562  1.00  0.00    -0.508 OA
ATOM     12  H   UNL     1     -11.064  86.581  -8.286  1.00  0.00     0.293 HD
ENDBRANCH   4  11
TORSDOF 3
ENDMDL
MODEL 6
REMARK VINA RESULT:    -3.634      2.322      4.053
REMARK INTER + INTRA:          -4.145
REMARK INTER:                  -4.061
REMARK INTRA:                  -0.084
REMARK UNBOUND:                -0.086
REMARK SMILES CCc1ccc(O)cc1O
REMARK SMILES IDX 3 1 9 2 8 3 6 4 5 5 4 6 2 7 1 8 10 9 7 11
REMARK H PARENT 10 10 7 12
REMARK Flexibility Score: inf
ROOT
ATOM      1  C   UNL     1     -12.937  84.604  -9.908  1.00  0.00    -0.006 A 
ATOM      2  C   UNL     1     -13.338  83.359 -10.455  1.00  0.00     0.122 A 
ATOM      3  C   UNL     1     -12.618  82.200 -10.142  1.00  0.00     0.092 A 
ATOM      4  C   UNL     1     -11.517  82.254  -9.283  1.00  0.00     0.119 A 
ATOM      5  C   UNL     1     -11.131  83.478  -8.727  1.00  0.00     0.047 A 
ATOM      6  C   UNL     1     -11.837  84.642  -9.032  1.00  0.00     0.011 A 
ENDROOT
BRANCH   1   7
ATOM      7  C   UNL     1     -13.680  85.887 -10.198  1.00  0.00     0.036 C 
ATOM      8  C   UNL     1     -12.722  87.074 -10.249  1.00  0.00     0.009 C 
ENDBRANCH   1   7
BRANCH   2   9
ATOM      9  O   UNL     1     -14.441  83.234 -11.303  1.00  0.00    -0.508 OA
ATOM     10  H   UNL     1     -14.368  83.171 -12.309  1.00  0.00     0.293 HD
ENDBRANCH   2   9
BRANCH   4  11
ATOM     11  O   UNL     1     -10.818  81.086  -8.986  1.00  0.00    -0.508 OA
ATOM     12  H   UNL     1     -10.557  80.426  -9.709  1.00  0.00     0.293 HD
ENDBRANCH   4  11
TORSDOF 3
ENDMDL
MODEL 7
REMARK VINA RESULT:    -3.583      8.400      9.122
REMARK INTER + INTRA:          -4.088
REMARK INTER:                  -4.003
REMARK INTRA:                  -0.085
REMARK UNBOUND:                -0.086
REMARK SMILES CCc1ccc(O)cc1O
REMARK SMILES IDX 3 1 9 2 8 3 6 4 5 5 4 6 2 7 1 8 10 9 7 11
REMARK H PARENT 10 10 7 12
REMARK Flexibility Score: inf
ROOT
ATOM      1  C   UNL     1      -4.153  82.354  -8.246  1.00  0.00    -0.006 A 
ATOM      2  C   UNL     1      -4.360  82.512  -9.639  1.00  0.00     0.122 A 
ATOM      3  C   UNL     1      -5.547  83.092 -10.102  1.00  0.00     0.092 A 
ATOM      4  C   UNL     1      -6.523  83.534  -9.206  1.00  0.00     0.119 A 
ATOM      5  C   UNL     1      -6.313  83.398  -7.829  1.00  0.00     0.047 A 
ATOM      6  C   UNL     1      -5.136  82.817  -7.353  1.00  0.00     0.011 A 
ENDROOT
BRANCH   1   7
ATOM      7  C   UNL     1      -2.890  81.746  -7.683  1.00  0.00     0.036 C 
ATOM      8  C   UNL     1      -3.207  80.777  -6.549  1.00  0.00     0.009 C 
ENDBRANCH   1   7
BRANCH   2   9
ATOM      9  O   UNL     1      -3.415  82.111 -10.587  1.00  0.00    -0.508 OA
ATOM     10  H   UNL     1      -3.229  82.620 -11.439  1.00  0.00     0.293 HD
ENDBRANCH   2   9
BRANCH   4  11
ATOM     11  O   UNL     1      -7.694  84.111  -9.692  1.00  0.00    -0.508 OA
ATOM     12  H   UNL     1      -7.765  85.108  -9.859  1.00  0.00     0.293 HD
ENDBRANCH   4  11
TORSDOF 3
ENDMDL
MODEL 8
REMARK VINA RESULT:    -3.533      9.196     10.165
REMARK INTER + INTRA:          -4.032
REMARK INTER:                  -3.929
REMARK INTRA:                  -0.103
REMARK UNBOUND:                -0.086
REMARK SMILES CCc1ccc(O)cc1O
REMARK SMILES IDX 3 1 9 2 8 3 6 4 5 5 4 6 2 7 1 8 10 9 7 11
REMARK H PARENT 10 10 7 12
REMARK Flexibility Score: inf
ROOT
ATOM      1  C   UNL     1      -3.588  81.657  -7.108  1.00  0.00    -0.006 A 
ATOM      2  C   UNL     1      -4.744  82.471  -7.199  1.00  0.00     0.122 A 
ATOM      3  C   UNL     1      -5.138  82.982  -8.441  1.00  0.00     0.092 A 
ATOM      4  C   UNL     1      -4.413  82.683  -9.598  1.00  0.00     0.119 A 
ATOM      5  C   UNL     1      -3.282  81.864  -9.515  1.00  0.00     0.047 A 
ATOM      6  C   UNL     1      -2.875  81.351  -8.282  1.00  0.00     0.011 A 
ENDROOT
BRANCH   1   7
ATOM      7  C   UNL     1      -3.118  81.067  -5.799  1.00  0.00     0.036 C 
ATOM      8  C   UNL     1      -3.522  79.600  -5.684  1.00  0.00     0.009 C 
ENDBRANCH   1   7
BRANCH   2   9
ATOM      9  O   UNL     1      -5.525  82.790  -6.085  1.00  0.00    -0.508 OA
ATOM     10  H   UNL     1      -6.428  83.240  -6.146  1.00  0.00     0.293 HD
ENDBRANCH   2   9
BRANCH   4  11
ATOM     11  O   UNL     1      -4.827  83.201 -10.823  1.00  0.00    -0.508 OA
ATOM     12  H   UNL     1      -5.640  82.836 -11.305  1.00  0.00     0.293 HD
ENDBRANCH   4  11
TORSDOF 3
ENDMDL
MODEL 9
REMARK VINA RESULT:    -2.413      9.967     10.129
REMARK INTER + INTRA:          -2.782
REMARK INTER:                  -2.693
REMARK INTRA:                  -0.089
REMARK UNBOUND:                -0.086
REMARK SMILES CCc1ccc(O)cc1O
REMARK SMILES IDX 3 1 9 2 8 3 6 4 5 5 4 6 2 7 1 8 10 9 7 11
REMARK H PARENT 10 10 7 12
REMARK Flexibility Score: inf
ROOT
ATOM      1  C   UNL     1      -4.843  85.503  -9.232  1.00  0.00    -0.006 A 
ATOM      2  C   UNL     1      -3.553  85.215  -8.720  1.00  0.00     0.122 A 
ATOM      3  C   UNL     1      -2.911  86.144  -7.894  1.00  0.00     0.092 A 
ATOM      4  C   UNL     1      -3.535  87.347  -7.552  1.00  0.00     0.119 A 
ATOM      5  C   UNL     1      -4.816  87.626  -8.039  1.00  0.00     0.047 A 
ATOM      6  C   UNL     1      -5.467  86.710  -8.867  1.00  0.00     0.011 A 
ENDROOT
BRANCH   1   7
ATOM      7  C   UNL     1      -5.593  84.537 -10.118  1.00  0.00     0.036 C 
ATOM      8  C   UNL     1      -6.296  83.467  -9.289  1.00  0.00     0.009 C 
ENDBRANCH   1   7
BRANCH   2   9
ATOM      9  O   UNL     1      -2.884  84.022  -9.006  1.00  0.00    -0.508 OA
ATOM     10  H   UNL     1      -2.743  83.671  -9.944  1.00  0.00     0.293 HD
ENDBRANCH   2   9
BRANCH   4  11
ATOM     11  O   UNL     1      -2.875  88.254  -6.726  1.00  0.00    -0.508 OA
ATOM     12  H   UNL     1      -2.568  87.997  -5.795  1.00  0.00     0.293 HD
ENDBRANCH   4  11
TORSDOF 3
ENDMDL
