MODEL 1
REMARK VINA RESULT:    -4.639      0.000      0.000
REMARK INTER + INTRA:          -6.403
REMARK INTER:                  -6.266
REMARK INTRA:                  -0.136
REMARK UNBOUND:                -0.136
REMARK SMILES CCCCCCCC(=O)[O-]
REMARK SMILES IDX 5 1 6 2 7 3 8 4 9 5 10 6 4 7 3 8 2 9 1 10
REMARK H PARENT
REMARK Flexibility Score: inf
ROOT
ATOM      1  C   UNL     1       8.592  10.723  43.011  1.00  0.00     0.000 C 
ENDROOT
BRANCH   1   2
ATOM      2  C   UNL     1       8.386  10.241  41.566  1.00  0.00     0.006 C 
BRANCH   2   3
ATOM      3  C   UNL     1       8.641  11.346  40.533  1.00  0.00     0.053 C 
BRANCH   3   4
ATOM      4  C   UNL     1       9.433  10.812  39.382  1.00  0.00     0.041 C 
ATOM      5  O   UNL     1       9.527   9.570  39.201  1.00  0.00    -0.550 OA
ATOM      6  O   UNL     1      10.108  11.684  38.538  1.00  0.00    -0.550 OA
ENDBRANCH   3   4
ENDBRANCH   2   3
ENDBRANCH   1   2
BRANCH   1   7
ATOM      7  C   UNL     1       8.890   9.567  43.983  1.00  0.00     0.000 C 
BRANCH   7   8
ATOM      8  C   UNL     1      10.046   9.885  44.942  1.00  0.00    -0.000 C 
BRANCH   8   9
ATOM      9  C   UNL     1      10.566   8.639  45.674  1.00  0.00    -0.003 C 
ATOM     10  C   UNL     1      12.028   8.368  45.327  1.00  0.00     0.004 C 
ENDBRANCH   8   9
ENDBRANCH   7   8
ENDBRANCH   1   7
TORSDOF 6
ENDMDL
MODEL 2
REMARK VINA RESULT:    -4.582      9.725     11.546
REMARK INTER + INTRA:          -6.325
REMARK INTER:                  -6.182
REMARK INTRA:                  -0.143
REMARK UNBOUND:                -0.136
REMARK SMILES CCCCCCCC(=O)[O-]
REMARK SMILES IDX 5 1 6 2 7 3 8 4 9 5 10 6 4 7 3 8 2 9 1 10
REMARK H PARENT
REMARK Flexibility Score: inf
ROOT
ATOM      1  C   UNL     1      20.628  10.637  41.822  1.00  0.00     0.000 C 
ENDROOT
BRANCH   1   2
ATOM      2  C   UNL     1      21.013  10.180  43.237  1.00  0.00     0.006 C 
BRANCH   2   3
ATOM      3  C   UNL     1      20.911  11.309  44.271  1.00  0.00     0.053 C 
BRANCH   3   4
ATOM      4  C   UNL     1      19.975  10.924  45.373  1.00  0.00     0.041 C 
ATOM      5  O   UNL     1      19.802   9.711  45.661  1.00  0.00    -0.550 OA
ATOM      6  O   UNL     1      19.257  11.901  46.049  1.00  0.00    -0.550 OA
ENDBRANCH   3   4
ENDBRANCH   2   3
ENDBRANCH   1   2
BRANCH   1   7
ATOM      7  C   UNL     1      20.513   9.463  40.832  1.00  0.00     0.000 C 
BRANCH   7   8
ATOM      8  C   UNL     1      19.373   9.654  39.821  1.00  0.00    -0.000 C 
BRANCH   8   9
ATOM      9  C   UNL     1      18.781   8.320  39.341  1.00  0.00    -0.003 C 
ATOM     10  C   UNL     1      17.302   8.213  39.703  1.00  0.00     0.004 C 
ENDBRANCH   8   9
ENDBRANCH   7   8
ENDBRANCH   1   7
TORSDOF 6
ENDMDL
MODEL 3
REMARK VINA RESULT:    -4.513      9.999     11.683
REMARK INTER + INTRA:          -6.232
REMARK INTER:                  -5.993
REMARK INTRA:                  -0.239
REMARK UNBOUND:                -0.136
REMARK SMILES CCCCCCCC(=O)[O-]
REMARK SMILES IDX 5 1 6 2 7 3 8 4 9 5 10 6 4 7 3 8 2 9 1 10
REMARK H PARENT
REMARK Flexibility Score: inf
ROOT
ATOM      1  C   UNL     1      20.579   9.806  41.617  1.00  0.00     0.000 C 
ENDROOT
BRANCH   1   2
ATOM      2  C   UNL     1      21.237  11.093  42.141  1.00  0.00     0.006 C 
BRANCH   2   3
ATOM      3  C   UNL     1      20.713  11.504  43.522  1.00  0.00     0.053 C 
BRANCH   3   4
ATOM      4  C   UNL     1      20.479  12.981  43.574  1.00  0.00     0.041 C 
ATOM      5  O   UNL     1      20.258  13.547  44.676  1.00  0.00    -0.550 OA
ATOM      6  O   UNL     1      20.456  13.723  42.401  1.00  0.00    -0.550 OA
ENDBRANCH   3   4
ENDBRANCH   2   3
ENDBRANCH   1   2
BRANCH   1   7
ATOM      7  C   UNL     1      21.156   9.357  40.262  1.00  0.00     0.000 C 
BRANCH   7   8
ATOM      8  C   UNL     1      20.095   8.724  39.349  1.00  0.00    -0.000 C 
BRANCH   8   9
ATOM      9  C   UNL     1      18.690   9.296  39.593  1.00  0.00    -0.003 C 
ATOM     10  C   UNL     1      17.633   8.195  39.546  1.00  0.00     0.004 C 
ENDBRANCH   8   9
ENDBRANCH   7   8
ENDBRANCH   1   7
TORSDOF 6
ENDMDL
MODEL 4
REMARK VINA RESULT:    -4.494      1.986      2.337
REMARK INTER + INTRA:          -6.206
REMARK INTER:                  -5.979
REMARK INTRA:                  -0.227
REMARK UNBOUND:                -0.136
REMARK SMILES CCCCCCCC(=O)[O-]
REMARK SMILES IDX 5 1 6 2 7 3 8 4 9 5 10 6 4 7 3 8 2 9 1 10
REMARK H PARENT
REMARK Flexibility Score: inf
ROOT
ATOM      1  C   UNL     1       8.887  10.048  43.375  1.00  0.00     0.000 C 
ENDROOT
BRANCH   1   2
ATOM      2  C   UNL     1       7.984  11.122  42.748  1.00  0.00     0.006 C 
BRANCH   2   3
ATOM      3  C   UNL     1       8.492  11.594  41.380  1.00  0.00     0.053 C 
BRANCH   3   4
ATOM      4  C   UNL     1       8.551  13.089  41.332  1.00  0.00     0.041 C 
ATOM      5  O   UNL     1       8.259  13.766  42.353  1.00  0.00    -0.550 OA
ATOM      6  O   UNL     1       8.878  13.735  40.148  1.00  0.00    -0.550 OA
ENDBRANCH   3   4
ENDBRANCH   2   3
ENDBRANCH   1   2
BRANCH   1   7
ATOM      7  C   UNL     1       8.308   9.480  44.684  1.00  0.00     0.000 C 
BRANCH   7   8
ATOM      8  C   UNL     1       9.384   8.848  45.580  1.00  0.00    -0.000 C 
BRANCH   8   9
ATOM      9  C   UNL     1      10.783   9.425  45.319  1.00  0.00    -0.003 C 
ATOM     10  C   UNL     1      11.855   8.345  45.444  1.00  0.00     0.004 C 
ENDBRANCH   8   9
ENDBRANCH   7   8
ENDBRANCH   1   7
TORSDOF 6
ENDMDL
MODEL 5
REMARK VINA RESULT:    -4.471      1.281      1.720
REMARK INTER + INTRA:          -6.175
REMARK INTER:                  -5.964
REMARK INTRA:                  -0.212
REMARK UNBOUND:                -0.136
REMARK SMILES CCCCCCCC(=O)[O-]
REMARK SMILES IDX 5 1 6 2 7 3 8 4 9 5 10 6 4 7 3 8 2 9 1 10
REMARK H PARENT
REMARK Flexibility Score: inf
ROOT
ATOM      1  C   UNL     1       8.924  10.430  43.589  1.00  0.00     0.000 C 
ENDROOT
BRANCH   1   2
ATOM      2  C   UNL     1       8.206  10.703  42.258  1.00  0.00     0.006 C 
BRANCH   2   3
ATOM      3  C   UNL     1       8.251  12.183  41.855  1.00  0.00     0.053 C 
BRANCH   3   4
ATOM      4  C   UNL     1       8.931  12.343  40.532  1.00  0.00     0.041 C 
ATOM      5  O   UNL     1       9.129  13.492  40.058  1.00  0.00    -0.550 OA
ATOM      6  O   UNL     1       9.299  11.223  39.799  1.00  0.00    -0.550 OA
ENDBRANCH   3   4
ENDBRANCH   2   3
ENDBRANCH   1   2
BRANCH   1   7
ATOM      7  C   UNL     1       8.622   9.027  44.147  1.00  0.00     0.000 C 
BRANCH   7   8
ATOM      8  C   UNL     1       9.404   8.723  45.434  1.00  0.00    -0.000 C 
BRANCH   8   9
ATOM      9  C   UNL     1      10.798   9.367  45.444  1.00  0.00    -0.003 C 
ATOM     10  C   UNL     1      11.895   8.305  45.445  1.00  0.00     0.004 C 
ENDBRANCH   8   9
ENDBRANCH   7   8
ENDBRANCH   1   7
TORSDOF 6
ENDMDL
MODEL 6
REMARK VINA RESULT:    -4.430      1.981      2.433
REMARK INTER + INTRA:          -6.121
REMARK INTER:                  -5.922
REMARK INTRA:                  -0.199
REMARK UNBOUND:                -0.136
REMARK SMILES CCCCCCCC(=O)[O-]
REMARK SMILES IDX 5 1 6 2 7 3 8 4 9 5 10 6 4 7 3 8 2 9 1 10
REMARK H PARENT
REMARK Flexibility Score: inf
ROOT
ATOM      1  C   UNL     1       8.294   9.933  42.331  1.00  0.00     0.000 C 
ENDROOT
BRANCH   1   2
ATOM      2  C   UNL     1       8.450  11.186  41.454  1.00  0.00     0.006 C 
BRANCH   2   3
ATOM      3  C   UNL     1       8.702  12.455  42.278  1.00  0.00     0.053 C 
BRANCH   3   4
ATOM      4  C   UNL     1       9.257  13.540  41.409  1.00  0.00     0.041 C 
ATOM      5  O   UNL     1       9.825  14.537  41.927  1.00  0.00    -0.550 OA
ATOM      6  O   UNL     1       9.102  13.474  40.031  1.00  0.00    -0.550 OA
ENDBRANCH   3   4
ENDBRANCH   2   3
ENDBRANCH   1   2
BRANCH   1   7
ATOM      7  C   UNL     1       8.782  10.157  43.774  1.00  0.00     0.000 C 
BRANCH   7   8
ATOM      8  C   UNL     1       9.527   8.939  44.341  1.00  0.00    -0.000 C 
BRANCH   8   9
ATOM      9  C   UNL     1      10.602   9.328  45.366  1.00  0.00    -0.003 C 
ATOM     10  C   UNL     1      11.738   8.309  45.385  1.00  0.00     0.004 C 
ENDBRANCH   8   9
ENDBRANCH   7   8
ENDBRANCH   1   7
TORSDOF 6
ENDMDL
MODEL 7
REMARK VINA RESULT:    -4.208     11.439     12.595
REMARK INTER + INTRA:          -5.820
REMARK INTER:                  -5.350
REMARK INTRA:                  -0.471
REMARK UNBOUND:                -0.136
REMARK SMILES CCCCCCCC(=O)[O-]
REMARK SMILES IDX 5 1 6 2 7 3 8 4 9 5 10 6 4 7 3 8 2 9 1 10
REMARK H PARENT
REMARK Flexibility Score: inf
ROOT
ATOM      1  C   UNL     1      19.096  14.833  42.758  1.00  0.00     0.000 C 
ENDROOT
BRANCH   1   2
ATOM      2  C   UNL     1      20.154  14.079  43.578  1.00  0.00     0.006 C 
BRANCH   2   3
ATOM      3  C   UNL     1      20.650  12.809  42.876  1.00  0.00     0.053 C 
BRANCH   3   4
ATOM      4  C   UNL     1      20.551  11.631  43.793  1.00  0.00     0.041 C 
ATOM      5  O   UNL     1      20.970  10.503  43.422  1.00  0.00    -0.550 OA
ATOM      6  O   UNL     1      19.952  11.768  45.038  1.00  0.00    -0.550 OA
ENDBRANCH   3   4
ENDBRANCH   2   3
ENDBRANCH   1   2
BRANCH   1   7
ATOM      7  C   UNL     1      19.467  16.311  42.532  1.00  0.00     0.000 C 
BRANCH   7   8
ATOM      8  C   UNL     1      20.982  16.557  42.605  1.00  0.00    -0.000 C 
BRANCH   8   9
ATOM      9  C   UNL     1      21.648  16.544  41.222  1.00  0.00    -0.003 C 
ATOM     10  C   UNL     1      22.755  15.494  41.154  1.00  0.00     0.004 C 
ENDBRANCH   8   9
ENDBRANCH   7   8
ENDBRANCH   1   7
TORSDOF 6
ENDMDL
MODEL 8
REMARK VINA RESULT:    -4.164     10.848     11.577
REMARK INTER + INTRA:          -5.762
REMARK INTER:                  -5.427
REMARK INTRA:                  -0.335
REMARK UNBOUND:                -0.136
REMARK SMILES CCCCCCCC(=O)[O-]
REMARK SMILES IDX 5 1 6 2 7 3 8 4 9 5 10 6 4 7 3 8 2 9 1 10
REMARK H PARENT
REMARK Flexibility Score: inf
ROOT
ATOM      1  C   UNL     1      20.689  12.197  42.716  1.00  0.00     0.000 C 
ENDROOT
BRANCH   1   2
ATOM      2  C   UNL     1      20.860  13.709  42.497  1.00  0.00     0.006 C 
BRANCH   2   3
ATOM      3  C   UNL     1      19.755  14.532  43.170  1.00  0.00     0.053 C 
BRANCH   3   4
ATOM      4  C   UNL     1      19.896  15.980  42.821  1.00  0.00     0.041 C 
ATOM      5  O   UNL     1      21.025  16.535  42.870  1.00  0.00    -0.550 OA
ATOM      6  O   UNL     1      18.775  16.729  42.491  1.00  0.00    -0.550 OA
ENDBRANCH   3   4
ENDBRANCH   2   3
ENDBRANCH   1   2
BRANCH   1   7
ATOM      7  C   UNL     1      21.197  11.739  44.095  1.00  0.00     0.000 C 
BRANCH   7   8
ATOM      8  C   UNL     1      20.376  10.574  44.669  1.00  0.00    -0.000 C 
BRANCH   8   9
ATOM      9  C   UNL     1      19.956  10.810  46.127  1.00  0.00    -0.003 C 
ATOM     10  C   UNL     1      19.257  12.158  46.286  1.00  0.00     0.004 C 
ENDBRANCH   8   9
ENDBRANCH   7   8
ENDBRANCH   1   7
TORSDOF 6
ENDMDL
MODEL 9
REMARK VINA RESULT:    -4.117      4.426      5.631
REMARK INTER + INTRA:          -5.697
REMARK INTER:                  -5.374
REMARK INTRA:                  -0.323
REMARK UNBOUND:                -0.136
REMARK SMILES CCCCCCCC(=O)[O-]
REMARK SMILES IDX 5 1 6 2 7 3 8 4 9 5 10 6 4 7 3 8 2 9 1 10
REMARK H PARENT
REMARK Flexibility Score: inf
ROOT
ATOM      1  C   UNL     1       8.005  12.362  41.351  1.00  0.00     0.000 C 
ENDROOT
BRANCH   1   2
ATOM      2  C   UNL     1       9.020  13.287  42.040  1.00  0.00     0.006 C 
BRANCH   2   3
ATOM      3  C   UNL     1       9.314  14.553  41.225  1.00  0.00     0.053 C 
BRANCH   3   4
ATOM      4  C   UNL     1       9.185  15.770  42.085  1.00  0.00     0.041 C 
ATOM      5  O   UNL     1       9.924  16.769  41.882  1.00  0.00    -0.550 OA
ATOM      6  O   UNL     1       8.286  15.782  43.143  1.00  0.00    -0.550 OA
ENDBRANCH   3   4
ENDBRANCH   2   3
ENDBRANCH   1   2
BRANCH   1   7
ATOM      7  C   UNL     1       8.590  10.972  41.037  1.00  0.00     0.000 C 
BRANCH   7   8
ATOM      8  C   UNL     1       8.160  10.448  39.659  1.00  0.00    -0.000 C 
BRANCH   8   9
ATOM      9  C   UNL     1       9.341  10.303  38.688  1.00  0.00    -0.003 C 
ATOM     10  C   UNL     1      10.023  11.648  38.448  1.00  0.00     0.004 C 
ENDBRANCH   8   9
ENDBRANCH   7   8
ENDBRANCH   1   7
TORSDOF 6
ENDMDL
