MODEL 1
REMARK VINA RESULT:    -5.941      0.000      0.000
REMARK INTER + INTRA:          -9.080
REMARK INTER:                  -8.372
REMARK INTRA:                  -0.709
REMARK UNBOUND:                -0.709
REMARK SMILES COc1ccc(-c2cc(=O)c3c(OC)c(OC)c(OC)c(OC)c3o2)cc1OC
REMARK SMILES IDX 7 1 8 2 9 3 10 4 11 5 24 6 25 7 21 8 18 9 15 10 12 11 6 12
REMARK SMILES IDX 3 13 27 14 4 15 26 16 5 17 2 18 1 19 28 20 29 21 22 22 23 23
REMARK SMILES IDX 13 24 14 25 19 26 20 27 16 28 17 29
REMARK H PARENT
REMARK Flexibility Score: inf
ROOT
ATOM      1  C   UNL     1     122.207 125.131 138.807  1.00  0.00     0.138 A 
ATOM      2  C   UNL     1     121.050 124.854 139.549  1.00  0.00     0.100 A 
ATOM      3  C   UNL     1     121.156 124.144 140.744  1.00  0.00     0.197 A 
ATOM      4  O   UNL     1     120.110 123.924 141.412  1.00  0.00    -0.289 OA
ATOM      5  C   UNL     1     122.422 123.706 141.187  1.00  0.00     0.115 A 
ATOM      6  C   UNL     1     123.544 124.061 140.408  1.00  0.00     0.188 A 
ATOM      7  O   UNL     1     123.390 124.738 139.272  1.00  0.00    -0.452 OA
ATOM      8  C   UNL     1     124.831 123.685 140.813  1.00  0.00     0.209 A 
ATOM      9  C   UNL     1     125.026 122.946 141.988  1.00  0.00     0.211 A 
ATOM     10  C   UNL     1     123.913 122.599 142.795  1.00  0.00     0.208 A 
ATOM     11  C   UNL     1     122.606 122.932 142.358  1.00  0.00     0.179 A 
ENDROOT
BRANCH   1  12
ATOM     12  C   UNL     1     122.148 125.865 137.518  1.00  0.00     0.021 A 
ATOM     13  C   UNL     1     122.078 127.296 135.084  1.00  0.00     0.160 A 
ATOM     14  C   UNL     1     121.725 125.939 135.107  1.00  0.00     0.161 A 
ATOM     15  C   UNL     1     122.475 127.930 136.275  1.00  0.00     0.051 A 
ATOM     16  C   UNL     1     121.765 125.228 136.323  1.00  0.00     0.062 A 
ATOM     17  C   UNL     1     122.513 127.220 137.476  1.00  0.00     0.016 A 
BRANCH  13  18
ATOM     18  O   UNL     1     122.025 127.980 133.859  1.00  0.00    -0.493 OA
ATOM     19  C   UNL     1     122.354 129.354 133.687  1.00  0.00     0.278 C 
ENDBRANCH  13  18
BRANCH  14  20
ATOM     20  O   UNL     1     121.342 125.332 133.900  1.00  0.00    -0.493 OA
ATOM     21  C   UNL     1     120.023 124.883 133.604  1.00  0.00     0.278 C 
ENDBRANCH  14  20
ENDBRANCH   1  12
BRANCH   8  22
ATOM     22  O   UNL     1     125.945 124.029 140.044  1.00  0.00    -0.490 OA
ATOM     23  C   UNL     1     126.589 125.292 140.173  1.00  0.00     0.278 C 
ENDBRANCH   8  22
BRANCH  11  24
ATOM     24  O   UNL     1     121.496 122.456 143.058  1.00  0.00    -0.492 OA
ATOM     25  C   UNL     1     121.076 121.102 142.938  1.00  0.00     0.278 C 
ENDBRANCH  11  24
BRANCH   9  26
ATOM     26  O   UNL     1     126.358 122.611 142.301  1.00  0.00    -0.490 OA
ATOM     27  C   UNL     1     127.198 123.249 143.256  1.00  0.00     0.279 C 
ENDBRANCH   9  26
BRANCH  10  28
ATOM     28  O   UNL     1     124.139 121.930 144.011  1.00  0.00    -0.490 OA
ATOM     29  C   UNL     1     124.463 120.552 144.158  1.00  0.00     0.278 C 
ENDBRANCH  10  28
TORSDOF 7
ENDMDL
MODEL 2
REMARK VINA RESULT:    -5.901      1.473      2.067
REMARK INTER + INTRA:          -9.025
REMARK INTER:                  -8.277
REMARK INTRA:                  -0.747
REMARK UNBOUND:                -0.709
REMARK SMILES COc1ccc(-c2cc(=O)c3c(OC)c(OC)c(OC)c(OC)c3o2)cc1OC
REMARK SMILES IDX 7 1 8 2 9 3 10 4 11 5 24 6 25 7 21 8 18 9 15 10 12 11 6 12
REMARK SMILES IDX 3 13 27 14 4 15 26 16 5 17 2 18 1 19 28 20 29 21 22 22 23 23
REMARK SMILES IDX 13 24 14 25 19 26 20 27 16 28 17 29
REMARK H PARENT
REMARK Flexibility Score: inf
ROOT
ATOM      1  C   UNL     1     122.464 124.474 139.884  1.00  0.00     0.138 A 
ATOM      2  C   UNL     1     121.442 124.068 140.753  1.00  0.00     0.100 A 
ATOM      3  C   UNL     1     121.773 123.501 141.982  1.00  0.00     0.197 A 
ATOM      4  O   UNL     1     120.843 123.162 142.763  1.00  0.00    -0.289 OA
ATOM      5  C   UNL     1     123.130 123.334 142.333  1.00  0.00     0.115 A 
ATOM      6  C   UNL     1     124.101 123.808 141.425  1.00  0.00     0.188 A 
ATOM      7  O   UNL     1     123.733 124.339 140.261  1.00  0.00    -0.452 OA
ATOM      8  C   UNL     1     125.464 123.703 141.731  1.00  0.00     0.209 A 
ATOM      9  C   UNL     1     125.886 123.122 142.934  1.00  0.00     0.211 A 
ATOM     10  C   UNL     1     124.924 122.660 143.869  1.00  0.00     0.208 A 
ATOM     11  C   UNL     1     123.548 122.716 143.536  1.00  0.00     0.179 A 
ENDROOT
BRANCH   1  12
ATOM     12  C   UNL     1     122.167 125.065 138.555  1.00  0.00     0.021 A 
ATOM     13  C   UNL     1     121.550 126.203 136.045  1.00  0.00     0.160 A 
ATOM     14  C   UNL     1     122.876 126.197 136.502  1.00  0.00     0.161 A 
ATOM     15  C   UNL     1     120.537 125.650 136.848  1.00  0.00     0.051 A 
ATOM     16  C   UNL     1     123.179 125.632 137.757  1.00  0.00     0.062 A 
ATOM     17  C   UNL     1     120.844 125.093 138.090  1.00  0.00     0.016 A 
BRANCH  13  18
ATOM     18  O   UNL     1     121.279 126.770 134.789  1.00  0.00    -0.493 OA
ATOM     19  C   UNL     1     120.916 126.026 133.630  1.00  0.00     0.278 C 
ENDBRANCH  13  18
BRANCH  14  20
ATOM     20  O   UNL     1     123.864 126.764 135.682  1.00  0.00    -0.493 OA
ATOM     21  C   UNL     1     124.696 126.027 134.790  1.00  0.00     0.278 C 
ENDBRANCH  14  20
ENDBRANCH   1  12
BRANCH   8  22
ATOM     22  O   UNL     1     126.429 124.166 140.834  1.00  0.00    -0.490 OA
ATOM     23  C   UNL     1     126.888 123.372 139.746  1.00  0.00     0.278 C 
ENDBRANCH   8  22
BRANCH  11  24
ATOM     24  O   UNL     1     122.604 122.119 144.375  1.00  0.00    -0.492 OA
ATOM     25  C   UNL     1     122.347 120.721 144.313  1.00  0.00     0.278 C 
ENDBRANCH  11  24
BRANCH   9  26
ATOM     26  O   UNL     1     127.278 123.055 143.141  1.00  0.00    -0.490 OA
ATOM     27  C   UNL     1     128.129 121.946 142.876  1.00  0.00     0.279 C 
ENDBRANCH   9  26
BRANCH  10  28
ATOM     28  O   UNL     1     125.368 122.156 145.105  1.00  0.00    -0.490 OA
ATOM     29  C   UNL     1     125.733 120.806 145.374  1.00  0.00     0.278 C 
ENDBRANCH  10  28
TORSDOF 7
ENDMDL
MODEL 3
REMARK VINA RESULT:    -5.680      1.341      3.754
REMARK INTER + INTRA:          -8.713
REMARK INTER:                  -7.991
REMARK INTRA:                  -0.723
REMARK UNBOUND:                -0.709
REMARK SMILES COc1ccc(-c2cc(=O)c3c(OC)c(OC)c(OC)c(OC)c3o2)cc1OC
REMARK SMILES IDX 7 1 8 2 9 3 10 4 11 5 24 6 25 7 21 8 18 9 15 10 12 11 6 12
REMARK SMILES IDX 3 13 27 14 4 15 26 16 5 17 2 18 1 19 28 20 29 21 22 22 23 23
REMARK SMILES IDX 13 24 14 25 19 26 20 27 16 28 17 29
REMARK H PARENT
REMARK Flexibility Score: inf
ROOT
ATOM      1  C   UNL     1     122.923 125.399 138.140  1.00  0.00     0.138 A 
ATOM      2  C   UNL     1     124.266 125.690 138.419  1.00  0.00     0.100 A 
ATOM      3  C   UNL     1     124.815 125.288 139.635  1.00  0.00     0.197 A 
ATOM      4  O   UNL     1     126.031 125.535 139.862  1.00  0.00    -0.289 OA
ATOM      5  C   UNL     1     124.013 124.603 140.572  1.00  0.00     0.115 A 
ATOM      6  C   UNL     1     122.683 124.308 140.201  1.00  0.00     0.188 A 
ATOM      7  O   UNL     1     122.205 124.718 139.029  1.00  0.00    -0.452 OA
ATOM      8  C   UNL     1     121.848 123.601 141.074  1.00  0.00     0.209 A 
ATOM      9  C   UNL     1     122.311 123.182 142.329  1.00  0.00     0.211 A 
ATOM     10  C   UNL     1     123.651 123.449 142.710  1.00  0.00     0.208 A 
ATOM     11  C   UNL     1     124.479 124.212 141.850  1.00  0.00     0.179 A 
ENDROOT
BRANCH   1  12
ATOM     12  C   UNL     1     122.283 125.822 136.869  1.00  0.00     0.021 A 
ATOM     13  C   UNL     1     121.030 126.583 134.455  1.00  0.00     0.160 A 
ATOM     14  C   UNL     1     121.587 127.561 135.291  1.00  0.00     0.161 A 
ATOM     15  C   UNL     1     121.091 125.230 134.834  1.00  0.00     0.051 A 
ATOM     16  C   UNL     1     122.208 127.178 136.497  1.00  0.00     0.062 A 
ATOM     17  C   UNL     1     121.707 124.857 136.029  1.00  0.00     0.016 A 
BRANCH  13  18
ATOM     18  O   UNL     1     120.421 126.995 133.258  1.00  0.00    -0.493 OA
ATOM     19  C   UNL     1     119.413 126.260 132.572  1.00  0.00     0.278 C 
ENDBRANCH  13  18
BRANCH  14  20
ATOM     20  O   UNL     1     121.502 128.904 134.890  1.00  0.00    -0.493 OA
ATOM     21  C   UNL     1     122.502 129.590 134.142  1.00  0.00     0.278 C 
ENDBRANCH  14  20
ENDBRANCH   1  12
BRANCH   8  22
ATOM     22  O   UNL     1     120.529 123.311 140.714  1.00  0.00    -0.490 OA
ATOM     23  C   UNL     1     120.187 122.132 139.996  1.00  0.00     0.278 C 
ENDBRANCH   8  22
BRANCH  11  24
ATOM     24  O   UNL     1     125.743 124.619 142.283  1.00  0.00    -0.492 OA
ATOM     25  C   UNL     1     125.891 125.645 143.258  1.00  0.00     0.278 C 
ENDBRANCH  11  24
BRANCH   9  26
ATOM     26  O   UNL     1     121.388 122.486 143.135  1.00  0.00    -0.490 OA
ATOM     27  C   UNL     1     121.306 121.076 143.317  1.00  0.00     0.279 C 
ENDBRANCH   9  26
BRANCH  10  28
ATOM     28  O   UNL     1     124.119 122.947 143.938  1.00  0.00    -0.490 OA
ATOM     29  C   UNL     1     124.889 121.763 144.117  1.00  0.00     0.278 C 
ENDBRANCH  10  28
TORSDOF 7
ENDMDL
MODEL 4
REMARK VINA RESULT:    -5.631      5.355      6.889
REMARK INTER + INTRA:          -8.644
REMARK INTER:                  -7.949
REMARK INTRA:                  -0.695
REMARK UNBOUND:                -0.709
REMARK SMILES COc1ccc(-c2cc(=O)c3c(OC)c(OC)c(OC)c(OC)c3o2)cc1OC
REMARK SMILES IDX 7 1 8 2 9 3 10 4 11 5 24 6 25 7 21 8 18 9 15 10 12 11 6 12
REMARK SMILES IDX 3 13 27 14 4 15 26 16 5 17 2 18 1 19 28 20 29 21 22 22 23 23
REMARK SMILES IDX 13 24 14 25 19 26 20 27 16 28 17 29
REMARK H PARENT
REMARK Flexibility Score: inf
ROOT
ATOM      1  C   UNL     1     122.658 127.720 143.619  1.00  0.00     0.138 A 
ATOM      2  C   UNL     1     121.460 127.310 143.019  1.00  0.00     0.100 A 
ATOM      3  C   UNL     1     121.126 125.957 143.009  1.00  0.00     0.197 A 
ATOM      4  O   UNL     1     120.033 125.606 142.487  1.00  0.00    -0.289 OA
ATOM      5  C   UNL     1     122.000 125.016 143.595  1.00  0.00     0.115 A 
ATOM      6  C   UNL     1     123.166 125.511 144.218  1.00  0.00     0.188 A 
ATOM      7  O   UNL     1     123.442 126.812 144.197  1.00  0.00    -0.452 OA
ATOM      8  C   UNL     1     124.056 124.630 144.847  1.00  0.00     0.209 A 
ATOM      9  C   UNL     1     123.811 123.251 144.861  1.00  0.00     0.211 A 
ATOM     10  C   UNL     1     122.633 122.738 144.259  1.00  0.00     0.208 A 
ATOM     11  C   UNL     1     121.761 123.622 143.576  1.00  0.00     0.179 A 
ENDROOT
BRANCH   1  12
ATOM     12  C   UNL     1     123.072 129.145 143.639  1.00  0.00     0.021 A 
ATOM     13  C   UNL     1     123.836 131.864 143.625  1.00  0.00     0.160 A 
ATOM     14  C   UNL     1     123.522 131.233 144.837  1.00  0.00     0.161 A 
ATOM     15  C   UNL     1     123.757 131.137 142.424  1.00  0.00     0.051 A 
ATOM     16  C   UNL     1     123.137 129.877 144.839  1.00  0.00     0.062 A 
ATOM     17  C   UNL     1     123.374 129.796 142.433  1.00  0.00     0.016 A 
BRANCH  13  18
ATOM     18  O   UNL     1     124.220 133.215 143.655  1.00  0.00    -0.493 OA
ATOM     19  C   UNL     1     123.601 134.246 142.893  1.00  0.00     0.278 C 
ENDBRANCH  13  18
BRANCH  14  20
ATOM     20  O   UNL     1     123.602 131.987 146.019  1.00  0.00    -0.493 OA
ATOM     21  C   UNL     1     122.513 132.701 146.598  1.00  0.00     0.278 C 
ENDBRANCH  14  20
ENDBRANCH   1  12
BRANCH   8  22
ATOM     22  O   UNL     1     125.214 125.113 145.461  1.00  0.00    -0.490 OA
ATOM     23  C   UNL     1     125.210 125.603 146.797  1.00  0.00     0.278 C 
ENDBRANCH   8  22
BRANCH  11  24
ATOM     24  O   UNL     1     120.687 123.111 142.844  1.00  0.00    -0.492 OA
ATOM     25  C   UNL     1     120.877 122.575 141.538  1.00  0.00     0.278 C 
ENDBRANCH  11  24
BRANCH   9  26
ATOM     26  O   UNL     1     124.772 122.452 145.511  1.00  0.00    -0.490 OA
ATOM     27  C   UNL     1     125.932 121.868 144.928  1.00  0.00     0.279 C 
ENDBRANCH   9  26
BRANCH  10  28
ATOM     28  O   UNL     1     122.366 121.361 144.358  1.00  0.00    -0.490 OA
ATOM     29  C   UNL     1     122.890 120.346 143.507  1.00  0.00     0.278 C 
ENDBRANCH  10  28
TORSDOF 7
ENDMDL
MODEL 5
REMARK VINA RESULT:    -5.613      0.862      3.334
REMARK INTER + INTRA:          -8.618
REMARK INTER:                  -7.851
REMARK INTRA:                  -0.767
REMARK UNBOUND:                -0.709
REMARK SMILES COc1ccc(-c2cc(=O)c3c(OC)c(OC)c(OC)c(OC)c3o2)cc1OC
REMARK SMILES IDX 7 1 8 2 9 3 10 4 11 5 24 6 25 7 21 8 18 9 15 10 12 11 6 12
REMARK SMILES IDX 3 13 27 14 4 15 26 16 5 17 2 18 1 19 28 20 29 21 22 22 23 23
REMARK SMILES IDX 13 24 14 25 19 26 20 27 16 28 17 29
REMARK H PARENT
REMARK Flexibility Score: inf
ROOT
ATOM      1  C   UNL     1     123.836 125.430 138.550  1.00  0.00     0.138 A 
ATOM      2  C   UNL     1     125.209 125.238 138.758  1.00  0.00     0.100 A 
ATOM      3  C   UNL     1     125.638 124.485 139.849  1.00  0.00     0.197 A 
ATOM      4  O   UNL     1     126.875 124.301 140.009  1.00  0.00    -0.289 OA
ATOM      5  C   UNL     1     124.688 123.931 140.734  1.00  0.00     0.115 A 
ATOM      6  C   UNL     1     123.323 124.132 140.434  1.00  0.00     0.188 A 
ATOM      7  O   UNL     1     122.965 124.863 139.382  1.00  0.00    -0.452 OA
ATOM      8  C   UNL     1     122.333 123.579 141.256  1.00  0.00     0.209 A 
ATOM      9  C   UNL     1     122.676 122.829 142.389  1.00  0.00     0.211 A 
ATOM     10  C   UNL     1     124.042 122.599 142.694  1.00  0.00     0.208 A 
ATOM     11  C   UNL     1     125.044 123.203 141.894  1.00  0.00     0.179 A 
ENDROOT
BRANCH   1  12
ATOM     12  C   UNL     1     123.326 126.241 137.417  1.00  0.00     0.021 A 
ATOM     13  C   UNL     1     122.394 127.825 135.271  1.00  0.00     0.160 A 
ATOM     14  C   UNL     1     122.294 126.427 135.203  1.00  0.00     0.161 A 
ATOM     15  C   UNL     1     122.970 128.424 136.406  1.00  0.00     0.051 A 
ATOM     16  C   UNL     1     122.764 125.641 136.275  1.00  0.00     0.062 A 
ATOM     17  C   UNL     1     123.433 127.640 137.462  1.00  0.00     0.016 A 
BRANCH  13  18
ATOM     18  O   UNL     1     121.914 128.582 134.190  1.00  0.00    -0.493 OA
ATOM     19  C   UNL     1     122.539 129.760 133.691  1.00  0.00     0.278 C 
ENDBRANCH  13  18
BRANCH  14  20
ATOM     20  O   UNL     1     121.724 125.857 134.054  1.00  0.00    -0.493 OA
ATOM     21  C   UNL     1     120.652 124.918 134.064  1.00  0.00     0.278 C 
ENDBRANCH  14  20
ENDBRANCH   1  12
BRANCH   8  22
ATOM     22  O   UNL     1     120.980 123.778 140.966  1.00  0.00    -0.490 OA
ATOM     23  C   UNL     1     120.243 124.860 141.522  1.00  0.00     0.278 C 
ENDBRANCH   8  22
BRANCH  11  24
ATOM     24  O   UNL     1     126.384 123.118 142.278  1.00  0.00    -0.492 OA
ATOM     25  C   UNL     1     126.882 123.870 143.379  1.00  0.00     0.278 C 
ENDBRANCH  11  24
BRANCH   9  26
ATOM     26  O   UNL     1     121.605 122.326 143.153  1.00  0.00    -0.490 OA
ATOM     27  C   UNL     1     120.986 121.051 143.020  1.00  0.00     0.279 C 
ENDBRANCH   9  26
BRANCH  10  28
ATOM     28  O   UNL     1     124.362 121.775 143.787  1.00  0.00    -0.490 OA
ATOM     29  C   UNL     1     124.643 120.380 143.728  1.00  0.00     0.278 C 
ENDBRANCH  10  28
TORSDOF 7
ENDMDL
MODEL 6
REMARK VINA RESULT:    -5.564      2.289      8.195
REMARK INTER + INTRA:          -8.549
REMARK INTER:                  -7.865
REMARK INTRA:                  -0.684
REMARK UNBOUND:                -0.709
REMARK SMILES COc1ccc(-c2cc(=O)c3c(OC)c(OC)c(OC)c(OC)c3o2)cc1OC
REMARK SMILES IDX 7 1 8 2 9 3 10 4 11 5 24 6 25 7 21 8 18 9 15 10 12 11 6 12
REMARK SMILES IDX 3 13 27 14 4 15 26 16 5 17 2 18 1 19 28 20 29 21 22 22 23 23
REMARK SMILES IDX 13 24 14 25 19 26 20 27 16 28 17 29
REMARK H PARENT
REMARK Flexibility Score: inf
ROOT
ATOM      1  C   UNL     1     121.790 125.014 139.376  1.00  0.00     0.138 A 
ATOM      2  C   UNL     1     121.039 124.708 138.233  1.00  0.00     0.100 A 
ATOM      3  C   UNL     1     121.139 125.526 137.109  1.00  0.00     0.197 A 
ATOM      4  O   UNL     1     120.475 125.225 136.080  1.00  0.00    -0.289 OA
ATOM      5  C   UNL     1     121.986 126.654 137.137  1.00  0.00     0.115 A 
ATOM      6  C   UNL     1     122.744 126.870 138.309  1.00  0.00     0.188 A 
ATOM      7  O   UNL     1     122.610 126.062 139.357  1.00  0.00    -0.452 OA
ATOM      8  C   UNL     1     123.629 127.953 138.386  1.00  0.00     0.209 A 
ATOM      9  C   UNL     1     123.772 128.841 137.311  1.00  0.00     0.211 A 
ATOM     10  C   UNL     1     123.035 128.627 136.118  1.00  0.00     0.208 A 
ATOM     11  C   UNL     1     122.100 127.564 136.059  1.00  0.00     0.179 A 
ENDROOT
BRANCH   1  12
ATOM     12  C   UNL     1     121.706 124.188 140.607  1.00  0.00     0.021 A 
ATOM     13  C   UNL     1     121.546 122.570 142.917  1.00  0.00     0.160 A 
ATOM     14  C   UNL     1     122.174 123.823 142.983  1.00  0.00     0.161 A 
ATOM     15  C   UNL     1     121.011 122.127 141.694  1.00  0.00     0.051 A 
ATOM     16  C   UNL     1     122.255 124.625 141.827  1.00  0.00     0.062 A 
ATOM     17  C   UNL     1     121.095 122.926 140.554  1.00  0.00     0.016 A 
BRANCH  13  18
ATOM     18  O   UNL     1     121.477 121.795 144.086  1.00  0.00    -0.493 OA
ATOM     19  C   UNL     1     122.428 120.800 144.451  1.00  0.00     0.278 C 
ENDBRANCH  13  18
BRANCH  14  20
ATOM     20  O   UNL     1     122.707 124.234 144.215  1.00  0.00    -0.493 OA
ATOM     21  C   UNL     1     124.094 124.216 144.542  1.00  0.00     0.278 C 
ENDBRANCH  14  20
ENDBRANCH   1  12
BRANCH   8  22
ATOM     22  O   UNL     1     124.377 128.176 139.544  1.00  0.00    -0.490 OA
ATOM     23  C   UNL     1     123.835 128.850 140.674  1.00  0.00     0.278 C 
ENDBRANCH   8  22
BRANCH  11  24
ATOM     24  O   UNL     1     121.255 127.441 134.955  1.00  0.00    -0.492 OA
ATOM     25  C   UNL     1     121.745 126.973 133.703  1.00  0.00     0.278 C 
ENDBRANCH  11  24
BRANCH   9  26
ATOM     26  O   UNL     1     124.680 129.902 137.494  1.00  0.00    -0.490 OA
ATOM     27  C   UNL     1     124.367 131.240 137.868  1.00  0.00     0.279 C 
ENDBRANCH   9  26
BRANCH  10  28
ATOM     28  O   UNL     1     123.255 129.481 135.023  1.00  0.00    -0.490 OA
ATOM     29  C   UNL     1     122.513 130.657 134.718  1.00  0.00     0.278 C 
ENDBRANCH  10  28
TORSDOF 7
ENDMDL
MODEL 7
REMARK VINA RESULT:    -5.499      5.618      8.003
REMARK INTER + INTRA:          -8.457
REMARK INTER:                  -7.898
REMARK INTRA:                  -0.559
REMARK UNBOUND:                -0.709
REMARK SMILES COc1ccc(-c2cc(=O)c3c(OC)c(OC)c(OC)c(OC)c3o2)cc1OC
REMARK SMILES IDX 7 1 8 2 9 3 10 4 11 5 24 6 25 7 21 8 18 9 15 10 12 11 6 12
REMARK SMILES IDX 3 13 27 14 4 15 26 16 5 17 2 18 1 19 28 20 29 21 22 22 23 23
REMARK SMILES IDX 13 24 14 25 19 26 20 27 16 28 17 29
REMARK H PARENT
REMARK Flexibility Score: inf
ROOT
ATOM      1  C   UNL     1     124.347 127.125 145.636  1.00  0.00     0.138 A 
ATOM      2  C   UNL     1     125.393 126.503 146.332  1.00  0.00     0.100 A 
ATOM      3  C   UNL     1     125.576 125.127 146.208  1.00  0.00     0.197 A 
ATOM      4  O   UNL     1     126.536 124.586 146.821  1.00  0.00    -0.289 OA
ATOM      5  C   UNL     1     124.704 124.376 145.391  1.00  0.00     0.115 A 
ATOM      6  C   UNL     1     123.702 125.080 144.688  1.00  0.00     0.188 A 
ATOM      7  O   UNL     1     123.566 126.394 144.844  1.00  0.00    -0.452 OA
ATOM      8  C   UNL     1     122.827 124.395 143.835  1.00  0.00     0.209 A 
ATOM      9  C   UNL     1     122.924 123.007 143.671  1.00  0.00     0.211 A 
ATOM     10  C   UNL     1     123.938 122.287 144.352  1.00  0.00     0.208 A 
ATOM     11  C   UNL     1     124.788 122.970 145.257  1.00  0.00     0.179 A 
ENDROOT
BRANCH   1  12
ATOM     12  C   UNL     1     124.094 128.583 145.750  1.00  0.00     0.021 A 
ATOM     13  C   UNL     1     123.651 131.361 146.009  1.00  0.00     0.160 A 
ATOM     14  C   UNL     1     123.518 130.746 144.755  1.00  0.00     0.161 A 
ATOM     15  C   UNL     1     124.016 130.587 147.125  1.00  0.00     0.051 A 
ATOM     16  C   UNL     1     123.744 129.360 144.630  1.00  0.00     0.062 A 
ATOM     17  C   UNL     1     124.239 129.216 146.994  1.00  0.00     0.016 A 
BRANCH  13  18
ATOM     18  O   UNL     1     123.416 132.742 146.103  1.00  0.00    -0.493 OA
ATOM     19  C   UNL     1     122.430 133.336 146.941  1.00  0.00     0.278 C 
ENDBRANCH  13  18
BRANCH  14  20
ATOM     20  O   UNL     1     123.162 131.546 143.657  1.00  0.00    -0.493 OA
ATOM     21  C   UNL     1     123.887 131.606 142.432  1.00  0.00     0.278 C 
ENDBRANCH  14  20
ENDBRANCH   1  12
BRANCH   8  22
ATOM     22  O   UNL     1     121.830 125.085 143.140  1.00  0.00    -0.490 OA
ATOM     23  C   UNL     1     120.595 125.440 143.751  1.00  0.00     0.278 C 
ENDBRANCH   8  22
BRANCH  11  24
ATOM     24  O   UNL     1     125.681 122.249 146.053  1.00  0.00    -0.492 OA
ATOM     25  C   UNL     1     126.869 121.690 145.503  1.00  0.00     0.278 C 
ENDBRANCH  11  24
BRANCH   9  26
ATOM     26  O   UNL     1     121.990 122.414 142.799  1.00  0.00    -0.490 OA
ATOM     27  C   UNL     1     120.921 121.544 143.155  1.00  0.00     0.279 C 
ENDBRANCH   9  26
BRANCH  10  28
ATOM     28  O   UNL     1     124.069 120.908 144.110  1.00  0.00    -0.490 OA
ATOM     29  C   UNL     1     124.662 120.315 142.958  1.00  0.00     0.278 C 
ENDBRANCH  10  28
TORSDOF 7
ENDMDL
MODEL 8
REMARK VINA RESULT:    -5.470      3.133      3.674
REMARK INTER + INTRA:          -8.416
REMARK INTER:                  -7.663
REMARK INTRA:                  -0.753
REMARK UNBOUND:                -0.709
REMARK SMILES COc1ccc(-c2cc(=O)c3c(OC)c(OC)c(OC)c(OC)c3o2)cc1OC
REMARK SMILES IDX 7 1 8 2 9 3 10 4 11 5 24 6 25 7 21 8 18 9 15 10 12 11 6 12
REMARK SMILES IDX 3 13 27 14 4 15 26 16 5 17 2 18 1 19 28 20 29 21 22 22 23 23
REMARK SMILES IDX 13 24 14 25 19 26 20 27 16 28 17 29
REMARK H PARENT
REMARK Flexibility Score: inf
ROOT
ATOM      1  C   UNL     1     122.600 125.039 139.858  1.00  0.00     0.138 A 
ATOM      2  C   UNL     1     122.170 123.852 140.469  1.00  0.00     0.100 A 
ATOM      3  C   UNL     1     122.297 123.708 141.849  1.00  0.00     0.197 A 
ATOM      4  O   UNL     1     121.885 122.645 142.388  1.00  0.00    -0.289 OA
ATOM      5  C   UNL     1     122.864 124.751 142.613  1.00  0.00     0.115 A 
ATOM      6  C   UNL     1     123.232 125.932 141.931  1.00  0.00     0.188 A 
ATOM      7  O   UNL     1     123.094 126.019 140.611  1.00  0.00    -0.452 OA
ATOM      8  C   UNL     1     123.768 127.015 142.638  1.00  0.00     0.209 A 
ATOM      9  C   UNL     1     123.956 126.945 144.025  1.00  0.00     0.211 A 
ATOM     10  C   UNL     1     123.571 125.776 144.730  1.00  0.00     0.208 A 
ATOM     11  C   UNL     1     123.080 124.660 144.008  1.00  0.00     0.179 A 
ENDROOT
BRANCH   1  12
ATOM     12  C   UNL     1     122.506 125.236 138.390  1.00  0.00     0.021 A 
ATOM     13  C   UNL     1     122.270 125.610 135.600  1.00  0.00     0.160 A 
ATOM     14  C   UNL     1     123.355 126.170 136.291  1.00  0.00     0.161 A 
ATOM     15  C   UNL     1     121.302 124.875 136.308  1.00  0.00     0.051 A 
ATOM     16  C   UNL     1     123.466 125.984 137.683  1.00  0.00     0.062 A 
ATOM     17  C   UNL     1     121.418 124.696 137.686  1.00  0.00     0.016 A 
BRANCH  13  18
ATOM     18  O   UNL     1     122.188 125.808 134.212  1.00  0.00    -0.493 OA
ATOM     19  C   UNL     1     121.269 126.690 133.577  1.00  0.00     0.278 C 
ENDBRANCH  13  18
BRANCH  14  20
ATOM     20  O   UNL     1     124.300 126.906 135.558  1.00  0.00    -0.493 OA
ATOM     21  C   UNL     1     125.563 126.403 135.133  1.00  0.00     0.278 C 
ENDBRANCH  14  20
ENDBRANCH   1  12
BRANCH   8  22
ATOM     22  O   UNL     1     124.139 128.184 141.969  1.00  0.00    -0.490 OA
ATOM     23  C   UNL     1     123.198 129.205 141.658  1.00  0.00     0.278 C 
ENDBRANCH   8  22
BRANCH  11  24
ATOM     24  O   UNL     1     122.852 123.450 144.669  1.00  0.00    -0.492 OA
ATOM     25  C   UNL     1     123.917 122.545 144.933  1.00  0.00     0.278 C 
ENDBRANCH  11  24
BRANCH   9  26
ATOM     26  O   UNL     1     124.511 128.085 144.639  1.00  0.00    -0.490 OA
ATOM     27  C   UNL     1     123.807 129.109 145.335  1.00  0.00     0.279 C 
ENDBRANCH   9  26
BRANCH  10  28
ATOM     28  O   UNL     1     123.691 125.759 146.131  1.00  0.00    -0.490 OA
ATOM     29  C   UNL     1     124.905 125.628 146.864  1.00  0.00     0.278 C 
ENDBRANCH  10  28
TORSDOF 7
ENDMDL
MODEL 9
REMARK VINA RESULT:    -5.466     11.148     14.657
REMARK INTER + INTRA:          -8.411
REMARK INTER:                  -7.654
REMARK INTRA:                  -0.756
REMARK UNBOUND:                -0.709
REMARK SMILES COc1ccc(-c2cc(=O)c3c(OC)c(OC)c(OC)c(OC)c3o2)cc1OC
REMARK SMILES IDX 7 1 8 2 9 3 10 4 11 5 24 6 25 7 21 8 18 9 15 10 12 11 6 12
REMARK SMILES IDX 3 13 27 14 4 15 26 16 5 17 2 18 1 19 28 20 29 21 22 22 23 23
REMARK SMILES IDX 13 24 14 25 19 26 20 27 16 28 17 29
REMARK H PARENT
REMARK Flexibility Score: inf
ROOT
ATOM      1  C   UNL     1     129.799 134.371 135.668  1.00  0.00     0.138 A 
ATOM      2  C   UNL     1     129.696 133.081 135.129  1.00  0.00     0.100 A 
ATOM      3  C   UNL     1     130.779 132.537 134.441  1.00  0.00     0.197 A 
ATOM      4  O   UNL     1     130.680 131.367 133.982  1.00  0.00    -0.289 OA
ATOM      5  C   UNL     1     131.961 133.293 134.288  1.00  0.00     0.115 A 
ATOM      6  C   UNL     1     132.004 134.566 134.897  1.00  0.00     0.188 A 
ATOM      7  O   UNL     1     130.941 135.042 135.540  1.00  0.00    -0.452 OA
ATOM      8  C   UNL     1     133.161 135.350 134.809  1.00  0.00     0.209 A 
ATOM      9  C   UNL     1     134.288 134.891 134.113  1.00  0.00     0.211 A 
ATOM     10  C   UNL     1     134.271 133.606 133.515  1.00  0.00     0.208 A 
ATOM     11  C   UNL     1     133.082 132.835 133.556  1.00  0.00     0.179 A 
ENDROOT
BRANCH   1  12
ATOM     12  C   UNL     1     128.668 135.005 136.391  1.00  0.00     0.021 A 
ATOM     13  C   UNL     1     126.546 136.261 137.769  1.00  0.00     0.160 A 
ATOM     14  C   UNL     1     126.279 135.200 136.891  1.00  0.00     0.161 A 
ATOM     15  C   UNL     1     127.871 136.696 137.946  1.00  0.00     0.051 A 
ATOM     16  C   UNL     1     127.340 134.579 136.203  1.00  0.00     0.062 A 
ATOM     17  C   UNL     1     128.917 136.078 137.261  1.00  0.00     0.016 A 
BRANCH  13  18
ATOM     18  O   UNL     1     125.468 136.857 138.444  1.00  0.00    -0.493 OA
ATOM     19  C   UNL     1     124.977 138.167 138.179  1.00  0.00     0.278 C 
ENDBRANCH  13  18
BRANCH  14  20
ATOM     20  O   UNL     1     124.945 134.793 136.728  1.00  0.00    -0.493 OA
ATOM     21  C   UNL     1     124.543 133.513 136.246  1.00  0.00     0.278 C 
ENDBRANCH  14  20
ENDBRANCH   1  12
BRANCH   8  22
ATOM     22  O   UNL     1     133.208 136.613 135.405  1.00  0.00    -0.490 OA
ATOM     23  C   UNL     1     132.773 137.784 134.724  1.00  0.00     0.278 C 
ENDBRANCH   8  22
BRANCH  11  24
ATOM     24  O   UNL     1     133.001 131.643 132.833  1.00  0.00    -0.492 OA
ATOM     25  C   UNL     1     132.861 131.649 131.417  1.00  0.00     0.278 C 
ENDBRANCH  11  24
BRANCH   9  26
ATOM     26  O   UNL     1     135.396 135.761 134.077  1.00  0.00    -0.490 OA
ATOM     27  C   UNL     1     135.812 136.569 132.981  1.00  0.00     0.279 C 
ENDBRANCH   9  26
BRANCH  10  28
ATOM     28  O   UNL     1     135.440 133.132 132.893  1.00  0.00    -0.490 OA
ATOM     29  C   UNL     1     136.538 132.503 133.547  1.00  0.00     0.278 C 
ENDBRANCH  10  28
TORSDOF 7
ENDMDL
