MODEL 1
REMARK VINA RESULT:    -3.630      0.000      0.000
REMARK INTER + INTRA:          -4.127
REMARK INTER:                  -4.055
REMARK INTRA:                  -0.072
REMARK UNBOUND:                -0.072
REMARK SMILES CCCC(=O)[O-]
REMARK SMILES IDX 3 1 4 2 5 3 6 4 2 5 1 6
REMARK H PARENT
REMARK Flexibility Score: inf
ROOT
ATOM      1  C   UNL     1     -16.783  40.086  -4.052  1.00  0.00     0.052 C 
ENDROOT
BRANCH   1   2
ATOM      2  C   UNL     1     -17.965  40.333  -4.938  1.00  0.00     0.041 C 
ATOM      3  O   UNL     1     -17.820  40.381  -6.188  1.00  0.00    -0.550 OA
ATOM      4  O   UNL     1     -19.231  40.477  -4.386  1.00  0.00    -0.550 OA
ENDBRANCH   1   2
BRANCH   1   5
ATOM      5  C   UNL     1     -15.783  41.249  -4.096  1.00  0.00     0.003 C 
ATOM      6  C   UNL     1     -16.417  42.576  -3.679  1.00  0.00     0.004 C 
ENDBRANCH   1   5
TORSDOF 2
ENDMDL
MODEL 2
REMARK VINA RESULT:    -3.626      0.106      1.321
REMARK INTER + INTRA:          -4.122
REMARK INTER:                  -4.052
REMARK INTRA:                  -0.070
REMARK UNBOUND:                -0.072
REMARK SMILES CCCC(=O)[O-]
REMARK SMILES IDX 3 1 4 2 5 3 6 4 2 5 1 6
REMARK H PARENT
REMARK Flexibility Score: inf
ROOT
ATOM      1  C   UNL     1     -16.788  40.088  -4.047  1.00  0.00     0.052 C 
ENDROOT
BRANCH   1   2
ATOM      2  C   UNL     1     -18.014  40.350  -4.865  1.00  0.00     0.041 C 
ATOM      3  O   UNL     1     -19.143  40.418  -4.310  1.00  0.00    -0.550 OA
ATOM      4  O   UNL     1     -17.908  40.552  -6.235  1.00  0.00    -0.550 OA
ENDBRANCH   1   2
BRANCH   1   5
ATOM      5  C   UNL     1     -15.783  41.244  -4.140  1.00  0.00     0.003 C 
ATOM      6  C   UNL     1     -16.386  42.575  -3.693  1.00  0.00     0.004 C 
ENDBRANCH   1   5
TORSDOF 2
ENDMDL
MODEL 3
REMARK VINA RESULT:    -3.598     16.005     16.837
REMARK INTER + INTRA:          -4.090
REMARK INTER:                  -4.081
REMARK INTRA:                  -0.009
REMARK UNBOUND:                -0.072
REMARK SMILES CCCC(=O)[O-]
REMARK SMILES IDX 3 1 4 2 5 3 6 4 2 5 1 6
REMARK H PARENT
REMARK Flexibility Score: inf
ROOT
ATOM      1  C   UNL     1     -32.792  33.570  -5.742  1.00  0.00     0.052 C 
ENDROOT
BRANCH   1   2
ATOM      2  C   UNL     1     -33.029  34.482  -4.578  1.00  0.00     0.041 C 
ATOM      3  O   UNL     1     -34.200  34.689  -4.164  1.00  0.00    -0.550 OA
ATOM      4  O   UNL     1     -31.954  35.076  -3.928  1.00  0.00    -0.550 OA
ENDBRANCH   1   2
BRANCH   1   5
ATOM      5  C   UNL     1     -31.610  34.037  -6.601  1.00  0.00     0.003 C 
ATOM      6  C   UNL     1     -31.948  34.057  -8.092  1.00  0.00     0.004 C 
ENDBRANCH   1   5
TORSDOF 2
ENDMDL
MODEL 4
REMARK VINA RESULT:    -3.556     13.728     14.409
REMARK INTER + INTRA:          -4.044
REMARK INTER:                  -3.975
REMARK INTRA:                  -0.069
REMARK UNBOUND:                -0.072
REMARK SMILES CCCC(=O)[O-]
REMARK SMILES IDX 3 1 4 2 5 3 6 4 2 5 1 6
REMARK H PARENT
REMARK Flexibility Score: inf
ROOT
ATOM      1  C   UNL     1     -23.250  36.278   7.175  1.00  0.00     0.052 C 
ENDROOT
BRANCH   1   2
ATOM      2  C   UNL     1     -23.600  37.572   7.842  1.00  0.00     0.041 C 
ATOM      3  O   UNL     1     -24.499  37.608   8.723  1.00  0.00    -0.550 OA
ATOM      4  O   UNL     1     -22.911  38.733   7.515  1.00  0.00    -0.550 OA
ENDBRANCH   1   2
BRANCH   1   5
ATOM      5  C   UNL     1     -21.788  35.885   7.424  1.00  0.00     0.003 C 
ATOM      6  C   UNL     1     -21.460  35.780   8.914  1.00  0.00     0.004 C 
ENDBRANCH   1   5
TORSDOF 2
ENDMDL
MODEL 5
REMARK VINA RESULT:    -3.524     13.171     13.770
REMARK INTER + INTRA:          -4.008
REMARK INTER:                  -3.957
REMARK INTRA:                  -0.051
REMARK UNBOUND:                -0.072
REMARK SMILES CCCC(=O)[O-]
REMARK SMILES IDX 3 1 4 2 5 3 6 4 2 5 1 6
REMARK H PARENT
REMARK Flexibility Score: inf
ROOT
ATOM      1  C   UNL     1     -19.889  36.143   8.700  1.00  0.00     0.052 C 
ENDROOT
BRANCH   1   2
ATOM      2  C   UNL     1     -19.802  36.205   7.206  1.00  0.00     0.041 C 
ATOM      3  O   UNL     1     -18.910  36.901   6.652  1.00  0.00    -0.550 OA
ATOM      4  O   UNL     1     -20.684  35.469   6.425  1.00  0.00    -0.550 OA
ENDBRANCH   1   2
BRANCH   1   5
ATOM      5  C   UNL     1     -21.338  35.987   9.180  1.00  0.00     0.003 C 
ATOM      6  C   UNL     1     -22.102  37.311   9.164  1.00  0.00     0.004 C 
ENDBRANCH   1   5
TORSDOF 2
ENDMDL
MODEL 6
REMARK VINA RESULT:    -3.480     13.032     13.680
REMARK INTER + INTRA:          -3.959
REMARK INTER:                  -3.919
REMARK INTRA:                  -0.040
REMARK UNBOUND:                -0.072
REMARK SMILES CCCC(=O)[O-]
REMARK SMILES IDX 3 1 4 2 5 3 6 4 2 5 1 6
REMARK H PARENT
REMARK Flexibility Score: inf
ROOT
ATOM      1  C   UNL     1     -23.161  36.787   7.514  1.00  0.00     0.052 C 
ENDROOT
BRANCH   1   2
ATOM      2  C   UNL     1     -22.711  38.081   6.910  1.00  0.00     0.041 C 
ATOM      3  O   UNL     1     -22.748  38.245   5.662  1.00  0.00    -0.550 OA
ATOM      4  O   UNL     1     -22.284  39.120   7.727  1.00  0.00    -0.550 OA
ENDBRANCH   1   2
BRANCH   1   5
ATOM      5  C   UNL     1     -21.985  35.833   7.758  1.00  0.00     0.003 C 
ATOM      6  C   UNL     1     -21.422  35.955   9.174  1.00  0.00     0.004 C 
ENDBRANCH   1   5
TORSDOF 2
ENDMDL
MODEL 7
REMARK VINA RESULT:    -3.463     12.751     13.479
REMARK INTER + INTRA:          -3.939
REMARK INTER:                  -3.900
REMARK INTRA:                  -0.039
REMARK UNBOUND:                -0.072
REMARK SMILES CCCC(=O)[O-]
REMARK SMILES IDX 3 1 4 2 5 3 6 4 2 5 1 6
REMARK H PARENT
REMARK Flexibility Score: inf
ROOT
ATOM      1  C   UNL     1     -21.269  35.498   6.578  1.00  0.00     0.052 C 
ENDROOT
BRANCH   1   2
ATOM      2  C   UNL     1     -20.168  36.164   7.343  1.00  0.00     0.041 C 
ATOM      3  O   UNL     1     -20.132  36.084   8.600  1.00  0.00    -0.550 OA
ATOM      4  O   UNL     1     -19.162  36.842   6.668  1.00  0.00    -0.550 OA
ENDBRANCH   1   2
BRANCH   1   5
ATOM      5  C   UNL     1     -22.423  36.465   6.282  1.00  0.00     0.003 C 
ATOM      6  C   UNL     1     -23.538  36.376   7.324  1.00  0.00     0.004 C 
ENDBRANCH   1   5
TORSDOF 2
ENDMDL
MODEL 8
REMARK VINA RESULT:    -3.426     13.694     14.372
REMARK INTER + INTRA:          -3.899
REMARK INTER:                  -3.857
REMARK INTRA:                  -0.042
REMARK UNBOUND:                -0.072
REMARK SMILES CCCC(=O)[O-]
REMARK SMILES IDX 3 1 4 2 5 3 6 4 2 5 1 6
REMARK H PARENT
REMARK Flexibility Score: inf
ROOT
ATOM      1  C   UNL     1     -21.898  35.469   7.963  1.00  0.00     0.052 C 
ENDROOT
BRANCH   1   2
ATOM      2  C   UNL     1     -20.963  36.270   8.815  1.00  0.00     0.041 C 
ATOM      3  O   UNL     1     -19.737  35.983   8.852  1.00  0.00    -0.550 OA
ATOM      4  O   UNL     1     -21.438  37.355   9.541  1.00  0.00    -0.550 OA
ENDBRANCH   1   2
BRANCH   1   5
ATOM      5  C   UNL     1     -23.041  36.329   7.406  1.00  0.00     0.003 C 
ATOM      6  C   UNL     1     -22.712  36.913   6.032  1.00  0.00     0.004 C 
ENDBRANCH   1   5
TORSDOF 2
ENDMDL
MODEL 9
REMARK VINA RESULT:    -3.403     13.350     14.070
REMARK INTER + INTRA:          -3.873
REMARK INTER:                  -3.809
REMARK INTRA:                  -0.064
REMARK UNBOUND:                -0.072
REMARK SMILES CCCC(=O)[O-]
REMARK SMILES IDX 3 1 4 2 5 3 6 4 2 5 1 6
REMARK H PARENT
REMARK Flexibility Score: inf
ROOT
ATOM      1  C   UNL     1     -23.221  36.686   7.666  1.00  0.00     0.052 C 
ENDROOT
BRANCH   1   2
ATOM      2  C   UNL     1     -22.315  37.575   8.459  1.00  0.00     0.041 C 
ATOM      3  O   UNL     1     -22.144  38.775   8.115  1.00  0.00    -0.550 OA
ATOM      4  O   UNL     1     -21.685  37.091   9.599  1.00  0.00    -0.550 OA
ENDBRANCH   1   2
BRANCH   1   5
ATOM      5  C   UNL     1     -22.619  36.331   6.300  1.00  0.00     0.003 C 
ATOM      6  C   UNL     1     -21.258  35.646   6.425  1.00  0.00     0.004 C 
ENDBRANCH   1   5
TORSDOF 2
ENDMDL
