MODEL 1
REMARK VINA RESULT:    -5.569      0.000      0.000
REMARK INTER + INTRA:         -13.241
REMARK INTER:                 -10.777
REMARK INTRA:                  -2.464
REMARK UNBOUND:                -2.464
REMARK SMILES CCCCCCCCCCCCCCCCCC(=O)[O-]
REMARK SMILES IDX 10 1 11 2 12 3 13 4 14 5 15 6 16 7 17 8 18 9 19 10 20 11
REMARK SMILES IDX 9 12 8 13 7 14 6 15 5 16 4 17 3 18 2 19 1 20
REMARK H PARENT
REMARK Flexibility Score: inf
ROOT
ATOM      1  C   UNL     1       4.486  22.325  43.798  1.00  0.00     0.000 C 
ENDROOT
BRANCH   1   2
ATOM      2  C   UNL     1       4.764  23.127  45.082  1.00  0.00     0.000 C 
BRANCH   2   3
ATOM      3  C   UNL     1       4.192  24.552  45.025  1.00  0.00     0.000 C 
BRANCH   3   4
ATOM      4  C   UNL     1       4.767  25.373  43.861  1.00  0.00     0.000 C 
BRANCH   4   5
ATOM      5  C   UNL     1       3.659  25.807  42.895  1.00  0.00     0.000 C 
BRANCH   5   6
ATOM      6  C   UNL     1       2.328  26.007  43.637  1.00  0.00     0.000 C 
BRANCH   6   7
ATOM      7  C   UNL     1       1.603  27.300  43.223  1.00  0.00     0.006 C 
BRANCH   7   8
ATOM      8  C   UNL     1       0.069  27.189  43.209  1.00  0.00     0.053 C 
BRANCH   8   9
ATOM      9  C   UNL     1      -0.575  28.186  44.121  1.00  0.00     0.041 C 
ATOM     10  O   UNL     1      -0.076  29.334  44.257  1.00  0.00    -0.550 OA
ATOM     11  O   UNL     1      -1.707  27.836  44.846  1.00  0.00    -0.550 OA
ENDBRANCH   8   9
ENDBRANCH   7   8
ENDBRANCH   6   7
ENDBRANCH   5   6
ENDBRANCH   4   5
ENDBRANCH   3   4
ENDBRANCH   2   3
ENDBRANCH   1   2
BRANCH   1  12
ATOM     12  C   UNL     1       5.146  20.937  43.809  1.00  0.00     0.000 C 
BRANCH  12  13
ATOM     13  C   UNL     1       6.057  20.708  42.590  1.00  0.00    -0.000 C 
BRANCH  13  14
ATOM     14  C   UNL     1       6.403  22.014  41.858  1.00  0.00    -0.000 C 
BRANCH  14  15
ATOM     15  C   UNL     1       7.839  22.487  42.129  1.00  0.00    -0.000 C 
BRANCH  15  16
ATOM     16  C   UNL     1       7.844  23.891  42.753  1.00  0.00    -0.000 C 
BRANCH  16  17
ATOM     17  C   UNL     1       8.254  23.883  44.235  1.00  0.00    -0.000 C 
BRANCH  17  18
ATOM     18  C   UNL     1       8.871  22.543  44.670  1.00  0.00    -0.000 C 
BRANCH  18  19
ATOM     19  C   UNL     1       8.137  21.918  45.867  1.00  0.00    -0.003 C 
ATOM     20  C   UNL     1       8.198  20.391  45.869  1.00  0.00     0.004 C 
ENDBRANCH  18  19
ENDBRANCH  17  18
ENDBRANCH  16  17
ENDBRANCH  15  16
ENDBRANCH  14  15
ENDBRANCH  13  14
ENDBRANCH  12  13
ENDBRANCH   1  12
TORSDOF 16
ENDMDL
MODEL 2
REMARK VINA RESULT:    -5.532      6.695      9.762
REMARK INTER + INTRA:         -13.171
REMARK INTER:                 -10.750
REMARK INTRA:                  -2.421
REMARK UNBOUND:                -2.464
REMARK SMILES CCCCCCCCCCCCCCCCCC(=O)[O-]
REMARK SMILES IDX 10 1 11 2 12 3 13 4 14 5 15 6 16 7 17 8 18 9 19 10 20 11
REMARK SMILES IDX 9 12 8 13 7 14 6 15 5 16 4 17 3 18 2 19 1 20
REMARK H PARENT
REMARK Flexibility Score: inf
ROOT
ATOM      1  C   UNL     1       5.357  20.378  43.425  1.00  0.00     0.000 C 
ENDROOT
BRANCH   1   2
ATOM      2  C   UNL     1       6.840  20.238  43.038  1.00  0.00     0.000 C 
BRANCH   2   3
ATOM      3  C   UNL     1       7.630  19.368  44.028  1.00  0.00     0.000 C 
BRANCH   3   4
ATOM      4  C   UNL     1       9.110  19.767  44.116  1.00  0.00     0.000 C 
BRANCH   4   5
ATOM      5  C   UNL     1       9.578  19.827  45.574  1.00  0.00     0.000 C 
BRANCH   5   6
ATOM      6  C   UNL     1      10.850  18.990  45.780  1.00  0.00     0.000 C 
BRANCH   6   7
ATOM      7  C   UNL     1      10.885  17.731  44.895  1.00  0.00     0.006 C 
BRANCH   7   8
ATOM      8  C   UNL     1      12.298  17.198  44.607  1.00  0.00     0.053 C 
BRANCH   8   9
ATOM      9  C   UNL     1      12.559  15.895  45.297  1.00  0.00     0.041 C 
ATOM     10  O   UNL     1      13.045  14.926  44.656  1.00  0.00    -0.550 OA
ATOM     11  O   UNL     1      12.234  15.741  46.638  1.00  0.00    -0.550 OA
ENDBRANCH   8   9
ENDBRANCH   7   8
ENDBRANCH   6   7
ENDBRANCH   5   6
ENDBRANCH   4   5
ENDBRANCH   3   4
ENDBRANCH   2   3
ENDBRANCH   1   2
BRANCH   1  12
ATOM     12  C   UNL     1       4.884  21.841  43.445  1.00  0.00     0.000 C 
BRANCH  12  13
ATOM     13  C   UNL     1       4.500  22.317  44.856  1.00  0.00    -0.000 C 
BRANCH  13  14
ATOM     14  C   UNL     1       4.888  21.306  45.946  1.00  0.00    -0.000 C 
BRANCH  14  15
ATOM     15  C   UNL     1       6.207  21.663  46.648  1.00  0.00    -0.000 C 
BRANCH  15  16
ATOM     16  C   UNL     1       6.490  23.169  46.549  1.00  0.00    -0.000 C 
BRANCH  16  17
ATOM     17  C   UNL     1       7.985  23.485  46.371  1.00  0.00    -0.000 C 
BRANCH  17  18
ATOM     18  C   UNL     1       8.474  23.237  44.933  1.00  0.00    -0.000 C 
BRANCH  18  19
ATOM     19  C   UNL     1       8.059  24.360  43.970  1.00  0.00    -0.003 C 
ATOM     20  C   UNL     1       7.772  23.853  42.557  1.00  0.00     0.004 C 
ENDBRANCH  18  19
ENDBRANCH  17  18
ENDBRANCH  16  17
ENDBRANCH  15  16
ENDBRANCH  14  15
ENDBRANCH  13  14
ENDBRANCH  12  13
ENDBRANCH   1  12
TORSDOF 16
ENDMDL
MODEL 3
REMARK VINA RESULT:    -5.487      7.300     10.897
REMARK INTER + INTRA:         -13.083
REMARK INTER:                 -10.683
REMARK INTRA:                  -2.399
REMARK UNBOUND:                -2.464
REMARK SMILES CCCCCCCCCCCCCCCCCC(=O)[O-]
REMARK SMILES IDX 10 1 11 2 12 3 13 4 14 5 15 6 16 7 17 8 18 9 19 10 20 11
REMARK SMILES IDX 9 12 8 13 7 14 6 15 5 16 4 17 3 18 2 19 1 20
REMARK H PARENT
REMARK Flexibility Score: inf
ROOT
ATOM      1  C   UNL     1       8.086  21.202  45.765  1.00  0.00     0.000 C 
ENDROOT
BRANCH   1   2
ATOM      2  C   UNL     1       8.488  19.720  45.667  1.00  0.00     0.000 C 
BRANCH   2   3
ATOM      3  C   UNL     1       9.169  19.379  44.332  1.00  0.00     0.000 C 
BRANCH   3   4
ATOM      4  C   UNL     1      10.176  18.225  44.460  1.00  0.00     0.000 C 
BRANCH   4   5
ATOM      5  C   UNL     1      11.145  18.468  45.623  1.00  0.00     0.000 C 
BRANCH   5   6
ATOM      6  C   UNL     1      12.159  17.321  45.742  1.00  0.00     0.000 C 
BRANCH   6   7
ATOM      7  C   UNL     1      12.109  16.353  44.546  1.00  0.00     0.006 C 
BRANCH   7   8
ATOM      8  C   UNL     1      13.363  16.380  43.656  1.00  0.00     0.053 C 
BRANCH   8   9
ATOM      9  C   UNL     1      14.352  15.326  44.046  1.00  0.00     0.041 C 
ATOM     10  O   UNL     1      14.441  14.263  43.376  1.00  0.00    -0.550 OA
ATOM     11  O   UNL     1      15.151  15.503  45.168  1.00  0.00    -0.550 OA
ENDBRANCH   8   9
ENDBRANCH   7   8
ENDBRANCH   6   7
ENDBRANCH   5   6
ENDBRANCH   4   5
ENDBRANCH   3   4
ENDBRANCH   2   3
ENDBRANCH   1   2
BRANCH   1  12
ATOM     12  C   UNL     1       8.880  22.098  44.801  1.00  0.00     0.000 C 
BRANCH  12  13
ATOM     13  C   UNL     1       8.159  23.423  44.499  1.00  0.00    -0.000 C 
BRANCH  13  14
ATOM     14  C   UNL     1       7.971  23.663  42.992  1.00  0.00    -0.000 C 
BRANCH  14  15
ATOM     15  C   UNL     1       7.968  22.360  42.178  1.00  0.00    -0.000 C 
BRANCH  15  16
ATOM     16  C   UNL     1       6.532  21.920  41.854  1.00  0.00    -0.000 C 
BRANCH  16  17
ATOM     17  C   UNL     1       6.196  20.527  42.412  1.00  0.00    -0.000 C 
BRANCH  17  18
ATOM     18  C   UNL     1       5.223  20.587  43.603  1.00  0.00    -0.000 C 
BRANCH  18  19
ATOM     19  C   UNL     1       4.641  21.993  43.817  1.00  0.00    -0.003 C 
ATOM     20  C   UNL     1       4.595  22.398  45.290  1.00  0.00     0.004 C 
ENDBRANCH  18  19
ENDBRANCH  17  18
ENDBRANCH  16  17
ENDBRANCH  15  16
ENDBRANCH  14  15
ENDBRANCH  13  14
ENDBRANCH  12  13
ENDBRANCH   1  12
TORSDOF 16
ENDMDL
MODEL 4
REMARK VINA RESULT:    -5.468      7.443     10.766
REMARK INTER + INTRA:         -13.046
REMARK INTER:                 -10.829
REMARK INTRA:                  -2.217
REMARK UNBOUND:                -2.464
REMARK SMILES CCCCCCCCCCCCCCCCCC(=O)[O-]
REMARK SMILES IDX 10 1 11 2 12 3 13 4 14 5 15 6 16 7 17 8 18 9 19 10 20 11
REMARK SMILES IDX 9 12 8 13 7 14 6 15 5 16 4 17 3 18 2 19 1 20
REMARK H PARENT
REMARK Flexibility Score: inf
ROOT
ATOM      1  C   UNL     1       8.381  21.098  45.878  1.00  0.00     0.000 C 
ENDROOT
BRANCH   1   2
ATOM      2  C   UNL     1       9.613  21.210  44.961  1.00  0.00     0.000 C 
BRANCH   2   3
ATOM      3  C   UNL     1       9.621  20.149  43.850  1.00  0.00     0.000 C 
BRANCH   3   4
ATOM      4  C   UNL     1       9.308  18.740  44.375  1.00  0.00     0.000 C 
BRANCH   4   5
ATOM      5  C   UNL     1      10.572  17.873  44.411  1.00  0.00     0.000 C 
BRANCH   5   6
ATOM      6  C   UNL     1      11.405  18.164  45.668  1.00  0.00     0.000 C 
BRANCH   6   7
ATOM      7  C   UNL     1      12.622  17.231  45.807  1.00  0.00     0.006 C 
BRANCH   7   8
ATOM      8  C   UNL     1      12.473  15.884  45.082  1.00  0.00     0.053 C 
BRANCH   8   9
ATOM      9  C   UNL     1      13.749  15.099  45.089  1.00  0.00     0.041 C 
ATOM     10  O   UNL     1      14.858  15.694  45.061  1.00  0.00    -0.550 OA
ATOM     11  O   UNL     1      13.711  13.711  45.091  1.00  0.00    -0.550 OA
ENDBRANCH   8   9
ENDBRANCH   7   8
ENDBRANCH   6   7
ENDBRANCH   5   6
ENDBRANCH   4   5
ENDBRANCH   3   4
ENDBRANCH   2   3
ENDBRANCH   1   2
BRANCH   1  12
ATOM     12  C   UNL     1       7.602  22.418  45.989  1.00  0.00     0.000 C 
BRANCH  12  13
ATOM     13  C   UNL     1       6.144  22.207  46.433  1.00  0.00    -0.000 C 
BRANCH  13  14
ATOM     14  C   UNL     1       5.586  20.844  45.998  1.00  0.00    -0.000 C 
BRANCH  14  15
ATOM     15  C   UNL     1       4.898  20.892  44.625  1.00  0.00    -0.000 C 
BRANCH  15  16
ATOM     16  C   UNL     1       5.751  20.186  43.560  1.00  0.00    -0.000 C 
BRANCH  16  17
ATOM     17  C   UNL     1       5.836  20.976  42.243  1.00  0.00    -0.000 C 
BRANCH  17  18
ATOM     18  C   UNL     1       6.244  22.444  42.461  1.00  0.00    -0.000 C 
BRANCH  18  19
ATOM     19  C   UNL     1       7.737  22.686  42.189  1.00  0.00    -0.003 C 
ATOM     20  C   UNL     1       8.180  24.107  42.537  1.00  0.00     0.004 C 
ENDBRANCH  18  19
ENDBRANCH  17  18
ENDBRANCH  16  17
ENDBRANCH  15  16
ENDBRANCH  14  15
ENDBRANCH  13  14
ENDBRANCH  12  13
ENDBRANCH   1  12
TORSDOF 16
ENDMDL
MODEL 5
REMARK VINA RESULT:    -5.464      2.030      3.085
REMARK INTER + INTRA:         -13.038
REMARK INTER:                 -10.874
REMARK INTRA:                  -2.164
REMARK UNBOUND:                -2.464
REMARK SMILES CCCCCCCCCCCCCCCCCC(=O)[O-]
REMARK SMILES IDX 10 1 11 2 12 3 13 4 14 5 15 6 16 7 17 8 18 9 19 10 20 11
REMARK SMILES IDX 9 12 8 13 7 14 6 15 5 16 4 17 3 18 2 19 1 20
REMARK H PARENT
REMARK Flexibility Score: inf
ROOT
ATOM      1  C   UNL     1       6.485  24.631  43.180  1.00  0.00     0.000 C 
ENDROOT
BRANCH   1   2
ATOM      2  C   UNL     1       5.214  25.357  43.656  1.00  0.00     0.000 C 
BRANCH   2   3
ATOM      3  C   UNL     1       4.026  24.402  43.855  1.00  0.00     0.000 C 
BRANCH   3   4
ATOM      4  C   UNL     1       2.706  25.146  44.108  1.00  0.00     0.000 C 
BRANCH   4   5
ATOM      5  C   UNL     1       2.638  26.439  43.288  1.00  0.00     0.000 C 
BRANCH   5   6
ATOM      6  C   UNL     1       1.207  26.998  43.260  1.00  0.00     0.000 C 
BRANCH   6   7
ATOM      7  C   UNL     1       1.162  28.508  42.963  1.00  0.00     0.006 C 
BRANCH   7   8
ATOM      8  C   UNL     1      -0.066  28.959  42.157  1.00  0.00     0.053 C 
BRANCH   8   9
ATOM      9  C   UNL     1       0.283  29.289  40.738  1.00  0.00     0.041 C 
ATOM     10  O   UNL     1       1.014  28.512  40.069  1.00  0.00    -0.550 OA
ATOM     11  O   UNL     1      -0.172  30.470  40.166  1.00  0.00    -0.550 OA
ENDBRANCH   8   9
ENDBRANCH   7   8
ENDBRANCH   6   7
ENDBRANCH   5   6
ENDBRANCH   4   5
ENDBRANCH   3   4
ENDBRANCH   2   3
ENDBRANCH   1   2
BRANCH   1  12
ATOM     12  C   UNL     1       6.198  23.216  42.653  1.00  0.00     0.000 C 
BRANCH  12  13
ATOM     13  C   UNL     1       7.387  22.260  42.853  1.00  0.00    -0.000 C 
BRANCH  13  14
ATOM     14  C   UNL     1       8.442  22.824  43.817  1.00  0.00    -0.000 C 
BRANCH  14  15
ATOM     15  C   UNL     1       8.414  22.145  45.195  1.00  0.00    -0.000 C 
BRANCH  15  16
ATOM     16  C   UNL     1       7.903  23.113  46.272  1.00  0.00    -0.000 C 
BRANCH  16  17
ATOM     17  C   UNL     1       6.402  22.946  46.561  1.00  0.00    -0.000 C 
BRANCH  17  18
ATOM     18  C   UNL     1       5.953  21.475  46.519  1.00  0.00    -0.000 C 
BRANCH  18  19
ATOM     19  C   UNL     1       4.574  21.299  45.862  1.00  0.00    -0.003 C 
ATOM     20  C   UNL     1       4.644  20.561  44.525  1.00  0.00     0.004 C 
ENDBRANCH  18  19
ENDBRANCH  17  18
ENDBRANCH  16  17
ENDBRANCH  15  16
ENDBRANCH  14  15
ENDBRANCH  13  14
ENDBRANCH  12  13
ENDBRANCH   1  12
TORSDOF 16
ENDMDL
MODEL 6
REMARK VINA RESULT:    -5.455      6.720     10.209
REMARK INTER + INTRA:         -13.022
REMARK INTER:                 -10.456
REMARK INTRA:                  -2.566
REMARK UNBOUND:                -2.464
REMARK SMILES CCCCCCCCCCCCCCCCCC(=O)[O-]
REMARK SMILES IDX 10 1 11 2 12 3 13 4 14 5 15 6 16 7 17 8 18 9 19 10 20 11
REMARK SMILES IDX 9 12 8 13 7 14 6 15 5 16 4 17 3 18 2 19 1 20
REMARK H PARENT
REMARK Flexibility Score: inf
ROOT
ATOM      1  C   UNL     1       7.224  19.705  44.410  1.00  0.00     0.000 C 
ENDROOT
BRANCH   1   2
ATOM      2  C   UNL     1       8.212  20.456  43.499  1.00  0.00     0.000 C 
BRANCH   2   3
ATOM      3  C   UNL     1       9.603  20.610  44.135  1.00  0.00     0.000 C 
BRANCH   3   4
ATOM      4  C   UNL     1       9.665  20.046  45.563  1.00  0.00     0.000 C 
BRANCH   4   5
ATOM      5  C   UNL     1      10.840  19.074  45.719  1.00  0.00     0.000 C 
BRANCH   5   6
ATOM      6  C   UNL     1      10.775  17.958  44.666  1.00  0.00     0.000 C 
BRANCH   6   7
ATOM      7  C   UNL     1      11.819  16.852  44.904  1.00  0.00     0.006 C 
BRANCH   7   8
ATOM      8  C   UNL     1      13.091  17.326  45.625  1.00  0.00     0.053 C 
BRANCH   8   9
ATOM      9  C   UNL     1      13.381  16.510  46.847  1.00  0.00     0.041 C 
ATOM     10  O   UNL     1      12.842  15.382  46.998  1.00  0.00    -0.550 OA
ATOM     11  O   UNL     1      14.220  17.010  47.835  1.00  0.00    -0.550 OA
ENDBRANCH   8   9
ENDBRANCH   7   8
ENDBRANCH   6   7
ENDBRANCH   5   6
ENDBRANCH   4   5
ENDBRANCH   3   4
ENDBRANCH   2   3
ENDBRANCH   1   2
BRANCH   1  12
ATOM     12  C   UNL     1       6.028  20.574  44.830  1.00  0.00     0.000 C 
BRANCH  12  13
ATOM     13  C   UNL     1       6.111  21.020  46.300  1.00  0.00    -0.000 C 
BRANCH  13  14
ATOM     14  C   UNL     1       6.241  22.544  46.448  1.00  0.00    -0.000 C 
BRANCH  14  15
ATOM     15  C   UNL     1       7.690  23.034  46.307  1.00  0.00    -0.000 C 
BRANCH  15  16
ATOM     16  C   UNL     1       7.857  23.894  45.045  1.00  0.00    -0.000 C 
BRANCH  16  17
ATOM     17  C   UNL     1       6.514  24.251  44.386  1.00  0.00    -0.000 C 
BRANCH  17  18
ATOM     18  C   UNL     1       6.422  23.764  42.930  1.00  0.00    -0.000 C 
BRANCH  18  19
ATOM     19  C   UNL     1       5.003  23.314  42.548  1.00  0.00    -0.003 C 
ATOM     20  C   UNL     1       3.999  23.489  43.687  1.00  0.00     0.004 C 
ENDBRANCH  18  19
ENDBRANCH  17  18
ENDBRANCH  16  17
ENDBRANCH  15  16
ENDBRANCH  14  15
ENDBRANCH  13  14
ENDBRANCH  12  13
ENDBRANCH   1  12
TORSDOF 16
ENDMDL
MODEL 7
REMARK VINA RESULT:    -5.449      7.403     10.904
REMARK INTER + INTRA:         -13.010
REMARK INTER:                 -10.865
REMARK INTRA:                  -2.145
REMARK UNBOUND:                -2.464
REMARK SMILES CCCCCCCCCCCCCCCCCC(=O)[O-]
REMARK SMILES IDX 10 1 11 2 12 3 13 4 14 5 15 6 16 7 17 8 18 9 19 10 20 11
REMARK SMILES IDX 9 12 8 13 7 14 6 15 5 16 4 17 3 18 2 19 1 20
REMARK H PARENT
REMARK Flexibility Score: inf
ROOT
ATOM      1  C   UNL     1       8.337  20.342  43.553  1.00  0.00     0.000 C 
ENDROOT
BRANCH   1   2
ATOM      2  C   UNL     1       8.535  19.292  44.660  1.00  0.00     0.000 C 
BRANCH   2   3
ATOM      3  C   UNL     1       9.509  19.761  45.753  1.00  0.00     0.000 C 
BRANCH   3   4
ATOM      4  C   UNL     1      10.833  18.982  45.739  1.00  0.00     0.000 C 
BRANCH   4   5
ATOM      5  C   UNL     1      10.817  17.889  44.664  1.00  0.00     0.000 C 
BRANCH   5   6
ATOM      6  C   UNL     1      11.887  16.824  44.946  1.00  0.00     0.000 C 
BRANCH   6   7
ATOM      7  C   UNL     1      12.376  16.841  46.405  1.00  0.00     0.006 C 
BRANCH   7   8
ATOM      8  C   UNL     1      12.945  15.500  46.898  1.00  0.00     0.053 C 
BRANCH   8   9
ATOM      9  C   UNL     1      14.421  15.571  47.138  1.00  0.00     0.041 C 
ATOM     10  O   UNL     1      15.203  15.853  46.193  1.00  0.00    -0.550 OA
ATOM     11  O   UNL     1      14.935  15.292  48.398  1.00  0.00    -0.550 OA
ENDBRANCH   8   9
ENDBRANCH   7   8
ENDBRANCH   6   7
ENDBRANCH   5   6
ENDBRANCH   4   5
ENDBRANCH   3   4
ENDBRANCH   2   3
ENDBRANCH   1   2
BRANCH   1  12
ATOM     12  C   UNL     1       6.933  20.290  42.930  1.00  0.00     0.000 C 
BRANCH  12  13
ATOM     13  C   UNL     1       6.387  21.688  42.590  1.00  0.00    -0.000 C 
BRANCH  13  14
ATOM     14  C   UNL     1       5.104  22.026  43.367  1.00  0.00    -0.000 C 
BRANCH  14  15
ATOM     15  C   UNL     1       4.651  20.887  44.292  1.00  0.00    -0.000 C 
BRANCH  15  16
ATOM     16  C   UNL     1       4.643  21.343  45.759  1.00  0.00    -0.000 C 
BRANCH  16  17
ATOM     17  C   UNL     1       6.055  21.448  46.358  1.00  0.00    -0.000 C 
BRANCH  17  18
ATOM     18  C   UNL     1       6.473  22.902  46.635  1.00  0.00    -0.000 C 
BRANCH  18  19
ATOM     19  C   UNL     1       7.954  23.160  46.313  1.00  0.00    -0.003 C 
ATOM     20  C   UNL     1       8.157  23.827  44.953  1.00  0.00     0.004 C 
ENDBRANCH  18  19
ENDBRANCH  17  18
ENDBRANCH  16  17
ENDBRANCH  15  16
ENDBRANCH  14  15
ENDBRANCH  13  14
ENDBRANCH  12  13
ENDBRANCH   1  12
TORSDOF 16
ENDMDL
MODEL 8
REMARK VINA RESULT:    -5.409      3.822      9.348
REMARK INTER + INTRA:         -12.932
REMARK INTER:                 -10.989
REMARK INTRA:                  -1.943
REMARK UNBOUND:                -2.464
REMARK SMILES CCCCCCCCCCCCCCCCCC(=O)[O-]
REMARK SMILES IDX 10 1 11 2 12 3 13 4 14 5 15 6 16 7 17 8 18 9 19 10 20 11
REMARK SMILES IDX 9 12 8 13 7 14 6 15 5 16 4 17 3 18 2 19 1 20
REMARK H PARENT
REMARK Flexibility Score: inf
ROOT
ATOM      1  C   UNL     1       0.732  27.757  42.363  1.00  0.00     0.000 C 
ENDROOT
BRANCH   1   2
ATOM      2  C   UNL     1       1.132  27.267  43.767  1.00  0.00     0.000 C 
BRANCH   2   3
ATOM      3  C   UNL     1       1.968  25.978  43.727  1.00  0.00     0.000 C 
BRANCH   3   4
ATOM      4  C   UNL     1       3.273  26.145  42.933  1.00  0.00     0.000 C 
BRANCH   4   5
ATOM      5  C   UNL     1       4.106  24.859  42.970  1.00  0.00     0.000 C 
BRANCH   5   6
ATOM      6  C   UNL     1       3.421  23.782  43.824  1.00  0.00     0.000 C 
BRANCH   6   7
ATOM      7  C   UNL     1       4.312  22.549  44.059  1.00  0.00     0.006 C 
BRANCH   7   8
ATOM      8  C   UNL     1       5.071  22.562  45.397  1.00  0.00     0.053 C 
BRANCH   8   9
ATOM      9  C   UNL     1       6.548  22.709  45.203  1.00  0.00     0.041 C 
ATOM     10  O   UNL     1       7.325  21.770  45.522  1.00  0.00    -0.550 OA
ATOM     11  O   UNL     1       7.070  23.895  44.703  1.00  0.00    -0.550 OA
ENDBRANCH   8   9
ENDBRANCH   7   8
ENDBRANCH   6   7
ENDBRANCH   5   6
ENDBRANCH   4   5
ENDBRANCH   3   4
ENDBRANCH   2   3
ENDBRANCH   1   2
BRANCH   1  12
ATOM     12  C   UNL     1       1.282  29.157  42.046  1.00  0.00     0.000 C 
BRANCH  12  13
ATOM     13  C   UNL     1       0.511  29.848  40.907  1.00  0.00    -0.000 C 
BRANCH  13  14
ATOM     14  C   UNL     1      -0.632  28.982  40.358  1.00  0.00    -0.000 C 
BRANCH  14  15
ATOM     15  C   UNL     1      -2.019  29.471  40.805  1.00  0.00    -0.000 C 
BRANCH  15  16
ATOM     16  C   UNL     1      -1.930  30.872  41.428  1.00  0.00    -0.000 C 
BRANCH  16  17
ATOM     17  C   UNL     1      -2.400  30.904  42.892  1.00  0.00    -0.000 C 
BRANCH  17  18
ATOM     18  C   UNL     1      -2.756  29.507  43.429  1.00  0.00    -0.000 C 
BRANCH  18  19
ATOM     19  C   UNL     1      -1.950  29.136  44.684  1.00  0.00    -0.003 C 
ATOM     20  C   UNL     1      -0.868  30.163  45.018  1.00  0.00     0.004 C 
ENDBRANCH  18  19
ENDBRANCH  17  18
ENDBRANCH  16  17
ENDBRANCH  15  16
ENDBRANCH  14  15
ENDBRANCH  13  14
ENDBRANCH  12  13
ENDBRANCH   1  12
TORSDOF 16
ENDMDL
MODEL 9
REMARK VINA RESULT:    -5.398      3.614      9.349
REMARK INTER + INTRA:         -12.912
REMARK INTER:                 -11.045
REMARK INTRA:                  -1.867
REMARK UNBOUND:                -2.464
REMARK SMILES CCCCCCCCCCCCCCCCCC(=O)[O-]
REMARK SMILES IDX 10 1 11 2 12 3 13 4 14 5 15 6 16 7 17 8 18 9 19 10 20 11
REMARK SMILES IDX 9 12 8 13 7 14 6 15 5 16 4 17 3 18 2 19 1 20
REMARK H PARENT
REMARK Flexibility Score: inf
ROOT
ATOM      1  C   UNL     1       0.844  26.965  43.250  1.00  0.00     0.000 C 
ENDROOT
BRANCH   1   2
ATOM      2  C   UNL     1       2.294  27.313  42.868  1.00  0.00     0.000 C 
BRANCH   2   3
ATOM      3  C   UNL     1       3.249  26.120  43.020  1.00  0.00     0.000 C 
BRANCH   3   4
ATOM      4  C   UNL     1       2.746  25.086  44.039  1.00  0.00     0.000 C 
BRANCH   4   5
ATOM      5  C   UNL     1       3.898  24.554  44.898  1.00  0.00     0.000 C 
BRANCH   5   6
ATOM      6  C   UNL     1       4.006  23.026  44.791  1.00  0.00     0.000 C 
BRANCH   6   7
ATOM      7  C   UNL     1       4.887  22.570  43.613  1.00  0.00     0.006 C 
BRANCH   7   8
ATOM      8  C   UNL     1       6.366  22.358  43.974  1.00  0.00     0.053 C 
BRANCH   8   9
ATOM      9  C   UNL     1       7.234  23.466  43.463  1.00  0.00     0.041 C 
ATOM     10  O   UNL     1       8.475  23.448  43.677  1.00  0.00    -0.550 OA
ATOM     11  O   UNL     1       6.668  24.533  42.778  1.00  0.00    -0.550 OA
ENDBRANCH   8   9
ENDBRANCH   7   8
ENDBRANCH   6   7
ENDBRANCH   5   6
ENDBRANCH   4   5
ENDBRANCH   3   4
ENDBRANCH   2   3
ENDBRANCH   1   2
BRANCH   1  12
ATOM     12  C   UNL     1       0.217  27.995  44.202  1.00  0.00     0.000 C 
BRANCH  12  13
ATOM     13  C   UNL     1      -1.302  27.808  44.356  1.00  0.00    -0.000 C 
BRANCH  13  14
ATOM     14  C   UNL     1      -2.001  29.065  44.899  1.00  0.00    -0.000 C 
BRANCH  14  15
ATOM     15  C   UNL     1      -2.761  29.840  43.812  1.00  0.00    -0.000 C 
BRANCH  15  16
ATOM     16  C   UNL     1      -2.021  31.136  43.446  1.00  0.00    -0.000 C 
BRANCH  16  17
ATOM     17  C   UNL     1      -1.556  31.162  41.980  1.00  0.00    -0.000 C 
BRANCH  17  18
ATOM     18  C   UNL     1      -0.108  30.671  41.811  1.00  0.00    -0.000 C 
BRANCH  18  19
ATOM     19  C   UNL     1       0.046  29.684  40.643  1.00  0.00    -0.003 C 
ATOM     20  C   UNL     1      -1.163  28.763  40.481  1.00  0.00     0.004 C 
ENDBRANCH  18  19
ENDBRANCH  17  18
ENDBRANCH  16  17
ENDBRANCH  15  16
ENDBRANCH  14  15
ENDBRANCH  13  14
ENDBRANCH  12  13
ENDBRANCH   1  12
TORSDOF 16
ENDMDL
