MODEL 1
REMARK VINA RESULT:    -3.394      0.000      0.000
REMARK INTER + INTRA:         -11.413
REMARK INTER:                  -8.951
REMARK INTRA:                  -2.463
REMARK UNBOUND:                -2.463
REMARK SMILES CCCCCCCCCCCCCCCCCCCCCCCCCCCCCC(=O)[O-]
REMARK SMILES IDX 16 1 17 2 18 3 19 4 20 5 21 6 22 7 23 8 24 9 25 10 26 11
REMARK SMILES IDX 27 12 28 13 29 14 30 15 31 16 32 17 15 18 14 19 13 20 12 21
REMARK SMILES IDX 11 22 10 23 9 24 8 25 7 26 6 27 5 28 4 29 3 30 2 31 1 32
REMARK H PARENT
REMARK Flexibility Score: inf
ROOT
ATOM      1  C   UNL     1      -1.897   2.825  10.104  1.00  0.00     0.000 C 
ENDROOT
BRANCH   1   2
ATOM      2  C   UNL     1      -3.132   3.019   9.208  1.00  0.00     0.000 C 
BRANCH   2   3
ATOM      3  C   UNL     1      -3.935   1.721   9.016  1.00  0.00     0.000 C 
BRANCH   3   4
ATOM      4  C   UNL     1      -5.295   1.746   9.739  1.00  0.00     0.000 C 
BRANCH   4   5
ATOM      5  C   UNL     1      -5.924   3.143   9.895  1.00  0.00     0.000 C 
BRANCH   5   6
ATOM      6  C   UNL     1      -7.457   3.098   9.995  1.00  0.00     0.000 C 
BRANCH   6   7
ATOM      7  C   UNL     1      -8.103   3.422   8.639  1.00  0.00     0.000 C 
BRANCH   7   8
ATOM      8  C   UNL     1      -9.583   3.017   8.563  1.00  0.00     0.000 C 
BRANCH   8   9
ATOM      9  C   UNL     1     -10.042   2.459   7.202  1.00  0.00     0.000 C 
BRANCH   9  10
ATOM     10  C   UNL     1      -9.797   0.945   7.019  1.00  0.00     0.000 C 
BRANCH  10  11
ATOM     11  C   UNL     1     -10.026   0.142   8.313  1.00  0.00     0.000 C 
BRANCH  11  12
ATOM     12  C   UNL     1      -8.702  -0.264   8.995  1.00  0.00     0.000 C 
BRANCH  12  13
ATOM     13  C   UNL     1      -8.662  -1.726   9.477  1.00  0.00     0.006 C 
BRANCH  13  14
ATOM     14  C   UNL     1      -9.902  -2.555   9.088  1.00  0.00     0.053 C 
BRANCH  14  15
ATOM     15  C   UNL     1      -9.569  -3.779   8.290  1.00  0.00     0.041 C 
ATOM     16  O   UNL     1      -9.069  -4.791   8.849  1.00  0.00    -0.550 OA
ATOM     17  O   UNL     1      -9.903  -3.837   6.942  1.00  0.00    -0.550 OA
ENDBRANCH  14  15
ENDBRANCH  13  14
ENDBRANCH  12  13
ENDBRANCH  11  12
ENDBRANCH  10  11
ENDBRANCH   9  10
ENDBRANCH   8   9
ENDBRANCH   7   8
ENDBRANCH   6   7
ENDBRANCH   5   6
ENDBRANCH   4   5
ENDBRANCH   3   4
ENDBRANCH   2   3
ENDBRANCH   1   2
BRANCH   1  18
ATOM     18  C   UNL     1      -0.743   3.772   9.741  1.00  0.00     0.000 C 
BRANCH  18  19
ATOM     19  C   UNL     1      -1.174   5.242   9.867  1.00  0.00     0.000 C 
BRANCH  19  20
ATOM     20  C   UNL     1      -0.561   6.136   8.776  1.00  0.00     0.000 C 
BRANCH  20  21
ATOM     21  C   UNL     1      -0.094   7.523   9.257  1.00  0.00     0.000 C 
BRANCH  21  22
ATOM     22  C   UNL     1      -0.545   8.686   8.348  1.00  0.00     0.000 C 
BRANCH  22  23
ATOM     23  C   UNL     1      -1.020   9.910   9.151  1.00  0.00     0.000 C 
BRANCH  23  24
ATOM     24  C   UNL     1      -2.553  10.026   9.187  1.00  0.00    -0.000 C 
BRANCH  24  25
ATOM     25  C   UNL     1      -3.222   8.760   9.751  1.00  0.00    -0.000 C 
BRANCH  25  26
ATOM     26  C   UNL     1      -4.752   8.891   9.834  1.00  0.00    -0.000 C 
BRANCH  26  27
ATOM     27  C   UNL     1      -5.356   9.521   8.567  1.00  0.00    -0.000 C 
BRANCH  27  28
ATOM     28  C   UNL     1      -6.828   9.107   8.347  1.00  0.00    -0.000 C 
BRANCH  28  29
ATOM     29  C   UNL     1      -7.002   7.643   7.893  1.00  0.00    -0.000 C 
BRANCH  29  30
ATOM     30  C   UNL     1      -7.289   7.454   6.391  1.00  0.00    -0.000 C 
BRANCH  30  31
ATOM     31  C   UNL     1      -8.604   6.717   6.074  1.00  0.00    -0.003 C 
ATOM     32  C   UNL     1      -9.519   6.583   7.291  1.00  0.00     0.004 C 
ENDBRANCH  30  31
ENDBRANCH  29  30
ENDBRANCH  28  29
ENDBRANCH  27  28
ENDBRANCH  26  27
ENDBRANCH  25  26
ENDBRANCH  24  25
ENDBRANCH  23  24
ENDBRANCH  22  23
ENDBRANCH  21  22
ENDBRANCH  20  21
ENDBRANCH  19  20
ENDBRANCH  18  19
ENDBRANCH   1  18
TORSDOF 28
ENDMDL
MODEL 2
REMARK VINA RESULT:    -3.317      5.622     10.680
REMARK INTER + INTRA:         -11.208
REMARK INTER:                  -9.393
REMARK INTRA:                  -1.816
REMARK UNBOUND:                -2.463
REMARK SMILES CCCCCCCCCCCCCCCCCCCCCCCCCCCCCC(=O)[O-]
REMARK SMILES IDX 16 1 17 2 18 3 19 4 20 5 21 6 22 7 23 8 24 9 25 10 26 11
REMARK SMILES IDX 27 12 28 13 29 14 30 15 31 16 32 17 15 18 14 19 13 20 12 21
REMARK SMILES IDX 11 22 10 23 9 24 8 25 7 26 6 27 5 28 4 29 3 30 2 31 1 32
REMARK H PARENT
REMARK Flexibility Score: inf
ROOT
ATOM      1  C   UNL     1      -4.137   1.954   9.071  1.00  0.00     0.000 C 
ENDROOT
BRANCH   1   2
ATOM      2  C   UNL     1      -3.225   2.641  10.102  1.00  0.00     0.000 C 
BRANCH   2   3
ATOM      3  C   UNL     1      -1.764   2.740   9.630  1.00  0.00     0.000 C 
BRANCH   3   4
ATOM      4  C   UNL     1      -1.161   4.141   9.842  1.00  0.00     0.000 C 
BRANCH   4   5
ATOM      5  C   UNL     1      -1.727   5.241   8.924  1.00  0.00     0.000 C 
BRANCH   5   6
ATOM      6  C   UNL     1      -2.719   6.167   9.644  1.00  0.00     0.000 C 
BRANCH   6   7
ATOM      7  C   UNL     1      -2.154   7.591   9.756  1.00  0.00     0.000 C 
BRANCH   7   8
ATOM      8  C   UNL     1      -0.935   7.832   8.852  1.00  0.00     0.000 C 
BRANCH   8   9
ATOM      9  C   UNL     1      -0.534   9.308   8.669  1.00  0.00     0.000 C 
BRANCH   9  10
ATOM     10  C   UNL     1       0.277   9.898   9.844  1.00  0.00     0.000 C 
BRANCH  10  11
ATOM     11  C   UNL     1       1.793   9.922   9.571  1.00  0.00     0.000 C 
BRANCH  11  12
ATOM     12  C   UNL     1       2.123   9.705   8.079  1.00  0.00     0.000 C 
BRANCH  12  13
ATOM     13  C   UNL     1       3.622   9.810   7.742  1.00  0.00     0.006 C 
BRANCH  13  14
ATOM     14  C   UNL     1       4.444   8.563   8.122  1.00  0.00     0.053 C 
BRANCH  14  15
ATOM     15  C   UNL     1       5.782   8.893   8.712  1.00  0.00     0.041 C 
ATOM     16  O   UNL     1       6.842   8.490   8.161  1.00  0.00    -0.550 OA
ATOM     17  O   UNL     1       5.862   9.729   9.819  1.00  0.00    -0.550 OA
ENDBRANCH  14  15
ENDBRANCH  13  14
ENDBRANCH  12  13
ENDBRANCH  11  12
ENDBRANCH  10  11
ENDBRANCH   9  10
ENDBRANCH   8   9
ENDBRANCH   7   8
ENDBRANCH   6   7
ENDBRANCH   5   6
ENDBRANCH   4   5
ENDBRANCH   3   4
ENDBRANCH   2   3
ENDBRANCH   1   2
BRANCH   1  18
ATOM     18  C   UNL     1      -4.492   0.510   9.457  1.00  0.00     0.000 C 
BRANCH  18  19
ATOM     19  C   UNL     1      -5.740   0.027   8.702  1.00  0.00     0.000 C 
BRANCH  19  20
ATOM     20  C   UNL     1      -7.041   0.630   9.256  1.00  0.00     0.000 C 
BRANCH  20  21
ATOM     21  C   UNL     1      -8.331   0.141   8.570  1.00  0.00     0.000 C 
BRANCH  21  22
ATOM     22  C   UNL     1      -9.473   1.179   8.571  1.00  0.00     0.000 C 
BRANCH  22  23
ATOM     23  C   UNL     1      -9.115   2.447   9.366  1.00  0.00     0.000 C 
BRANCH  23  24
ATOM     24  C   UNL     1      -9.539   3.734   8.638  1.00  0.00    -0.000 C 
BRANCH  24  25
ATOM     25  C   UNL     1      -9.357   4.987   9.512  1.00  0.00    -0.000 C 
BRANCH  25  26
ATOM     26  C   UNL     1      -8.839   6.193   8.711  1.00  0.00    -0.000 C 
BRANCH  26  27
ATOM     27  C   UNL     1      -7.534   6.765   9.291  1.00  0.00    -0.000 C 
BRANCH  27  28
ATOM     28  C   UNL     1      -6.777   7.650   8.277  1.00  0.00    -0.000 C 
BRANCH  28  29
ATOM     29  C   UNL     1      -6.731   7.065   6.851  1.00  0.00    -0.000 C 
BRANCH  29  30
ATOM     30  C   UNL     1      -7.610   7.794   5.815  1.00  0.00    -0.000 C 
BRANCH  30  31
ATOM     31  C   UNL     1      -7.483   9.329   5.830  1.00  0.00    -0.003 C 
ATOM     32  C   UNL     1      -8.248  10.001   4.691  1.00  0.00     0.004 C 
ENDBRANCH  30  31
ENDBRANCH  29  30
ENDBRANCH  28  29
ENDBRANCH  27  28
ENDBRANCH  26  27
ENDBRANCH  25  26
ENDBRANCH  24  25
ENDBRANCH  23  24
ENDBRANCH  22  23
ENDBRANCH  21  22
ENDBRANCH  20  21
ENDBRANCH  19  20
ENDBRANCH  18  19
ENDBRANCH   1  18
TORSDOF 28
ENDMDL
MODEL 3
REMARK VINA RESULT:    -3.222      5.072      8.948
REMARK INTER + INTRA:         -10.959
REMARK INTER:                  -9.101
REMARK INTRA:                  -1.857
REMARK UNBOUND:                -2.463
REMARK SMILES CCCCCCCCCCCCCCCCCCCCCCCCCCCCCC(=O)[O-]
REMARK SMILES IDX 16 1 17 2 18 3 19 4 20 5 21 6 22 7 23 8 24 9 25 10 26 11
REMARK SMILES IDX 27 12 28 13 29 14 30 15 31 16 32 17 15 18 14 19 13 20 12 21
REMARK SMILES IDX 11 22 10 23 9 24 8 25 7 26 6 27 5 28 4 29 3 30 2 31 1 32
REMARK H PARENT
REMARK Flexibility Score: inf
ROOT
ATOM      1  C   UNL     1      -3.318   3.499   9.504  1.00  0.00     0.000 C 
ENDROOT
BRANCH   1   2
ATOM      2  C   UNL     1      -2.890   2.027   9.615  1.00  0.00     0.000 C 
BRANCH   2   3
ATOM      3  C   UNL     1      -3.921   1.061   9.007  1.00  0.00     0.000 C 
BRANCH   3   4
ATOM      4  C   UNL     1      -5.017   0.649  10.008  1.00  0.00     0.000 C 
BRANCH   4   5
ATOM      5  C   UNL     1      -6.390   0.342   9.382  1.00  0.00     0.000 C 
BRANCH   5   6
ATOM      6  C   UNL     1      -7.470   1.357   9.785  1.00  0.00     0.000 C 
BRANCH   6   7
ATOM      7  C   UNL     1      -6.843   2.718  10.125  1.00  0.00     0.000 C 
BRANCH   7   8
ATOM      8  C   UNL     1      -6.977   3.746   8.991  1.00  0.00     0.000 C 
BRANCH   8   9
ATOM      9  C   UNL     1      -8.335   4.472   8.920  1.00  0.00     0.000 C 
BRANCH   9  10
ATOM     10  C   UNL     1      -8.273   5.973   9.279  1.00  0.00     0.000 C 
BRANCH  10  11
ATOM     11  C   UNL     1      -6.856   6.560   9.151  1.00  0.00     0.000 C 
BRANCH  11  12
ATOM     12  C   UNL     1      -6.684   7.403   7.870  1.00  0.00     0.000 C 
BRANCH  12  13
ATOM     13  C   UNL     1      -7.833   7.251   6.855  1.00  0.00     0.006 C 
BRANCH  13  14
ATOM     14  C   UNL     1      -7.595   7.978   5.517  1.00  0.00     0.053 C 
BRANCH  14  15
ATOM     15  C   UNL     1      -8.521   9.137   5.300  1.00  0.00     0.041 C 
ATOM     16  O   UNL     1      -9.345   9.473   6.191  1.00  0.00    -0.550 OA
ATOM     17  O   UNL     1      -8.405   9.907   4.149  1.00  0.00    -0.550 OA
ENDBRANCH  14  15
ENDBRANCH  13  14
ENDBRANCH  12  13
ENDBRANCH  11  12
ENDBRANCH  10  11
ENDBRANCH   9  10
ENDBRANCH   8   9
ENDBRANCH   7   8
ENDBRANCH   6   7
ENDBRANCH   5   6
ENDBRANCH   4   5
ENDBRANCH   3   4
ENDBRANCH   2   3
ENDBRANCH   1   2
BRANCH   1  18
ATOM     18  C   UNL     1      -2.189   4.413   9.004  1.00  0.00     0.000 C 
BRANCH  18  19
ATOM     19  C   UNL     1      -0.912   4.220   9.837  1.00  0.00     0.000 C 
BRANCH  19  20
ATOM     20  C   UNL     1       0.016   5.444   9.796  1.00  0.00     0.000 C 
BRANCH  20  21
ATOM     21  C   UNL     1      -0.443   6.579   8.861  1.00  0.00     0.000 C 
BRANCH  21  22
ATOM     22  C   UNL     1       0.054   7.978   9.282  1.00  0.00     0.000 C 
BRANCH  22  23
ATOM     23  C   UNL     1       1.180   8.500   8.373  1.00  0.00     0.000 C 
BRANCH  23  24
ATOM     24  C   UNL     1       2.403   7.567   8.360  1.00  0.00    -0.000 C 
BRANCH  24  25
ATOM     25  C   UNL     1       3.621   8.207   7.671  1.00  0.00    -0.000 C 
BRANCH  25  26
ATOM     26  C   UNL     1       3.738   9.712   7.963  1.00  0.00    -0.000 C 
BRANCH  26  27
ATOM     27  C   UNL     1       4.206   9.995   9.401  1.00  0.00    -0.000 C 
BRANCH  27  28
ATOM     28  C   UNL     1       5.609   9.417   9.688  1.00  0.00    -0.000 C 
BRANCH  28  29
ATOM     29  C   UNL     1       6.627   9.661   8.555  1.00  0.00    -0.000 C 
BRANCH  29  30
ATOM     30  C   UNL     1       8.056  10.002   9.021  1.00  0.00    -0.000 C 
BRANCH  30  31
ATOM     31  C   UNL     1       8.702   8.948   9.940  1.00  0.00    -0.003 C 
ATOM     32  C   UNL     1       9.994   8.368   9.365  1.00  0.00     0.004 C 
ENDBRANCH  30  31
ENDBRANCH  29  30
ENDBRANCH  28  29
ENDBRANCH  27  28
ENDBRANCH  26  27
ENDBRANCH  25  26
ENDBRANCH  24  25
ENDBRANCH  23  24
ENDBRANCH  22  23
ENDBRANCH  21  22
ENDBRANCH  20  21
ENDBRANCH  19  20
ENDBRANCH  18  19
ENDBRANCH   1  18
TORSDOF 28
ENDMDL
MODEL 4
REMARK VINA RESULT:    -3.188      3.942      7.903
REMARK INTER + INTRA:         -10.869
REMARK INTER:                  -8.728
REMARK INTRA:                  -2.141
REMARK UNBOUND:                -2.463
REMARK SMILES CCCCCCCCCCCCCCCCCCCCCCCCCCCCCC(=O)[O-]
REMARK SMILES IDX 16 1 17 2 18 3 19 4 20 5 21 6 22 7 23 8 24 9 25 10 26 11
REMARK SMILES IDX 27 12 28 13 29 14 30 15 31 16 32 17 15 18 14 19 13 20 12 21
REMARK SMILES IDX 11 22 10 23 9 24 8 25 7 26 6 27 5 28 4 29 3 30 2 31 1 32
REMARK H PARENT
REMARK Flexibility Score: inf
ROOT
ATOM      1  C   UNL     1      -3.637   2.123   9.812  1.00  0.00     0.000 C 
ENDROOT
BRANCH   1   2
ATOM      2  C   UNL     1      -4.544   0.897   9.620  1.00  0.00     0.000 C 
BRANCH   2   3
ATOM      3  C   UNL     1      -6.015   1.278   9.381  1.00  0.00     0.000 C 
BRANCH   3   4
ATOM      4  C   UNL     1      -6.886   0.076   8.969  1.00  0.00     0.000 C 
BRANCH   4   5
ATOM      5  C   UNL     1      -8.271   0.437   8.404  1.00  0.00     0.000 C 
BRANCH   5   6
ATOM      6  C   UNL     1      -8.954   1.574   9.180  1.00  0.00     0.000 C 
BRANCH   6   7
ATOM      7  C   UNL     1      -9.541   2.618   8.217  1.00  0.00     0.000 C 
BRANCH   7   8
ATOM      8  C   UNL     1      -9.232   4.065   8.634  1.00  0.00     0.000 C 
BRANCH   8   9
ATOM      9  C   UNL     1      -7.738   4.390   8.822  1.00  0.00     0.000 C 
BRANCH   9  10
ATOM     10  C   UNL     1      -7.455   5.530   9.825  1.00  0.00     0.000 C 
BRANCH  10  11
ATOM     11  C   UNL     1      -6.160   6.299   9.505  1.00  0.00     0.000 C 
BRANCH  11  12
ATOM     12  C   UNL     1      -6.346   7.828   9.608  1.00  0.00     0.000 C 
BRANCH  12  13
ATOM     13  C   UNL     1      -5.766   8.615   8.417  1.00  0.00     0.006 C 
BRANCH  13  14
ATOM     14  C   UNL     1      -6.818   9.062   7.382  1.00  0.00     0.053 C 
BRANCH  14  15
ATOM     15  C   UNL     1      -7.726   7.953   6.944  1.00  0.00     0.041 C 
ATOM     16  O   UNL     1      -8.882   7.840   7.434  1.00  0.00    -0.550 OA
ATOM     17  O   UNL     1      -7.330   7.099   5.922  1.00  0.00    -0.550 OA
ENDBRANCH  14  15
ENDBRANCH  13  14
ENDBRANCH  12  13
ENDBRANCH  11  12
ENDBRANCH  10  11
ENDBRANCH   9  10
ENDBRANCH   8   9
ENDBRANCH   7   8
ENDBRANCH   6   7
ENDBRANCH   5   6
ENDBRANCH   4   5
ENDBRANCH   3   4
ENDBRANCH   2   3
ENDBRANCH   1   2
BRANCH   1  18
ATOM     18  C   UNL     1      -2.269   1.966   9.130  1.00  0.00     0.000 C 
BRANCH  18  19
ATOM     19  C   UNL     1      -1.498   3.296   9.124  1.00  0.00     0.000 C 
BRANCH  19  20
ATOM     20  C   UNL     1      -2.427   4.520   9.114  1.00  0.00     0.000 C 
BRANCH  20  21
ATOM     21  C   UNL     1      -1.711   5.883   9.187  1.00  0.00     0.000 C 
BRANCH  21  22
ATOM     22  C   UNL     1      -0.336   5.831   9.887  1.00  0.00     0.000 C 
BRANCH  22  23
ATOM     23  C   UNL     1       0.611   6.943   9.403  1.00  0.00     0.000 C 
BRANCH  23  24
ATOM     24  C   UNL     1       0.035   7.725   8.211  1.00  0.00    -0.000 C 
BRANCH  24  25
ATOM     25  C   UNL     1      -0.636   9.041   8.645  1.00  0.00    -0.000 C 
BRANCH  25  26
ATOM     26  C   UNL     1       0.343   9.995   9.350  1.00  0.00    -0.000 C 
BRANCH  26  27
ATOM     27  C   UNL     1       1.701  10.077   8.631  1.00  0.00    -0.000 C 
BRANCH  27  28
ATOM     28  C   UNL     1       2.892   9.969   9.609  1.00  0.00    -0.000 C 
BRANCH  28  29
ATOM     29  C   UNL     1       4.049   9.092   9.087  1.00  0.00    -0.000 C 
BRANCH  29  30
ATOM     30  C   UNL     1       5.289   9.868   8.600  1.00  0.00    -0.000 C 
BRANCH  30  31
ATOM     31  C   UNL     1       6.552   9.007   8.408  1.00  0.00    -0.003 C 
ATOM     32  C   UNL     1       7.788   9.606   9.078  1.00  0.00     0.004 C 
ENDBRANCH  30  31
ENDBRANCH  29  30
ENDBRANCH  28  29
ENDBRANCH  27  28
ENDBRANCH  26  27
ENDBRANCH  25  26
ENDBRANCH  24  25
ENDBRANCH  23  24
ENDBRANCH  22  23
ENDBRANCH  21  22
ENDBRANCH  20  21
ENDBRANCH  19  20
ENDBRANCH  18  19
ENDBRANCH   1  18
TORSDOF 28
ENDMDL
MODEL 5
REMARK VINA RESULT:    -3.158      5.166     10.358
REMARK INTER + INTRA:         -10.791
REMARK INTER:                  -8.369
REMARK INTRA:                  -2.421
REMARK UNBOUND:                -2.463
REMARK SMILES CCCCCCCCCCCCCCCCCCCCCCCCCCCCCC(=O)[O-]
REMARK SMILES IDX 16 1 17 2 18 3 19 4 20 5 21 6 22 7 23 8 24 9 25 10 26 11
REMARK SMILES IDX 27 12 28 13 29 14 30 15 31 16 32 17 15 18 14 19 13 20 12 21
REMARK SMILES IDX 11 22 10 23 9 24 8 25 7 26 6 27 5 28 4 29 3 30 2 31 1 32
REMARK H PARENT
REMARK Flexibility Score: inf
ROOT
ATOM      1  C   UNL     1      -4.594   0.553   8.888  1.00  0.00     0.000 C 
ENDROOT
BRANCH   1   2
ATOM      2  C   UNL     1      -4.327   1.688   9.890  1.00  0.00     0.000 C 
BRANCH   2   3
ATOM      3  C   UNL     1      -4.802   3.058   9.376  1.00  0.00     0.000 C 
BRANCH   3   4
ATOM      4  C   UNL     1      -3.823   4.197   9.718  1.00  0.00     0.000 C 
BRANCH   4   5
ATOM      5  C   UNL     1      -2.349   3.772   9.848  1.00  0.00     0.000 C 
BRANCH   5   6
ATOM      6  C   UNL     1      -1.413   4.582   8.937  1.00  0.00     0.000 C 
BRANCH   6   7
ATOM      7  C   UNL     1      -0.585   5.584   9.756  1.00  0.00     0.000 C 
BRANCH   7   8
ATOM      8  C   UNL     1      -1.315   6.913  10.002  1.00  0.00     0.000 C 
BRANCH   8   9
ATOM      9  C   UNL     1      -1.011   8.028   8.982  1.00  0.00     0.000 C 
BRANCH   9  10
ATOM     10  C   UNL     1       0.402   7.955   8.362  1.00  0.00     0.000 C 
BRANCH  10  11
ATOM     11  C   UNL     1       1.043   9.342   8.171  1.00  0.00     0.000 C 
BRANCH  11  12
ATOM     12  C   UNL     1       1.824   9.804   9.420  1.00  0.00     0.000 C 
BRANCH  12  13
ATOM     13  C   UNL     1       3.019   8.903   9.786  1.00  0.00     0.006 C 
BRANCH  13  14
ATOM     14  C   UNL     1       4.371   9.390   9.229  1.00  0.00     0.053 C 
BRANCH  14  15
ATOM     15  C   UNL     1       4.879   8.556   8.092  1.00  0.00     0.041 C 
ATOM     16  O   UNL     1       6.114   8.472   7.861  1.00  0.00    -0.550 OA
ATOM     17  O   UNL     1       3.989   7.791   7.346  1.00  0.00    -0.550 OA
ENDBRANCH  14  15
ENDBRANCH  13  14
ENDBRANCH  12  13
ENDBRANCH  11  12
ENDBRANCH  10  11
ENDBRANCH   9  10
ENDBRANCH   8   9
ENDBRANCH   7   8
ENDBRANCH   6   7
ENDBRANCH   5   6
ENDBRANCH   4   5
ENDBRANCH   3   4
ENDBRANCH   2   3
ENDBRANCH   1   2
BRANCH   1  18
ATOM     18  C   UNL     1      -6.087   0.217   8.750  1.00  0.00     0.000 C 
BRANCH  18  19
ATOM     19  C   UNL     1      -6.774   0.182  10.125  1.00  0.00     0.000 C 
BRANCH  19  20
ATOM     20  C   UNL     1      -8.283  -0.097  10.028  1.00  0.00     0.000 C 
BRANCH  20  21
ATOM     21  C   UNL     1      -9.128   1.070   9.484  1.00  0.00     0.000 C 
BRANCH  21  22
ATOM     22  C   UNL     1      -8.578   2.465   9.848  1.00  0.00     0.000 C 
BRANCH  22  23
ATOM     23  C   UNL     1      -8.390   3.363   8.613  1.00  0.00     0.000 C 
BRANCH  23  24
ATOM     24  C   UNL     1      -9.486   3.143   7.556  1.00  0.00    -0.000 C 
BRANCH  24  25
ATOM     25  C   UNL     1      -9.637   4.347   6.610  1.00  0.00    -0.000 C 
BRANCH  25  26
ATOM     26  C   UNL     1      -9.655   5.688   7.363  1.00  0.00    -0.000 C 
BRANCH  26  27
ATOM     27  C   UNL     1      -8.438   6.567   7.023  1.00  0.00    -0.000 C 
BRANCH  27  28
ATOM     28  C   UNL     1      -8.753   7.608   5.926  1.00  0.00    -0.000 C 
BRANCH  28  29
ATOM     29  C   UNL     1      -7.907   8.894   6.027  1.00  0.00    -0.000 C 
BRANCH  29  30
ATOM     30  C   UNL     1      -8.354   9.889   7.115  1.00  0.00    -0.000 C 
BRANCH  30  31
ATOM     31  C   UNL     1      -7.411   9.982   8.329  1.00  0.00    -0.003 C 
ATOM     32  C   UNL     1      -5.943   9.772   7.960  1.00  0.00     0.004 C 
ENDBRANCH  30  31
ENDBRANCH  29  30
ENDBRANCH  28  29
ENDBRANCH  27  28
ENDBRANCH  26  27
ENDBRANCH  25  26
ENDBRANCH  24  25
ENDBRANCH  23  24
ENDBRANCH  22  23
ENDBRANCH  21  22
ENDBRANCH  20  21
ENDBRANCH  19  20
ENDBRANCH  18  19
ENDBRANCH   1  18
TORSDOF 28
ENDMDL
MODEL 6
REMARK VINA RESULT:    -2.906      4.863      8.701
REMARK INTER + INTRA:         -10.124
REMARK INTER:                  -8.321
REMARK INTRA:                  -1.804
REMARK UNBOUND:                -2.463
REMARK SMILES CCCCCCCCCCCCCCCCCCCCCCCCCCCCCC(=O)[O-]
REMARK SMILES IDX 16 1 17 2 18 3 19 4 20 5 21 6 22 7 23 8 24 9 25 10 26 11
REMARK SMILES IDX 27 12 28 13 29 14 30 15 31 16 32 17 15 18 14 19 13 20 12 21
REMARK SMILES IDX 11 22 10 23 9 24 8 25 7 26 6 27 5 28 4 29 3 30 2 31 1 32
REMARK H PARENT
REMARK Flexibility Score: inf
ROOT
ATOM      1  C   UNL     1      -2.962   3.519   9.383  1.00  0.00     0.000 C 
ENDROOT
BRANCH   1   2
ATOM      2  C   UNL     1      -2.673   2.009   9.437  1.00  0.00     0.000 C 
BRANCH   2   3
ATOM      3  C   UNL     1      -3.786   1.169   8.787  1.00  0.00     0.000 C 
BRANCH   3   4
ATOM      4  C   UNL     1      -4.930   0.835   9.763  1.00  0.00     0.000 C 
BRANCH   4   5
ATOM      5  C   UNL     1      -6.211   0.290   9.104  1.00  0.00     0.000 C 
BRANCH   5   6
ATOM      6  C   UNL     1      -7.492   0.872   9.720  1.00  0.00     0.000 C 
BRANCH   6   7
ATOM      7  C   UNL     1      -7.337   2.378   9.986  1.00  0.00     0.000 C 
BRANCH   7   8
ATOM      8  C   UNL     1      -7.875   3.251   8.842  1.00  0.00     0.000 C 
BRANCH   8   9
ATOM      9  C   UNL     1      -9.347   3.684   8.983  1.00  0.00     0.000 C 
BRANCH   9  10
ATOM     10  C   UNL     1      -9.540   5.124   9.509  1.00  0.00     0.000 C 
BRANCH  10  11
ATOM     11  C   UNL     1      -8.276   5.990   9.356  1.00  0.00     0.000 C 
BRANCH  11  12
ATOM     12  C   UNL     1      -8.472   7.140   8.345  1.00  0.00     0.000 C 
BRANCH  12  13
ATOM     13  C   UNL     1      -7.173   7.615   7.668  1.00  0.00     0.006 C 
BRANCH  13  14
ATOM     14  C   UNL     1      -6.008   7.869   8.645  1.00  0.00     0.053 C 
BRANCH  14  15
ATOM     15  C   UNL     1      -5.189   6.644   8.922  1.00  0.00     0.041 C 
ATOM     16  O   UNL     1      -4.682   6.456  10.060  1.00  0.00    -0.550 OA
ATOM     17  O   UNL     1      -5.068   5.660   7.948  1.00  0.00    -0.550 OA
ENDBRANCH  14  15
ENDBRANCH  13  14
ENDBRANCH  12  13
ENDBRANCH  11  12
ENDBRANCH  10  11
ENDBRANCH   9  10
ENDBRANCH   8   9
ENDBRANCH   7   8
ENDBRANCH   6   7
ENDBRANCH   5   6
ENDBRANCH   4   5
ENDBRANCH   3   4
ENDBRANCH   2   3
ENDBRANCH   1   2
BRANCH   1  18
ATOM     18  C   UNL     1      -1.730   4.348   8.990  1.00  0.00     0.000 C 
BRANCH  18  19
ATOM     19  C   UNL     1      -0.686   4.355  10.119  1.00  0.00     0.000 C 
BRANCH  19  20
ATOM     20  C   UNL     1       0.238   5.582  10.067  1.00  0.00     0.000 C 
BRANCH  20  21
ATOM     21  C   UNL     1      -0.104   6.610   8.971  1.00  0.00     0.000 C 
BRANCH  21  22
ATOM     22  C   UNL     1       0.425   8.032   9.258  1.00  0.00     0.000 C 
BRANCH  22  23
ATOM     23  C   UNL     1       1.531   8.456   8.275  1.00  0.00     0.000 C 
BRANCH  23  24
ATOM     24  C   UNL     1       2.811   7.620   8.438  1.00  0.00    -0.000 C 
BRANCH  24  25
ATOM     25  C   UNL     1       4.030   8.280   7.769  1.00  0.00    -0.000 C 
BRANCH  25  26
ATOM     26  C   UNL     1       4.110   9.789   8.053  1.00  0.00    -0.000 C 
BRANCH  26  27
ATOM     27  C   UNL     1       4.880  10.102   9.348  1.00  0.00    -0.000 C 
BRANCH  27  28
ATOM     28  C   UNL     1       6.162   9.252   9.491  1.00  0.00    -0.000 C 
BRANCH  28  29
ATOM     29  C   UNL     1       7.402   9.876   8.819  1.00  0.00    -0.000 C 
BRANCH  29  30
ATOM     30  C   UNL     1       8.732   9.657   9.567  1.00  0.00    -0.000 C 
BRANCH  30  31
ATOM     31  C   UNL     1       9.056   8.185   9.885  1.00  0.00    -0.003 C 
ATOM     32  C   UNL     1      10.045   7.566   8.898  1.00  0.00     0.004 C 
ENDBRANCH  30  31
ENDBRANCH  29  30
ENDBRANCH  28  29
ENDBRANCH  27  28
ENDBRANCH  26  27
ENDBRANCH  25  26
ENDBRANCH  24  25
ENDBRANCH  23  24
ENDBRANCH  22  23
ENDBRANCH  21  22
ENDBRANCH  20  21
ENDBRANCH  19  20
ENDBRANCH  18  19
ENDBRANCH   1  18
TORSDOF 28
ENDMDL
MODEL 7
REMARK VINA RESULT:    -2.699      3.910      7.189
REMARK INTER + INTRA:          -9.579
REMARK INTER:                  -7.239
REMARK INTRA:                  -2.340
REMARK UNBOUND:                -2.463
REMARK SMILES CCCCCCCCCCCCCCCCCCCCCCCCCCCCCC(=O)[O-]
REMARK SMILES IDX 16 1 17 2 18 3 19 4 20 5 21 6 22 7 23 8 24 9 25 10 26 11
REMARK SMILES IDX 27 12 28 13 29 14 30 15 31 16 32 17 15 18 14 19 13 20 12 21
REMARK SMILES IDX 11 22 10 23 9 24 8 25 7 26 6 27 5 28 4 29 3 30 2 31 1 32
REMARK H PARENT
REMARK Flexibility Score: inf
ROOT
ATOM      1  C   UNL     1      -3.296   2.547   9.952  1.00  0.00     0.000 C 
ENDROOT
BRANCH   1   2
ATOM      2  C   UNL     1      -4.079   1.225   9.888  1.00  0.00     0.000 C 
BRANCH   2   3
ATOM      3  C   UNL     1      -5.603   1.439   9.852  1.00  0.00     0.000 C 
BRANCH   3   4
ATOM      4  C   UNL     1      -6.325   0.439   8.930  1.00  0.00     0.000 C 
BRANCH   4   5
ATOM      5  C   UNL     1      -7.850   0.628   8.831  1.00  0.00     0.000 C 
BRANCH   5   6
ATOM      6  C   UNL     1      -8.467   1.182  10.125  1.00  0.00     0.000 C 
BRANCH   6   7
ATOM      7  C   UNL     1      -9.110   2.555   9.880  1.00  0.00     0.000 C 
BRANCH   7   8
ATOM      8  C   UNL     1      -9.882   2.633   8.554  1.00  0.00     0.000 C 
BRANCH   8   9
ATOM      9  C   UNL     1      -9.244   3.528   7.474  1.00  0.00     0.000 C 
BRANCH   9  10
ATOM     10  C   UNL     1     -10.120   4.723   7.038  1.00  0.00     0.000 C 
BRANCH  10  11
ATOM     11  C   UNL     1      -9.446   6.084   7.296  1.00  0.00     0.000 C 
BRANCH  11  12
ATOM     12  C   UNL     1      -8.573   6.540   6.108  1.00  0.00     0.000 C 
BRANCH  12  13
ATOM     13  C   UNL     1      -7.932   7.929   6.291  1.00  0.00     0.006 C 
BRANCH  13  14
ATOM     14  C   UNL     1      -7.203   8.116   7.637  1.00  0.00     0.053 C 
BRANCH  14  15
ATOM     15  C   UNL     1      -7.597   9.372   8.354  1.00  0.00     0.041 C 
ATOM     16  O   UNL     1      -6.741  10.041   8.991  1.00  0.00    -0.550 OA
ATOM     17  O   UNL     1      -8.895   9.856   8.237  1.00  0.00    -0.550 OA
ENDBRANCH  14  15
ENDBRANCH  13  14
ENDBRANCH  12  13
ENDBRANCH  11  12
ENDBRANCH  10  11
ENDBRANCH   9  10
ENDBRANCH   8   9
ENDBRANCH   7   8
ENDBRANCH   6   7
ENDBRANCH   5   6
ENDBRANCH   4   5
ENDBRANCH   3   4
ENDBRANCH   2   3
ENDBRANCH   1   2
BRANCH   1  18
ATOM     18  C   UNL     1      -2.119   2.591   8.965  1.00  0.00     0.000 C 
BRANCH  18  19
ATOM     19  C   UNL     1      -1.094   3.660   9.376  1.00  0.00     0.000 C 
BRANCH  19  20
ATOM     20  C   UNL     1      -1.577   5.090   9.085  1.00  0.00     0.000 C 
BRANCH  20  21
ATOM     21  C   UNL     1      -2.553   5.672  10.125  1.00  0.00     0.000 C 
BRANCH  21  22
ATOM     22  C   UNL     1      -3.783   6.372   9.507  1.00  0.00     0.000 C 
BRANCH  22  23
ATOM     23  C   UNL     1      -3.854   7.865   9.871  1.00  0.00     0.000 C 
BRANCH  23  24
ATOM     24  C   UNL     1      -3.632   8.775   8.651  1.00  0.00    -0.000 C 
BRANCH  24  25
ATOM     25  C   UNL     1      -2.859  10.057   9.011  1.00  0.00    -0.000 C 
BRANCH  25  26
ATOM     26  C   UNL     1      -1.432   9.763   9.505  1.00  0.00    -0.000 C 
BRANCH  26  27
ATOM     27  C   UNL     1      -0.467   9.442   8.350  1.00  0.00    -0.000 C 
BRANCH  27  28
ATOM     28  C   UNL     1       0.362   8.166   8.613  1.00  0.00    -0.000 C 
BRANCH  28  29
ATOM     29  C   UNL     1       1.593   8.022   7.695  1.00  0.00    -0.000 C 
BRANCH  29  30
ATOM     30  C   UNL     1       2.698   9.074   7.911  1.00  0.00    -0.000 C 
BRANCH  30  31
ATOM     31  C   UNL     1       4.049   8.502   8.380  1.00  0.00    -0.003 C 
ATOM     32  C   UNL     1       4.334   8.780   9.855  1.00  0.00     0.004 C 
ENDBRANCH  30  31
ENDBRANCH  29  30
ENDBRANCH  28  29
ENDBRANCH  27  28
ENDBRANCH  26  27
ENDBRANCH  25  26
ENDBRANCH  24  25
ENDBRANCH  23  24
ENDBRANCH  22  23
ENDBRANCH  21  22
ENDBRANCH  20  21
ENDBRANCH  19  20
ENDBRANCH  18  19
ENDBRANCH   1  18
TORSDOF 28
ENDMDL
MODEL 8
REMARK VINA RESULT:    -2.522      3.968      6.777
REMARK INTER + INTRA:          -9.112
REMARK INTER:                  -7.565
REMARK INTRA:                  -1.547
REMARK UNBOUND:                -2.463
REMARK SMILES CCCCCCCCCCCCCCCCCCCCCCCCCCCCCC(=O)[O-]
REMARK SMILES IDX 16 1 17 2 18 3 19 4 20 5 21 6 22 7 23 8 24 9 25 10 26 11
REMARK SMILES IDX 27 12 28 13 29 14 30 15 31 16 32 17 15 18 14 19 13 20 12 21
REMARK SMILES IDX 11 22 10 23 9 24 8 25 7 26 6 27 5 28 4 29 3 30 2 31 1 32
REMARK H PARENT
REMARK Flexibility Score: inf
ROOT
ATOM      1  C   UNL     1      -3.297   3.150   9.737  1.00  0.00     0.000 C 
ENDROOT
BRANCH   1   2
ATOM      2  C   UNL     1      -3.895   1.788  10.125  1.00  0.00     0.000 C 
BRANCH   2   3
ATOM      3  C   UNL     1      -4.746   1.171   9.001  1.00  0.00     0.000 C 
BRANCH   3   4
ATOM      4  C   UNL     1      -5.913   0.319   9.533  1.00  0.00     0.000 C 
BRANCH   4   5
ATOM      5  C   UNL     1      -7.005  -0.009   8.498  1.00  0.00     0.000 C 
BRANCH   5   6
ATOM      6  C   UNL     1      -8.116   1.051   8.448  1.00  0.00     0.000 C 
BRANCH   6   7
ATOM      7  C   UNL     1      -7.660   2.355   9.121  1.00  0.00     0.000 C 
BRANCH   7   8
ATOM      8  C   UNL     1      -8.685   2.908  10.123  1.00  0.00     0.000 C 
BRANCH   8   9
ATOM      9  C   UNL     1      -9.896   3.625   9.495  1.00  0.00     0.000 C 
BRANCH   9  10
ATOM     10  C   UNL     1      -9.787   5.165   9.480  1.00  0.00     0.000 C 
BRANCH  10  11
ATOM     11  C   UNL     1      -9.109   5.704   8.206  1.00  0.00     0.000 C 
BRANCH  11  12
ATOM     12  C   UNL     1      -9.090   7.246   8.159  1.00  0.00     0.000 C 
BRANCH  12  13
ATOM     13  C   UNL     1      -9.345   7.839   6.760  1.00  0.00     0.006 C 
BRANCH  13  14
ATOM     14  C   UNL     1      -8.067   8.066   5.928  1.00  0.00     0.053 C 
BRANCH  14  15
ATOM     15  C   UNL     1      -8.178   9.221   4.978  1.00  0.00     0.041 C 
ATOM     16  O   UNL     1      -9.279   9.499   4.434  1.00  0.00    -0.550 OA
ATOM     17  O   UNL     1      -7.082  10.049   4.768  1.00  0.00    -0.550 OA
ENDBRANCH  14  15
ENDBRANCH  13  14
ENDBRANCH  12  13
ENDBRANCH  11  12
ENDBRANCH  10  11
ENDBRANCH   9  10
ENDBRANCH   8   9
ENDBRANCH   7   8
ENDBRANCH   6   7
ENDBRANCH   5   6
ENDBRANCH   4   5
ENDBRANCH   3   4
ENDBRANCH   2   3
ENDBRANCH   1   2
BRANCH   1  18
ATOM     18  C   UNL     1      -1.855   3.042   9.217  1.00  0.00     0.000 C 
BRANCH  18  19
ATOM     19  C   UNL     1      -1.147   4.405   9.263  1.00  0.00     0.000 C 
BRANCH  19  20
ATOM     20  C   UNL     1      -2.063   5.565   8.840  1.00  0.00     0.000 C 
BRANCH  20  21
ATOM     21  C   UNL     1      -3.008   6.085   9.941  1.00  0.00     0.000 C 
BRANCH  21  22
ATOM     22  C   UNL     1      -4.494   5.744   9.705  1.00  0.00     0.000 C 
BRANCH  22  23
ATOM     23  C   UNL     1      -5.427   6.925  10.024  1.00  0.00     0.000 C 
BRANCH  23  24
ATOM     24  C   UNL     1      -5.494   7.944   8.873  1.00  0.00    -0.000 C 
BRANCH  24  25
ATOM     25  C   UNL     1      -5.792   9.370   9.372  1.00  0.00    -0.000 C 
BRANCH  25  26
ATOM     26  C   UNL     1      -4.546  10.065   9.944  1.00  0.00    -0.000 C 
BRANCH  26  27
ATOM     27  C   UNL     1      -3.387  10.118   8.933  1.00  0.00    -0.000 C 
BRANCH  27  28
ATOM     28  C   UNL     1      -2.159   9.308   9.403  1.00  0.00    -0.000 C 
BRANCH  28  29
ATOM     29  C   UNL     1      -0.864   9.636   8.632  1.00  0.00    -0.000 C 
BRANCH  29  30
ATOM     30  C   UNL     1       0.388   8.867   9.098  1.00  0.00    -0.000 C 
BRANCH  30  31
ATOM     31  C   UNL     1       1.125   8.103   7.983  1.00  0.00    -0.003 C 
ATOM     32  C   UNL     1       2.572   7.769   8.346  1.00  0.00     0.004 C 
ENDBRANCH  30  31
ENDBRANCH  29  30
ENDBRANCH  28  29
ENDBRANCH  27  28
ENDBRANCH  26  27
ENDBRANCH  25  26
ENDBRANCH  24  25
ENDBRANCH  23  24
ENDBRANCH  22  23
ENDBRANCH  21  22
ENDBRANCH  20  21
ENDBRANCH  19  20
ENDBRANCH  18  19
ENDBRANCH   1  18
TORSDOF 28
ENDMDL
MODEL 9
REMARK VINA RESULT:    -2.391      3.686      6.822
REMARK INTER + INTRA:          -8.767
REMARK INTER:                  -7.640
REMARK INTRA:                  -1.127
REMARK UNBOUND:                -2.463
REMARK SMILES CCCCCCCCCCCCCCCCCCCCCCCCCCCCCC(=O)[O-]
REMARK SMILES IDX 16 1 17 2 18 3 19 4 20 5 21 6 22 7 23 8 24 9 25 10 26 11
REMARK SMILES IDX 27 12 28 13 29 14 30 15 31 16 32 17 15 18 14 19 13 20 12 21
REMARK SMILES IDX 11 22 10 23 9 24 8 25 7 26 6 27 5 28 4 29 3 30 2 31 1 32
REMARK H PARENT
REMARK Flexibility Score: inf
ROOT
ATOM      1  C   UNL     1      -3.206   2.323   9.112  1.00  0.00     0.000 C 
ENDROOT
BRANCH   1   2
ATOM      2  C   UNL     1      -4.105   1.171   8.632  1.00  0.00     0.000 C 
BRANCH   2   3
ATOM      3  C   UNL     1      -5.403   1.051   9.449  1.00  0.00     0.000 C 
BRANCH   3   4
ATOM      4  C   UNL     1      -6.412   0.068   8.827  1.00  0.00     0.000 C 
BRANCH   4   5
ATOM      5  C   UNL     1      -7.892   0.380   9.118  1.00  0.00     0.000 C 
BRANCH   5   6
ATOM      6  C   UNL     1      -8.076   1.637   9.982  1.00  0.00     0.000 C 
BRANCH   6   7
ATOM      7  C   UNL     1      -8.278   2.881   9.103  1.00  0.00     0.000 C 
BRANCH   7   8
ATOM      8  C   UNL     1      -6.999   3.715   8.934  1.00  0.00     0.000 C 
BRANCH   8   9
ATOM      9  C   UNL     1      -6.987   5.060   9.685  1.00  0.00     0.000 C 
BRANCH   9  10
ATOM     10  C   UNL     1      -7.881   6.150   9.054  1.00  0.00     0.000 C 
BRANCH  10  11
ATOM     11  C   UNL     1      -7.133   7.477   8.826  1.00  0.00     0.000 C 
BRANCH  11  12
ATOM     12  C   UNL     1      -6.448   7.534   7.444  1.00  0.00     0.000 C 
BRANCH  12  13
ATOM     13  C   UNL     1      -7.415   7.400   6.253  1.00  0.00     0.006 C 
BRANCH  13  14
ATOM     14  C   UNL     1      -7.595   8.694   5.436  1.00  0.00     0.053 C 
BRANCH  14  15
ATOM     15  C   UNL     1      -9.029   9.009   5.133  1.00  0.00     0.041 C 
ATOM     16  O   UNL     1      -9.335   9.690   4.118  1.00  0.00    -0.550 OA
ATOM     17  O   UNL     1     -10.037   8.466   5.922  1.00  0.00    -0.550 OA
ENDBRANCH  14  15
ENDBRANCH  13  14
ENDBRANCH  12  13
ENDBRANCH  11  12
ENDBRANCH  10  11
ENDBRANCH   9  10
ENDBRANCH   8   9
ENDBRANCH   7   8
ENDBRANCH   6   7
ENDBRANCH   5   6
ENDBRANCH   4   5
ENDBRANCH   3   4
ENDBRANCH   2   3
ENDBRANCH   1   2
BRANCH   1  18
ATOM     18  C   UNL     1      -1.748   2.173   8.651  1.00  0.00     0.000 C 
BRANCH  18  19
ATOM     19  C   UNL     1      -0.909   3.391   9.069  1.00  0.00     0.000 C 
BRANCH  19  20
ATOM     20  C   UNL     1      -1.738   4.463   9.795  1.00  0.00     0.000 C 
BRANCH  20  21
ATOM     21  C   UNL     1      -1.007   5.797  10.042  1.00  0.00     0.000 C 
BRANCH  21  22
ATOM     22  C   UNL     1       0.531   5.671  10.078  1.00  0.00     0.000 C 
BRANCH  22  23
ATOM     23  C   UNL     1       1.221   6.606   9.069  1.00  0.00     0.000 C 
BRANCH  23  24
ATOM     24  C   UNL     1       0.255   7.109   7.983  1.00  0.00    -0.000 C 
BRANCH  24  25
ATOM     25  C   UNL     1       0.614   8.523   7.492  1.00  0.00    -0.000 C 
BRANCH  25  26
ATOM     26  C   UNL     1       2.087   8.879   7.751  1.00  0.00    -0.000 C 
BRANCH  26  27
ATOM     27  C   UNL     1       2.255   9.862   8.924  1.00  0.00    -0.000 C 
BRANCH  27  28
ATOM     28  C   UNL     1       1.187   9.658  10.020  1.00  0.00    -0.000 C 
BRANCH  28  29
ATOM     29  C   UNL     1      -0.225  10.125   9.610  1.00  0.00    -0.000 C 
BRANCH  29  30
ATOM     30  C   UNL     1      -1.381   9.245  10.125  1.00  0.00    -0.000 C 
BRANCH  30  31
ATOM     31  C   UNL     1      -2.726   9.465   9.407  1.00  0.00    -0.003 C 
ATOM     32  C   UNL     1      -3.778   8.421   9.780  1.00  0.00     0.004 C 
ENDBRANCH  30  31
ENDBRANCH  29  30
ENDBRANCH  28  29
ENDBRANCH  27  28
ENDBRANCH  26  27
ENDBRANCH  25  26
ENDBRANCH  24  25
ENDBRANCH  23  24
ENDBRANCH  22  23
ENDBRANCH  21  22
ENDBRANCH  20  21
ENDBRANCH  19  20
ENDBRANCH  18  19
ENDBRANCH   1  18
TORSDOF 28
ENDMDL
