MODEL 1
REMARK VINA RESULT:    -3.909      0.000      0.000
REMARK INTER + INTRA:          -5.877
REMARK INTER:                  -5.966
REMARK INTRA:                   0.089
REMARK UNBOUND:                 0.089
REMARK SMILES CC1=CCC[C@H](C)C(=O)C[C@@H](C(C)C)C(=O)C1
REMARK SMILES IDX 8 1 9 2 6 3 7 4 5 5 4 6 3 7 2 8 1 9 10 11 11 12 15 13 16 14
REMARK SMILES IDX 17 15 12 17 13 18 14 19
REMARK H PARENT
REMARK Flexibility Score: 70.00
ROOT
ATOM      1  C   UNL     1     213.430 203.487 217.331  1.00  0.00     0.136 C 
ATOM      2  O   UNL     1     214.490 203.797 217.855  1.00  0.00    -0.299 OA
ENDROOT
BRANCH   1   3
ATOM      3  C   UNL     1     212.300 204.491 217.276  1.00  0.00     0.053 C 
ATOM      4  C   UNL     1     211.596 204.610 218.633  1.00  0.00     0.016 C 
BRANCH   3   5
ATOM      5  C   UNL     1     212.860 205.855 216.803  1.00  0.00     0.015 C 
BRANCH   5   6
ATOM      6  C   UNL     1     213.364 205.908 215.348  1.00  0.00     0.028 C 
BRANCH   6   7
ATOM      7  C   UNL     1     212.388 205.501 214.265  1.00  0.00    -0.028 C 
ATOM      8  C   UNL     1     212.567 204.540 213.326  1.00  0.00    -0.070 CG0
ATOM      9  C   UNL     1     211.500 204.387 212.270  1.00  0.00     0.039 C 
ATOM     10  G   UNL     1     213.723 203.556 213.320  1.00  0.00     0.000 G0
ENDBRANCH   6   7
ENDBRANCH   5   6
ENDBRANCH   3   5
ENDBRANCH   1   3
BRANCH   1  11
ATOM     11  C   UNL     1     213.296 202.128 216.683  1.00  0.00     0.087 C 
BRANCH  11  12
ATOM     12  C   UNL     1     214.183 201.986 215.410  1.00  0.00     0.066 C 
BRANCH  12  13
ATOM     13  C   UNL     1     213.397 202.325 214.150  1.00  0.00     0.140 C 
ATOM     14  O   UNL     1     212.489 201.585 213.796  1.00  0.00    -0.299 OA
BRANCH  13  15
ATOM     15  C   UNL     1     213.717 203.541 213.305  1.00  0.00     0.106 CG0
ATOM     16  G   UNL     1     212.566 204.530 213.324  1.00  0.00     0.000 G0
ENDBRANCH  13  15
ENDBRANCH  12  13
BRANCH  12  17
ATOM     17  C   UNL     1     214.858 200.582 215.324  1.00  0.00    -0.006 C 
ATOM     18  C   UNL     1     215.369 200.290 213.906  1.00  0.00     0.008 C 
ATOM     19  C   UNL     1     213.969 199.425 215.817  1.00  0.00     0.008 C 
ENDBRANCH  12  17
ENDBRANCH  11  12
ENDBRANCH   1  11
TORSDOF 1
ENDMDL
MODEL 2
REMARK VINA RESULT:    -3.902     13.920     15.884
REMARK INTER + INTRA:          -5.867
REMARK INTER:                  -5.902
REMARK INTRA:                   0.035
REMARK UNBOUND:                 0.089
REMARK SMILES CC1=CCC[C@H](C)C(=O)C[C@@H](C(C)C)C(=O)C1
REMARK SMILES IDX 8 1 9 2 6 3 7 4 5 5 4 6 3 7 2 8 1 9 10 11 11 12 15 13 16 14
REMARK SMILES IDX 17 15 12 17 13 18 14 19
REMARK H PARENT
REMARK Flexibility Score: 70.00
ROOT
ATOM      1  C   UNL     1     198.839 208.807 216.929  1.00  0.00     0.136 C 
ATOM      2  O   UNL     1     197.705 208.640 217.354  1.00  0.00    -0.299 OA
ENDROOT
BRANCH   1   3
ATOM      3  C   UNL     1     199.867 207.708 217.082  1.00  0.00     0.053 C 
ATOM      4  C   UNL     1     200.579 207.798 218.436  1.00  0.00     0.016 C 
BRANCH   3   5
ATOM      5  C   UNL     1     199.171 206.338 216.894  1.00  0.00     0.015 C 
BRANCH   5   6
ATOM      6  C   UNL     1     198.913 205.907 215.438  1.00  0.00     0.028 C 
BRANCH   6   7
ATOM      7  C   UNL     1     199.916 206.357 214.397  1.00  0.00    -0.028 C 
ATOM      8  C   UNL     1     199.727 207.289 213.431  1.00  0.00    -0.070 CG0
ATOM      9  C   UNL     1     200.835 207.491 212.428  1.00  0.00     0.039 C 
ATOM     10  G   UNL     1     198.512 208.196 213.346  1.00  0.00     0.000 G0
ENDBRANCH   6   7
ENDBRANCH   5   6
ENDBRANCH   3   5
ENDBRANCH   1   3
BRANCH   1  11
ATOM     11  C   UNL     1     199.170 210.085 216.191  1.00  0.00     0.087 C 
BRANCH  11  12
ATOM     12  C   UNL     1     198.257 210.309 214.949  1.00  0.00     0.066 C 
BRANCH  12  13
ATOM     13  C   UNL     1     198.835 209.634 213.712  1.00  0.00     0.140 C 
ATOM     14  O   UNL     1     199.587 210.267 212.983  1.00  0.00    -0.299 OA
BRANCH  13  15
ATOM     15  C   UNL     1     198.490 208.207 213.339  1.00  0.00     0.106 CG0
ATOM     16  G   UNL     1     199.714 207.313 213.432  1.00  0.00     0.000 G0
ENDBRANCH  13  15
ENDBRANCH  12  13
BRANCH  12  17
ATOM     17  C   UNL     1     197.959 211.822 214.711  1.00  0.00    -0.006 C 
ATOM     18  C   UNL     1     198.352 212.671 215.929  1.00  0.00     0.008 C 
ATOM     19  C   UNL     1     196.504 212.119 214.305  1.00  0.00     0.008 C 
ENDBRANCH  12  17
ENDBRANCH  11  12
ENDBRANCH   1  11
TORSDOF 1
ENDMDL
MODEL 3
REMARK VINA RESULT:    -3.715      1.850      3.768
REMARK INTER + INTRA:          -5.581
REMARK INTER:                  -5.527
REMARK INTRA:                  -0.054
REMARK UNBOUND:                 0.089
REMARK SMILES CC1=CCC[C@H](C)C(=O)C[C@@H](C(C)C)C(=O)C1
REMARK SMILES IDX 8 1 9 2 6 3 7 4 5 5 4 6 3 7 2 8 1 9 10 11 11 12 15 13 16 14
REMARK SMILES IDX 17 15 12 17 13 18 14 19
REMARK H PARENT
REMARK Flexibility Score: 70.00
ROOT
ATOM      1  C   UNL     1     211.592 205.263 214.536  1.00  0.00     0.136 C 
ATOM      2  O   UNL     1     210.738 205.310 213.662  1.00  0.00    -0.299 OA
ENDROOT
BRANCH   1   3
ATOM      3  C   UNL     1     212.820 206.140 214.432  1.00  0.00     0.053 C 
ATOM      4  C   UNL     1     213.137 206.812 215.773  1.00  0.00     0.016 C 
BRANCH   3   5
ATOM      5  C   UNL     1     214.008 205.286 213.929  1.00  0.00     0.015 C 
BRANCH   5   6
ATOM      6  C   UNL     1     213.696 204.307 212.780  1.00  0.00     0.028 C 
BRANCH   6   7
ATOM      7  C   UNL     1     214.311 202.925 212.866  1.00  0.00    -0.028 C 
ATOM      8  C   UNL     1     213.770 201.827 213.448  1.00  0.00    -0.070 CG0
ATOM      9  C   UNL     1     214.619 200.582 213.514  1.00  0.00     0.039 C 
ATOM     10  G   UNL     1     212.342 201.746 213.959  1.00  0.00     0.000 G0
ENDBRANCH   6   7
ENDBRANCH   5   6
ENDBRANCH   3   5
ENDBRANCH   1   3
BRANCH   1  11
ATOM     11  C   UNL     1     211.366 204.379 215.742  1.00  0.00     0.087 C 
BRANCH  11  12
ATOM     12  C   UNL     1     212.557 203.409 216.000  1.00  0.00     0.066 C 
BRANCH  12  13
ATOM     13  C   UNL     1     212.267 202.021 215.442  1.00  0.00     0.140 C 
ATOM     14  O   UNL     1     211.990 201.114 216.213  1.00  0.00    -0.299 OA
BRANCH  13  15
ATOM     15  C   UNL     1     212.333 201.721 213.958  1.00  0.00     0.106 CG0
ATOM     16  G   UNL     1     213.760 201.816 213.450  1.00  0.00     0.000 G0
ENDBRANCH  13  15
ENDBRANCH  12  13
BRANCH  12  17
ATOM     17  C   UNL     1     212.958 203.366 217.507  1.00  0.00    -0.006 C 
ATOM     18  C   UNL     1     212.073 204.296 218.350  1.00  0.00     0.008 C 
ATOM     19  C   UNL     1     214.445 203.666 217.771  1.00  0.00     0.008 C 
ENDBRANCH  12  17
ENDBRANCH  11  12
ENDBRANCH   1  11
TORSDOF 1
ENDMDL
MODEL 4
REMARK VINA RESULT:    -3.702      1.954      2.724
REMARK INTER + INTRA:          -5.562
REMARK INTER:                  -5.281
REMARK INTRA:                  -0.281
REMARK UNBOUND:                 0.089
REMARK SMILES CC1=CCC[C@H](C)C(=O)C[C@@H](C(C)C)C(=O)C1
REMARK SMILES IDX 8 1 9 2 6 3 7 4 5 5 4 6 3 7 2 8 1 9 10 11 11 12 15 13 16 14
REMARK SMILES IDX 17 15 12 17 13 18 14 19
REMARK H PARENT
REMARK Flexibility Score: 70.00
ROOT
ATOM      1  C   UNL     1     212.750 203.016 216.347  1.00  0.00     0.136 C 
ATOM      2  O   UNL     1     212.702 201.846 216.699  1.00  0.00    -0.299 OA
ENDROOT
BRANCH   1   3
ATOM      3  C   UNL     1     213.166 204.080 217.337  1.00  0.00     0.053 C 
ATOM      4  C   UNL     1     214.692 204.224 217.389  1.00  0.00     0.016 C 
BRANCH   3   5
ATOM      5  C   UNL     1     212.481 205.416 216.958  1.00  0.00     0.015 C 
BRANCH   5   6
ATOM      6  C   UNL     1     213.425 206.596 216.657  1.00  0.00     0.028 C 
BRANCH   6   7
ATOM      7  C   UNL     1     213.165 207.381 215.389  1.00  0.00    -0.028 C 
ATOM      8  C   UNL     1     213.745 207.190 214.178  1.00  0.00    -0.070 CG0
ATOM      9  C   UNL     1     213.415 208.172 213.082  1.00  0.00     0.039 C 
ATOM     10  G   UNL     1     214.633 206.007 213.834  1.00  0.00     0.000 G0
ENDBRANCH   6   7
ENDBRANCH   5   6
ENDBRANCH   3   5
ENDBRANCH   1   3
BRANCH   1  11
ATOM     11  C   UNL     1     212.462 203.364 214.904  1.00  0.00     0.087 C 
BRANCH  11  12
ATOM     12  C   UNL     1     213.759 203.494 214.052  1.00  0.00     0.066 C 
BRANCH  12  13
ATOM     13  C   UNL     1     213.805 204.827 213.317  1.00  0.00     0.140 C 
ATOM     14  O   UNL     1     213.174 204.957 212.278  1.00  0.00    -0.299 OA
BRANCH  13  15
ATOM     15  C   UNL     1     214.628 205.996 213.821  1.00  0.00     0.106 CG0
ATOM     16  G   UNL     1     213.734 207.167 214.186  1.00  0.00     0.000 G0
ENDBRANCH  13  15
ENDBRANCH  12  13
BRANCH  12  17
ATOM     17  C   UNL     1     213.946 202.281 213.088  1.00  0.00    -0.006 C 
ATOM     18  C   UNL     1     212.623 201.535 212.860  1.00  0.00     0.008 C 
ATOM     19  C   UNL     1     215.043 201.293 213.525  1.00  0.00     0.008 C 
ENDBRANCH  12  17
ENDBRANCH  11  12
ENDBRANCH   1  11
TORSDOF 1
ENDMDL
MODEL 5
REMARK VINA RESULT:    -3.685     14.256     15.749
REMARK INTER + INTRA:          -5.535
REMARK INTER:                  -5.849
REMARK INTRA:                   0.315
REMARK UNBOUND:                 0.089
REMARK SMILES CC1=CCC[C@H](C)C(=O)C[C@@H](C(C)C)C(=O)C1
REMARK SMILES IDX 8 1 9 2 6 3 7 4 5 5 4 6 3 7 2 8 1 9 10 11 11 12 15 13 16 14
REMARK SMILES IDX 17 15 12 17 13 18 14 19
REMARK H PARENT
REMARK Flexibility Score: 70.00
ROOT
ATOM      1  C   UNL     1     199.529 211.151 216.183  1.00  0.00     0.136 C 
ATOM      2  O   UNL     1     200.534 211.529 215.598  1.00  0.00    -0.299 OA
ENDROOT
BRANCH   1   3
ATOM      3  C   UNL     1     198.206 211.834 215.919  1.00  0.00     0.053 C 
ATOM      4  C   UNL     1     198.134 213.196 216.621  1.00  0.00     0.016 C 
BRANCH   3   5
ATOM      5  C   UNL     1     198.006 211.972 214.390  1.00  0.00     0.015 C 
BRANCH   5   6
ATOM      6  C   UNL     1     197.522 210.705 213.657  1.00  0.00     0.028 C 
BRANCH   6   7
ATOM      7  C   UNL     1     198.581 209.830 213.020  1.00  0.00    -0.028 C 
ATOM      8  C   UNL     1     198.913 208.564 213.373  1.00  0.00    -0.070 CG0
ATOM      9  C   UNL     1     200.085 207.926 212.669  1.00  0.00     0.039 C 
ATOM     10  G   UNL     1     198.131 207.721 214.365  1.00  0.00     0.000 G0
ENDBRANCH   6   7
ENDBRANCH   5   6
ENDBRANCH   3   5
ENDBRANCH   1   3
BRANCH   1  11
ATOM     11  C   UNL     1     199.617 209.956 217.106  1.00  0.00     0.087 C 
BRANCH  11  12
ATOM     12  C   UNL     1     199.693 208.609 216.329  1.00  0.00     0.066 C 
BRANCH  12  13
ATOM     13  C   UNL     1     198.325 208.203 215.795  1.00  0.00     0.140 C 
ATOM     14  O   UNL     1     197.354 208.257 216.538  1.00  0.00    -0.299 OA
BRANCH  13  15
ATOM     15  C   UNL     1     198.129 207.712 214.375  1.00  0.00     0.106 CG0
ATOM     16  G   UNL     1     198.905 208.571 213.394  1.00  0.00     0.000 G0
ENDBRANCH  13  15
ENDBRANCH  12  13
BRANCH  12  17
ATOM     17  C   UNL     1     200.351 207.481 217.183  1.00  0.00    -0.006 C 
ATOM     18  C   UNL     1     199.605 206.148 217.024  1.00  0.00     0.008 C 
ATOM     19  C   UNL     1     200.503 207.828 218.675  1.00  0.00     0.008 C 
ENDBRANCH  12  17
ENDBRANCH  11  12
ENDBRANCH   1  11
TORSDOF 1
ENDMDL
MODEL 6
REMARK VINA RESULT:    -3.645     13.635     14.902
REMARK INTER + INTRA:          -5.474
REMARK INTER:                  -5.782
REMARK INTRA:                   0.308
REMARK UNBOUND:                 0.089
REMARK SMILES CC1=CCC[C@H](C)C(=O)C[C@@H](C(C)C)C(=O)C1
REMARK SMILES IDX 8 1 9 2 6 3 7 4 5 5 4 6 3 7 2 8 1 9 10 11 11 12 15 13 16 14
REMARK SMILES IDX 17 15 12 17 13 18 14 19
REMARK H PARENT
REMARK Flexibility Score: 70.00
ROOT
ATOM      1  C   UNL     1     198.226 207.720 217.069  1.00  0.00     0.136 C 
ATOM      2  O   UNL     1     197.168 208.259 216.776  1.00  0.00    -0.299 OA
ENDROOT
BRANCH   1   3
ATOM      3  C   UNL     1     199.256 208.478 217.876  1.00  0.00     0.053 C 
ATOM      4  C   UNL     1     200.610 207.758 217.864  1.00  0.00     0.016 C 
BRANCH   3   5
ATOM      5  C   UNL     1     199.372 209.918 217.319  1.00  0.00     0.015 C 
BRANCH   5   6
ATOM      6  C   UNL     1     200.088 210.060 215.961  1.00  0.00     0.028 C 
BRANCH   6   7
ATOM      7  C   UNL     1     199.214 210.227 214.736  1.00  0.00    -0.028 C 
ATOM      8  C   UNL     1     199.133 209.390 213.672  1.00  0.00    -0.070 CG0
ATOM      9  C   UNL     1     198.277 209.822 212.507  1.00  0.00     0.039 C 
ATOM     10  G   UNL     1     199.777 208.017 213.615  1.00  0.00     0.000 G0
ENDBRANCH   6   7
ENDBRANCH   5   6
ENDBRANCH   3   5
ENDBRANCH   1   3
BRANCH   1  11
ATOM     11  C   UNL     1     198.451 206.276 216.679  1.00  0.00     0.087 C 
BRANCH  11  12
ATOM     12  C   UNL     1     199.396 206.132 215.450  1.00  0.00     0.066 C 
BRANCH  12  13
ATOM     13  C   UNL     1     198.897 206.957 214.271  1.00  0.00     0.140 C 
ATOM     14  O   UNL     1     197.769 206.762 213.841  1.00  0.00    -0.299 OA
BRANCH  13  15
ATOM     15  C   UNL     1     199.763 208.002 213.596  1.00  0.00     0.106 CG0
ATOM     16  G   UNL     1     199.122 209.375 213.686  1.00  0.00     0.000 G0
ENDBRANCH  13  15
ENDBRANCH  12  13
BRANCH  12  17
ATOM     17  C   UNL     1     199.630 204.637 215.067  1.00  0.00    -0.006 C 
ATOM     18  C   UNL     1     200.491 204.510 213.802  1.00  0.00     0.008 C 
ATOM     19  C   UNL     1     198.335 203.818 214.912  1.00  0.00     0.008 C 
ENDBRANCH  12  17
ENDBRANCH  11  12
ENDBRANCH   1  11
TORSDOF 1
ENDMDL
MODEL 7
REMARK VINA RESULT:    -3.638      1.700      4.094
REMARK INTER + INTRA:          -5.464
REMARK INTER:                  -5.749
REMARK INTRA:                   0.285
REMARK UNBOUND:                 0.089
REMARK SMILES CC1=CCC[C@H](C)C(=O)C[C@@H](C(C)C)C(=O)C1
REMARK SMILES IDX 8 1 9 2 6 3 7 4 5 5 4 6 3 7 2 8 1 9 10 11 11 12 15 13 16 14
REMARK SMILES IDX 17 15 12 17 13 18 14 19
REMARK H PARENT
REMARK Flexibility Score: 70.00
ROOT
ATOM      1  C   UNL     1     214.128 204.207 217.074  1.00  0.00     0.136 C 
ATOM      2  O   UNL     1     215.167 203.581 216.916  1.00  0.00    -0.299 OA
ENDROOT
BRANCH   1   3
ATOM      3  C   UNL     1     212.974 203.568 217.814  1.00  0.00     0.053 C 
ATOM      4  C   UNL     1     211.730 204.464 217.781  1.00  0.00     0.016 C 
BRANCH   3   5
ATOM      5  C   UNL     1     212.690 202.176 217.198  1.00  0.00     0.015 C 
BRANCH   5   6
ATOM      6  C   UNL     1     212.085 202.177 215.781  1.00  0.00     0.028 C 
BRANCH   6   7
ATOM      7  C   UNL     1     213.033 201.929 214.627  1.00  0.00    -0.028 C 
ATOM      8  C   UNL     1     213.225 202.723 213.545  1.00  0.00    -0.070 CG0
ATOM      9  C   UNL     1     214.141 202.214 212.458  1.00  0.00     0.039 C 
ATOM     10  G   UNL     1     212.649 204.120 213.397  1.00  0.00     0.000 G0
ENDBRANCH   6   7
ENDBRANCH   5   6
ENDBRANCH   3   5
ENDBRANCH   1   3
BRANCH   1  11
ATOM     11  C   UNL     1     214.047 205.637 216.590  1.00  0.00     0.087 C 
BRANCH  11  12
ATOM     12  C   UNL     1     213.027 205.815 215.427  1.00  0.00     0.066 C 
BRANCH  12  13
ATOM     13  C   UNL     1     213.514 205.129 214.157  1.00  0.00     0.140 C 
ATOM     14  O   UNL     1     214.625 205.398 213.723  1.00  0.00    -0.299 OA
BRANCH  13  15
ATOM     15  C   UNL     1     212.656 204.137 213.398  1.00  0.00     0.106 CG0
ATOM     16  G   UNL     1     213.212 202.730 213.530  1.00  0.00     0.000 G0
ENDBRANCH  13  15
ENDBRANCH  12  13
BRANCH  12  17
ATOM     17  C   UNL     1     212.671 207.315 215.188  1.00  0.00    -0.006 C 
ATOM     18  C   UNL     1     211.891 207.506 213.879  1.00  0.00     0.008 C 
ATOM     19  C   UNL     1     213.884 208.263 215.225  1.00  0.00     0.008 C 
ENDBRANCH  12  17
ENDBRANCH  11  12
ENDBRANCH   1  11
TORSDOF 1
ENDMDL
MODEL 8
REMARK VINA RESULT:    -3.478     13.748     15.597
REMARK INTER + INTRA:          -5.220
REMARK INTER:                  -5.271
REMARK INTRA:                   0.051
REMARK UNBOUND:                 0.089
REMARK SMILES CC1=CCC[C@H](C)C(=O)C[C@@H](C(C)C)C(=O)C1
REMARK SMILES IDX 8 1 9 2 6 3 7 4 5 5 4 6 3 7 2 8 1 9 10 11 11 12 15 13 16 14
REMARK SMILES IDX 17 15 12 17 13 18 14 19
REMARK H PARENT
REMARK Flexibility Score: 70.00
ROOT
ATOM      1  C   UNL     1     200.750 208.189 216.178  1.00  0.00     0.136 C 
ATOM      2  O   UNL     1     201.773 207.740 215.682  1.00  0.00    -0.299 OA
ENDROOT
BRANCH   1   3
ATOM      3  C   UNL     1     200.191 207.565 217.437  1.00  0.00     0.053 C 
ATOM      4  C   UNL     1     199.909 208.627 218.506  1.00  0.00     0.016 C 
BRANCH   3   5
ATOM      5  C   UNL     1     198.914 206.765 217.079  1.00  0.00     0.015 C 
BRANCH   5   6
ATOM      6  C   UNL     1     199.125 205.513 216.206  1.00  0.00     0.028 C 
BRANCH   6   7
ATOM      7  C   UNL     1     198.163 205.306 215.055  1.00  0.00    -0.028 C 
ATOM      8  C   UNL     1     198.097 206.025 213.907  1.00  0.00    -0.070 CG0
ATOM      9  C   UNL     1     196.976 205.709 212.948  1.00  0.00     0.039 C 
ATOM     10  G   UNL     1     199.123 207.063 213.490  1.00  0.00     0.000 G0
ENDBRANCH   6   7
ENDBRANCH   5   6
ENDBRANCH   3   5
ENDBRANCH   1   3
BRANCH   1  11
ATOM     11  C   UNL     1     200.104 209.409 215.562  1.00  0.00     0.087 C 
BRANCH  11  12
ATOM     12  C   UNL     1     198.644 209.138 215.092  1.00  0.00     0.066 C 
BRANCH  12  13
ATOM     13  C   UNL     1     198.620 208.482 213.718  1.00  0.00     0.140 C 
ATOM     14  O   UNL     1     198.155 209.099 212.770  1.00  0.00    -0.299 OA
BRANCH  13  15
ATOM     15  C   UNL     1     199.136 207.075 213.488  1.00  0.00     0.106 CG0
ATOM     16  G   UNL     1     198.103 206.046 213.911  1.00  0.00     0.000 G0
ENDBRANCH  13  15
ENDBRANCH  12  13
BRANCH  12  17
ATOM     17  C   UNL     1     197.765 210.426 215.147  1.00  0.00    -0.006 C 
ATOM     18  C   UNL     1     198.621 211.695 215.027  1.00  0.00     0.008 C 
ATOM     19  C   UNL     1     196.856 210.515 216.386  1.00  0.00     0.008 C 
ENDBRANCH  12  17
ENDBRANCH  11  12
ENDBRANCH   1  11
TORSDOF 1
ENDMDL
MODEL 9
REMARK VINA RESULT:    -3.418      1.665      4.142
REMARK INTER + INTRA:          -5.127
REMARK INTER:                  -4.788
REMARK INTRA:                  -0.339
REMARK UNBOUND:                 0.089
REMARK SMILES CC1=CCC[C@H](C)C(=O)C[C@@H](C(C)C)C(=O)C1
REMARK SMILES IDX 8 1 9 2 6 3 7 4 5 5 4 6 3 7 2 8 1 9 10 11 11 12 15 13 16 14
REMARK SMILES IDX 17 15 12 17 13 18 14 19
REMARK H PARENT
REMARK Flexibility Score: 70.00
ROOT
ATOM      1  C   UNL     1     214.206 205.159 216.145  1.00  0.00     0.136 C 
ATOM      2  O   UNL     1     213.704 206.101 216.742  1.00  0.00    -0.299 OA
ENDROOT
BRANCH   1   3
ATOM      3  C   UNL     1     214.695 203.956 216.920  1.00  0.00     0.053 C 
ATOM      4  C   UNL     1     215.744 204.357 217.965  1.00  0.00     0.016 C 
BRANCH   3   5
ATOM      5  C   UNL     1     213.483 203.250 217.574  1.00  0.00     0.015 C 
BRANCH   5   6
ATOM      6  C   UNL     1     212.839 202.116 216.752  1.00  0.00     0.028 C 
BRANCH   6   7
ATOM      7  C   UNL     1     213.757 201.297 215.870  1.00  0.00    -0.028 C 
ATOM      8  C   UNL     1     213.673 201.144 214.525  1.00  0.00    -0.070 CG0
ATOM      9  C   UNL     1     214.633 200.182 213.870  1.00  0.00     0.039 C 
ATOM     10  G   UNL     1     212.736 201.937 213.632  1.00  0.00     0.000 G0
ENDBRANCH   6   7
ENDBRANCH   5   6
ENDBRANCH   3   5
ENDBRANCH   1   3
BRANCH   1  11
ATOM     11  C   UNL     1     214.258 205.185 214.634  1.00  0.00     0.087 C 
BRANCH  11  12
ATOM     12  C   UNL     1     212.990 204.558 213.983  1.00  0.00     0.066 C 
BRANCH  12  13
ATOM     13  C   UNL     1     213.330 203.271 213.242  1.00  0.00     0.140 C 
ATOM     14  O   UNL     1     214.101 203.314 212.294  1.00  0.00    -0.299 OA
BRANCH  13  15
ATOM     15  C   UNL     1     212.726 201.936 213.629  1.00  0.00     0.106 CG0
ATOM     16  G   UNL     1     213.678 201.148 214.511  1.00  0.00     0.000 G0
ENDBRANCH  13  15
ENDBRANCH  12  13
BRANCH  12  17
ATOM     17  C   UNL     1     212.235 205.578 213.077  1.00  0.00    -0.006 C 
ATOM     18  C   UNL     1     212.986 206.915 212.990  1.00  0.00     0.008 C 
ATOM     19  C   UNL     1     210.770 205.819 213.486  1.00  0.00     0.008 C 
ENDBRANCH  12  17
ENDBRANCH  11  12
ENDBRANCH   1  11
TORSDOF 1
ENDMDL
