MODEL 1
REMARK VINA RESULT:    -4.351      0.000      0.000
REMARK INTER + INTRA:         -15.794
REMARK INTER:                 -10.965
REMARK INTRA:                  -4.829
REMARK UNBOUND:                -4.829
REMARK SMILES CCCCCCCCCCCCCCCCCCCCCCCCCCCC(=O)[O-]
REMARK SMILES IDX 15 1 16 2 17 3 18 4 19 5 20 6 21 7 22 8 23 9 24 10 25 11
REMARK SMILES IDX 26 12 27 13 28 14 29 15 30 16 14 17 13 18 12 19 11 20 10 21
REMARK SMILES IDX 9 22 8 23 7 24 6 25 5 26 4 27 3 28 2 29 1 30
REMARK H PARENT
REMARK Flexibility Score: inf
ROOT
ATOM      1  C   UNL     1       0.080 -22.092  -6.651  1.00  0.00     0.000 C 
ENDROOT
BRANCH   1   2
ATOM      2  C   UNL     1       1.111 -22.113  -7.798  1.00  0.00     0.000 C 
BRANCH   2   3
ATOM      3  C   UNL     1       1.598 -20.715  -8.218  1.00  0.00     0.000 C 
BRANCH   3   4
ATOM      4  C   UNL     1       3.063 -20.450  -7.832  1.00  0.00     0.000 C 
BRANCH   4   5
ATOM      5  C   UNL     1       3.218 -19.273  -6.856  1.00  0.00     0.000 C 
BRANCH   5   6
ATOM      6  C   UNL     1       4.178 -19.587  -5.698  1.00  0.00     0.000 C 
BRANCH   6   7
ATOM      7  C   UNL     1       4.062 -21.061  -5.274  1.00  0.00     0.000 C 
BRANCH   7   8
ATOM      8  C   UNL     1       5.411 -21.794  -5.295  1.00  0.00     0.000 C 
BRANCH   8   9
ATOM      9  C   UNL     1       6.524 -20.975  -5.966  1.00  0.00     0.000 C 
BRANCH   9  10
ATOM     10  C   UNL     1       6.831 -21.513  -7.371  1.00  0.00     0.000 C 
BRANCH  10  11
ATOM     11  C   UNL     1       7.915 -20.697  -8.100  1.00  0.00     0.000 C 
BRANCH  11  12
ATOM     12  C   UNL     1       7.422 -19.912  -9.332  1.00  0.00     0.006 C 
BRANCH  12  13
ATOM     13  C   UNL     1       6.307 -18.899  -9.037  1.00  0.00     0.053 C 
BRANCH  13  14
ATOM     14  C   UNL     1       6.838 -17.659  -8.384  1.00  0.00     0.041 C 
ATOM     15  O   UNL     1       7.647 -16.916  -9.001  1.00  0.00    -0.550 OA
ATOM     16  O   UNL     1       6.480 -17.351  -7.078  1.00  0.00    -0.550 OA
ENDBRANCH  13  14
ENDBRANCH  12  13
ENDBRANCH  11  12
ENDBRANCH  10  11
ENDBRANCH   9  10
ENDBRANCH   8   9
ENDBRANCH   7   8
ENDBRANCH   6   7
ENDBRANCH   5   6
ENDBRANCH   4   5
ENDBRANCH   3   4
ENDBRANCH   2   3
ENDBRANCH   1   2
BRANCH   1  17
ATOM     17  C   UNL     1       0.739 -21.867  -5.277  1.00  0.00     0.000 C 
BRANCH  17  18
ATOM     18  C   UNL     1       0.342 -20.524  -4.640  1.00  0.00     0.000 C 
BRANCH  18  19
ATOM     19  C   UNL     1       0.678 -20.394  -3.143  1.00  0.00     0.000 C 
BRANCH  19  20
ATOM     20  C   UNL     1       1.789 -19.363  -2.874  1.00  0.00     0.000 C 
BRANCH  20  21
ATOM     21  C   UNL     1       1.572 -18.032  -3.619  1.00  0.00     0.000 C 
BRANCH  21  22
ATOM     22  C   UNL     1       2.210 -16.794  -2.958  1.00  0.00    -0.000 C 
BRANCH  22  23
ATOM     23  C   UNL     1       2.675 -16.984  -1.501  1.00  0.00    -0.000 C 
BRANCH  23  24
ATOM     24  C   UNL     1       3.073 -15.674  -0.787  1.00  0.00    -0.000 C 
BRANCH  24  25
ATOM     25  C   UNL     1       4.595 -15.533  -0.607  1.00  0.00    -0.000 C 
BRANCH  25  26
ATOM     26  C   UNL     1       5.356 -15.465  -1.944  1.00  0.00    -0.000 C 
BRANCH  26  27
ATOM     27  C   UNL     1       6.371 -16.600  -2.176  1.00  0.00    -0.000 C 
BRANCH  27  28
ATOM     28  C   UNL     1       5.848 -17.685  -3.135  1.00  0.00    -0.000 C 
BRANCH  28  29
ATOM     29  C   UNL     1       5.719 -19.057  -2.457  1.00  0.00    -0.003 C 
ATOM     30  C   UNL     1       6.849 -19.331  -1.464  1.00  0.00     0.004 C 
ENDBRANCH  28  29
ENDBRANCH  27  28
ENDBRANCH  26  27
ENDBRANCH  25  26
ENDBRANCH  24  25
ENDBRANCH  23  24
ENDBRANCH  22  23
ENDBRANCH  21  22
ENDBRANCH  20  21
ENDBRANCH  19  20
ENDBRANCH  18  19
ENDBRANCH  17  18
ENDBRANCH   1  17
TORSDOF 26
ENDMDL
MODEL 2
REMARK VINA RESULT:    -4.349      1.155      2.099
REMARK INTER + INTRA:         -15.789
REMARK INTER:                 -11.095
REMARK INTRA:                  -4.694
REMARK UNBOUND:                -4.829
REMARK SMILES CCCCCCCCCCCCCCCCCCCCCCCCCCCC(=O)[O-]
REMARK SMILES IDX 15 1 16 2 17 3 18 4 19 5 20 6 21 7 22 8 23 9 24 10 25 11
REMARK SMILES IDX 26 12 27 13 28 14 29 15 30 16 14 17 13 18 12 19 11 20 10 21
REMARK SMILES IDX 9 22 8 23 7 24 6 25 5 26 4 27 3 28 2 29 1 30
REMARK H PARENT
REMARK Flexibility Score: inf
ROOT
ATOM      1  C   UNL     1      -0.114 -21.932  -6.540  1.00  0.00     0.000 C 
ENDROOT
BRANCH   1   2
ATOM      2  C   UNL     1       0.913 -22.329  -7.620  1.00  0.00     0.000 C 
BRANCH   2   3
ATOM      3  C   UNL     1       1.601 -21.128  -8.292  1.00  0.00     0.000 C 
BRANCH   3   4
ATOM      4  C   UNL     1       2.973 -20.804  -7.680  1.00  0.00     0.000 C 
BRANCH   4   5
ATOM      5  C   UNL     1       2.978 -19.485  -6.889  1.00  0.00     0.000 C 
BRANCH   5   6
ATOM      6  C   UNL     1       3.869 -19.548  -5.640  1.00  0.00     0.000 C 
BRANCH   6   7
ATOM      7  C   UNL     1       4.084 -21.002  -5.192  1.00  0.00     0.000 C 
BRANCH   7   8
ATOM      8  C   UNL     1       5.415 -21.207  -4.453  1.00  0.00     0.000 C 
BRANCH   8   9
ATOM      9  C   UNL     1       6.584 -20.461  -5.114  1.00  0.00     0.000 C 
BRANCH   9  10
ATOM     10  C   UNL     1       7.407 -21.404  -6.002  1.00  0.00     0.000 C 
BRANCH  10  11
ATOM     11  C   UNL     1       6.844 -21.524  -7.431  1.00  0.00     0.000 C 
BRANCH  11  12
ATOM     12  C   UNL     1       7.394 -20.492  -8.436  1.00  0.00     0.006 C 
BRANCH  12  13
ATOM     13  C   UNL     1       6.499 -19.261  -8.639  1.00  0.00     0.053 C 
BRANCH  13  14
ATOM     14  C   UNL     1       7.279 -18.079  -9.128  1.00  0.00     0.041 C 
ATOM     15  O   UNL     1       8.389 -17.792  -8.605  1.00  0.00    -0.550 OA
ATOM     16  O   UNL     1       6.758 -17.263 -10.125  1.00  0.00    -0.550 OA
ENDBRANCH  13  14
ENDBRANCH  12  13
ENDBRANCH  11  12
ENDBRANCH  10  11
ENDBRANCH   9  10
ENDBRANCH   8   9
ENDBRANCH   7   8
ENDBRANCH   6   7
ENDBRANCH   5   6
ENDBRANCH   4   5
ENDBRANCH   3   4
ENDBRANCH   2   3
ENDBRANCH   1   2
BRANCH   1  17
ATOM     17  C   UNL     1       0.491 -21.946  -5.124  1.00  0.00     0.000 C 
BRANCH  17  18
ATOM     18  C   UNL     1       0.408 -20.576  -4.428  1.00  0.00     0.000 C 
BRANCH  18  19
ATOM     19  C   UNL     1       0.477 -20.626  -2.891  1.00  0.00     0.000 C 
BRANCH  19  20
ATOM     20  C   UNL     1       1.828 -20.134  -2.342  1.00  0.00     0.000 C 
BRANCH  20  21
ATOM     21  C   UNL     1       2.084 -18.639  -2.618  1.00  0.00     0.000 C 
BRANCH  21  22
ATOM     22  C   UNL     1       3.185 -17.988  -1.758  1.00  0.00    -0.000 C 
BRANCH  22  23
ATOM     23  C   UNL     1       4.632 -18.270  -2.206  1.00  0.00    -0.000 C 
BRANCH  23  24
ATOM     24  C   UNL     1       5.247 -17.169  -3.097  1.00  0.00    -0.000 C 
BRANCH  24  25
ATOM     25  C   UNL     1       6.772 -17.309  -3.250  1.00  0.00    -0.000 C 
BRANCH  25  26
ATOM     26  C   UNL     1       7.558 -16.332  -2.355  1.00  0.00    -0.000 C 
BRANCH  26  27
ATOM     27  C   UNL     1       7.953 -16.888  -0.973  1.00  0.00    -0.000 C 
BRANCH  27  28
ATOM     28  C   UNL     1       7.223 -16.185   0.186  1.00  0.00    -0.000 C 
BRANCH  28  29
ATOM     29  C   UNL     1       6.536 -14.883  -0.255  1.00  0.00    -0.003 C 
ATOM     30  C   UNL     1       5.012 -14.972  -0.191  1.00  0.00     0.004 C 
ENDBRANCH  28  29
ENDBRANCH  27  28
ENDBRANCH  26  27
ENDBRANCH  25  26
ENDBRANCH  24  25
ENDBRANCH  23  24
ENDBRANCH  22  23
ENDBRANCH  21  22
ENDBRANCH  20  21
ENDBRANCH  19  20
ENDBRANCH  18  19
ENDBRANCH  17  18
ENDBRANCH   1  17
TORSDOF 26
ENDMDL
MODEL 3
REMARK VINA RESULT:    -4.334      3.024      6.777
REMARK INTER + INTRA:         -15.751
REMARK INTER:                 -10.755
REMARK INTRA:                  -4.996
REMARK UNBOUND:                -4.829
REMARK SMILES CCCCCCCCCCCCCCCCCCCCCCCCCCCC(=O)[O-]
REMARK SMILES IDX 15 1 16 2 17 3 18 4 19 5 20 6 21 7 22 8 23 9 24 10 25 11
REMARK SMILES IDX 26 12 27 13 28 14 29 15 30 16 14 17 13 18 12 19 11 20 10 21
REMARK SMILES IDX 9 22 8 23 7 24 6 25 5 26 4 27 3 28 2 29 1 30
REMARK H PARENT
REMARK Flexibility Score: inf
ROOT
ATOM      1  C   UNL     1       0.836 -22.752  -7.265  1.00  0.00     0.000 C 
ENDROOT
BRANCH   1   2
ATOM      2  C   UNL     1       0.164 -22.533  -5.893  1.00  0.00     0.000 C 
BRANCH   2   3
ATOM      3  C   UNL     1       0.260 -21.085  -5.381  1.00  0.00     0.000 C 
BRANCH   3   4
ATOM      4  C   UNL     1       0.350 -20.996  -3.849  1.00  0.00     0.000 C 
BRANCH   4   5
ATOM      5  C   UNL     1       1.046 -19.713  -3.366  1.00  0.00     0.000 C 
BRANCH   5   6
ATOM      6  C   UNL     1       2.092 -19.984  -2.275  1.00  0.00     0.000 C 
BRANCH   6   7
ATOM      7  C   UNL     1       3.240 -18.964  -2.350  1.00  0.00     0.000 C 
BRANCH   7   8
ATOM      8  C   UNL     1       3.015 -17.893  -3.428  1.00  0.00     0.000 C 
BRANCH   8   9
ATOM      9  C   UNL     1       3.559 -16.515  -3.021  1.00  0.00     0.000 C 
BRANCH   9  10
ATOM     10  C   UNL     1       4.136 -16.551  -1.599  1.00  0.00     0.000 C 
BRANCH  10  11
ATOM     11  C   UNL     1       3.380 -15.629  -0.623  1.00  0.00     0.000 C 
BRANCH  11  12
ATOM     12  C   UNL     1       2.197 -14.856  -1.240  1.00  0.00     0.006 C 
BRANCH  12  13
ATOM     13  C   UNL     1       1.381 -14.032  -0.234  1.00  0.00     0.053 C 
BRANCH  13  14
ATOM     14  C   UNL     1      -0.059 -14.445  -0.211  1.00  0.00     0.041 C 
ATOM     15  O   UNL     1      -0.648 -14.745  -1.284  1.00  0.00    -0.550 OA
ATOM     16  O   UNL     1      -0.764 -14.451   0.986  1.00  0.00    -0.550 OA
ENDBRANCH  13  14
ENDBRANCH  12  13
ENDBRANCH  11  12
ENDBRANCH  10  11
ENDBRANCH   9  10
ENDBRANCH   8   9
ENDBRANCH   7   8
ENDBRANCH   6   7
ENDBRANCH   5   6
ENDBRANCH   4   5
ENDBRANCH   3   4
ENDBRANCH   2   3
ENDBRANCH   1   2
BRANCH   1  17
ATOM     17  C   UNL     1       1.156 -21.426  -7.977  1.00  0.00     0.000 C 
BRANCH  17  18
ATOM     18  C   UNL     1       2.659 -21.095  -7.972  1.00  0.00     0.000 C 
BRANCH  18  19
ATOM     19  C   UNL     1       3.021 -19.739  -7.339  1.00  0.00     0.000 C 
BRANCH  19  20
ATOM     20  C   UNL     1       3.705 -19.890  -5.969  1.00  0.00     0.000 C 
BRANCH  20  21
ATOM     21  C   UNL     1       3.990 -21.358  -5.594  1.00  0.00     0.000 C 
BRANCH  21  22
ATOM     22  C   UNL     1       5.477 -21.762  -5.592  1.00  0.00    -0.000 C 
BRANCH  22  23
ATOM     23  C   UNL     1       6.117 -21.949  -6.981  1.00  0.00    -0.000 C 
BRANCH  23  24
ATOM     24  C   UNL     1       7.196 -20.900  -7.329  1.00  0.00    -0.000 C 
BRANCH  24  25
ATOM     25  C   UNL     1       6.665 -19.781  -8.243  1.00  0.00    -0.000 C 
BRANCH  25  26
ATOM     26  C   UNL     1       6.693 -18.394  -7.574  1.00  0.00    -0.000 C 
BRANCH  26  27
ATOM     27  C   UNL     1       7.359 -18.354  -6.185  1.00  0.00    -0.000 C 
BRANCH  27  28
ATOM     28  C   UNL     1       6.397 -17.900  -5.072  1.00  0.00    -0.000 C 
BRANCH  28  29
ATOM     29  C   UNL     1       6.678 -18.596  -3.732  1.00  0.00    -0.003 C 
ATOM     30  C   UNL     1       7.832 -19.594  -3.818  1.00  0.00     0.004 C 
ENDBRANCH  28  29
ENDBRANCH  27  28
ENDBRANCH  26  27
ENDBRANCH  25  26
ENDBRANCH  24  25
ENDBRANCH  23  24
ENDBRANCH  22  23
ENDBRANCH  21  22
ENDBRANCH  20  21
ENDBRANCH  19  20
ENDBRANCH  18  19
ENDBRANCH  17  18
ENDBRANCH   1  17
TORSDOF 26
ENDMDL
MODEL 4
REMARK VINA RESULT:    -4.334      2.490      5.189
REMARK INTER + INTRA:         -15.749
REMARK INTER:                 -10.536
REMARK INTRA:                  -5.214
REMARK UNBOUND:                -4.829
REMARK SMILES CCCCCCCCCCCCCCCCCCCCCCCCCCCC(=O)[O-]
REMARK SMILES IDX 15 1 16 2 17 3 18 4 19 5 20 6 21 7 22 8 23 9 24 10 25 11
REMARK SMILES IDX 26 12 27 13 28 14 29 15 30 16 14 17 13 18 12 19 11 20 10 21
REMARK SMILES IDX 9 22 8 23 7 24 6 25 5 26 4 27 3 28 2 29 1 30
REMARK H PARENT
REMARK Flexibility Score: inf
ROOT
ATOM      1  C   UNL     1       0.087 -22.013  -6.739  1.00  0.00     0.000 C 
ENDROOT
BRANCH   1   2
ATOM      2  C   UNL     1       1.240 -22.118  -7.760  1.00  0.00     0.000 C 
BRANCH   2   3
ATOM      3  C   UNL     1       1.660 -20.765  -8.360  1.00  0.00     0.000 C 
BRANCH   3   4
ATOM      4  C   UNL     1       3.023 -20.277  -7.841  1.00  0.00     0.000 C 
BRANCH   4   5
ATOM      5  C   UNL     1       3.844 -21.395  -7.179  1.00  0.00     0.000 C 
BRANCH   5   6
ATOM      6  C   UNL     1       4.198 -21.082  -5.718  1.00  0.00     0.000 C 
BRANCH   6   7
ATOM      7  C   UNL     1       5.477 -21.823  -5.292  1.00  0.00     0.000 C 
BRANCH   7   8
ATOM      8  C   UNL     1       6.226 -21.112  -4.154  1.00  0.00     0.000 C 
BRANCH   8   9
ATOM      9  C   UNL     1       5.312 -20.758  -2.971  1.00  0.00     0.000 C 
BRANCH   9  10
ATOM     10  C   UNL     1       5.696 -19.399  -2.368  1.00  0.00     0.000 C 
BRANCH  10  11
ATOM     11  C   UNL     1       4.677 -18.291  -2.690  1.00  0.00     0.000 C 
BRANCH  11  12
ATOM     12  C   UNL     1       4.183 -17.484  -1.473  1.00  0.00     0.006 C 
BRANCH  12  13
ATOM     13  C   UNL     1       4.071 -15.972  -1.714  1.00  0.00     0.053 C 
BRANCH  13  14
ATOM     14  C   UNL     1       2.801 -15.410  -1.151  1.00  0.00     0.041 C 
ATOM     15  O   UNL     1       1.689 -15.901  -1.484  1.00  0.00    -0.550 OA
ATOM     16  O   UNL     1       2.841 -14.314  -0.298  1.00  0.00    -0.550 OA
ENDBRANCH  13  14
ENDBRANCH  12  13
ENDBRANCH  11  12
ENDBRANCH  10  11
ENDBRANCH   9  10
ENDBRANCH   8   9
ENDBRANCH   7   8
ENDBRANCH   6   7
ENDBRANCH   5   6
ENDBRANCH   4   5
ENDBRANCH   3   4
ENDBRANCH   2   3
ENDBRANCH   1   2
BRANCH   1  17
ATOM     17  C   UNL     1       0.596 -21.978  -5.286  1.00  0.00     0.000 C 
BRANCH  17  18
ATOM     18  C   UNL     1       0.320 -20.632  -4.592  1.00  0.00     0.000 C 
BRANCH  18  19
ATOM     19  C   UNL     1       1.577 -19.812  -4.246  1.00  0.00     0.000 C 
BRANCH  19  20
ATOM     20  C   UNL     1       1.243 -18.378  -3.798  1.00  0.00     0.000 C 
BRANCH  20  21
ATOM     21  C   UNL     1       1.578 -17.318  -4.866  1.00  0.00     0.000 C 
BRANCH  21  22
ATOM     22  C   UNL     1       2.891 -17.552  -5.637  1.00  0.00    -0.000 C 
BRANCH  22  23
ATOM     23  C   UNL     1       3.917 -16.404  -5.566  1.00  0.00    -0.000 C 
BRANCH  23  24
ATOM     24  C   UNL     1       5.202 -16.649  -6.388  1.00  0.00    -0.000 C 
BRANCH  24  25
ATOM     25  C   UNL     1       5.812 -18.040  -6.137  1.00  0.00    -0.000 C 
BRANCH  25  26
ATOM     26  C   UNL     1       6.950 -18.383  -7.116  1.00  0.00    -0.000 C 
BRANCH  26  27
ATOM     27  C   UNL     1       6.498 -19.014  -8.447  1.00  0.00    -0.000 C 
BRANCH  27  28
ATOM     28  C   UNL     1       7.474 -20.087  -8.962  1.00  0.00    -0.000 C 
BRANCH  28  29
ATOM     29  C   UNL     1       7.930 -21.049  -7.854  1.00  0.00    -0.003 C 
ATOM     30  C   UNL     1       7.687 -22.515  -8.210  1.00  0.00     0.004 C 
ENDBRANCH  28  29
ENDBRANCH  27  28
ENDBRANCH  26  27
ENDBRANCH  25  26
ENDBRANCH  24  25
ENDBRANCH  23  24
ENDBRANCH  22  23
ENDBRANCH  21  22
ENDBRANCH  20  21
ENDBRANCH  19  20
ENDBRANCH  18  19
ENDBRANCH  17  18
ENDBRANCH   1  17
TORSDOF 26
ENDMDL
MODEL 5
REMARK VINA RESULT:    -4.288      2.324      6.659
REMARK INTER + INTRA:         -15.634
REMARK INTER:                 -11.027
REMARK INTRA:                  -4.608
REMARK UNBOUND:                -4.829
REMARK SMILES CCCCCCCCCCCCCCCCCCCCCCCCCCCC(=O)[O-]
REMARK SMILES IDX 15 1 16 2 17 3 18 4 19 5 20 6 21 7 22 8 23 9 24 10 25 11
REMARK SMILES IDX 26 12 27 13 28 14 29 15 30 16 14 17 13 18 12 19 11 20 10 21
REMARK SMILES IDX 9 22 8 23 7 24 6 25 5 26 4 27 3 28 2 29 1 30
REMARK H PARENT
REMARK Flexibility Score: inf
ROOT
ATOM      1  C   UNL     1       0.682 -20.315  -4.712  1.00  0.00     0.000 C 
ENDROOT
BRANCH   1   2
ATOM      2  C   UNL     1       0.596 -20.237  -3.173  1.00  0.00     0.000 C 
BRANCH   2   3
ATOM      3  C   UNL     1       1.957 -20.378  -2.469  1.00  0.00     0.000 C 
BRANCH   3   4
ATOM      4  C   UNL     1       2.547 -19.028  -2.030  1.00  0.00     0.000 C 
BRANCH   4   5
ATOM      5  C   UNL     1       3.868 -18.695  -2.742  1.00  0.00     0.000 C 
BRANCH   5   6
ATOM      6  C   UNL     1       3.660 -17.853  -4.010  1.00  0.00     0.000 C 
BRANCH   6   7
ATOM      7  C   UNL     1       4.642 -16.671  -4.050  1.00  0.00     0.000 C 
BRANCH   7   8
ATOM      8  C   UNL     1       5.949 -16.956  -3.295  1.00  0.00     0.000 C 
BRANCH   8   9
ATOM      9  C   UNL     1       6.373 -15.796  -2.381  1.00  0.00     0.000 C 
BRANCH   9  10
ATOM     10  C   UNL     1       5.161 -14.947  -1.972  1.00  0.00     0.000 C 
BRANCH  10  11
ATOM     11  C   UNL     1       4.538 -15.396  -0.637  1.00  0.00     0.000 C 
BRANCH  11  12
ATOM     12  C   UNL     1       3.090 -14.922  -0.401  1.00  0.00     0.006 C 
BRANCH  12  13
ATOM     13  C   UNL     1       2.027 -15.708  -1.182  1.00  0.00     0.053 C 
BRANCH  13  14
ATOM     14  C   UNL     1       1.286 -14.834  -2.148  1.00  0.00     0.041 C 
ATOM     15  O   UNL     1       1.886 -14.325  -3.131  1.00  0.00    -0.550 OA
ATOM     16  O   UNL     1      -0.056 -14.541  -1.935  1.00  0.00    -0.550 OA
ENDBRANCH  13  14
ENDBRANCH  12  13
ENDBRANCH  11  12
ENDBRANCH  10  11
ENDBRANCH   9  10
ENDBRANCH   8   9
ENDBRANCH   7   8
ENDBRANCH   6   7
ENDBRANCH   5   6
ENDBRANCH   4   5
ENDBRANCH   3   4
ENDBRANCH   2   3
ENDBRANCH   1   2
BRANCH   1  17
ATOM     17  C   UNL     1       0.465 -21.745  -5.237  1.00  0.00     0.000 C 
BRANCH  17  18
ATOM     18  C   UNL     1       0.071 -21.780  -6.725  1.00  0.00     0.000 C 
BRANCH  18  19
ATOM     19  C   UNL     1       1.237 -22.036  -7.697  1.00  0.00     0.000 C 
BRANCH  19  20
ATOM     20  C   UNL     1       1.808 -20.736  -8.292  1.00  0.00     0.000 C 
BRANCH  20  21
ATOM     21  C   UNL     1       3.084 -20.253  -7.575  1.00  0.00     0.000 C 
BRANCH  21  22
ATOM     22  C   UNL     1       3.946 -21.364  -6.944  1.00  0.00    -0.000 C 
BRANCH  22  23
ATOM     23  C   UNL     1       4.156 -21.259  -5.420  1.00  0.00    -0.000 C 
BRANCH  23  24
ATOM     24  C   UNL     1       5.608 -21.514  -4.961  1.00  0.00    -0.000 C 
BRANCH  24  25
ATOM     25  C   UNL     1       6.463 -20.234  -4.955  1.00  0.00    -0.000 C 
BRANCH  25  26
ATOM     26  C   UNL     1       7.703 -20.335  -5.863  1.00  0.00    -0.000 C 
BRANCH  26  27
ATOM     27  C   UNL     1       7.646 -21.452  -6.922  1.00  0.00    -0.000 C 
BRANCH  27  28
ATOM     28  C   UNL     1       7.583 -20.911  -8.361  1.00  0.00    -0.000 C 
BRANCH  28  29
ATOM     29  C   UNL     1       6.774 -19.609  -8.465  1.00  0.00    -0.003 C 
ATOM     30  C   UNL     1       6.819 -18.998  -9.866  1.00  0.00     0.004 C 
ENDBRANCH  28  29
ENDBRANCH  27  28
ENDBRANCH  26  27
ENDBRANCH  25  26
ENDBRANCH  24  25
ENDBRANCH  23  24
ENDBRANCH  22  23
ENDBRANCH  21  22
ENDBRANCH  20  21
ENDBRANCH  19  20
ENDBRANCH  18  19
ENDBRANCH  17  18
ENDBRANCH   1  17
TORSDOF 26
ENDMDL
MODEL 6
REMARK VINA RESULT:    -4.242      1.922      4.665
REMARK INTER + INTRA:         -15.518
REMARK INTER:                 -10.396
REMARK INTRA:                  -5.122
REMARK UNBOUND:                -4.829
REMARK SMILES CCCCCCCCCCCCCCCCCCCCCCCCCCCC(=O)[O-]
REMARK SMILES IDX 15 1 16 2 17 3 18 4 19 5 20 6 21 7 22 8 23 9 24 10 25 11
REMARK SMILES IDX 26 12 27 13 28 14 29 15 30 16 14 17 13 18 12 19 11 20 10 21
REMARK SMILES IDX 9 22 8 23 7 24 6 25 5 26 4 27 3 28 2 29 1 30
REMARK H PARENT
REMARK Flexibility Score: inf
ROOT
ATOM      1  C   UNL     1       3.008 -18.060  -1.613  1.00  0.00     0.000 C 
ENDROOT
BRANCH   1   2
ATOM      2  C   UNL     1       3.788 -18.920  -2.629  1.00  0.00     0.000 C 
BRANCH   2   3
ATOM      3  C   UNL     1       3.071 -20.226  -3.014  1.00  0.00     0.000 C 
BRANCH   3   4
ATOM      4  C   UNL     1       1.753 -20.433  -2.251  1.00  0.00     0.000 C 
BRANCH   4   5
ATOM      5  C   UNL     1       0.513 -20.269  -3.145  1.00  0.00     0.000 C 
BRANCH   5   6
ATOM      6  C   UNL     1       0.845 -20.382  -4.641  1.00  0.00     0.000 C 
BRANCH   6   7
ATOM      7  C   UNL     1       0.221 -21.650  -5.247  1.00  0.00     0.000 C 
BRANCH   7   8
ATOM      8  C   UNL     1       0.685 -21.912  -6.687  1.00  0.00     0.000 C 
BRANCH   8   9
ATOM      9  C   UNL     1       1.330 -20.679  -7.339  1.00  0.00     0.000 C 
BRANCH   9  10
ATOM     10  C   UNL     1       2.723 -21.013  -7.889  1.00  0.00     0.000 C 
BRANCH  10  11
ATOM     11  C   UNL     1       3.770 -21.229  -6.779  1.00  0.00     0.000 C 
BRANCH  11  12
ATOM     12  C   UNL     1       5.220 -20.890  -7.177  1.00  0.00     0.006 C 
BRANCH  12  13
ATOM     13  C   UNL     1       6.224 -22.030  -6.951  1.00  0.00     0.053 C 
BRANCH  13  14
ATOM     14  C   UNL     1       7.612 -21.639  -7.360  1.00  0.00     0.041 C 
ATOM     15  O   UNL     1       8.181 -22.232  -8.314  1.00  0.00    -0.550 OA
ATOM     16  O   UNL     1       8.296 -20.656  -6.655  1.00  0.00    -0.550 OA
ENDBRANCH  13  14
ENDBRANCH  12  13
ENDBRANCH  11  12
ENDBRANCH  10  11
ENDBRANCH   9  10
ENDBRANCH   8   9
ENDBRANCH   7   8
ENDBRANCH   6   7
ENDBRANCH   5   6
ENDBRANCH   4   5
ENDBRANCH   3   4
ENDBRANCH   2   3
ENDBRANCH   1   2
BRANCH   1  17
ATOM     17  C   UNL     1       2.664 -16.666  -2.171  1.00  0.00     0.000 C 
BRANCH  17  18
ATOM     18  C   UNL     1       1.396 -16.670  -3.043  1.00  0.00     0.000 C 
BRANCH  18  19
ATOM     19  C   UNL     1       1.257 -15.463  -3.988  1.00  0.00     0.000 C 
BRANCH  19  20
ATOM     20  C   UNL     1       1.990 -15.671  -5.325  1.00  0.00     0.000 C 
BRANCH  20  21
ATOM     21  C   UNL     1       1.974 -17.137  -5.801  1.00  0.00     0.000 C 
BRANCH  21  22
ATOM     22  C   UNL     1       3.359 -17.760  -6.065  1.00  0.00    -0.000 C 
BRANCH  22  23
ATOM     23  C   UNL     1       4.566 -16.906  -5.630  1.00  0.00    -0.000 C 
BRANCH  23  24
ATOM     24  C   UNL     1       5.867 -17.710  -5.414  1.00  0.00    -0.000 C 
BRANCH  24  25
ATOM     25  C   UNL     1       6.812 -17.049  -4.395  1.00  0.00    -0.000 C 
BRANCH  25  26
ATOM     26  C   UNL     1       6.086 -16.088  -3.435  1.00  0.00    -0.000 C 
BRANCH  26  27
ATOM     27  C   UNL     1       6.854 -15.753  -2.143  1.00  0.00    -0.000 C 
BRANCH  27  28
ATOM     28  C   UNL     1       5.991 -15.901  -0.877  1.00  0.00    -0.000 C 
BRANCH  28  29
ATOM     29  C   UNL     1       5.793 -14.566  -0.141  1.00  0.00    -0.003 C 
ATOM     30  C   UNL     1       4.355 -14.055  -0.228  1.00  0.00     0.004 C 
ENDBRANCH  28  29
ENDBRANCH  27  28
ENDBRANCH  26  27
ENDBRANCH  25  26
ENDBRANCH  24  25
ENDBRANCH  23  24
ENDBRANCH  22  23
ENDBRANCH  21  22
ENDBRANCH  20  21
ENDBRANCH  19  20
ENDBRANCH  18  19
ENDBRANCH  17  18
ENDBRANCH   1  17
TORSDOF 26
ENDMDL
MODEL 7
REMARK VINA RESULT:    -4.207      2.316      5.796
REMARK INTER + INTRA:         -15.431
REMARK INTER:                 -11.042
REMARK INTRA:                  -4.389
REMARK UNBOUND:                -4.829
REMARK SMILES CCCCCCCCCCCCCCCCCCCCCCCCCCCC(=O)[O-]
REMARK SMILES IDX 15 1 16 2 17 3 18 4 19 5 20 6 21 7 22 8 23 9 24 10 25 11
REMARK SMILES IDX 26 12 27 13 28 14 29 15 30 16 14 17 13 18 12 19 11 20 10 21
REMARK SMILES IDX 9 22 8 23 7 24 6 25 5 26 4 27 3 28 2 29 1 30
REMARK H PARENT
REMARK Flexibility Score: inf
ROOT
ATOM      1  C   UNL     1       2.174 -21.719  -7.551  1.00  0.00     0.000 C 
ENDROOT
BRANCH   1   2
ATOM      2  C   UNL     1       2.370 -20.242  -7.950  1.00  0.00     0.000 C 
BRANCH   2   3
ATOM      3  C   UNL     1       3.699 -19.639  -7.462  1.00  0.00     0.000 C 
BRANCH   3   4
ATOM      4  C   UNL     1       3.504 -18.508  -6.440  1.00  0.00     0.000 C 
BRANCH   4   5
ATOM      5  C   UNL     1       2.028 -18.128  -6.245  1.00  0.00     0.000 C 
BRANCH   5   6
ATOM      6  C   UNL     1       1.854 -16.775  -5.538  1.00  0.00     0.000 C 
BRANCH   6   7
ATOM      7  C   UNL     1       2.981 -16.540  -4.520  1.00  0.00     0.000 C 
BRANCH   7   8
ATOM      8  C   UNL     1       2.599 -15.523  -3.433  1.00  0.00     0.000 C 
BRANCH   8   9
ATOM      9  C   UNL     1       1.839 -16.161  -2.261  1.00  0.00     0.000 C 
BRANCH   9  10
ATOM     10  C   UNL     1       2.802 -16.570  -1.138  1.00  0.00     0.000 C 
BRANCH  10  11
ATOM     11  C   UNL     1       3.642 -15.392  -0.610  1.00  0.00     0.000 C 
BRANCH  11  12
ATOM     12  C   UNL     1       5.168 -15.590  -0.693  1.00  0.00     0.006 C 
BRANCH  12  13
ATOM     13  C   UNL     1       5.608 -16.826  -1.491  1.00  0.00     0.053 C 
BRANCH  13  14
ATOM     14  C   UNL     1       6.984 -17.278  -1.106  1.00  0.00     0.041 C 
ATOM     15  O   UNL     1       7.319 -18.483  -1.255  1.00  0.00    -0.550 OA
ATOM     16  O   UNL     1       7.878 -16.380  -0.536  1.00  0.00    -0.550 OA
ENDBRANCH  13  14
ENDBRANCH  12  13
ENDBRANCH  11  12
ENDBRANCH  10  11
ENDBRANCH   9  10
ENDBRANCH   8   9
ENDBRANCH   7   8
ENDBRANCH   6   7
ENDBRANCH   5   6
ENDBRANCH   4   5
ENDBRANCH   3   4
ENDBRANCH   2   3
ENDBRANCH   1   2
BRANCH   1  17
ATOM     17  C   UNL     1       0.687 -22.096  -7.419  1.00  0.00     0.000 C 
BRANCH  17  18
ATOM     18  C   UNL     1       0.171 -21.989  -5.973  1.00  0.00     0.000 C 
BRANCH  18  19
ATOM     19  C   UNL     1       1.071 -21.174  -5.024  1.00  0.00     0.000 C 
BRANCH  19  20
ATOM     20  C   UNL     1       0.295 -20.594  -3.828  1.00  0.00     0.000 C 
BRANCH  20  21
ATOM     21  C   UNL     1       1.119 -19.581  -3.009  1.00  0.00     0.000 C 
BRANCH  21  22
ATOM     22  C   UNL     1       2.407 -20.139  -2.373  1.00  0.00    -0.000 C 
BRANCH  22  23
ATOM     23  C   UNL     1       3.718 -19.779  -3.100  1.00  0.00    -0.000 C 
BRANCH  23  24
ATOM     24  C   UNL     1       4.938 -20.617  -2.661  1.00  0.00    -0.000 C 
BRANCH  24  25
ATOM     25  C   UNL     1       5.838 -21.022  -3.842  1.00  0.00    -0.000 C 
BRANCH  25  26
ATOM     26  C   UNL     1       5.048 -21.614  -5.024  1.00  0.00    -0.000 C 
BRANCH  26  27
ATOM     27  C   UNL     1       5.906 -22.055  -6.225  1.00  0.00    -0.000 C 
BRANCH  27  28
ATOM     28  C   UNL     1       7.195 -21.227  -6.377  1.00  0.00    -0.000 C 
BRANCH  28  29
ATOM     29  C   UNL     1       8.070 -21.709  -7.544  1.00  0.00    -0.003 C 
ATOM     30  C   UNL     1       7.474 -22.918  -8.265  1.00  0.00     0.004 C 
ENDBRANCH  28  29
ENDBRANCH  27  28
ENDBRANCH  26  27
ENDBRANCH  25  26
ENDBRANCH  24  25
ENDBRANCH  23  24
ENDBRANCH  22  23
ENDBRANCH  21  22
ENDBRANCH  20  21
ENDBRANCH  19  20
ENDBRANCH  18  19
ENDBRANCH  17  18
ENDBRANCH   1  17
TORSDOF 26
ENDMDL
MODEL 8
REMARK VINA RESULT:    -4.152      2.304      5.916
REMARK INTER + INTRA:         -15.292
REMARK INTER:                  -9.857
REMARK INTRA:                  -5.435
REMARK UNBOUND:                -4.829
REMARK SMILES CCCCCCCCCCCCCCCCCCCCCCCCCCCC(=O)[O-]
REMARK SMILES IDX 15 1 16 2 17 3 18 4 19 5 20 6 21 7 22 8 23 9 24 10 25 11
REMARK SMILES IDX 26 12 27 13 28 14 29 15 30 16 14 17 13 18 12 19 11 20 10 21
REMARK SMILES IDX 9 22 8 23 7 24 6 25 5 26 4 27 3 28 2 29 1 30
REMARK H PARENT
REMARK Flexibility Score: inf
ROOT
ATOM      1  C   UNL     1       2.174 -21.036  -8.013  1.00  0.00     0.000 C 
ENDROOT
BRANCH   1   2
ATOM      2  C   UNL     1       1.215 -22.128  -7.497  1.00  0.00     0.000 C 
BRANCH   2   3
ATOM      3  C   UNL     1       0.070 -21.585  -6.624  1.00  0.00     0.000 C 
BRANCH   3   4
ATOM      4  C   UNL     1       0.396 -21.617  -5.122  1.00  0.00     0.000 C 
BRANCH   4   5
ATOM      5  C   UNL     1       0.687 -20.222  -4.544  1.00  0.00     0.000 C 
BRANCH   5   6
ATOM      6  C   UNL     1       1.824 -20.235  -3.512  1.00  0.00     0.000 C 
BRANCH   6   7
ATOM      7  C   UNL     1       1.865 -18.914  -2.726  1.00  0.00     0.000 C 
BRANCH   7   8
ATOM      8  C   UNL     1       1.383 -17.713  -3.553  1.00  0.00     0.000 C 
BRANCH   8   9
ATOM      9  C   UNL     1       1.353 -16.407  -2.745  1.00  0.00     0.000 C 
BRANCH   9  10
ATOM     10  C   UNL     1       2.425 -16.416  -1.645  1.00  0.00     0.000 C 
BRANCH  10  11
ATOM     11  C   UNL     1       2.867 -15.001  -1.228  1.00  0.00     0.000 C 
BRANCH  11  12
ATOM     12  C   UNL     1       4.379 -14.726  -1.354  1.00  0.00     0.006 C 
BRANCH  12  13
ATOM     13  C   UNL     1       5.254 -15.525  -0.378  1.00  0.00     0.053 C 
BRANCH  13  14
ATOM     14  C   UNL     1       6.689 -15.098  -0.438  1.00  0.00     0.041 C 
ATOM     15  O   UNL     1       7.082 -14.324  -1.351  1.00  0.00    -0.550 OA
ATOM     16  O   UNL     1       7.603 -15.593   0.484  1.00  0.00    -0.550 OA
ENDBRANCH  13  14
ENDBRANCH  12  13
ENDBRANCH  11  12
ENDBRANCH  10  11
ENDBRANCH   9  10
ENDBRANCH   8   9
ENDBRANCH   7   8
ENDBRANCH   6   7
ENDBRANCH   5   6
ENDBRANCH   4   5
ENDBRANCH   3   4
ENDBRANCH   2   3
ENDBRANCH   1   2
BRANCH   1  17
ATOM     17  C   UNL     1       3.417 -20.879  -7.116  1.00  0.00     0.000 C 
BRANCH  17  18
ATOM     18  C   UNL     1       4.029 -19.468  -7.189  1.00  0.00     0.000 C 
BRANCH  18  19
ATOM     19  C   UNL     1       3.813 -18.603  -5.934  1.00  0.00     0.000 C 
BRANCH  19  20
ATOM     20  C   UNL     1       4.722 -17.361  -5.908  1.00  0.00     0.000 C 
BRANCH  20  21
ATOM     21  C   UNL     1       4.977 -16.829  -4.484  1.00  0.00     0.000 C 
BRANCH  21  22
ATOM     22  C   UNL     1       6.397 -17.066  -3.935  1.00  0.00    -0.000 C 
BRANCH  22  23
ATOM     23  C   UNL     1       6.482 -17.938  -2.667  1.00  0.00    -0.000 C 
BRANCH  23  24
ATOM     24  C   UNL     1       5.291 -18.903  -2.480  1.00  0.00    -0.000 C 
BRANCH  24  25
ATOM     25  C   UNL     1       5.712 -20.383  -2.520  1.00  0.00    -0.000 C 
BRANCH  25  26
ATOM     26  C   UNL     1       5.397 -21.062  -3.867  1.00  0.00    -0.000 C 
BRANCH  26  27
ATOM     27  C   UNL     1       6.631 -21.455  -4.702  1.00  0.00    -0.000 C 
BRANCH  27  28
ATOM     28  C   UNL     1       7.171 -20.293  -5.555  1.00  0.00    -0.000 C 
BRANCH  28  29
ATOM     29  C   UNL     1       7.711 -20.763  -6.915  1.00  0.00    -0.003 C 
ATOM     30  C   UNL     1       6.946 -21.966  -7.467  1.00  0.00     0.004 C 
ENDBRANCH  28  29
ENDBRANCH  27  28
ENDBRANCH  26  27
ENDBRANCH  25  26
ENDBRANCH  24  25
ENDBRANCH  23  24
ENDBRANCH  22  23
ENDBRANCH  21  22
ENDBRANCH  20  21
ENDBRANCH  19  20
ENDBRANCH  18  19
ENDBRANCH  17  18
ENDBRANCH   1  17
TORSDOF 26
ENDMDL
MODEL 9
REMARK VINA RESULT:    -4.124      1.493      4.290
REMARK INTER + INTRA:         -15.221
REMARK INTER:                 -10.215
REMARK INTRA:                  -5.007
REMARK UNBOUND:                -4.829
REMARK SMILES CCCCCCCCCCCCCCCCCCCCCCCCCCCC(=O)[O-]
REMARK SMILES IDX 15 1 16 2 17 3 18 4 19 5 20 6 21 7 22 8 23 9 24 10 25 11
REMARK SMILES IDX 26 12 27 13 28 14 29 15 30 16 14 17 13 18 12 19 11 20 10 21
REMARK SMILES IDX 9 22 8 23 7 24 6 25 5 26 4 27 3 28 2 29 1 30
REMARK H PARENT
REMARK Flexibility Score: inf
ROOT
ATOM      1  C   UNL     1       1.246 -20.879  -7.793  1.00  0.00     0.000 C 
ENDROOT
BRANCH   1   2
ATOM      2  C   UNL     1       0.850 -22.079  -6.907  1.00  0.00     0.000 C 
BRANCH   2   3
ATOM      3  C   UNL     1       0.348 -21.677  -5.509  1.00  0.00     0.000 C 
BRANCH   3   4
ATOM      4  C   UNL     1       0.876 -20.306  -5.055  1.00  0.00     0.000 C 
BRANCH   4   5
ATOM      5  C   UNL     1       0.292 -19.861  -3.704  1.00  0.00     0.000 C 
BRANCH   5   6
ATOM      6  C   UNL     1       0.857 -20.664  -2.523  1.00  0.00     0.000 C 
BRANCH   6   7
ATOM      7  C   UNL     1       2.288 -20.213  -2.188  1.00  0.00     0.000 C 
BRANCH   7   8
ATOM      8  C   UNL     1       2.462 -18.688  -2.246  1.00  0.00     0.000 C 
BRANCH   8   9
ATOM      9  C   UNL     1       3.899 -18.265  -2.588  1.00  0.00     0.000 C 
BRANCH   9  10
ATOM     10  C   UNL     1       3.991 -17.749  -4.031  1.00  0.00     0.000 C 
BRANCH  10  11
ATOM     11  C   UNL     1       5.204 -16.828  -4.261  1.00  0.00     0.000 C 
BRANCH  11  12
ATOM     12  C   UNL     1       6.227 -17.344  -5.293  1.00  0.00     0.006 C 
BRANCH  12  13
ATOM     13  C   UNL     1       5.804 -17.157  -6.758  1.00  0.00     0.053 C 
BRANCH  13  14
ATOM     14  C   UNL     1       6.848 -17.657  -7.708  1.00  0.00     0.041 C 
ATOM     15  O   UNL     1       6.977 -17.127  -8.844  1.00  0.00    -0.550 OA
ATOM     16  O   UNL     1       7.645 -18.742  -7.361  1.00  0.00    -0.550 OA
ENDBRANCH  13  14
ENDBRANCH  12  13
ENDBRANCH  11  12
ENDBRANCH  10  11
ENDBRANCH   9  10
ENDBRANCH   8   9
ENDBRANCH   7   8
ENDBRANCH   6   7
ENDBRANCH   5   6
ENDBRANCH   4   5
ENDBRANCH   3   4
ENDBRANCH   2   3
ENDBRANCH   1   2
BRANCH   1  17
ATOM     17  C   UNL     1       2.714 -20.953  -8.254  1.00  0.00     0.000 C 
BRANCH  17  18
ATOM     18  C   UNL     1       3.632 -19.995  -7.473  1.00  0.00     0.000 C 
BRANCH  18  19
ATOM     19  C   UNL     1       4.749 -20.683  -6.668  1.00  0.00     0.000 C 
BRANCH  19  20
ATOM     20  C   UNL     1       4.226 -21.358  -5.387  1.00  0.00     0.000 C 
BRANCH  20  21
ATOM     21  C   UNL     1       5.226 -21.288  -4.216  1.00  0.00     0.000 C 
BRANCH  21  22
ATOM     22  C   UNL     1       6.604 -20.689  -4.560  1.00  0.00    -0.000 C 
BRANCH  22  23
ATOM     23  C   UNL     1       7.565 -20.506  -3.369  1.00  0.00    -0.000 C 
BRANCH  23  24
ATOM     24  C   UNL     1       6.886 -20.004  -2.077  1.00  0.00    -0.000 C 
BRANCH  24  25
ATOM     25  C   UNL     1       7.798 -19.085  -1.244  1.00  0.00    -0.000 C 
BRANCH  25  26
ATOM     26  C   UNL     1       7.388 -17.602  -1.318  1.00  0.00    -0.000 C 
BRANCH  26  27
ATOM     27  C   UNL     1       7.548 -16.815  -0.003  1.00  0.00    -0.000 C 
BRANCH  27  28
ATOM     28  C   UNL     1       6.825 -15.456  -0.027  1.00  0.00    -0.000 C 
BRANCH  28  29
ATOM     29  C   UNL     1       5.633 -15.441  -0.995  1.00  0.00    -0.003 C 
ATOM     30  C   UNL     1       4.317 -15.084  -0.303  1.00  0.00     0.004 C 
ENDBRANCH  28  29
ENDBRANCH  27  28
ENDBRANCH  26  27
ENDBRANCH  25  26
ENDBRANCH  24  25
ENDBRANCH  23  24
ENDBRANCH  22  23
ENDBRANCH  21  22
ENDBRANCH  20  21
ENDBRANCH  19  20
ENDBRANCH  18  19
ENDBRANCH  17  18
ENDBRANCH   1  17
TORSDOF 26
ENDMDL
