MODEL 1
REMARK VINA RESULT:    -5.405      0.000      0.000
REMARK INTER + INTRA:          -5.563
REMARK INTER:                  -5.563
REMARK INTRA:                   0.000
REMARK UNBOUND:                 0.000
REMARK SMILES Cc1ccccc1O
REMARK SMILES IDX 1 1 2 2 3 3 4 4 5 5 6 6 7 7 8 8
REMARK H PARENT 8 9
REMARK Flexibility Score: inf
ROOT
ATOM      1  C   UNL     1      81.943   1.143   0.357  1.00  0.00     0.048 C 
ATOM      2  C   UNL     1      80.459   1.095   0.126  1.00  0.00    -0.009 A 
ATOM      3  C   UNL     1      79.859  -0.103  -0.304  1.00  0.00     0.007 A 
ATOM      4  C   UNL     1      78.482  -0.168  -0.524  1.00  0.00     0.001 A 
ATOM      5  C   UNL     1      77.687   0.960  -0.318  1.00  0.00     0.004 A 
ATOM      6  C   UNL     1      78.267   2.156   0.107  1.00  0.00     0.046 A 
ATOM      7  C   UNL     1      79.648   2.236   0.332  1.00  0.00     0.118 A 
ENDROOT
BRANCH   7   8
ATOM      8  O   UNL     1      80.180   3.454   0.758  1.00  0.00    -0.508 OA
ATOM      9  H   UNL     1      80.136   3.770   1.719  1.00  0.00     0.293 HD
ENDBRANCH   7   8
TORSDOF 1
ENDMDL
MODEL 2
REMARK VINA RESULT:    -5.154      1.731      2.439
REMARK INTER + INTRA:          -5.305
REMARK INTER:                  -5.305
REMARK INTRA:                   0.000
REMARK UNBOUND:                 0.000
REMARK SMILES Cc1ccccc1O
REMARK SMILES IDX 1 1 2 2 3 3 4 4 5 5 6 6 7 7 8 8
REMARK H PARENT 8 9
REMARK Flexibility Score: inf
ROOT
ATOM      1  C   UNL     1      82.023   1.021   0.036  1.00  0.00     0.048 C 
ATOM      2  C   UNL     1      80.549   1.317   0.037  1.00  0.00    -0.009 A 
ATOM      3  C   UNL     1      80.096   2.599   0.394  1.00  0.00     0.007 A 
ATOM      4  C   UNL     1      78.731   2.893   0.401  1.00  0.00     0.001 A 
ATOM      5  C   UNL     1      77.803   1.912   0.051  1.00  0.00     0.004 A 
ATOM      6  C   UNL     1      78.237   0.634  -0.305  1.00  0.00     0.046 A 
ATOM      7  C   UNL     1      79.603   0.325  -0.316  1.00  0.00     0.118 A 
ENDROOT
BRANCH   7   8
ATOM      8  O   UNL     1      79.987  -0.967  -0.681  1.00  0.00    -0.508 OA
ATOM      9  H   UNL     1      80.467  -1.598  -0.052  1.00  0.00     0.293 HD
ENDBRANCH   7   8
TORSDOF 1
ENDMDL
MODEL 3
REMARK VINA RESULT:    -5.137      1.383      2.535
REMARK INTER + INTRA:          -5.287
REMARK INTER:                  -5.287
REMARK INTRA:                   0.000
REMARK UNBOUND:                 0.000
REMARK SMILES Cc1ccccc1O
REMARK SMILES IDX 1 1 2 2 3 3 4 4 5 5 6 6 7 7 8 8
REMARK H PARENT 8 9
REMARK Flexibility Score: inf
ROOT
ATOM      1  C   UNL     1      80.216   3.534   0.025  1.00  0.00     0.048 C 
ATOM      2  C   UNL     1      80.314   2.034   0.024  1.00  0.00    -0.009 A 
ATOM      3  C   UNL     1      79.195   1.264  -0.342  1.00  0.00     0.007 A 
ATOM      4  C   UNL     1      79.266  -0.130  -0.349  1.00  0.00     0.001 A 
ATOM      5  C   UNL     1      80.452  -0.772   0.009  1.00  0.00     0.004 A 
ATOM      6  C   UNL     1      81.570  -0.022   0.375  1.00  0.00     0.046 A 
ATOM      7  C   UNL     1      81.514   1.378   0.387  1.00  0.00     0.118 A 
ENDROOT
BRANCH   7   8
ATOM      8  O   UNL     1      82.660   2.084   0.759  1.00  0.00    -0.508 OA
ATOM      9  H   UNL     1      83.249   2.569   0.095  1.00  0.00     0.293 HD
ENDBRANCH   7   8
TORSDOF 1
ENDMDL
MODEL 4
REMARK VINA RESULT:    -5.127      2.124      2.845
REMARK INTER + INTRA:          -5.277
REMARK INTER:                  -5.277
REMARK INTRA:                   0.000
REMARK UNBOUND:                 0.000
REMARK SMILES Cc1ccccc1O
REMARK SMILES IDX 1 1 2 2 3 3 4 4 5 5 6 6 7 7 8 8
REMARK H PARENT 8 9
REMARK Flexibility Score: inf
ROOT
ATOM      1  C   UNL     1      83.979   1.995  -0.947  1.00  0.00     0.048 C 
ATOM      2  C   UNL     1      82.550   2.300  -0.592  1.00  0.00    -0.009 A 
ATOM      3  C   UNL     1      81.757   1.309   0.015  1.00  0.00     0.007 A 
ATOM      4  C   UNL     1      80.428   1.573   0.352  1.00  0.00     0.001 A 
ATOM      5  C   UNL     1      79.875   2.827   0.088  1.00  0.00     0.004 A 
ATOM      6  C   UNL     1      80.650   3.820  -0.514  1.00  0.00     0.046 A 
ATOM      7  C   UNL     1      81.984   3.569  -0.859  1.00  0.00     0.118 A 
ENDROOT
BRANCH   7   8
ATOM      8  O   UNL     1      82.718   4.595  -1.458  1.00  0.00    -0.508 OA
ATOM      9  H   UNL     1      83.701   4.511  -1.683  1.00  0.00     0.293 HD
ENDBRANCH   7   8
TORSDOF 1
ENDMDL
MODEL 5
REMARK VINA RESULT:    -5.119      2.143      3.255
REMARK INTER + INTRA:          -5.269
REMARK INTER:                  -5.269
REMARK INTRA:                   0.000
REMARK UNBOUND:                 0.000
REMARK SMILES Cc1ccccc1O
REMARK SMILES IDX 1 1 2 2 3 3 4 4 5 5 6 6 7 7 8 8
REMARK H PARENT 8 9
REMARK Flexibility Score: inf
ROOT
ATOM      1  C   UNL     1      81.117  -0.008   0.215  1.00  0.00     0.048 C 
ATOM      2  C   UNL     1      81.032   1.475  -0.017  1.00  0.00    -0.009 A 
ATOM      3  C   UNL     1      79.874   2.174   0.369  1.00  0.00     0.007 A 
ATOM      4  C   UNL     1      79.775   3.551   0.162  1.00  0.00     0.001 A 
ATOM      5  C   UNL     1      80.830   4.247  -0.432  1.00  0.00     0.004 A 
ATOM      6  C   UNL     1      81.985   3.566  -0.821  1.00  0.00     0.046 A 
ATOM      7  C   UNL     1      82.097   2.185  -0.620  1.00  0.00     0.118 A 
ENDROOT
BRANCH   7   8
ATOM      8  O   UNL     1      83.273   1.550  -1.025  1.00  0.00    -0.508 OA
ATOM      9  H   UNL     1      83.281   0.665  -1.517  1.00  0.00     0.293 HD
ENDBRANCH   7   8
TORSDOF 1
ENDMDL
MODEL 6
REMARK VINA RESULT:    -5.080      2.157      3.242
REMARK INTER + INTRA:          -5.228
REMARK INTER:                  -5.228
REMARK INTRA:                   0.000
REMARK UNBOUND:                 0.000
REMARK SMILES Cc1ccccc1O
REMARK SMILES IDX 1 1 2 2 3 3 4 4 5 5 6 6 7 7 8 8
REMARK H PARENT 8 9
REMARK Flexibility Score: inf
ROOT
ATOM      1  C   UNL     1      83.679   1.992  -0.973  1.00  0.00     0.048 C 
ATOM      2  C   UNL     1      82.289   2.402  -0.573  1.00  0.00    -0.009 A 
ATOM      3  C   UNL     1      81.913   3.755  -0.648  1.00  0.00     0.007 A 
ATOM      4  C   UNL     1      80.627   4.156  -0.281  1.00  0.00     0.001 A 
ATOM      5  C   UNL     1      79.701   3.211   0.165  1.00  0.00     0.004 A 
ATOM      6  C   UNL     1      80.059   1.865   0.245  1.00  0.00     0.046 A 
ATOM      7  C   UNL     1      81.346   1.449  -0.119  1.00  0.00     0.118 A 
ENDROOT
BRANCH   7   8
ATOM      8  O   UNL     1      81.656   0.091  -0.022  1.00  0.00    -0.508 OA
ATOM      9  H   UNL     1      81.172  -0.542   0.603  1.00  0.00     0.293 HD
ENDBRANCH   7   8
TORSDOF 1
ENDMDL
MODEL 7
REMARK VINA RESULT:    -5.059      1.603      2.772
REMARK INTER + INTRA:          -5.207
REMARK INTER:                  -5.207
REMARK INTRA:                   0.000
REMARK UNBOUND:                 0.000
REMARK SMILES Cc1ccccc1O
REMARK SMILES IDX 1 1 2 2 3 3 4 4 5 5 6 6 7 7 8 8
REMARK H PARENT 8 9
REMARK Flexibility Score: inf
ROOT
ATOM      1  C   UNL     1      78.501  -0.564  -0.529  1.00  0.00     0.048 C 
ATOM      2  C   UNL     1      79.104   0.788  -0.266  1.00  0.00    -0.009 A 
ATOM      3  C   UNL     1      80.501   0.945  -0.303  1.00  0.00     0.007 A 
ATOM      4  C   UNL     1      81.081   2.192  -0.062  1.00  0.00     0.001 A 
ATOM      5  C   UNL     1      80.274   3.296   0.218  1.00  0.00     0.004 A 
ATOM      6  C   UNL     1      78.886   3.155   0.259  1.00  0.00     0.046 A 
ATOM      7  C   UNL     1      78.291   1.910   0.019  1.00  0.00     0.118 A 
ENDROOT
BRANCH   7   8
ATOM      8  O   UNL     1      76.898   1.821   0.070  1.00  0.00    -0.508 OA
ATOM      9  H   UNL     1      76.300   2.084  -0.703  1.00  0.00     0.293 HD
ENDBRANCH   7   8
TORSDOF 1
ENDMDL
MODEL 8
REMARK VINA RESULT:    -4.989      1.726      3.096
REMARK INTER + INTRA:          -5.135
REMARK INTER:                  -5.135
REMARK INTRA:                   0.000
REMARK UNBOUND:                 0.000
REMARK SMILES Cc1ccccc1O
REMARK SMILES IDX 1 1 2 2 3 3 4 4 5 5 6 6 7 7 8 8
REMARK H PARENT 8 9
REMARK Flexibility Score: inf
ROOT
ATOM      1  C   UNL     1      80.755  -0.086   0.363  1.00  0.00     0.048 C 
ATOM      2  C   UNL     1      81.051   1.338  -0.019  1.00  0.00    -0.009 A 
ATOM      3  C   UNL     1      82.354   1.696  -0.410  1.00  0.00     0.007 A 
ATOM      4  C   UNL     1      82.649   3.013  -0.768  1.00  0.00     0.001 A 
ATOM      5  C   UNL     1      81.650   3.987  -0.740  1.00  0.00     0.004 A 
ATOM      6  C   UNL     1      80.353   3.646  -0.354  1.00  0.00     0.046 A 
ATOM      7  C   UNL     1      80.042   2.329   0.009  1.00  0.00     0.118 A 
ENDROOT
BRANCH   7   8
ATOM      8  O   UNL     1      78.730   2.038   0.387  1.00  0.00    -0.508 OA
ATOM      9  H   UNL     1      78.386   1.093   0.505  1.00  0.00     0.293 HD
ENDBRANCH   7   8
TORSDOF 1
ENDMDL
MODEL 9
REMARK VINA RESULT:    -4.938      1.960      3.849
REMARK INTER + INTRA:          -5.082
REMARK INTER:                  -5.082
REMARK INTRA:                   0.000
REMARK UNBOUND:                 0.000
REMARK SMILES Cc1ccccc1O
REMARK SMILES IDX 1 1 2 2 3 3 4 4 5 5 6 6 7 7 8 8
REMARK H PARENT 8 9
REMARK Flexibility Score: inf
ROOT
ATOM      1  C   UNL     1      78.600   2.531   0.404  1.00  0.00     0.048 C 
ATOM      2  C   UNL     1      80.039   2.618  -0.021  1.00  0.00    -0.009 A 
ATOM      3  C   UNL     1      80.562   3.848  -0.459  1.00  0.00     0.007 A 
ATOM      4  C   UNL     1      81.897   3.950  -0.858  1.00  0.00     0.001 A 
ATOM      5  C   UNL     1      82.724   2.826  -0.824  1.00  0.00     0.004 A 
ATOM      6  C   UNL     1      82.219   1.599  -0.392  1.00  0.00     0.046 A 
ATOM      7  C   UNL     1      80.883   1.482   0.011  1.00  0.00     0.118 A 
ENDROOT
BRANCH   7   8
ATOM      8  O   UNL     1      80.425   0.234   0.436  1.00  0.00    -0.508 OA
ATOM      9  H   UNL     1      79.476   0.070   0.746  1.00  0.00     0.293 HD
ENDBRANCH   7   8
TORSDOF 1
ENDMDL
