MODEL 1
REMARK VINA RESULT:    -3.753      0.000      0.000
REMARK INTER + INTRA:          -8.818
REMARK INTER:                  -6.824
REMARK INTRA:                  -1.994
REMARK UNBOUND:                -1.994
REMARK SMILES CCCCCCCCCCCCCC[C@@H](C)C(=O)[O-]
REMARK SMILES IDX 9 1 10 2 11 3 12 4 13 5 14 6 15 7 16 8 17 9 18 10 19 11 8 12
REMARK SMILES IDX 7 13 6 14 5 15 4 16 3 17 2 18 1 19
REMARK H PARENT
REMARK Flexibility Score: inf
ROOT
ATOM      1  C   UNL     1      -5.455  -4.284   5.132  1.00  0.00     0.000 C 
ENDROOT
BRANCH   1   2
ATOM      2  C   UNL     1      -4.347  -4.925   5.983  1.00  0.00     0.000 C 
BRANCH   2   3
ATOM      3  C   UNL     1      -3.103  -4.028   6.102  1.00  0.00     0.000 C 
BRANCH   3   4
ATOM      4  C   UNL     1      -3.447  -2.528   6.170  1.00  0.00     0.000 C 
BRANCH   4   5
ATOM      5  C   UNL     1      -3.759  -1.985   7.577  1.00  0.00     0.001 C 
BRANCH   5   6
ATOM      6  C   UNL     1      -5.246  -1.640   7.773  1.00  0.00     0.009 C 
BRANCH   6   7
ATOM      7  C   UNL     1      -5.796  -0.720   6.661  1.00  0.00     0.032 C 
ATOM      8  C   UNL     1      -7.175  -1.171   6.160  1.00  0.00     0.014 C 
BRANCH   7   9
ATOM      9  C   UNL     1      -5.888   0.692   7.169  1.00  0.00     0.044 C 
ATOM     10  O   UNL     1      -6.997   1.162   7.537  1.00  0.00    -0.550 OA
ATOM     11  O   UNL     1      -4.750   1.488   7.239  1.00  0.00    -0.550 OA
ENDBRANCH   7   9
ENDBRANCH   6   7
ENDBRANCH   5   6
ENDBRANCH   4   5
ENDBRANCH   3   4
ENDBRANCH   2   3
ENDBRANCH   1   2
BRANCH   1  12
ATOM     12  C   UNL     1      -6.857  -4.817   5.481  1.00  0.00     0.000 C 
BRANCH  12  13
ATOM     13  C   UNL     1      -7.048  -5.025   6.991  1.00  0.00    -0.000 C 
BRANCH  13  14
ATOM     14  C   UNL     1      -7.473  -6.462   7.339  1.00  0.00    -0.000 C 
BRANCH  14  15
ATOM     15  C   UNL     1      -7.223  -7.449   6.188  1.00  0.00    -0.000 C 
BRANCH  15  16
ATOM     16  C   UNL     1      -6.366  -8.650   6.616  1.00  0.00    -0.000 C 
BRANCH  16  17
ATOM     17  C   UNL     1      -4.997  -8.623   5.920  1.00  0.00    -0.000 C 
BRANCH  17  18
ATOM     18  C   UNL     1      -4.801  -9.802   4.954  1.00  0.00    -0.003 C 
ATOM     19  C   UNL     1      -3.443  -9.774   4.254  1.00  0.00     0.004 C 
ENDBRANCH  17  18
ENDBRANCH  16  17
ENDBRANCH  15  16
ENDBRANCH  14  15
ENDBRANCH  13  14
ENDBRANCH  12  13
ENDBRANCH   1  12
TORSDOF 14
ENDMDL
MODEL 2
REMARK VINA RESULT:    -3.682      1.759      2.570
REMARK INTER + INTRA:          -8.690
REMARK INTER:                  -6.412
REMARK INTRA:                  -2.278
REMARK UNBOUND:                -1.994
REMARK SMILES CCCCCCCCCCCCCC[C@@H](C)C(=O)[O-]
REMARK SMILES IDX 9 1 10 2 11 3 12 4 13 5 14 6 15 7 16 8 17 9 18 10 19 11 8 12
REMARK SMILES IDX 7 13 6 14 5 15 4 16 3 17 2 18 1 19
REMARK H PARENT
REMARK Flexibility Score: inf
ROOT
ATOM      1  C   UNL     1      -5.296  -5.208   5.668  1.00  0.00     0.000 C 
ENDROOT
BRANCH   1   2
ATOM      2  C   UNL     1      -4.480  -3.994   5.195  1.00  0.00     0.000 C 
BRANCH   2   3
ATOM      3  C   UNL     1      -3.273  -3.705   6.102  1.00  0.00     0.000 C 
BRANCH   3   4
ATOM      4  C   UNL     1      -3.326  -2.306   6.746  1.00  0.00     0.000 C 
BRANCH   4   5
ATOM      5  C   UNL     1      -4.018  -2.238   8.120  1.00  0.00     0.001 C 
BRANCH   5   6
ATOM      6  C   UNL     1      -5.374  -1.511   8.076  1.00  0.00     0.009 C 
BRANCH   6   7
ATOM      7  C   UNL     1      -5.556  -0.666   6.795  1.00  0.00     0.032 C 
ATOM      8  C   UNL     1      -6.744  -1.142   5.948  1.00  0.00     0.014 C 
BRANCH   7   9
ATOM      9  C   UNL     1      -5.753   0.779   7.164  1.00  0.00     0.044 C 
ATOM     10  O   UNL     1      -4.770   1.565   7.188  1.00  0.00    -0.550 OA
ATOM     11  O   UNL     1      -7.020   1.256   7.478  1.00  0.00    -0.550 OA
ENDBRANCH   7   9
ENDBRANCH   6   7
ENDBRANCH   5   6
ENDBRANCH   4   5
ENDBRANCH   3   4
ENDBRANCH   2   3
ENDBRANCH   1   2
BRANCH   1  12
ATOM     12  C   UNL     1      -5.797  -5.060   7.115  1.00  0.00     0.000 C 
BRANCH  12  13
ATOM     13  C   UNL     1      -7.331  -5.021   7.206  1.00  0.00    -0.000 C 
BRANCH  13  14
ATOM     14  C   UNL     1      -7.986  -4.522   5.906  1.00  0.00    -0.000 C 
BRANCH  14  15
ATOM     15  C   UNL     1      -9.506  -4.745   5.887  1.00  0.00    -0.000 C 
BRANCH  15  16
ATOM     16  C   UNL     1      -9.923  -5.889   4.949  1.00  0.00    -0.000 C 
BRANCH  16  17
ATOM     17  C   UNL     1      -8.752  -6.314   4.049  1.00  0.00    -0.000 C 
BRANCH  17  18
ATOM     18  C   UNL     1      -8.471  -7.823   4.118  1.00  0.00    -0.003 C 
ATOM     19  C   UNL     1      -7.956  -8.267   5.487  1.00  0.00     0.004 C 
ENDBRANCH  17  18
ENDBRANCH  16  17
ENDBRANCH  15  16
ENDBRANCH  14  15
ENDBRANCH  13  14
ENDBRANCH  12  13
ENDBRANCH   1  12
TORSDOF 14
ENDMDL
MODEL 3
REMARK VINA RESULT:    -3.642      3.078      4.510
REMARK INTER + INTRA:          -8.617
REMARK INTER:                  -6.387
REMARK INTRA:                  -2.230
REMARK UNBOUND:                -1.994
REMARK SMILES CCCCCCCCCCCCCC[C@@H](C)C(=O)[O-]
REMARK SMILES IDX 9 1 10 2 11 3 12 4 13 5 14 6 15 7 16 8 17 9 18 10 19 11 8 12
REMARK SMILES IDX 7 13 6 14 5 15 4 16 3 17 2 18 1 19
REMARK H PARENT
REMARK Flexibility Score: inf
ROOT
ATOM      1  C   UNL     1      -9.257  -2.030   6.660  1.00  0.00     0.000 C 
ENDROOT
BRANCH   1   2
ATOM      2  C   UNL     1      -7.821  -1.513   6.845  1.00  0.00     0.000 C 
BRANCH   2   3
ATOM      3  C   UNL     1      -7.055  -1.412   5.515  1.00  0.00     0.000 C 
BRANCH   3   4
ATOM      4  C   UNL     1      -5.548  -1.693   5.666  1.00  0.00     0.000 C 
BRANCH   4   5
ATOM      5  C   UNL     1      -5.088  -2.084   7.083  1.00  0.00     0.001 C 
BRANCH   5   6
ATOM      6  C   UNL     1      -4.483  -3.498   7.151  1.00  0.00     0.009 C 
BRANCH   6   7
ATOM      7  C   UNL     1      -3.606  -3.830   5.924  1.00  0.00     0.032 C 
ATOM      8  C   UNL     1      -2.232  -3.148   5.987  1.00  0.00     0.014 C 
BRANCH   7   9
ATOM      9  C   UNL     1      -3.419  -5.319   5.822  1.00  0.00     0.044 C 
ATOM     10  O   UNL     1      -4.310  -6.100   6.250  1.00  0.00    -0.550 OA
ATOM     11  O   UNL     1      -2.264  -5.844   5.253  1.00  0.00    -0.550 OA
ENDBRANCH   7   9
ENDBRANCH   6   7
ENDBRANCH   5   6
ENDBRANCH   4   5
ENDBRANCH   3   4
ENDBRANCH   2   3
ENDBRANCH   1   2
BRANCH   1  12
ATOM     12  C   UNL     1      -9.488  -3.395   7.333  1.00  0.00     0.000 C 
BRANCH  12  13
ATOM     13  C   UNL     1      -8.180  -4.051   7.800  1.00  0.00    -0.000 C 
BRANCH  13  14
ATOM     14  C   UNL     1      -7.863  -5.347   7.033  1.00  0.00    -0.000 C 
BRANCH  14  15
ATOM     15  C   UNL     1      -7.552  -5.095   5.549  1.00  0.00    -0.000 C 
BRANCH  15  16
ATOM     16  C   UNL     1      -8.469  -5.893   4.611  1.00  0.00    -0.000 C 
BRANCH  16  17
ATOM     17  C   UNL     1      -9.125  -7.067   5.354  1.00  0.00    -0.000 C 
BRANCH  17  18
ATOM     18  C   UNL     1      -8.739  -8.432   4.762  1.00  0.00    -0.003 C 
ATOM     19  C   UNL     1      -7.311  -8.847   5.117  1.00  0.00     0.004 C 
ENDBRANCH  17  18
ENDBRANCH  16  17
ENDBRANCH  15  16
ENDBRANCH  14  15
ENDBRANCH  13  14
ENDBRANCH  12  13
ENDBRANCH   1  12
TORSDOF 14
ENDMDL
MODEL 4
REMARK VINA RESULT:    -3.601      2.856      4.919
REMARK INTER + INTRA:          -8.542
REMARK INTER:                  -7.535
REMARK INTRA:                  -1.007
REMARK UNBOUND:                -1.994
REMARK SMILES CCCCCCCCCCCCCC[C@@H](C)C(=O)[O-]
REMARK SMILES IDX 9 1 10 2 11 3 12 4 13 5 14 6 15 7 16 8 17 9 18 10 19 11 8 12
REMARK SMILES IDX 7 13 6 14 5 15 4 16 3 17 2 18 1 19
REMARK H PARENT
REMARK Flexibility Score: inf
ROOT
ATOM      1  C   UNL     1      -6.763  -8.165   6.321  1.00  0.00     0.000 C 
ENDROOT
BRANCH   1   2
ATOM      2  C   UNL     1      -5.995  -6.834   6.287  1.00  0.00     0.000 C 
BRANCH   2   3
ATOM      3  C   UNL     1      -6.885  -5.650   5.873  1.00  0.00     0.000 C 
BRANCH   3   4
ATOM      4  C   UNL     1      -6.452  -4.319   6.516  1.00  0.00     0.000 C 
BRANCH   4   5
ATOM      5  C   UNL     1      -5.931  -3.251   5.536  1.00  0.00     0.001 C 
BRANCH   5   6
ATOM      6  C   UNL     1      -4.658  -3.690   4.789  1.00  0.00     0.009 C 
BRANCH   6   7
ATOM      7  C   UNL     1      -3.372  -3.439   5.606  1.00  0.00     0.032 C 
ATOM      8  C   UNL     1      -3.591  -2.436   6.747  1.00  0.00     0.014 C 
BRANCH   7   9
ATOM      9  C   UNL     1      -2.870  -4.739   6.175  1.00  0.00     0.044 C 
ATOM     10  O   UNL     1      -2.881  -4.931   7.419  1.00  0.00    -0.550 OA
ATOM     11  O   UNL     1      -2.394  -5.736   5.332  1.00  0.00    -0.550 OA
ENDBRANCH   7   9
ENDBRANCH   6   7
ENDBRANCH   5   6
ENDBRANCH   4   5
ENDBRANCH   3   4
ENDBRANCH   2   3
ENDBRANCH   1   2
BRANCH   1  12
ATOM     12  C   UNL     1      -6.157  -9.226   5.385  1.00  0.00     0.000 C 
BRANCH  12  13
ATOM     13  C   UNL     1      -4.633  -9.343   5.535  1.00  0.00    -0.000 C 
BRANCH  13  14
ATOM     14  C   UNL     1      -4.132 -10.788   5.365  1.00  0.00    -0.000 C 
BRANCH  14  15
ATOM     15  C   UNL     1      -3.379 -11.002   4.043  1.00  0.00    -0.000 C 
BRANCH  15  16
ATOM     16  C   UNL     1      -3.004  -9.679   3.357  1.00  0.00    -0.000 C 
BRANCH  16  17
ATOM     17  C   UNL     1      -1.611  -9.771   2.714  1.00  0.00    -0.000 C 
BRANCH  17  18
ATOM     18  C   UNL     1      -1.545 -10.818   1.592  1.00  0.00    -0.003 C 
ATOM     19  C   UNL     1      -2.444 -10.472   0.406  1.00  0.00     0.004 C 
ENDBRANCH  17  18
ENDBRANCH  16  17
ENDBRANCH  15  16
ENDBRANCH  14  15
ENDBRANCH  13  14
ENDBRANCH  12  13
ENDBRANCH   1  12
TORSDOF 14
ENDMDL
MODEL 5
REMARK VINA RESULT:    -3.556      2.395      3.796
REMARK INTER + INTRA:          -8.461
REMARK INTER:                  -6.362
REMARK INTRA:                  -2.099
REMARK UNBOUND:                -1.994
REMARK SMILES CCCCCCCCCCCCCC[C@@H](C)C(=O)[O-]
REMARK SMILES IDX 9 1 10 2 11 3 12 4 13 5 14 6 15 7 16 8 17 9 18 10 19 11 8 12
REMARK SMILES IDX 7 13 6 14 5 15 4 16 3 17 2 18 1 19
REMARK H PARENT
REMARK Flexibility Score: inf
ROOT
ATOM      1  C   UNL     1      -7.757  -4.673   7.075  1.00  0.00     0.000 C 
ENDROOT
BRANCH   1   2
ATOM      2  C   UNL     1      -7.875  -3.232   7.598  1.00  0.00     0.000 C 
BRANCH   2   3
ATOM      3  C   UNL     1      -8.224  -2.228   6.487  1.00  0.00     0.000 C 
BRANCH   3   4
ATOM      4  C   UNL     1      -7.196  -1.087   6.362  1.00  0.00     0.000 C 
BRANCH   4   5
ATOM      5  C   UNL     1      -5.985  -1.386   5.460  1.00  0.00     0.001 C 
BRANCH   5   6
ATOM      6  C   UNL     1      -4.716  -1.743   6.254  1.00  0.00     0.009 C 
BRANCH   6   7
ATOM      7  C   UNL     1      -4.251  -3.196   6.012  1.00  0.00     0.032 C 
ATOM      8  C   UNL     1      -4.642  -3.709   4.620  1.00  0.00     0.014 C 
BRANCH   7   9
ATOM      9  C   UNL     1      -2.758  -3.285   6.175  1.00  0.00     0.044 C 
ATOM     10  O   UNL     1      -2.113  -4.205   5.606  1.00  0.00    -0.550 OA
ATOM     11  O   UNL     1      -2.080  -2.353   6.952  1.00  0.00    -0.550 OA
ENDBRANCH   7   9
ENDBRANCH   6   7
ENDBRANCH   5   6
ENDBRANCH   4   5
ENDBRANCH   3   4
ENDBRANCH   2   3
ENDBRANCH   1   2
BRANCH   1  12
ATOM     12  C   UNL     1      -7.937  -4.768   5.549  1.00  0.00     0.000 C 
BRANCH  12  13
ATOM     13  C   UNL     1      -9.275  -5.409   5.153  1.00  0.00    -0.000 C 
BRANCH  13  14
ATOM     14  C   UNL     1      -9.095  -6.633   4.239  1.00  0.00    -0.000 C 
BRANCH  14  15
ATOM     15  C   UNL     1      -8.883  -7.935   5.028  1.00  0.00    -0.000 C 
BRANCH  15  16
ATOM     16  C   UNL     1      -7.927  -8.906   4.318  1.00  0.00    -0.000 C 
BRANCH  16  17
ATOM     17  C   UNL     1      -6.657  -9.133   5.153  1.00  0.00    -0.000 C 
BRANCH  17  18
ATOM     18  C   UNL     1      -6.585  -8.213   6.382  1.00  0.00    -0.003 C 
ATOM     19  C   UNL     1      -5.304  -7.380   6.422  1.00  0.00     0.004 C 
ENDBRANCH  17  18
ENDBRANCH  16  17
ENDBRANCH  15  16
ENDBRANCH  14  15
ENDBRANCH  13  14
ENDBRANCH  12  13
ENDBRANCH   1  12
TORSDOF 14
ENDMDL
MODEL 6
REMARK VINA RESULT:    -3.546      2.531      3.723
REMARK INTER + INTRA:          -8.443
REMARK INTER:                  -6.560
REMARK INTRA:                  -1.882
REMARK UNBOUND:                -1.994
REMARK SMILES CCCCCCCCCCCCCC[C@@H](C)C(=O)[O-]
REMARK SMILES IDX 9 1 10 2 11 3 12 4 13 5 14 6 15 7 16 8 17 9 18 10 19 11 8 12
REMARK SMILES IDX 7 13 6 14 5 15 4 16 3 17 2 18 1 19
REMARK H PARENT
REMARK Flexibility Score: inf
ROOT
ATOM      1  C   UNL     1      -7.967  -3.850   7.160  1.00  0.00     0.000 C 
ENDROOT
BRANCH   1   2
ATOM      2  C   UNL     1      -7.693  -2.337   7.155  1.00  0.00     0.000 C 
BRANCH   2   3
ATOM      3  C   UNL     1      -7.247  -1.824   5.776  1.00  0.00     0.000 C 
BRANCH   3   4
ATOM      4  C   UNL     1      -5.913  -1.054   5.823  1.00  0.00     0.000 C 
BRANCH   4   5
ATOM      5  C   UNL     1      -4.882  -1.583   6.837  1.00  0.00     0.001 C 
BRANCH   5   6
ATOM      6  C   UNL     1      -3.729  -2.357   6.175  1.00  0.00     0.009 C 
BRANCH   6   7
ATOM      7  C   UNL     1      -4.103  -3.820   5.847  1.00  0.00     0.032 C 
ATOM      8  C   UNL     1      -4.328  -4.042   4.346  1.00  0.00     0.014 C 
BRANCH   7   9
ATOM      9  C   UNL     1      -3.017  -4.742   6.330  1.00  0.00     0.044 C 
ATOM     10  O   UNL     1      -2.743  -4.809   7.557  1.00  0.00    -0.550 OA
ATOM     11  O   UNL     1      -2.311  -5.528   5.427  1.00  0.00    -0.550 OA
ENDBRANCH   7   9
ENDBRANCH   6   7
ENDBRANCH   5   6
ENDBRANCH   4   5
ENDBRANCH   3   4
ENDBRANCH   2   3
ENDBRANCH   1   2
BRANCH   1  12
ATOM     12  C   UNL     1      -7.618  -4.522   5.820  1.00  0.00     0.000 C 
BRANCH  12  13
ATOM     13  C   UNL     1      -7.515  -6.050   5.936  1.00  0.00    -0.000 C 
BRANCH  13  14
ATOM     14  C   UNL     1      -6.366  -6.495   6.858  1.00  0.00    -0.000 C 
BRANCH  14  15
ATOM     15  C   UNL     1      -5.629  -7.736   6.328  1.00  0.00    -0.000 C 
BRANCH  15  16
ATOM     16  C   UNL     1      -6.534  -8.641   5.478  1.00  0.00    -0.000 C 
BRANCH  16  17
ATOM     17  C   UNL     1      -5.795  -9.925   5.068  1.00  0.00    -0.000 C 
BRANCH  17  18
ATOM     18  C   UNL     1      -4.289  -9.860   5.364  1.00  0.00    -0.003 C 
ATOM     19  C   UNL     1      -3.444  -9.689   4.102  1.00  0.00     0.004 C 
ENDBRANCH  17  18
ENDBRANCH  16  17
ENDBRANCH  15  16
ENDBRANCH  14  15
ENDBRANCH  13  14
ENDBRANCH  12  13
ENDBRANCH   1  12
TORSDOF 14
ENDMDL
MODEL 7
REMARK VINA RESULT:    -3.540      1.372      1.853
REMARK INTER + INTRA:          -8.432
REMARK INTER:                  -6.868
REMARK INTRA:                  -1.564
REMARK UNBOUND:                -1.994
REMARK SMILES CCCCCCCCCCCCCC[C@@H](C)C(=O)[O-]
REMARK SMILES IDX 9 1 10 2 11 3 12 4 13 5 14 6 15 7 16 8 17 9 18 10 19 11 8 12
REMARK SMILES IDX 7 13 6 14 5 15 4 16 3 17 2 18 1 19
REMARK H PARENT
REMARK Flexibility Score: inf
ROOT
ATOM      1  C   UNL     1      -4.103  -5.837   5.867  1.00  0.00     0.000 C 
ENDROOT
BRANCH   1   2
ATOM      2  C   UNL     1      -3.248  -4.571   6.040  1.00  0.00     0.000 C 
BRANCH   2   3
ATOM      3  C   UNL     1      -2.985  -4.235   7.517  1.00  0.00     0.000 C 
BRANCH   3   4
ATOM      4  C   UNL     1      -3.149  -2.736   7.831  1.00  0.00     0.000 C 
BRANCH   4   5
ATOM      5  C   UNL     1      -4.602  -2.225   7.871  1.00  0.00     0.001 C 
BRANCH   5   6
ATOM      6  C   UNL     1      -4.757  -0.806   7.296  1.00  0.00     0.009 C 
BRANCH   6   7
ATOM      7  C   UNL     1      -5.917  -0.697   6.282  1.00  0.00     0.032 C 
ATOM      8  C   UNL     1      -6.324  -2.063   5.713  1.00  0.00     0.014 C 
BRANCH   7   9
ATOM      9  C   UNL     1      -7.109  -0.057   6.941  1.00  0.00     0.044 C 
ATOM     10  O   UNL     1      -8.194  -0.687   7.036  1.00  0.00    -0.550 OA
ATOM     11  O   UNL     1      -7.019   1.233   7.451  1.00  0.00    -0.550 OA
ENDBRANCH   7   9
ENDBRANCH   6   7
ENDBRANCH   5   6
ENDBRANCH   4   5
ENDBRANCH   3   4
ENDBRANCH   2   3
ENDBRANCH   1   2
BRANCH   1  12
ATOM     12  C   UNL     1      -5.451  -5.749   6.604  1.00  0.00     0.000 C 
BRANCH  12  13
ATOM     13  C   UNL     1      -5.834  -7.069   7.292  1.00  0.00    -0.000 C 
BRANCH  13  14
ATOM     14  C   UNL     1      -5.260  -8.299   6.568  1.00  0.00    -0.000 C 
BRANCH  14  15
ATOM     15  C   UNL     1      -6.238  -8.892   5.542  1.00  0.00    -0.000 C 
BRANCH  15  16
ATOM     16  C   UNL     1      -5.627 -10.058   4.749  1.00  0.00    -0.000 C 
BRANCH  16  17
ATOM     17  C   UNL     1      -4.176 -10.315   5.184  1.00  0.00    -0.000 C 
BRANCH  17  18
ATOM     18  C   UNL     1      -3.175 -10.153   4.029  1.00  0.00    -0.003 C 
ATOM     19  C   UNL     1      -2.553  -8.759   3.976  1.00  0.00     0.004 C 
ENDBRANCH  17  18
ENDBRANCH  16  17
ENDBRANCH  15  16
ENDBRANCH  14  15
ENDBRANCH  13  14
ENDBRANCH  12  13
ENDBRANCH   1  12
TORSDOF 14
ENDMDL
MODEL 8
REMARK VINA RESULT:    -3.536      2.892      4.041
REMARK INTER + INTRA:          -8.425
REMARK INTER:                  -6.174
REMARK INTRA:                  -2.251
REMARK UNBOUND:                -1.994
REMARK SMILES CCCCCCCCCCCCCC[C@@H](C)C(=O)[O-]
REMARK SMILES IDX 9 1 10 2 11 3 12 4 13 5 14 6 15 7 16 8 17 9 18 10 19 11 8 12
REMARK SMILES IDX 7 13 6 14 5 15 4 16 3 17 2 18 1 19
REMARK H PARENT
REMARK Flexibility Score: inf
ROOT
ATOM      1  C   UNL     1      -6.947  -4.662   6.027  1.00  0.00     0.000 C 
ENDROOT
BRANCH   1   2
ATOM      2  C   UNL     1      -6.854  -3.211   6.524  1.00  0.00     0.000 C 
BRANCH   2   3
ATOM      3  C   UNL     1      -6.212  -2.273   5.489  1.00  0.00     0.000 C 
BRANCH   3   4
ATOM      4  C   UNL     1      -5.049  -1.444   6.067  1.00  0.00     0.000 C 
BRANCH   4   5
ATOM      5  C   UNL     1      -4.213  -2.147   7.153  1.00  0.00     0.001 C 
BRANCH   5   6
ATOM      6  C   UNL     1      -2.888  -2.717   6.617  1.00  0.00     0.009 C 
BRANCH   6   7
ATOM      7  C   UNL     1      -2.756  -4.238   6.848  1.00  0.00     0.032 C 
ATOM      8  C   UNL     1      -3.756  -4.758   7.890  1.00  0.00     0.014 C 
BRANCH   7   9
ATOM      9  C   UNL     1      -2.962  -4.969   5.550  1.00  0.00     0.044 C 
ATOM     10  O   UNL     1      -3.688  -4.470   4.651  1.00  0.00    -0.550 OA
ATOM     11  O   UNL     1      -2.353  -6.200   5.334  1.00  0.00    -0.550 OA
ENDBRANCH   7   9
ENDBRANCH   6   7
ENDBRANCH   5   6
ENDBRANCH   4   5
ENDBRANCH   3   4
ENDBRANCH   2   3
ENDBRANCH   1   2
BRANCH   1  12
ATOM     12  C   UNL     1      -8.049  -5.466   6.740  1.00  0.00     0.000 C 
BRANCH  12  13
ATOM     13  C   UNL     1      -9.066  -6.071   5.760  1.00  0.00    -0.000 C 
BRANCH  13  14
ATOM     14  C   UNL     1      -8.518  -6.162   4.325  1.00  0.00    -0.000 C 
BRANCH  14  15
ATOM     15  C   UNL     1      -8.784  -7.530   3.675  1.00  0.00    -0.000 C 
BRANCH  15  16
ATOM     16  C   UNL     1      -8.613  -8.695   4.662  1.00  0.00    -0.000 C 
BRANCH  16  17
ATOM     17  C   UNL     1      -7.143  -9.134   4.740  1.00  0.00    -0.000 C 
BRANCH  17  18
ATOM     18  C   UNL     1      -6.571  -9.034   6.163  1.00  0.00    -0.003 C 
ATOM     19  C   UNL     1      -5.414  -8.039   6.267  1.00  0.00     0.004 C 
ENDBRANCH  17  18
ENDBRANCH  16  17
ENDBRANCH  15  16
ENDBRANCH  14  15
ENDBRANCH  13  14
ENDBRANCH  12  13
ENDBRANCH   1  12
TORSDOF 14
ENDMDL
MODEL 9
REMARK VINA RESULT:    -3.464      1.605      2.420
REMARK INTER + INTRA:          -8.293
REMARK INTER:                  -6.397
REMARK INTRA:                  -1.896
REMARK UNBOUND:                -1.994
REMARK SMILES CCCCCCCCCCCCCC[C@@H](C)C(=O)[O-]
REMARK SMILES IDX 9 1 10 2 11 3 12 4 13 5 14 6 15 7 16 8 17 9 18 10 19 11 8 12
REMARK SMILES IDX 7 13 6 14 5 15 4 16 3 17 2 18 1 19
REMARK H PARENT
REMARK Flexibility Score: inf
ROOT
ATOM      1  C   UNL     1      -7.142  -5.178   5.397  1.00  0.00     0.000 C 
ENDROOT
BRANCH   1   2
ATOM      2  C   UNL     1      -6.281  -5.272   6.667  1.00  0.00     0.000 C 
BRANCH   2   3
ATOM      3  C   UNL     1      -4.819  -4.867   6.419  1.00  0.00     0.000 C 
BRANCH   3   4
ATOM      4  C   UNL     1      -4.675  -3.745   5.374  1.00  0.00     0.000 C 
BRANCH   4   5
ATOM      5  C   UNL     1      -4.456  -2.332   5.948  1.00  0.00     0.001 C 
BRANCH   5   6
ATOM      6  C   UNL     1      -5.615  -1.369   5.634  1.00  0.00     0.009 C 
BRANCH   6   7
ATOM      7  C   UNL     1      -6.397  -0.946   6.898  1.00  0.00     0.032 C 
ATOM      8  C   UNL     1      -6.022  -1.788   8.125  1.00  0.00     0.014 C 
BRANCH   7   9
ATOM      9  C   UNL     1      -6.137   0.506   7.192  1.00  0.00     0.044 C 
ATOM     10  O   UNL     1      -7.091   1.272   7.490  1.00  0.00    -0.550 OA
ATOM     11  O   UNL     1      -4.843   1.012   7.139  1.00  0.00    -0.550 OA
ENDBRANCH   7   9
ENDBRANCH   6   7
ENDBRANCH   5   6
ENDBRANCH   4   5
ENDBRANCH   3   4
ENDBRANCH   2   3
ENDBRANCH   1   2
BRANCH   1  12
ATOM     12  C   UNL     1      -8.647  -5.328   5.685  1.00  0.00     0.000 C 
BRANCH  12  13
ATOM     13  C   UNL     1      -9.415  -5.941   4.505  1.00  0.00    -0.000 C 
BRANCH  13  14
ATOM     14  C   UNL     1      -9.585  -7.464   4.639  1.00  0.00    -0.000 C 
BRANCH  14  15
ATOM     15  C   UNL     1      -8.631  -8.249   3.725  1.00  0.00    -0.000 C 
BRANCH  15  16
ATOM     16  C   UNL     1      -7.978  -9.442   4.439  1.00  0.00    -0.000 C 
BRANCH  16  17
ATOM     17  C   UNL     1      -6.547  -9.101   4.880  1.00  0.00    -0.000 C 
BRANCH  17  18
ATOM     18  C   UNL     1      -6.421  -8.934   6.403  1.00  0.00    -0.003 C 
ATOM     19  C   UNL     1      -7.701  -9.314   7.147  1.00  0.00     0.004 C 
ENDBRANCH  17  18
ENDBRANCH  16  17
ENDBRANCH  15  16
ENDBRANCH  14  15
ENDBRANCH  13  14
ENDBRANCH  12  13
ENDBRANCH   1  12
TORSDOF 14
ENDMDL
