MODEL 1
REMARK VINA RESULT:    -3.832      0.000      0.000
REMARK INTER + INTRA:          -4.831
REMARK INTER:                  -4.728
REMARK INTRA:                  -0.103
REMARK UNBOUND:                -0.103
REMARK SMILES CCCCCC(=O)[O-]
REMARK SMILES IDX 4 1 5 2 6 3 7 4 8 5 3 6 2 7 1 8
REMARK H PARENT
REMARK Flexibility Score: inf
ROOT
ATOM      1  C   UNL     1      -4.468 -27.672  25.976  1.00  0.00     0.006 C 
ENDROOT
BRANCH   1   2
ATOM      2  C   UNL     1      -5.213 -27.828  27.307  1.00  0.00     0.053 C 
BRANCH   2   3
ATOM      3  C   UNL     1      -4.295 -28.365  28.359  1.00  0.00     0.041 C 
ATOM      4  O   UNL     1      -4.760 -28.994  29.346  1.00  0.00    -0.550 OA
ATOM      5  O   UNL     1      -2.928 -28.131  28.274  1.00  0.00    -0.550 OA
ENDBRANCH   2   3
ENDBRANCH   1   2
BRANCH   1   6
ATOM      6  C   UNL     1      -5.395 -27.271  24.814  1.00  0.00     0.000 C 
BRANCH   6   7
ATOM      7  C   UNL     1      -6.655 -26.492  25.232  1.00  0.00    -0.003 C 
ATOM      8  C   UNL     1      -7.952 -27.212  24.863  1.00  0.00     0.004 C 
ENDBRANCH   6   7
ENDBRANCH   1   6
TORSDOF 4
ENDMDL
MODEL 2
REMARK VINA RESULT:    -3.802      0.122      1.151
REMARK INTER + INTRA:          -4.795
REMARK INTER:                  -4.687
REMARK INTRA:                  -0.108
REMARK UNBOUND:                -0.103
REMARK SMILES CCCCCC(=O)[O-]
REMARK SMILES IDX 4 1 5 2 6 3 7 4 8 5 3 6 2 7 1 8
REMARK H PARENT
REMARK Flexibility Score: inf
ROOT
ATOM      1  C   UNL     1      -4.469 -27.739  25.844  1.00  0.00     0.006 C 
ENDROOT
BRANCH   1   2
ATOM      2  C   UNL     1      -5.155 -27.737  27.216  1.00  0.00     0.053 C 
BRANCH   2   3
ATOM      3  C   UNL     1      -4.235 -28.287  28.260  1.00  0.00     0.041 C 
ATOM      4  O   UNL     1      -2.990 -28.133  28.154  1.00  0.00    -0.550 OA
ATOM      5  O   UNL     1      -4.751 -29.013  29.327  1.00  0.00    -0.550 OA
ENDBRANCH   2   3
ENDBRANCH   1   2
BRANCH   1   6
ATOM      6  C   UNL     1      -5.421 -27.354  24.698  1.00  0.00     0.000 C 
BRANCH   6   7
ATOM      7  C   UNL     1      -6.654 -26.538  25.127  1.00  0.00    -0.003 C 
ATOM      8  C   UNL     1      -7.975 -27.236  24.805  1.00  0.00     0.004 C 
ENDBRANCH   6   7
ENDBRANCH   1   6
TORSDOF 4
ENDMDL
MODEL 3
REMARK VINA RESULT:    -3.416      1.027      1.868
REMARK INTER + INTRA:          -4.318
REMARK INTER:                  -4.236
REMARK INTRA:                  -0.082
REMARK UNBOUND:                -0.103
REMARK SMILES CCCCCC(=O)[O-]
REMARK SMILES IDX 4 1 5 2 6 3 7 4 8 5 3 6 2 7 1 8
REMARK H PARENT
REMARK Flexibility Score: inf
ROOT
ATOM      1  C   UNL     1      -5.528 -27.531  26.794  1.00  0.00     0.006 C 
ENDROOT
BRANCH   1   2
ATOM      2  C   UNL     1      -4.050 -27.913  26.948  1.00  0.00     0.053 C 
BRANCH   2   3
ATOM      3  C   UNL     1      -3.767 -28.349  28.351  1.00  0.00     0.041 C 
ATOM      4  O   UNL     1      -2.604 -28.247  28.824  1.00  0.00    -0.550 OA
ATOM      5  O   UNL     1      -4.777 -28.912  29.121  1.00  0.00    -0.550 OA
ENDBRANCH   2   3
ENDBRANCH   1   2
BRANCH   1   6
ATOM      6  C   UNL     1      -5.892 -27.114  25.358  1.00  0.00     0.000 C 
BRANCH   6   7
ATOM      7  C   UNL     1      -5.114 -27.850  24.253  1.00  0.00    -0.003 C 
ATOM      8  C   UNL     1      -5.925 -28.031  22.970  1.00  0.00     0.004 C 
ENDBRANCH   6   7
ENDBRANCH   1   6
TORSDOF 4
ENDMDL
MODEL 4
REMARK VINA RESULT:    -3.263      1.259      1.897
REMARK INTER + INTRA:          -4.129
REMARK INTER:                  -4.033
REMARK INTRA:                  -0.096
REMARK UNBOUND:                -0.103
REMARK SMILES CCCCCC(=O)[O-]
REMARK SMILES IDX 4 1 5 2 6 3 7 4 8 5 3 6 2 7 1 8
REMARK H PARENT
REMARK Flexibility Score: inf
ROOT
ATOM      1  C   UNL     1      -5.568 -27.188  25.296  1.00  0.00     0.006 C 
ENDROOT
BRANCH   1   2
ATOM      2  C   UNL     1      -5.111 -27.647  26.686  1.00  0.00     0.053 C 
BRANCH   2   3
ATOM      3  C   UNL     1      -3.616 -27.677  26.760  1.00  0.00     0.041 C 
ATOM      4  O   UNL     1      -3.041 -27.972  27.841  1.00  0.00    -0.550 OA
ATOM      5  O   UNL     1      -2.859 -27.333  25.648  1.00  0.00    -0.550 OA
ENDBRANCH   2   3
ENDBRANCH   1   2
BRANCH   1   6
ATOM      6  C   UNL     1      -6.999 -26.619  25.294  1.00  0.00     0.000 C 
BRANCH   6   7
ATOM      7  C   UNL     1      -8.048 -27.510  24.605  1.00  0.00    -0.003 C 
ATOM      8  C   UNL     1      -9.030 -28.147  25.588  1.00  0.00     0.004 C 
ENDBRANCH   6   7
ENDBRANCH   1   6
TORSDOF 4
ENDMDL
MODEL 5
REMARK VINA RESULT:    -2.990      1.506      2.061
REMARK INTER + INTRA:          -3.792
REMARK INTER:                  -3.717
REMARK INTRA:                  -0.075
REMARK UNBOUND:                -0.103
REMARK SMILES CCCCCC(=O)[O-]
REMARK SMILES IDX 4 1 5 2 6 3 7 4 8 5 3 6 2 7 1 8
REMARK H PARENT
REMARK Flexibility Score: inf
ROOT
ATOM      1  C   UNL     1      -5.696 -26.957  25.451  1.00  0.00     0.006 C 
ENDROOT
BRANCH   1   2
ATOM      2  C   UNL     1      -5.185 -27.623  26.734  1.00  0.00     0.053 C 
BRANCH   2   3
ATOM      3  C   UNL     1      -3.691 -27.701  26.724  1.00  0.00     0.041 C 
ATOM      4  O   UNL     1      -3.064 -27.997  27.775  1.00  0.00    -0.550 OA
ATOM      5  O   UNL     1      -2.988 -27.400  25.563  1.00  0.00    -0.550 OA
ENDBRANCH   2   3
ENDBRANCH   1   2
BRANCH   1   6
ATOM      6  C   UNL     1      -7.214 -27.118  25.255  1.00  0.00     0.000 C 
BRANCH   6   7
ATOM      7  C   UNL     1      -7.632 -27.713  23.898  1.00  0.00    -0.003 C 
ATOM      8  C   UNL     1      -6.816 -27.164  22.728  1.00  0.00     0.004 C 
ENDBRANCH   6   7
ENDBRANCH   1   6
TORSDOF 4
ENDMDL
MODEL 6
REMARK VINA RESULT:    -2.831     17.249     18.551
REMARK INTER + INTRA:          -3.597
REMARK INTER:                  -3.525
REMARK INTRA:                  -0.072
REMARK UNBOUND:                -0.103
REMARK SMILES CCCCCC(=O)[O-]
REMARK SMILES IDX 4 1 5 2 6 3 7 4 8 5 3 6 2 7 1 8
REMARK H PARENT
REMARK Flexibility Score: inf
ROOT
ATOM      1  C   UNL     1     -16.911 -14.793  25.267  1.00  0.00     0.006 C 
ENDROOT
BRANCH   1   2
ATOM      2  C   UNL     1     -17.025 -13.388  24.665  1.00  0.00     0.053 C 
BRANCH   2   3
ATOM      3  C   UNL     1     -18.366 -12.797  24.970  1.00  0.00     0.041 C 
ATOM      4  O   UNL     1     -19.215 -13.456  25.625  1.00  0.00    -0.550 OA
ATOM      5  O   UNL     1     -18.695 -11.536  24.488  1.00  0.00    -0.550 OA
ENDBRANCH   2   3
ENDBRANCH   1   2
BRANCH   1   6
ATOM      6  C   UNL     1     -15.958 -14.851  26.475  1.00  0.00     0.000 C 
BRANCH   6   7
ATOM      7  C   UNL     1     -15.326 -16.231  26.735  1.00  0.00    -0.003 C 
ATOM      8  C   UNL     1     -14.395 -16.243  27.946  1.00  0.00     0.004 C 
ENDBRANCH   6   7
ENDBRANCH   1   6
TORSDOF 4
ENDMDL
MODEL 7
REMARK VINA RESULT:    -2.819     17.833     19.168
REMARK INTER + INTRA:          -3.581
REMARK INTER:                  -3.530
REMARK INTRA:                  -0.051
REMARK UNBOUND:                -0.103
REMARK SMILES CCCCCC(=O)[O-]
REMARK SMILES IDX 4 1 5 2 6 3 7 4 8 5 3 6 2 7 1 8
REMARK H PARENT
REMARK Flexibility Score: inf
ROOT
ATOM      1  C   UNL     1     -16.742 -13.442  24.982  1.00  0.00     0.006 C 
ENDROOT
BRANCH   1   2
ATOM      2  C   UNL     1     -17.521 -13.452  23.661  1.00  0.00     0.053 C 
BRANCH   2   3
ATOM      3  C   UNL     1     -18.770 -12.637  23.785  1.00  0.00     0.041 C 
ATOM      4  O   UNL     1     -19.827 -13.005  23.208  1.00  0.00    -0.550 OA
ATOM      5  O   UNL     1     -18.754 -11.446  24.500  1.00  0.00    -0.550 OA
ENDBRANCH   2   3
ENDBRANCH   1   2
BRANCH   1   6
ATOM      6  C   UNL     1     -16.618 -14.840  25.615  1.00  0.00     0.000 C 
BRANCH   6   7
ATOM      7  C   UNL     1     -15.650 -14.926  26.809  1.00  0.00    -0.003 C 
ATOM      8  C   UNL     1     -15.098 -16.333  27.031  1.00  0.00     0.004 C 
ENDBRANCH   6   7
ENDBRANCH   1   6
TORSDOF 4
ENDMDL
MODEL 8
REMARK VINA RESULT:    -2.770     18.646     19.684
REMARK INTER + INTRA:          -3.521
REMARK INTER:                  -3.297
REMARK INTRA:                  -0.224
REMARK UNBOUND:                -0.103
REMARK SMILES CCCCCC(=O)[O-]
REMARK SMILES IDX 4 1 5 2 6 3 7 4 8 5 3 6 2 7 1 8
REMARK H PARENT
REMARK Flexibility Score: inf
ROOT
ATOM      1  C   UNL     1     -17.537 -14.903  24.253  1.00  0.00     0.006 C 
ENDROOT
BRANCH   1   2
ATOM      2  C   UNL     1     -17.132 -13.507  24.743  1.00  0.00     0.053 C 
BRANCH   2   3
ATOM      3  C   UNL     1     -18.320 -12.780  25.289  1.00  0.00     0.041 C 
ATOM      4  O   UNL     1     -19.082 -13.344  26.118  1.00  0.00    -0.550 OA
ATOM      5  O   UNL     1     -18.612 -11.496  24.847  1.00  0.00    -0.550 OA
ENDBRANCH   2   3
ENDBRANCH   1   2
BRANCH   1   6
ATOM      6  C   UNL     1     -18.425 -14.861  22.996  1.00  0.00     0.000 C 
BRANCH   6   7
ATOM      7  C   UNL     1     -17.962 -13.873  21.909  1.00  0.00    -0.003 C 
ATOM      8  C   UNL     1     -19.034 -12.850  21.537  1.00  0.00     0.004 C 
ENDBRANCH   6   7
ENDBRANCH   1   6
TORSDOF 4
ENDMDL
MODEL 9
REMARK VINA RESULT:    -2.728      2.219      3.217
REMARK INTER + INTRA:          -3.469
REMARK INTER:                  -3.348
REMARK INTRA:                  -0.120
REMARK UNBOUND:                -0.103
REMARK SMILES CCCCCC(=O)[O-]
REMARK SMILES IDX 4 1 5 2 6 3 7 4 8 5 3 6 2 7 1 8
REMARK H PARENT
REMARK Flexibility Score: inf
ROOT
ATOM      1  C   UNL     1      -7.454 -27.598  24.488  1.00  0.00     0.006 C 
ENDROOT
BRANCH   1   2
ATOM      2  C   UNL     1      -6.607 -26.581  25.263  1.00  0.00     0.053 C 
BRANCH   2   3
ATOM      3  C   UNL     1      -5.419 -27.252  25.877  1.00  0.00     0.041 C 
ATOM      4  O   UNL     1      -5.474 -27.680  27.060  1.00  0.00    -0.550 OA
ATOM      5  O   UNL     1      -4.235 -27.361  25.159  1.00  0.00    -0.550 OA
ENDBRANCH   2   3
ENDBRANCH   1   2
BRANCH   1   6
ATOM      6  C   UNL     1      -8.918 -27.643  24.960  1.00  0.00     0.000 C 
BRANCH   6   7
ATOM      7  C   UNL     1      -9.151 -28.412  26.273  1.00  0.00    -0.003 C 
ATOM      8  C   UNL     1     -10.590 -28.902  26.432  1.00  0.00     0.004 C 
ENDBRANCH   6   7
ENDBRANCH   1   6
TORSDOF 4
ENDMDL
