MODEL 1
REMARK VINA RESULT:    -4.078      0.000      0.000
REMARK INTER + INTRA:          -5.623
REMARK INTER:                  -5.747
REMARK INTRA:                   0.124
REMARK UNBOUND:                 0.124
REMARK SMILES CC1=CCC(=C(C)C)C(=O)CC(C)=CCC1
REMARK SMILES IDX 12 1 14 2 13 3 15 4 16 5 2 6 1 7 3 8 11 10 9 11 10 12 5 13
REMARK SMILES IDX 6 14 7 15 8 16 4 17
REMARK H PARENT
REMARK Flexibility Score: 60.00
ROOT
ATOM      1  C   UNL     1      42.460 -40.821  -5.042  1.00  0.00    -0.070 C 
ATOM      2  C   UNL     1      41.329 -41.286  -5.619  1.00  0.00    -0.027 C 
ATOM      3  C   UNL     1      43.728 -41.613  -5.233  1.00  0.00     0.039 C 
ENDROOT
BRANCH   2   4
ATOM      4  C   UNL     1      39.947 -40.690  -5.464  1.00  0.00     0.032 C 
BRANCH   4   5
ATOM      5  C   UNL     1      39.153 -41.207  -4.246  1.00  0.00     0.034 C 
BRANCH   5   6
ATOM      6  C   UNL     1      38.524 -40.094  -3.428  1.00  0.00    -0.077 C 
ATOM      7  C   UNL     1      37.306 -39.408  -3.996  1.00  0.00     0.039 C 
ATOM      8  C   UNL     1      39.022 -39.630  -2.255  1.00  0.00    -0.023 CG0
ATOM      9  G   UNL     1      40.214 -40.172  -1.492  1.00  0.00     0.000 G0
ENDBRANCH   5   6
ENDBRANCH   4   5
ENDBRANCH   2   4
BRANCH   1  10
ATOM     10  C   UNL     1      42.492 -39.601  -4.143  1.00  0.00     0.111 C 
BRANCH  10  11
ATOM     11  C   UNL     1      42.455 -39.982  -2.687  1.00  0.00     0.163 C 
ATOM     12  O   UNL     1      43.248 -40.877  -2.287  1.00  0.00    -0.294 OA
BRANCH  11  13
ATOM     13  C   UNL     1      41.480 -39.386  -1.727  1.00  0.00    -0.002 C 
ATOM     14  C   UNL     1      41.775 -38.232  -1.055  1.00  0.00    -0.069 C 
ATOM     15  C   UNL     1      40.880 -37.689   0.036  1.00  0.00     0.039 C 
ATOM     16  C   UNL     1      43.024 -37.440  -1.372  1.00  0.00     0.039 C 
BRANCH  13  17
ATOM     17  C   UNL     1      40.199 -40.162  -1.465  1.00  0.00     0.066 CG0
ATOM     18  G   UNL     1      39.026 -39.626  -2.262  1.00  0.00     0.000 G0
ENDBRANCH  13  17
ENDBRANCH  11  13
ENDBRANCH  10  11
ENDBRANCH   1  10
TORSDOF 0
ENDMDL
MODEL 2
REMARK VINA RESULT:    -3.555      1.909      4.911
REMARK INTER + INTRA:          -4.887
REMARK INTER:                  -5.203
REMARK INTRA:                   0.316
REMARK UNBOUND:                 0.124
REMARK SMILES CC1=CCC(=C(C)C)C(=O)CC(C)=CCC1
REMARK SMILES IDX 12 1 14 2 13 3 15 4 16 5 2 6 1 7 3 8 11 10 9 11 10 12 5 13
REMARK SMILES IDX 6 14 7 15 8 16 4 17
REMARK H PARENT
REMARK Flexibility Score: 60.00
ROOT
ATOM      1  C   UNL     1      38.302 -40.110  -2.922  1.00  0.00    -0.070 C 
ATOM      2  C   UNL     1      38.351 -39.623  -1.661  1.00  0.00    -0.027 C 
ATOM      3  C   UNL     1      37.081 -39.801  -3.750  1.00  0.00     0.039 C 
ENDROOT
BRANCH   2   4
ATOM      4  C   UNL     1      39.439 -39.904  -0.648  1.00  0.00     0.032 C 
BRANCH   4   5
ATOM      5  C   UNL     1      40.782 -39.200  -0.929  1.00  0.00     0.034 C 
BRANCH   5   6
ATOM      6  C   UNL     1      41.947 -40.165  -1.058  1.00  0.00    -0.077 C 
ATOM      7  C   UNL     1      42.335 -40.963   0.162  1.00  0.00     0.039 C 
ATOM      8  C   UNL     1      42.703 -40.307  -2.175  1.00  0.00    -0.023 CG0
ATOM      9  G   UNL     1      42.491 -39.630  -3.513  1.00  0.00     0.000 G0
ENDBRANCH   5   6
ENDBRANCH   4   5
ENDBRANCH   2   4
BRANCH   1  10
ATOM     10  C   UNL     1      39.365 -41.019  -3.503  1.00  0.00     0.111 C 
BRANCH  10  11
ATOM     11  C   UNL     1      40.231 -40.296  -4.500  1.00  0.00     0.163 C 
ATOM     12  O   UNL     1      39.665 -39.589  -5.376  1.00  0.00    -0.294 OA
BRANCH  11  13
ATOM     13  C   UNL     1      41.717 -40.438  -4.522  1.00  0.00    -0.002 C 
ATOM     14  C   UNL     1      42.322 -41.339  -5.354  1.00  0.00    -0.069 C 
ATOM     15  C   UNL     1      43.807 -41.619  -5.288  1.00  0.00     0.039 C 
ATOM     16  C   UNL     1      41.526 -42.108  -6.386  1.00  0.00     0.039 C 
BRANCH  13  17
ATOM     17  C   UNL     1      42.510 -39.611  -3.521  1.00  0.00     0.066 CG0
ATOM     18  G   UNL     1      42.676 -40.318  -2.191  1.00  0.00     0.000 G0
ENDBRANCH  13  17
ENDBRANCH  11  13
ENDBRANCH  10  11
ENDBRANCH   1  10
TORSDOF 0
ENDMDL
MODEL 3
REMARK VINA RESULT:    -3.180      1.783      3.989
REMARK INTER + INTRA:          -4.357
REMARK INTER:                  -4.587
REMARK INTRA:                   0.230
REMARK UNBOUND:                 0.124
REMARK SMILES CC1=CCC(=C(C)C)C(=O)CC(C)=CCC1
REMARK SMILES IDX 12 1 14 2 13 3 15 4 16 5 2 6 1 7 3 8 11 10 9 11 10 12 5 13
REMARK SMILES IDX 6 14 7 15 8 16 4 17
REMARK H PARENT
REMARK Flexibility Score: 60.00
ROOT
ATOM      1  C   UNL     1      42.488 -37.216  -2.107  1.00  0.00    -0.070 C 
ATOM      2  C   UNL     1      41.416 -36.395  -2.178  1.00  0.00    -0.027 C 
ATOM      3  C   UNL     1      43.395 -37.090  -0.909  1.00  0.00     0.039 C 
ENDROOT
BRANCH   2   4
ATOM      4  C   UNL     1      40.450 -36.302  -3.338  1.00  0.00     0.032 C 
BRANCH   4   5
ATOM      5  C   UNL     1      39.243 -37.258  -3.254  1.00  0.00     0.034 C 
BRANCH   5   6
ATOM      6  C   UNL     1      39.003 -38.033  -4.537  1.00  0.00    -0.077 C 
ATOM      7  C   UNL     1      38.332 -37.310  -5.678  1.00  0.00     0.039 C 
ATOM      8  C   UNL     1      39.289 -39.348  -4.701  1.00  0.00    -0.023 CG0
ATOM      9  G   UNL     1      39.975 -40.265  -3.709  1.00  0.00     0.000 G0
ENDBRANCH   5   6
ENDBRANCH   4   5
ENDBRANCH   2   4
BRANCH   1  10
ATOM     10  C   UNL     1      42.868 -38.183  -3.209  1.00  0.00     0.111 C 
BRANCH  10  11
ATOM     11  C   UNL     1      42.356 -39.572  -2.932  1.00  0.00     0.163 C 
ATOM     12  O   UNL     1      42.705 -40.130  -1.857  1.00  0.00    -0.294 OA
BRANCH  11  13
ATOM     13  C   UNL     1      41.510 -40.323  -3.906  1.00  0.00    -0.002 C 
ATOM     14  C   UNL     1      42.074 -40.962  -4.975  1.00  0.00    -0.069 C 
ATOM     15  C   UNL     1      41.235 -41.597  -6.062  1.00  0.00     0.039 C 
ATOM     16  C   UNL     1      43.576 -41.063  -5.123  1.00  0.00     0.039 C 
BRANCH  13  17
ATOM     17  C   UNL     1      40.004 -40.266  -3.708  1.00  0.00     0.066 CG0
ATOM     18  G   UNL     1      39.326 -39.343  -4.700  1.00  0.00     0.000 G0
ENDBRANCH  13  17
ENDBRANCH  11  13
ENDBRANCH  10  11
ENDBRANCH   1  10
TORSDOF 0
ENDMDL
MODEL 4
REMARK VINA RESULT:    -3.111      2.224      5.293
REMARK INTER + INTRA:          -4.260
REMARK INTER:                  -4.678
REMARK INTRA:                   0.418
REMARK UNBOUND:                 0.124
REMARK SMILES CC1=CCC(=C(C)C)C(=O)CC(C)=CCC1
REMARK SMILES IDX 12 1 14 2 13 3 15 4 16 5 2 6 1 7 3 8 11 10 9 11 10 12 5 13
REMARK SMILES IDX 6 14 7 15 8 16 4 17
REMARK H PARENT
REMARK Flexibility Score: 60.00
ROOT
ATOM      1  C   UNL     1      39.836 -41.066   0.338  1.00  0.00    -0.070 C 
ATOM      2  C   UNL     1      40.866 -40.954   1.207  1.00  0.00    -0.027 C 
ATOM      3  C   UNL     1      38.440 -40.858   0.868  1.00  0.00     0.039 C 
ENDROOT
BRANCH   2   4
ATOM      4  C   UNL     1      42.321 -41.220   0.891  1.00  0.00     0.032 C 
BRANCH   4   5
ATOM      5  C   UNL     1      43.263 -40.019   1.115  1.00  0.00     0.034 C 
BRANCH   5   6
ATOM      6  C   UNL     1      42.833 -38.773   0.361  1.00  0.00    -0.077 C 
ATOM      7  C   UNL     1      42.545 -37.530   1.165  1.00  0.00     0.039 C 
ATOM      8  C   UNL     1      42.624 -38.724  -0.978  1.00  0.00    -0.023 CG0
ATOM      9  G   UNL     1      42.863 -39.834  -1.982  1.00  0.00     0.000 G0
ENDBRANCH   5   6
ENDBRANCH   4   5
ENDBRANCH   2   4
BRANCH   1  10
ATOM     10  C   UNL     1      40.011 -41.478  -1.109  1.00  0.00     0.111 C 
BRANCH  10  11
ATOM     11  C   UNL     1      40.340 -40.300  -1.987  1.00  0.00     0.163 C 
ATOM     12  O   UNL     1      39.480 -39.385  -2.101  1.00  0.00    -0.294 OA
BRANCH  11  13
ATOM     13  C   UNL     1      41.610 -40.211  -2.767  1.00  0.00    -0.002 C 
ATOM     14  C   UNL     1      41.640 -40.539  -4.094  1.00  0.00    -0.069 C 
ATOM     15  C   UNL     1      42.936 -40.612  -4.872  1.00  0.00     0.039 C 
ATOM     16  C   UNL     1      40.369 -40.850  -4.853  1.00  0.00     0.039 C 
BRANCH  13  17
ATOM     17  C   UNL     1      42.870 -39.835  -2.004  1.00  0.00     0.066 CG0
ATOM     18  G   UNL     1      42.627 -38.729  -0.997  1.00  0.00     0.000 G0
ENDBRANCH  13  17
ENDBRANCH  11  13
ENDBRANCH  10  11
ENDBRANCH   1  10
TORSDOF 0
ENDMDL
MODEL 5
REMARK VINA RESULT:    -3.085      1.976      3.714
REMARK INTER + INTRA:          -4.223
REMARK INTER:                  -4.765
REMARK INTRA:                   0.542
REMARK UNBOUND:                 0.124
REMARK SMILES CC1=CCC(=C(C)C)C(=O)CC(C)=CCC1
REMARK SMILES IDX 12 1 14 2 13 3 15 4 16 5 2 6 1 7 3 8 11 10 9 11 10 12 5 13
REMARK SMILES IDX 6 14 7 15 8 16 4 17
REMARK H PARENT
REMARK Flexibility Score: 60.00
ROOT
ATOM      1  C   UNL     1      39.293 -40.555  -4.263  1.00  0.00    -0.070 C 
ATOM      2  C   UNL     1      40.315 -40.370  -5.128  1.00  0.00    -0.027 C 
ATOM      3  C   UNL     1      37.987 -39.861  -4.553  1.00  0.00     0.039 C 
ENDROOT
BRANCH   2   4
ATOM      4  C   UNL     1      41.723 -40.898  -4.960  1.00  0.00     0.032 C 
BRANCH   4   5
ATOM      5  C   UNL     1      42.787 -39.821  -4.666  1.00  0.00     0.034 C 
BRANCH   5   6
ATOM      6  C   UNL     1      42.290 -38.727  -3.738  1.00  0.00    -0.077 C 
ATOM      7  C   UNL     1      41.998 -37.375  -4.341  1.00  0.00     0.039 C 
ATOM      8  C   UNL     1      42.156 -38.864  -2.396  1.00  0.00    -0.023 CG0
ATOM      9  G   UNL     1      42.372 -40.123  -1.580  1.00  0.00     0.000 G0
ENDBRANCH   5   6
ENDBRANCH   4   5
ENDBRANCH   2   4
BRANCH   1  10
ATOM     10  C   UNL     1      39.427 -41.346  -2.977  1.00  0.00     0.111 C 
BRANCH  10  11
ATOM     11  C   UNL     1      39.825 -40.467  -1.822  1.00  0.00     0.163 C 
ATOM     12  O   UNL     1      39.099 -39.472  -1.555  1.00  0.00    -0.294 OA
BRANCH  11  13
ATOM     13  C   UNL     1      41.071 -40.697  -1.032  1.00  0.00    -0.002 C 
ATOM     14  C   UNL     1      41.024 -41.323   0.183  1.00  0.00    -0.069 C 
ATOM     15  C   UNL     1      42.240 -41.431   1.076  1.00  0.00     0.039 C 
ATOM     16  C   UNL     1      39.741 -41.942   0.695  1.00  0.00     0.039 C 
BRANCH  13  17
ATOM     17  C   UNL     1      42.364 -40.125  -1.590  1.00  0.00     0.066 CG0
ATOM     18  G   UNL     1      42.137 -38.865  -2.400  1.00  0.00     0.000 G0
ENDBRANCH  13  17
ENDBRANCH  11  13
ENDBRANCH  10  11
ENDBRANCH   1  10
TORSDOF 0
ENDMDL
MODEL 6
REMARK VINA RESULT:    -3.057      1.544      3.828
REMARK INTER + INTRA:          -4.185
REMARK INTER:                  -4.725
REMARK INTRA:                   0.540
REMARK UNBOUND:                 0.124
REMARK SMILES CC1=CCC(=C(C)C)C(=O)CC(C)=CCC1
REMARK SMILES IDX 12 1 14 2 13 3 15 4 16 5 2 6 1 7 3 8 11 10 9 11 10 12 5 13
REMARK SMILES IDX 6 14 7 15 8 16 4 17
REMARK H PARENT
REMARK Flexibility Score: 60.00
ROOT
ATOM      1  C   UNL     1      42.590 -40.278  -3.997  1.00  0.00    -0.070 C 
ATOM      2  C   UNL     1      43.016 -40.299  -2.714  1.00  0.00    -0.027 C 
ATOM      3  C   UNL     1      43.360 -41.086  -5.010  1.00  0.00     0.039 C 
ENDROOT
BRANCH   2   4
ATOM      4  C   UNL     1      42.440 -39.483  -1.578  1.00  0.00     0.032 C 
BRANCH   4   5
ATOM      5  C   UNL     1      41.337 -40.193  -0.766  1.00  0.00     0.034 C 
BRANCH   5   6
ATOM      6  C   UNL     1      39.995 -39.487  -0.836  1.00  0.00    -0.077 C 
ATOM      7  C   UNL     1      39.737 -38.372   0.146  1.00  0.00     0.039 C 
ATOM      8  C   UNL     1      38.989 -39.837  -1.676  1.00  0.00    -0.023 CG0
ATOM      9  G   UNL     1      39.026 -40.904  -2.751  1.00  0.00     0.000 G0
ENDBRANCH   5   6
ENDBRANCH   4   5
ENDBRANCH   2   4
BRANCH   1  10
ATOM     10  C   UNL     1      41.440 -39.415  -4.476  1.00  0.00     0.111 C 
BRANCH  10  11
ATOM     11  C   UNL     1      40.269 -40.249  -4.924  1.00  0.00     0.163 C 
ATOM     12  O   UNL     1      40.369 -40.878  -6.012  1.00  0.00    -0.294 OA
BRANCH  11  13
ATOM     13  C   UNL     1      38.986 -40.302  -4.163  1.00  0.00    -0.002 C 
ATOM     14  C   UNL     1      37.843 -39.757  -4.679  1.00  0.00    -0.069 C 
ATOM     15  C   UNL     1      36.568 -39.655  -3.870  1.00  0.00     0.039 C 
ATOM     16  C   UNL     1      37.799 -39.222  -6.094  1.00  0.00     0.039 C 
BRANCH  13  17
ATOM     17  C   UNL     1      39.030 -40.900  -2.766  1.00  0.00     0.066 CG0
ATOM     18  G   UNL     1      38.959 -39.843  -1.683  1.00  0.00     0.000 G0
ENDBRANCH  13  17
ENDBRANCH  11  13
ENDBRANCH  10  11
ENDBRANCH   1  10
TORSDOF 0
ENDMDL
MODEL 7
REMARK VINA RESULT:    -3.035      2.396      2.871
REMARK INTER + INTRA:          -4.153
REMARK INTER:                  -4.628
REMARK INTRA:                   0.475
REMARK UNBOUND:                 0.124
REMARK SMILES CC1=CCC(=C(C)C)C(=O)CC(C)=CCC1
REMARK SMILES IDX 12 1 14 2 13 3 15 4 16 5 2 6 1 7 3 8 11 10 9 11 10 12 5 13
REMARK SMILES IDX 6 14 7 15 8 16 4 17
REMARK H PARENT
REMARK Flexibility Score: 60.00
ROOT
ATOM      1  C   UNL     1      41.268 -40.549  -4.472  1.00  0.00    -0.070 C 
ATOM      2  C   UNL     1      40.170 -41.199  -4.919  1.00  0.00    -0.027 C 
ATOM      3  C   UNL     1      42.590 -40.867  -5.122  1.00  0.00     0.039 C 
ENDROOT
BRANCH   2   4
ATOM      4  C   UNL     1      38.779 -41.090  -4.333  1.00  0.00     0.032 C 
BRANCH   4   5
ATOM      5  C   UNL     1      37.737 -40.428  -5.258  1.00  0.00     0.034 C 
BRANCH   5   6
ATOM      6  C   UNL     1      38.285 -39.231  -6.015  1.00  0.00    -0.077 C 
ATOM      7  C   UNL     1      38.490 -39.376  -7.502  1.00  0.00     0.039 C 
ATOM      8  C   UNL     1      38.665 -38.067  -5.433  1.00  0.00    -0.023 CG0
ATOM      9  G   UNL     1      38.536 -37.691  -3.971  1.00  0.00     0.000 G0
ENDBRANCH   5   6
ENDBRANCH   4   5
ENDBRANCH   2   4
BRANCH   1  10
ATOM     10  C   UNL     1      41.247 -39.592  -3.297  1.00  0.00     0.111 C 
BRANCH  10  11
ATOM     11  C   UNL     1      41.058 -38.167  -3.743  1.00  0.00     0.163 C 
ATOM     12  O   UNL     1      41.961 -37.641  -4.449  1.00  0.00    -0.294 OA
BRANCH  11  13
ATOM     13  C   UNL     1      39.881 -37.347  -3.330  1.00  0.00    -0.002 C 
ATOM     14  C   UNL     1      40.002 -36.388  -2.362  1.00  0.00    -0.069 C 
ATOM     15  C   UNL     1      38.801 -35.651  -1.811  1.00  0.00     0.039 C 
ATOM     16  C   UNL     1      41.353 -36.019  -1.790  1.00  0.00     0.039 C 
BRANCH  13  17
ATOM     17  C   UNL     1      38.540 -37.686  -3.961  1.00  0.00     0.066 CG0
ATOM     18  G   UNL     1      38.672 -38.089  -5.416  1.00  0.00     0.000 G0
ENDBRANCH  13  17
ENDBRANCH  11  13
ENDBRANCH  10  11
ENDBRANCH   1  10
TORSDOF 0
ENDMDL
MODEL 8
REMARK VINA RESULT:    -3.011      2.925      4.248
REMARK INTER + INTRA:          -4.119
REMARK INTER:                  -4.512
REMARK INTRA:                   0.393
REMARK UNBOUND:                 0.124
REMARK SMILES CC1=CCC(=C(C)C)C(=O)CC(C)=CCC1
REMARK SMILES IDX 12 1 14 2 13 3 15 4 16 5 2 6 1 7 3 8 11 10 9 11 10 12 5 13
REMARK SMILES IDX 6 14 7 15 8 16 4 17
REMARK H PARENT
REMARK Flexibility Score: 60.00
ROOT
ATOM      1  C   UNL     1      39.488 -40.281  -4.820  1.00  0.00    -0.070 C 
ATOM      2  C   UNL     1      40.607 -41.030  -4.702  1.00  0.00    -0.027 C 
ATOM      3  C   UNL     1      38.169 -40.919  -4.466  1.00  0.00     0.039 C 
ENDROOT
BRANCH   2   4
ATOM      4  C   UNL     1      42.003 -40.603  -5.099  1.00  0.00     0.032 C 
BRANCH   4   5
ATOM      5  C   UNL     1      43.006 -40.505  -3.931  1.00  0.00     0.034 C 
BRANCH   5   6
ATOM      6  C   UNL     1      42.445 -39.780  -2.721  1.00  0.00    -0.077 C 
ATOM      7  C   UNL     1      42.212 -40.586  -1.467  1.00  0.00     0.039 C 
ATOM      8  C   UNL     1      42.076 -38.476  -2.714  1.00  0.00    -0.023 CG0
ATOM      9  G   UNL     1      42.232 -37.476  -3.841  1.00  0.00     0.000 G0
ENDBRANCH   5   6
ENDBRANCH   4   5
ENDBRANCH   2   4
BRANCH   1  10
ATOM     10  C   UNL     1      39.488 -38.870  -5.374  1.00  0.00     0.111 C 
BRANCH  10  11
ATOM     11  C   UNL     1      39.711 -37.848  -4.291  1.00  0.00     0.163 C 
ATOM     12  O   UNL     1      38.849 -37.755  -3.376  1.00  0.00    -0.294 OA
BRANCH  11  13
ATOM     13  C   UNL     1      40.872 -36.910  -4.302  1.00  0.00    -0.002 C 
ATOM     14  C   UNL     1      40.739 -35.637  -4.784  1.00  0.00    -0.069 C 
ATOM     15  C   UNL     1      41.928 -34.717  -4.954  1.00  0.00     0.039 C 
ATOM     16  C   UNL     1      39.386 -35.085  -5.176  1.00  0.00     0.039 C 
BRANCH  13  17
ATOM     17  C   UNL     1      42.214 -37.459  -3.845  1.00  0.00     0.066 CG0
ATOM     18  G   UNL     1      42.074 -38.462  -2.718  1.00  0.00     0.000 G0
ENDBRANCH  13  17
ENDBRANCH  11  13
ENDBRANCH  10  11
ENDBRANCH   1  10
TORSDOF 0
ENDMDL
MODEL 9
REMARK VINA RESULT:    -2.905      2.344      4.213
REMARK INTER + INTRA:          -3.970
REMARK INTER:                  -4.155
REMARK INTRA:                   0.185
REMARK UNBOUND:                 0.124
REMARK SMILES CC1=CCC(=C(C)C)C(=O)CC(C)=CCC1
REMARK SMILES IDX 12 1 14 2 13 3 15 4 16 5 2 6 1 7 3 8 11 10 9 11 10 12 5 13
REMARK SMILES IDX 6 14 7 15 8 16 4 17
REMARK H PARENT
REMARK Flexibility Score: 60.00
ROOT
ATOM      1  C   UNL     1      41.418 -40.838  -4.932  1.00  0.00    -0.070 C 
ATOM      2  C   UNL     1      42.623 -40.404  -4.499  1.00  0.00    -0.027 C 
ATOM      3  C   UNL     1      41.354 -41.523  -6.273  1.00  0.00     0.039 C 
ENDROOT
BRANCH   2   4
ATOM      4  C   UNL     1      42.875 -39.613  -3.234  1.00  0.00     0.032 C 
BRANCH   4   5
ATOM      5  C   UNL     1      42.971 -38.086  -3.434  1.00  0.00     0.034 C 
BRANCH   5   6
ATOM      6  C   UNL     1      42.107 -37.301  -2.464  1.00  0.00    -0.077 C 
ATOM      7  C   UNL     1      42.671 -37.016  -1.094  1.00  0.00     0.039 C 
ATOM      8  C   UNL     1      40.838 -36.901  -2.722  1.00  0.00    -0.023 CG0
ATOM      9  G   UNL     1      40.076 -37.059  -4.022  1.00  0.00     0.000 G0
ENDBRANCH   5   6
ENDBRANCH   4   5
ENDBRANCH   2   4
BRANCH   1  10
ATOM     10  C   UNL     1      40.126 -40.588  -4.180  1.00  0.00     0.111 C 
BRANCH  10  11
ATOM     11  C   UNL     1      39.366 -39.421  -4.753  1.00  0.00     0.163 C 
ATOM     12  O   UNL     1      39.035 -39.466  -5.968  1.00  0.00    -0.294 OA
BRANCH  11  13
ATOM     13  C   UNL     1      39.052 -38.200  -3.953  1.00  0.00    -0.002 C 
ATOM     14  C   UNL     1      37.871 -38.095  -3.272  1.00  0.00    -0.069 C 
ATOM     15  C   UNL     1      37.454 -36.813  -2.584  1.00  0.00     0.039 C 
ATOM     16  C   UNL     1      36.915 -39.264  -3.176  1.00  0.00     0.039 C 
BRANCH  13  17
ATOM     17  C   UNL     1      40.052 -37.056  -4.007  1.00  0.00     0.066 CG0
ATOM     18  G   UNL     1      40.828 -36.906  -2.715  1.00  0.00     0.000 G0
ENDBRANCH  13  17
ENDBRANCH  11  13
ENDBRANCH  10  11
ENDBRANCH   1  10
TORSDOF 0
ENDMDL
