MODEL 1
REMARK VINA RESULT:    -4.355      0.000      0.000
REMARK INTER + INTRA:          -5.451
REMARK INTER:                  -5.246
REMARK INTRA:                  -0.205
REMARK UNBOUND:                -0.205
REMARK SMILES C=CCc1ccc(O)c(OC)c1
REMARK SMILES IDX 9 1 7 2 6 3 5 4 4 5 12 6 10 7 11 8 8 9 3 11 2 12 1 13
REMARK H PARENT 8 10
REMARK Flexibility Score: inf
ROOT
ATOM      1  C   UNL     1     164.938 165.017 165.929  1.00  0.00     0.160 A 
ATOM      2  C   UNL     1     164.857 165.181 167.320  1.00  0.00     0.157 A 
ATOM      3  C   UNL     1     165.718 166.072 167.974  1.00  0.00     0.050 A 
ATOM      4  C   UNL     1     166.661 166.802 167.248  1.00  0.00     0.008 A 
ATOM      5  C   UNL     1     166.748 166.656 165.856  1.00  0.00    -0.040 A 
ATOM      6  C   UNL     1     165.891 165.757 165.201  1.00  0.00     0.054 A 
ENDROOT
BRANCH   1   7
ATOM      7  O   UNL     1     164.063 164.111 165.311  1.00  0.00    -0.493 OA
ATOM      8  C   UNL     1     164.407 162.778 164.946  1.00  0.00     0.278 C 
ENDBRANCH   1   7
BRANCH   2   9
ATOM      9  O   UNL     1     163.915 164.453 168.045  1.00  0.00    -0.504 OA
ATOM     10  H   UNL     1     163.326 163.758 167.602  1.00  0.00     0.293 HD
ENDBRANCH   2   9
BRANCH   5  11
ATOM     11  C   UNL     1     167.787 167.422 165.080  1.00  0.00     0.062 C 
BRANCH  11  12
ATOM     12  C   UNL     1     169.110 166.711 165.115  1.00  0.00    -0.030 C 
ATOM     13  C   UNL     1     170.017 166.959 166.066  1.00  0.00     0.004 C 
ENDBRANCH  11  12
ENDBRANCH   5  11
TORSDOF 4
ENDMDL
MODEL 2
REMARK VINA RESULT:    -4.323      2.297      4.744
REMARK INTER + INTRA:          -5.413
REMARK INTER:                  -5.172
REMARK INTRA:                  -0.241
REMARK UNBOUND:                -0.205
REMARK SMILES C=CCc1ccc(O)c(OC)c1
REMARK SMILES IDX 9 1 7 2 6 3 5 4 4 5 12 6 10 7 11 8 8 9 3 11 2 12 1 13
REMARK H PARENT 8 10
REMARK Flexibility Score: inf
ROOT
ATOM      1  C   UNL     1     166.275 166.142 166.084  1.00  0.00     0.160 A 
ATOM      2  C   UNL     1     166.274 166.053 167.484  1.00  0.00     0.157 A 
ATOM      3  C   UNL     1     165.368 165.205 168.134  1.00  0.00     0.050 A 
ATOM      4  C   UNL     1     164.462 164.443 167.394  1.00  0.00     0.008 A 
ATOM      5  C   UNL     1     164.457 164.513 165.993  1.00  0.00    -0.040 A 
ATOM      6  C   UNL     1     165.359 165.369 165.343  1.00  0.00     0.054 A 
ENDROOT
BRANCH   1   7
ATOM      7  O   UNL     1     167.194 167.007 165.470  1.00  0.00    -0.493 OA
ATOM      8  C   UNL     1     166.878 168.309 164.988  1.00  0.00     0.278 C 
ENDBRANCH   1   7
BRANCH   2   9
ATOM      9  O   UNL     1     167.179 166.813 168.223  1.00  0.00    -0.504 OA
ATOM     10  H   UNL     1     167.170 167.826 168.192  1.00  0.00     0.293 HD
ENDBRANCH   2   9
BRANCH   5  11
ATOM     11  C   UNL     1     163.458 163.712 165.201  1.00  0.00     0.062 C 
BRANCH  11  12
ATOM     12  C   UNL     1     162.180 164.483 165.022  1.00  0.00    -0.030 C 
ATOM     13  C   UNL     1     161.140 164.320 165.845  1.00  0.00     0.004 C 
ENDBRANCH  11  12
ENDBRANCH   5  11
TORSDOF 4
ENDMDL
MODEL 3
REMARK VINA RESULT:    -3.902      1.069      2.748
REMARK INTER + INTRA:          -4.905
REMARK INTER:                  -4.749
REMARK INTRA:                  -0.156
REMARK UNBOUND:                -0.205
REMARK SMILES C=CCc1ccc(O)c(OC)c1
REMARK SMILES IDX 9 1 7 2 6 3 5 4 4 5 12 6 10 7 11 8 8 9 3 11 2 12 1 13
REMARK H PARENT 8 10
REMARK Flexibility Score: inf
ROOT
ATOM      1  C   UNL     1     165.749 166.032 167.948  1.00  0.00     0.160 A 
ATOM      2  C   UNL     1     164.875 165.198 167.234  1.00  0.00     0.157 A 
ATOM      3  C   UNL     1     165.003 165.070 165.845  1.00  0.00     0.050 A 
ATOM      4  C   UNL     1     166.001 165.768 165.162  1.00  0.00     0.008 A 
ATOM      5  C   UNL     1     166.889 166.598 165.862  1.00  0.00    -0.040 A 
ATOM      6  C   UNL     1     166.755 166.733 167.253  1.00  0.00     0.054 A 
ENDROOT
BRANCH   1   7
ATOM      7  O   UNL     1     165.585 166.139 169.338  1.00  0.00    -0.493 OA
ATOM      8  C   UNL     1     166.646 166.056 170.283  1.00  0.00     0.278 C 
ENDBRANCH   1   7
BRANCH   2   9
ATOM      9  O   UNL     1     163.879 164.500 167.915  1.00  0.00    -0.504 OA
ATOM     10  H   UNL     1     162.903 164.768 167.849  1.00  0.00     0.293 HD
ENDBRANCH   2   9
BRANCH   5  11
ATOM     11  C   UNL     1     167.944 167.372 165.119  1.00  0.00     0.062 C 
BRANCH  11  12
ATOM     12  C   UNL     1     169.287 166.710 165.256  1.00  0.00    -0.030 C 
ATOM     13  C   UNL     1     170.137 167.041 166.233  1.00  0.00     0.004 C 
ENDBRANCH  11  12
ENDBRANCH   5  11
TORSDOF 4
ENDMDL
MODEL 4
REMARK VINA RESULT:    -3.880      3.258      5.275
REMARK INTER + INTRA:          -4.879
REMARK INTER:                  -4.661
REMARK INTRA:                  -0.218
REMARK UNBOUND:                -0.205
REMARK SMILES C=CCc1ccc(O)c(OC)c1
REMARK SMILES IDX 9 1 7 2 6 3 5 4 4 5 12 6 10 7 11 8 8 9 3 11 2 12 1 13
REMARK H PARENT 8 10
REMARK Flexibility Score: inf
ROOT
ATOM      1  C   UNL     1     169.268 166.833 167.675  1.00  0.00     0.160 A 
ATOM      2  C   UNL     1     170.221 166.832 166.646  1.00  0.00     0.157 A 
ATOM      3  C   UNL     1     169.811 166.802 165.307  1.00  0.00     0.050 A 
ATOM      4  C   UNL     1     168.452 166.774 164.987  1.00  0.00     0.008 A 
ATOM      5  C   UNL     1     167.486 166.783 166.004  1.00  0.00    -0.040 A 
ATOM      6  C   UNL     1     167.898 166.805 167.346  1.00  0.00     0.054 A 
ENDROOT
BRANCH   1   7
ATOM      7  O   UNL     1     169.719 166.857 169.004  1.00  0.00    -0.493 OA
ATOM      8  C   UNL     1     168.866 166.904 170.143  1.00  0.00     0.278 C 
ENDBRANCH   1   7
BRANCH   2   9
ATOM      9  O   UNL     1     171.578 166.862 166.964  1.00  0.00    -0.504 OA
ATOM     10  H   UNL     1     172.281 166.515 166.322  1.00  0.00     0.293 HD
ENDBRANCH   2   9
BRANCH   5  11
ATOM     11  C   UNL     1     166.023 166.722 165.656  1.00  0.00     0.062 C 
BRANCH  11  12
ATOM     12  C   UNL     1     165.570 165.296 165.506  1.00  0.00    -0.030 C 
ATOM     13  C   UNL     1     164.801 164.703 166.425  1.00  0.00     0.004 C 
ENDBRANCH  11  12
ENDBRANCH   5  11
TORSDOF 4
ENDMDL
MODEL 5
REMARK VINA RESULT:    -3.871      2.706      4.306
REMARK INTER + INTRA:          -4.868
REMARK INTER:                  -4.647
REMARK INTRA:                  -0.221
REMARK UNBOUND:                -0.205
REMARK SMILES C=CCc1ccc(O)c(OC)c1
REMARK SMILES IDX 9 1 7 2 6 3 5 4 4 5 12 6 10 7 11 8 8 9 3 11 2 12 1 13
REMARK H PARENT 8 10
REMARK Flexibility Score: inf
ROOT
ATOM      1  C   UNL     1     161.996 164.362 167.712  1.00  0.00     0.160 A 
ATOM      2  C   UNL     1     161.037 164.364 166.688  1.00  0.00     0.157 A 
ATOM      3  C   UNL     1     161.440 164.412 165.347  1.00  0.00     0.050 A 
ATOM      4  C   UNL     1     162.796 164.456 165.020  1.00  0.00     0.008 A 
ATOM      5  C   UNL     1     163.768 164.444 166.031  1.00  0.00    -0.040 A 
ATOM      6  C   UNL     1     163.364 164.405 167.375  1.00  0.00     0.054 A 
ENDROOT
BRANCH   1   7
ATOM      7  O   UNL     1     161.554 164.319 169.043  1.00  0.00    -0.493 OA
ATOM      8  C   UNL     1     162.413 164.305 170.178  1.00  0.00     0.278 C 
ENDBRANCH   1   7
BRANCH   2   9
ATOM      9  O   UNL     1     159.682 164.319 167.014  1.00  0.00    -0.504 OA
ATOM     10  H   UNL     1     158.970 164.185 166.305  1.00  0.00     0.293 HD
ENDBRANCH   2   9
BRANCH   5  11
ATOM     11  C   UNL     1     165.229 164.523 165.676  1.00  0.00     0.062 C 
BRANCH  11  12
ATOM     12  C   UNL     1     165.664 165.954 165.522  1.00  0.00    -0.030 C 
ATOM     13  C   UNL     1     166.364 166.581 166.472  1.00  0.00     0.004 C 
ENDBRANCH  11  12
ENDBRANCH   5  11
TORSDOF 4
ENDMDL
MODEL 6
REMARK VINA RESULT:    -3.837      2.270      4.885
REMARK INTER + INTRA:          -4.827
REMARK INTER:                  -4.638
REMARK INTRA:                  -0.190
REMARK UNBOUND:                -0.205
REMARK SMILES C=CCc1ccc(O)c(OC)c1
REMARK SMILES IDX 9 1 7 2 6 3 5 4 4 5 12 6 10 7 11 8 8 9 3 11 2 12 1 13
REMARK H PARENT 8 10
REMARK Flexibility Score: inf
ROOT
ATOM      1  C   UNL     1     165.254 165.295 168.220  1.00  0.00     0.160 A 
ATOM      2  C   UNL     1     166.245 166.034 167.557  1.00  0.00     0.157 A 
ATOM      3  C   UNL     1     166.290 166.053 166.157  1.00  0.00     0.050 A 
ATOM      4  C   UNL     1     165.349 165.339 165.412  1.00  0.00     0.008 A 
ATOM      5  C   UNL     1     164.346 164.603 166.060  1.00  0.00    -0.040 A 
ATOM      6  C   UNL     1     164.306 164.577 167.463  1.00  0.00     0.054 A 
ENDROOT
BRANCH   1   7
ATOM      7  O   UNL     1     165.245 165.296 169.623  1.00  0.00    -0.493 OA
ATOM      8  C   UNL     1     165.875 164.309 170.434  1.00  0.00     0.278 C 
ENDBRANCH   1   7
BRANCH   2   9
ATOM      9  O   UNL     1     167.184 166.748 168.300  1.00  0.00    -0.504 OA
ATOM     10  H   UNL     1     167.907 167.299 167.851  1.00  0.00     0.293 HD
ENDBRANCH   2   9
BRANCH   5  11
ATOM     11  C   UNL     1     163.352 163.810 165.254  1.00  0.00     0.062 C 
BRANCH  11  12
ATOM     12  C   UNL     1     162.033 164.527 165.180  1.00  0.00    -0.030 C 
ATOM     13  C   UNL     1     161.013 164.208 165.984  1.00  0.00     0.004 C 
ENDBRANCH  11  12
ENDBRANCH   5  11
TORSDOF 4
ENDMDL
MODEL 7
REMARK VINA RESULT:    -3.801      2.480      5.069
REMARK INTER + INTRA:          -4.784
REMARK INTER:                  -4.567
REMARK INTRA:                  -0.217
REMARK UNBOUND:                -0.205
REMARK SMILES C=CCc1ccc(O)c(OC)c1
REMARK SMILES IDX 9 1 7 2 6 3 5 4 4 5 12 6 10 7 11 8 8 9 3 11 2 12 1 13
REMARK H PARENT 8 10
REMARK Flexibility Score: inf
ROOT
ATOM      1  C   UNL     1     166.639 166.175 167.295  1.00  0.00     0.160 A 
ATOM      2  C   UNL     1     167.117 166.608 166.050  1.00  0.00     0.157 A 
ATOM      3  C   UNL     1     166.439 166.257 164.875  1.00  0.00     0.050 A 
ATOM      4  C   UNL     1     165.283 165.476 164.936  1.00  0.00     0.008 A 
ATOM      5  C   UNL     1     164.786 165.044 166.175  1.00  0.00    -0.040 A 
ATOM      6  C   UNL     1     165.471 165.389 167.351  1.00  0.00     0.054 A 
ENDROOT
BRANCH   1   7
ATOM      7  O   UNL     1     167.350 166.543 168.448  1.00  0.00    -0.493 OA
ATOM      8  C   UNL     1     166.746 166.916 169.682  1.00  0.00     0.278 C 
ENDBRANCH   1   7
BRANCH   2   9
ATOM      9  O   UNL     1     168.271 167.388 165.988  1.00  0.00    -0.504 OA
ATOM     10  H   UNL     1     169.125 167.040 165.566  1.00  0.00     0.293 HD
ENDBRANCH   2   9
BRANCH   5  11
ATOM     11  C   UNL     1     163.557 164.177 166.234  1.00  0.00     0.062 C 
BRANCH  11  12
ATOM     12  C   UNL     1     162.623 164.498 165.100  1.00  0.00    -0.030 C 
ATOM     13  C   UNL     1     161.296 164.500 165.261  1.00  0.00     0.004 C 
ENDBRANCH  11  12
ENDBRANCH   5  11
TORSDOF 4
ENDMDL
MODEL 8
REMARK VINA RESULT:    -3.487      2.005      4.101
REMARK INTER + INTRA:          -4.405
REMARK INTER:                  -4.192
REMARK INTRA:                  -0.214
REMARK UNBOUND:                -0.205
REMARK SMILES C=CCc1ccc(O)c(OC)c1
REMARK SMILES IDX 9 1 7 2 6 3 5 4 4 5 12 6 10 7 11 8 8 9 3 11 2 12 1 13
REMARK H PARENT 8 10
REMARK Flexibility Score: inf
ROOT
ATOM      1  C   UNL     1     166.027 166.334 166.187  1.00  0.00     0.160 A 
ATOM      2  C   UNL     1     165.213 165.194 166.118  1.00  0.00     0.157 A 
ATOM      3  C   UNL     1     164.827 164.532 167.291  1.00  0.00     0.050 A 
ATOM      4  C   UNL     1     165.247 165.004 168.536  1.00  0.00     0.008 A 
ATOM      5  C   UNL     1     166.053 166.149 168.623  1.00  0.00    -0.040 A 
ATOM      6  C   UNL     1     166.448 166.806 167.447  1.00  0.00     0.054 A 
ENDROOT
BRANCH   1   7
ATOM      7  O   UNL     1     166.398 166.965 164.990  1.00  0.00    -0.493 OA
ATOM      8  C   UNL     1     166.730 168.344 164.875  1.00  0.00     0.278 C 
ENDBRANCH   1   7
BRANCH   2   9
ATOM      9  O   UNL     1     164.793 164.722 164.875  1.00  0.00    -0.504 OA
ATOM     10  H   UNL     1     164.869 163.743 164.625  1.00  0.00     0.293 HD
ENDBRANCH   2   9
BRANCH   5  11
ATOM     11  C   UNL     1     166.530 166.636 169.966  1.00  0.00     0.062 C 
BRANCH  11  12
ATOM     12  C   UNL     1     165.539 167.593 170.568  1.00  0.00    -0.030 C 
ATOM     13  C   UNL     1     165.627 168.912 170.372  1.00  0.00     0.004 C 
ENDBRANCH  11  12
ENDBRANCH   5  11
TORSDOF 4
ENDMDL
MODEL 9
REMARK VINA RESULT:    -2.705      2.119      4.105
REMARK INTER + INTRA:          -3.463
REMARK INTER:                  -3.256
REMARK INTRA:                  -0.207
REMARK UNBOUND:                -0.205
REMARK SMILES C=CCc1ccc(O)c(OC)c1
REMARK SMILES IDX 9 1 7 2 6 3 5 4 4 5 12 6 10 7 11 8 8 9 3 11 2 12 1 13
REMARK H PARENT 8 10
REMARK Flexibility Score: inf
ROOT
ATOM      1  C   UNL     1     165.199 165.071 166.175  1.00  0.00     0.160 A 
ATOM      2  C   UNL     1     166.005 166.218 166.115  1.00  0.00     0.157 A 
ATOM      3  C   UNL     1     166.417 166.851 167.295  1.00  0.00     0.050 A 
ATOM      4  C   UNL     1     166.030 166.345 168.538  1.00  0.00     0.008 A 
ATOM      5  C   UNL     1     165.233 165.193 168.615  1.00  0.00    -0.040 A 
ATOM      6  C   UNL     1     164.814 164.564 167.432  1.00  0.00     0.054 A 
ENDROOT
BRANCH   1   7
ATOM      7  O   UNL     1     164.803 164.469 164.971  1.00  0.00    -0.493 OA
ATOM      8  C   UNL     1     164.110 163.229 164.880  1.00  0.00     0.278 C 
ENDBRANCH   1   7
BRANCH   2   9
ATOM      9  O   UNL     1     166.392 166.724 164.875  1.00  0.00    -0.504 OA
ATOM     10  H   UNL     1     165.710 166.979 164.170  1.00  0.00     0.293 HD
ENDBRANCH   2   9
BRANCH   5  11
ATOM     11  C   UNL     1     164.794 164.668 169.956  1.00  0.00     0.062 C 
BRANCH  11  12
ATOM     12  C   UNL     1     165.705 163.568 170.422  1.00  0.00    -0.030 C 
ATOM     13  C   UNL     1     165.334 162.284 170.386  1.00  0.00     0.004 C 
ENDBRANCH  11  12
ENDBRANCH   5  11
TORSDOF 4
ENDMDL
