MODEL 1
REMARK VINA RESULT:    -6.784      0.000      0.000
REMARK INTER + INTRA:         -11.695
REMARK INTER:                  -9.957
REMARK INTRA:                  -1.739
REMARK UNBOUND:                -1.739
REMARK SMILES O=c1c(O[C@@H]2O[C@H](CO)[C@H](O)[C@@H](O)[C@@H]2O)c(-c2ccc(O)c(O)c2)oc2cc(O)cc(O)c12
REMARK SMILES IDX 4 1 3 2 16 3 25 4 2 5 26 6 1 7 33 8 27 9 31 10 28 11 30 12
REMARK SMILES IDX 17 13 18 14 19 15 20 16 24 17 22 18 21 19 23 21 32 23 29 25
REMARK SMILES IDX 5 27 14 28 6 29 12 30 7 31 10 32 15 33 13 35 8 37 9 38 11 40
REMARK H PARENT 21 20 23 22 32 24 29 26 15 34 13 36 9 39 11 41
REMARK Flexibility Score: inf
ROOT
ATOM      1  O   UNL     1     118.028 126.709 132.640  1.00  0.00    -0.454 OA
ENDROOT
BRANCH   1   2
ATOM      2  C   UNL     1     118.354 125.847 133.706  1.00  0.00     0.214 A 
ATOM      3  C   UNL     1     119.665 125.906 134.224  1.00  0.00     0.180 A 
ATOM      4  O   UNL     1     120.010 125.156 135.263  1.00  0.00    -0.452 OA
ATOM      5  C   UNL     1     117.439 124.953 134.309  1.00  0.00     0.239 A 
ATOM      6  C   UNL     1     119.183 124.304 135.854  1.00  0.00     0.146 A 
ATOM      7  O   UNL     1     116.255 124.871 133.889  1.00  0.00    -0.285 OA
ATOM      8  C   UNL     1     117.855 124.156 135.398  1.00  0.00     0.111 A 
ATOM      9  C   UNL     1     119.649 123.550 136.935  1.00  0.00     0.094 A 
ATOM     10  C   UNL     1     117.004 123.230 136.050  1.00  0.00     0.134 A 
ATOM     11  C   UNL     1     118.806 122.636 137.572  1.00  0.00     0.123 A 
ATOM     12  C   UNL     1     117.490 122.479 137.131  1.00  0.00     0.093 A 
BRANCH   3  13
ATOM     13  C   UNL     1     120.691 126.803 133.650  1.00  0.00     0.025 A 
ATOM     14  C   UNL     1     120.950 128.040 134.264  1.00  0.00     0.016 A 
ATOM     15  C   UNL     1     121.934 128.888 133.752  1.00  0.00     0.051 A 
ATOM     16  C   UNL     1     122.687 128.509 132.635  1.00  0.00     0.157 A 
ATOM     17  C   UNL     1     121.461 126.414 132.541  1.00  0.00     0.062 A 
ATOM     18  C   UNL     1     122.453 127.264 132.026  1.00  0.00     0.158 A 
BRANCH  16  19
ATOM     19  O   UNL     1     123.662 129.377 132.144  1.00  0.00    -0.504 OA
ATOM     20  H   UNL     1     124.050 129.285 131.214  1.00  0.00     0.293 HD
ENDBRANCH  16  19
BRANCH  18  21
ATOM     21  O   UNL     1     123.206 126.877 130.918  1.00  0.00    -0.504 OA
ATOM     22  H   UNL     1     123.030 126.004 130.437  1.00  0.00     0.293 HD
ENDBRANCH  18  21
ENDBRANCH   3  13
BRANCH  10  23
ATOM     23  O   UNL     1     115.686 123.044 135.629  1.00  0.00    -0.507 OA
ATOM     24  H   UNL     1     115.106 123.819 135.339  1.00  0.00     0.293 HD
ENDBRANCH  10  23
BRANCH  11  25
ATOM     25  O   UNL     1     119.267 121.875 138.644  1.00  0.00    -0.508 OA
ATOM     26  H   UNL     1     119.267 122.238 139.592  1.00  0.00     0.293 HD
ENDBRANCH  11  25
ENDBRANCH   1   2
BRANCH   1  27
ATOM     27  C   UNL     1     117.565 128.056 132.718  1.00  0.00     0.339 C 
ATOM     28  C   UNL     1     117.101 128.496 131.302  1.00  0.00     0.214 C 
ATOM     29  O   UNL     1     116.580 128.145 133.748  1.00  0.00    -0.332 OA
ATOM     30  C   UNL     1     115.754 127.844 130.950  1.00  0.00     0.180 C 
ATOM     31  C   UNL     1     115.340 128.687 133.331  1.00  0.00     0.179 C 
ATOM     32  C   UNL     1     114.753 127.892 132.139  1.00  0.00     0.177 C 
BRANCH  28  33
ATOM     33  O   UNL     1     118.055 128.135 130.340  1.00  0.00    -0.384 OA
ATOM     34  H   UNL     1     117.863 128.670 129.525  1.00  0.00     0.211 HD
ENDBRANCH  28  33
BRANCH  30  35
ATOM     35  O   UNL     1     115.215 128.496 129.830  1.00  0.00    -0.387 OA
ATOM     36  H   UNL     1     115.984 128.796 129.278  1.00  0.00     0.211 HD
ENDBRANCH  30  35
BRANCH  31  37
ATOM     37  C   UNL     1     114.373 128.729 134.529  1.00  0.00     0.191 C 
BRANCH  37  38
ATOM     38  O   UNL     1     114.475 127.566 135.307  1.00  0.00    -0.394 OA
ATOM     39  H   UNL     1     114.714 126.825 134.690  1.00  0.00     0.210 HD
ENDBRANCH  37  38
ENDBRANCH  31  37
BRANCH  32  40
ATOM     40  O   UNL     1     114.447 126.582 132.549  1.00  0.00    -0.387 OA
ATOM     41  H   UNL     1     113.836 126.664 133.329  1.00  0.00     0.211 HD
ENDBRANCH  32  40
ENDBRANCH   1  27
TORSDOF 12
ENDMDL
MODEL 2
REMARK VINA RESULT:    -6.538      1.308      1.627
REMARK INTER + INTRA:         -11.334
REMARK INTER:                 -10.005
REMARK INTRA:                  -1.329
REMARK UNBOUND:                -1.739
REMARK SMILES O=c1c(O[C@@H]2O[C@H](CO)[C@H](O)[C@@H](O)[C@@H]2O)c(-c2ccc(O)c(O)c2)oc2cc(O)cc(O)c12
REMARK SMILES IDX 4 1 3 2 16 3 25 4 2 5 26 6 1 7 33 8 27 9 31 10 28 11 30 12
REMARK SMILES IDX 17 13 18 14 19 15 20 16 24 17 22 18 21 19 23 21 32 23 29 25
REMARK SMILES IDX 5 27 14 28 6 29 12 30 7 31 10 32 15 33 13 35 8 37 9 38 11 40
REMARK H PARENT 21 20 23 22 32 24 29 26 15 34 13 36 9 39 11 41
REMARK Flexibility Score: inf
ROOT
ATOM      1  O   UNL     1     117.687 126.722 131.991  1.00  0.00    -0.454 OA
ENDROOT
BRANCH   1   2
ATOM      2  C   UNL     1     118.074 125.865 133.041  1.00  0.00     0.214 A 
ATOM      3  C   UNL     1     119.452 125.737 133.313  1.00  0.00     0.180 A 
ATOM      4  O   UNL     1     119.868 124.986 134.325  1.00  0.00    -0.452 OA
ATOM      5  C   UNL     1     117.164 125.153 133.858  1.00  0.00     0.239 A 
ATOM      6  C   UNL     1     119.049 124.302 135.111  1.00  0.00     0.146 A 
ATOM      7  O   UNL     1     115.924 125.243 133.661  1.00  0.00    -0.285 OA
ATOM      8  C   UNL     1     117.652 124.347 134.909  1.00  0.00     0.111 A 
ATOM      9  C   UNL     1     119.591 123.529 136.142  1.00  0.00     0.094 A 
ATOM     10  C   UNL     1     116.810 123.595 135.764  1.00  0.00     0.134 A 
ATOM     11  C   UNL     1     118.755 122.788 136.981  1.00  0.00     0.123 A 
ATOM     12  C   UNL     1     117.371 122.823 136.792  1.00  0.00     0.093 A 
BRANCH   3  13
ATOM     13  C   UNL     1     120.475 126.435 132.505  1.00  0.00     0.025 A 
ATOM     14  C   UNL     1     121.295 127.401 133.111  1.00  0.00     0.016 A 
ATOM     15  C   UNL     1     122.284 128.051 132.371  1.00  0.00     0.051 A 
ATOM     16  C   UNL     1     122.485 127.734 131.022  1.00  0.00     0.157 A 
ATOM     17  C   UNL     1     120.691 126.103 131.157  1.00  0.00     0.062 A 
ATOM     18  C   UNL     1     121.686 126.753 130.411  1.00  0.00     0.158 A 
BRANCH  16  19
ATOM     19  O   UNL     1     123.479 128.401 130.307  1.00  0.00    -0.504 OA
ATOM     20  H   UNL     1     124.384 128.614 130.708  1.00  0.00     0.293 HD
ENDBRANCH  16  19
BRANCH  18  21
ATOM     21  O   UNL     1     121.888 126.426 129.070  1.00  0.00    -0.504 OA
ATOM     22  H   UNL     1     121.277 125.782 128.585  1.00  0.00     0.293 HD
ENDBRANCH  18  21
ENDBRANCH   3  13
BRANCH  10  23
ATOM     23  O   UNL     1     115.424 123.603 135.598  1.00  0.00    -0.507 OA
ATOM     24  H   UNL     1     114.916 124.455 135.400  1.00  0.00     0.293 HD
ENDBRANCH  10  23
BRANCH  11  25
ATOM     25  O   UNL     1     119.288 122.009 138.005  1.00  0.00    -0.508 OA
ATOM     26  H   UNL     1     120.291 121.911 138.130  1.00  0.00     0.293 HD
ENDBRANCH  11  25
ENDBRANCH   1   2
BRANCH   1  27
ATOM     27  C   UNL     1     117.681 128.149 131.988  1.00  0.00     0.339 C 
ATOM     28  C   UNL     1     116.414 128.631 131.227  1.00  0.00     0.214 C 
ATOM     29  O   UNL     1     117.809 128.613 133.333  1.00  0.00    -0.332 OA
ATOM     30  C   UNL     1     115.158 128.430 132.090  1.00  0.00     0.180 C 
ATOM     31  C   UNL     1     116.788 129.501 133.748  1.00  0.00     0.179 C 
ATOM     32  C   UNL     1     115.386 128.869 133.564  1.00  0.00     0.177 C 
BRANCH  28  33
ATOM     33  O   UNL     1     116.268 127.924 130.024  1.00  0.00    -0.384 OA
ATOM     34  H   UNL     1     115.296 127.903 129.817  1.00  0.00     0.211 HD
ENDBRANCH  28  33
BRANCH  30  35
ATOM     35  O   UNL     1     114.099 129.153 131.521  1.00  0.00    -0.387 OA
ATOM     36  H   UNL     1     114.275 130.112 131.709  1.00  0.00     0.211 HD
ENDBRANCH  30  35
BRANCH  31  37
ATOM     37  C   UNL     1     117.042 129.925 135.207  1.00  0.00     0.191 C 
BRANCH  37  38
ATOM     38  O   UNL     1     118.414 130.092 135.456  1.00  0.00    -0.394 OA
ATOM     39  H   UNL     1     118.568 129.841 136.405  1.00  0.00     0.210 HD
ENDBRANCH  37  38
ENDBRANCH  31  37
BRANCH  32  40
ATOM     40  O   UNL     1     115.254 127.756 134.412  1.00  0.00    -0.387 OA
ATOM     41  H   UNL     1     115.928 127.089 134.113  1.00  0.00     0.211 HD
ENDBRANCH  32  40
ENDBRANCH   1  27
TORSDOF 12
ENDMDL
MODEL 3
REMARK VINA RESULT:    -6.282      1.855      6.117
REMARK INTER + INTRA:         -10.959
REMARK INTER:                  -9.755
REMARK INTRA:                  -1.204
REMARK UNBOUND:                -1.739
REMARK SMILES O=c1c(O[C@@H]2O[C@H](CO)[C@H](O)[C@@H](O)[C@@H]2O)c(-c2ccc(O)c(O)c2)oc2cc(O)cc(O)c12
REMARK SMILES IDX 4 1 3 2 16 3 25 4 2 5 26 6 1 7 33 8 27 9 31 10 28 11 30 12
REMARK SMILES IDX 17 13 18 14 19 15 20 16 24 17 22 18 21 19 23 21 32 23 29 25
REMARK SMILES IDX 5 27 14 28 6 29 12 30 7 31 10 32 15 33 13 35 8 37 9 38 11 40
REMARK H PARENT 21 20 23 22 32 24 29 26 15 34 13 36 9 39 11 41
REMARK Flexibility Score: inf
ROOT
ATOM      1  O   UNL     1     118.118 126.343 134.384  1.00  0.00    -0.454 OA
ENDROOT
BRANCH   1   2
ATOM      2  C   UNL     1     117.462 127.455 133.818  1.00  0.00     0.214 A 
ATOM      3  C   UNL     1     118.042 128.052 132.679  1.00  0.00     0.180 A 
ATOM      4  O   UNL     1     117.438 129.067 132.074  1.00  0.00    -0.452 OA
ATOM      5  C   UNL     1     116.244 127.986 134.302  1.00  0.00     0.239 A 
ATOM      6  C   UNL     1     116.298 129.595 132.497  1.00  0.00     0.146 A 
ATOM      7  O   UNL     1     115.683 127.482 135.310  1.00  0.00    -0.285 OA
ATOM      8  C   UNL     1     115.648 129.082 133.641  1.00  0.00     0.111 A 
ATOM      9  C   UNL     1     115.750 130.672 131.795  1.00  0.00     0.094 A 
ATOM     10  C   UNL     1     114.436 129.678 134.067  1.00  0.00     0.134 A 
ATOM     11  C   UNL     1     114.556 131.258 132.222  1.00  0.00     0.123 A 
ATOM     12  C   UNL     1     113.902 130.761 133.352  1.00  0.00     0.093 A 
BRANCH   3  13
ATOM     13  C   UNL     1     119.319 127.571 132.110  1.00  0.00     0.025 A 
ATOM     14  C   UNL     1     119.306 126.799 130.936  1.00  0.00     0.016 A 
ATOM     15  C   UNL     1     120.504 126.358 130.370  1.00  0.00     0.051 A 
ATOM     16  C   UNL     1     121.731 126.696 130.952  1.00  0.00     0.157 A 
ATOM     17  C   UNL     1     120.552 127.927 132.683  1.00  0.00     0.062 A 
ATOM     18  C   UNL     1     121.758 127.486 132.113  1.00  0.00     0.158 A 
BRANCH  16  19
ATOM     19  O   UNL     1     122.912 126.240 130.365  1.00  0.00    -0.504 OA
ATOM     20  H   UNL     1     123.152 126.445 129.404  1.00  0.00     0.293 HD
ENDBRANCH  16  19
BRANCH  18  21
ATOM     21  O   UNL     1     122.978 127.834 132.692  1.00  0.00    -0.504 OA
ATOM     22  H   UNL     1     123.838 127.368 132.435  1.00  0.00     0.293 HD
ENDBRANCH  18  21
ENDBRANCH   3  13
BRANCH  10  23
ATOM     23  O   UNL     1     113.762 129.210 135.197  1.00  0.00    -0.507 OA
ATOM     24  H   UNL     1     114.254 128.953 136.042  1.00  0.00     0.293 HD
ENDBRANCH  10  23
BRANCH  11  25
ATOM     25  O   UNL     1     114.009 132.337 131.532  1.00  0.00    -0.508 OA
ATOM     26  H   UNL     1     113.022 132.374 131.299  1.00  0.00     0.293 HD
ENDBRANCH  11  25
ENDBRANCH   1   2
BRANCH   1  27
ATOM     27  C   UNL     1     117.834 124.961 134.170  1.00  0.00     0.339 C 
ATOM     28  C   UNL     1     119.089 124.137 134.570  1.00  0.00     0.214 C 
ATOM     29  O   UNL     1     116.628 124.627 134.858  1.00  0.00    -0.332 OA
ATOM     30  C   UNL     1     119.228 124.075 136.100  1.00  0.00     0.180 C 
ATOM     31  C   UNL     1     116.748 123.542 135.760  1.00  0.00     0.179 C 
ATOM     32  C   UNL     1     117.867 123.796 136.799  1.00  0.00     0.177 C 
BRANCH  28  33
ATOM     33  O   UNL     1     120.246 124.711 134.023  1.00  0.00    -0.384 OA
ATOM     34  H   UNL     1     120.349 125.608 134.436  1.00  0.00     0.211 HD
ENDBRANCH  28  33
BRANCH  30  35
ATOM     35  O   UNL     1     120.161 123.079 136.428  1.00  0.00    -0.387 OA
ATOM     36  H   UNL     1     121.060 123.467 136.268  1.00  0.00     0.211 HD
ENDBRANCH  30  35
BRANCH  31  37
ATOM     37  C   UNL     1     115.386 123.284 136.431  1.00  0.00     0.191 C 
BRANCH  37  38
ATOM     38  O   UNL     1     115.084 121.914 136.462  1.00  0.00    -0.394 OA
ATOM     39  H   UNL     1     115.839 121.441 136.020  1.00  0.00     0.210 HD
ENDBRANCH  37  38
ENDBRANCH  31  37
BRANCH  32  40
ATOM     40  O   UNL     1     117.522 124.893 137.608  1.00  0.00    -0.387 OA
ATOM     41  H   UNL     1     117.215 125.613 136.994  1.00  0.00     0.211 HD
ENDBRANCH  32  40
ENDBRANCH   1  27
TORSDOF 12
ENDMDL
MODEL 4
REMARK VINA RESULT:    -6.249      2.741      7.444
REMARK INTER + INTRA:         -10.911
REMARK INTER:                 -10.178
REMARK INTRA:                  -0.733
REMARK UNBOUND:                -1.739
REMARK SMILES O=c1c(O[C@@H]2O[C@H](CO)[C@H](O)[C@@H](O)[C@@H]2O)c(-c2ccc(O)c(O)c2)oc2cc(O)cc(O)c12
REMARK SMILES IDX 4 1 3 2 16 3 25 4 2 5 26 6 1 7 33 8 27 9 31 10 28 11 30 12
REMARK SMILES IDX 17 13 18 14 19 15 20 16 24 17 22 18 21 19 23 21 32 23 29 25
REMARK SMILES IDX 5 27 14 28 6 29 12 30 7 31 10 32 15 33 13 35 8 37 9 38 11 40
REMARK H PARENT 21 20 23 22 32 24 29 26 15 34 13 36 9 39 11 41
REMARK Flexibility Score: inf
ROOT
ATOM      1  O   UNL     1     121.186 127.119 134.471  1.00  0.00    -0.454 OA
ENDROOT
BRANCH   1   2
ATOM      2  C   UNL     1     121.342 127.052 133.072  1.00  0.00     0.214 A 
ATOM      3  C   UNL     1     120.488 126.189 132.353  1.00  0.00     0.180 A 
ATOM      4  O   UNL     1     120.556 126.128 131.029  1.00  0.00    -0.452 OA
ATOM      5  C   UNL     1     122.279 127.822 132.342  1.00  0.00     0.239 A 
ATOM      6  C   UNL     1     121.420 126.830 130.310  1.00  0.00     0.146 A 
ATOM      7  O   UNL     1     123.056 128.613 132.937  1.00  0.00    -0.285 OA
ATOM      8  C   UNL     1     122.332 127.708 130.936  1.00  0.00     0.111 A 
ATOM      9  C   UNL     1     121.419 126.684 128.920  1.00  0.00     0.094 A 
ATOM     10  C   UNL     1     123.247 128.435 130.134  1.00  0.00     0.134 A 
ATOM     11  C   UNL     1     122.325 127.401 128.135  1.00  0.00     0.123 A 
ATOM     12  C   UNL     1     123.232 128.273 128.741  1.00  0.00     0.093 A 
BRANCH   3  13
ATOM     13  C   UNL     1     119.487 125.339 133.033  1.00  0.00     0.025 A 
ATOM     14  C   UNL     1     119.829 124.027 133.401  1.00  0.00     0.016 A 
ATOM     15  C   UNL     1     118.907 123.218 134.067  1.00  0.00     0.051 A 
ATOM     16  C   UNL     1     117.637 123.711 134.394  1.00  0.00     0.157 A 
ATOM     17  C   UNL     1     118.220 125.839 133.379  1.00  0.00     0.062 A 
ATOM     18  C   UNL     1     117.291 125.029 134.050  1.00  0.00     0.158 A 
BRANCH  16  19
ATOM     19  O   UNL     1     116.735 122.880 135.058  1.00  0.00    -0.504 OA
ATOM     20  H   UNL     1     115.823 123.201 135.356  1.00  0.00     0.293 HD
ENDBRANCH  16  19
BRANCH  18  21
ATOM     21  O   UNL     1     116.032 125.528 134.381  1.00  0.00    -0.504 OA
ATOM     22  H   UNL     1     115.185 125.026 134.146  1.00  0.00     0.293 HD
ENDBRANCH  18  21
ENDBRANCH   3  13
BRANCH  10  23
ATOM     23  O   UNL     1     124.171 129.308 130.709  1.00  0.00    -0.507 OA
ATOM     24  H   UNL     1     125.082 129.466 130.299  1.00  0.00     0.293 HD
ENDBRANCH  10  23
BRANCH  11  25
ATOM     25  O   UNL     1     122.335 127.253 126.750  1.00  0.00    -0.508 OA
ATOM     26  H   UNL     1     122.161 128.038 126.131  1.00  0.00     0.293 HD
ENDBRANCH  11  25
ENDBRANCH   1   2
BRANCH   1  27
ATOM     27  C   UNL     1     121.327 128.264 135.310  1.00  0.00     0.339 C 
ATOM     28  C   UNL     1     119.964 129.008 135.356  1.00  0.00     0.214 C 
ATOM     29  O   UNL     1     121.849 127.848 136.573  1.00  0.00    -0.332 OA
ATOM     30  C   UNL     1     118.962 128.241 136.235  1.00  0.00     0.180 C 
ATOM     31  C   UNL     1     121.069 128.238 137.688  1.00  0.00     0.179 C 
ATOM     32  C   UNL     1     119.610 127.736 137.555  1.00  0.00     0.177 C 
BRANCH  28  33
ATOM     33  O   UNL     1     119.436 129.143 134.063  1.00  0.00    -0.384 OA
ATOM     34  H   UNL     1     120.175 129.463 133.481  1.00  0.00     0.211 HD
ENDBRANCH  28  33
BRANCH  30  35
ATOM     35  O   UNL     1     117.872 129.080 136.514  1.00  0.00    -0.387 OA
ATOM     36  H   UNL     1     117.864 129.780 135.811  1.00  0.00     0.211 HD
ENDBRANCH  30  35
BRANCH  31  37
ATOM     37  C   UNL     1     121.737 127.732 138.980  1.00  0.00     0.191 C 
BRANCH  37  38
ATOM     38  O   UNL     1     123.137 127.752 138.871  1.00  0.00    -0.394 OA
ATOM     39  H   UNL     1     123.436 128.659 139.146  1.00  0.00     0.210 HD
ENDBRANCH  37  38
ENDBRANCH  31  37
BRANCH  32  40
ATOM     40  O   UNL     1     119.589 126.331 137.581  1.00  0.00    -0.387 OA
ATOM     41  H   UNL     1     118.797 126.069 138.122  1.00  0.00     0.211 HD
ENDBRANCH  32  40
ENDBRANCH   1  27
TORSDOF 12
ENDMDL
MODEL 5
REMARK VINA RESULT:    -6.208      1.853      2.968
REMARK INTER + INTRA:         -10.850
REMARK INTER:                  -9.742
REMARK INTRA:                  -1.108
REMARK UNBOUND:                -1.739
REMARK SMILES O=c1c(O[C@@H]2O[C@H](CO)[C@H](O)[C@@H](O)[C@@H]2O)c(-c2ccc(O)c(O)c2)oc2cc(O)cc(O)c12
REMARK SMILES IDX 4 1 3 2 16 3 25 4 2 5 26 6 1 7 33 8 27 9 31 10 28 11 30 12
REMARK SMILES IDX 17 13 18 14 19 15 20 16 24 17 22 18 21 19 23 21 32 23 29 25
REMARK SMILES IDX 5 27 14 28 6 29 12 30 7 31 10 32 15 33 13 35 8 37 9 38 11 40
REMARK H PARENT 21 20 23 22 32 24 29 26 15 34 13 36 9 39 11 41
REMARK Flexibility Score: inf
ROOT
ATOM      1  O   UNL     1     117.459 127.740 133.900  1.00  0.00    -0.454 OA
ENDROOT
BRANCH   1   2
ATOM      2  C   UNL     1     117.914 126.642 134.657  1.00  0.00     0.214 A 
ATOM      3  C   UNL     1     119.031 125.927 134.176  1.00  0.00     0.180 A 
ATOM      4  O   UNL     1     119.535 124.919 134.877  1.00  0.00    -0.452 OA
ATOM      5  C   UNL     1     117.341 126.235 135.885  1.00  0.00     0.239 A 
ATOM      6  C   UNL     1     119.026 124.505 136.029  1.00  0.00     0.146 A 
ATOM      7  O   UNL     1     116.349 126.846 136.360  1.00  0.00    -0.285 OA
ATOM      8  C   UNL     1     117.895 125.142 136.586  1.00  0.00     0.111 A 
ATOM      9  C   UNL     1     119.624 123.424 136.683  1.00  0.00     0.094 A 
ATOM     10  C   UNL     1     117.374 124.665 137.814  1.00  0.00     0.134 A 
ATOM     11  C   UNL     1     119.104 122.958 137.893  1.00  0.00     0.123 A 
ATOM     12  C   UNL     1     117.986 123.577 138.455  1.00  0.00     0.093 A 
BRANCH   3  13
ATOM     13  C   UNL     1     119.688 126.275 132.898  1.00  0.00     0.025 A 
ATOM     14  C   UNL     1     119.026 126.012 131.686  1.00  0.00     0.016 A 
ATOM     15  C   UNL     1     119.619 126.357 130.470  1.00  0.00     0.051 A 
ATOM     16  C   UNL     1     120.869 126.987 130.443  1.00  0.00     0.157 A 
ATOM     17  C   UNL     1     120.934 126.925 132.871  1.00  0.00     0.062 A 
ATOM     18  C   UNL     1     121.531 127.275 131.649  1.00  0.00     0.158 A 
BRANCH  16  19
ATOM     19  O   UNL     1     121.438 127.318 129.214  1.00  0.00    -0.504 OA
ATOM     20  H   UNL     1     121.303 126.753 128.385  1.00  0.00     0.293 HD
ENDBRANCH  16  19
BRANCH  18  21
ATOM     21  O   UNL     1     122.772 127.910 131.629  1.00  0.00    -0.504 OA
ATOM     22  H   UNL     1     122.929 128.780 132.122  1.00  0.00     0.293 HD
ENDBRANCH  18  21
ENDBRANCH   3  13
BRANCH  10  23
ATOM     23  O   UNL     1     116.253 125.257 138.398  1.00  0.00    -0.507 OA
ATOM     24  H   UNL     1     116.243 125.535 139.371  1.00  0.00     0.293 HD
ENDBRANCH  10  23
BRANCH  11  25
ATOM     25  O   UNL     1     119.690 121.875 138.545  1.00  0.00    -0.508 OA
ATOM     26  H   UNL     1     120.679 121.865 138.773  1.00  0.00     0.293 HD
ENDBRANCH  11  25
ENDBRANCH   1   2
BRANCH   1  27
ATOM     27  C   UNL     1     116.135 128.270 133.842  1.00  0.00     0.339 C 
ATOM     28  C   UNL     1     116.165 129.719 134.401  1.00  0.00     0.214 C 
ATOM     29  O   UNL     1     115.640 128.129 132.510  1.00  0.00    -0.332 OA
ATOM     30  C   UNL     1     116.805 130.676 133.381  1.00  0.00     0.180 C 
ATOM     31  C   UNL     1     115.187 129.334 131.921  1.00  0.00     0.179 C 
ATOM     32  C   UNL     1     116.294 130.417 131.936  1.00  0.00     0.177 C 
BRANCH  28  33
ATOM     33  O   UNL     1     116.891 129.767 135.600  1.00  0.00    -0.384 OA
ATOM     34  H   UNL     1     116.917 130.719 135.885  1.00  0.00     0.211 HD
ENDBRANCH  28  33
BRANCH  30  35
ATOM     35  O   UNL     1     116.531 131.997 133.768  1.00  0.00    -0.387 OA
ATOM     36  H   UNL     1     115.554 132.130 133.656  1.00  0.00     0.211 HD
ENDBRANCH  30  35
BRANCH  31  37
ATOM     37  C   UNL     1     114.681 129.046 130.495  1.00  0.00     0.191 C 
BRANCH  37  38
ATOM     38  O   UNL     1     115.589 128.244 129.785  1.00  0.00    -0.394 OA
ATOM     39  H   UNL     1     115.115 127.917 128.976  1.00  0.00     0.210 HD
ENDBRANCH  37  38
ENDBRANCH  31  37
BRANCH  32  40
ATOM     40  O   UNL     1     117.367 130.007 131.125  1.00  0.00    -0.387 OA
ATOM     41  H   UNL     1     118.160 129.928 131.721  1.00  0.00     0.211 HD
ENDBRANCH  32  40
ENDBRANCH   1  27
TORSDOF 12
ENDMDL
MODEL 6
REMARK VINA RESULT:    -6.159      2.635      6.969
REMARK INTER + INTRA:         -10.778
REMARK INTER:                  -9.233
REMARK INTRA:                  -1.545
REMARK UNBOUND:                -1.739
REMARK SMILES O=c1c(O[C@@H]2O[C@H](CO)[C@H](O)[C@@H](O)[C@@H]2O)c(-c2ccc(O)c(O)c2)oc2cc(O)cc(O)c12
REMARK SMILES IDX 4 1 3 2 16 3 25 4 2 5 26 6 1 7 33 8 27 9 31 10 28 11 30 12
REMARK SMILES IDX 17 13 18 14 19 15 20 16 24 17 22 18 21 19 23 21 32 23 29 25
REMARK SMILES IDX 5 27 14 28 6 29 12 30 7 31 10 32 15 33 13 35 8 37 9 38 11 40
REMARK H PARENT 21 20 23 22 32 24 29 26 15 34 13 36 9 39 11 41
REMARK Flexibility Score: inf
ROOT
ATOM      1  O   UNL     1     118.061 128.352 134.839  1.00  0.00    -0.454 OA
ENDROOT
BRANCH   1   2
ATOM      2  C   UNL     1     117.250 128.486 133.694  1.00  0.00     0.214 A 
ATOM      3  C   UNL     1     117.321 127.474 132.714  1.00  0.00     0.180 A 
ATOM      4  O   UNL     1     116.540 127.523 131.642  1.00  0.00    -0.452 OA
ATOM      5  C   UNL     1     116.347 129.555 133.484  1.00  0.00     0.239 A 
ATOM      6  C   UNL     1     115.683 128.507 131.407  1.00  0.00     0.146 A 
ATOM      7  O   UNL     1     116.240 130.477 134.334  1.00  0.00    -0.285 OA
ATOM      8  C   UNL     1     115.552 129.578 132.318  1.00  0.00     0.111 A 
ATOM      9  C   UNL     1     114.915 128.470 130.241  1.00  0.00     0.094 A 
ATOM     10  C   UNL     1     114.632 130.616 132.028  1.00  0.00     0.134 A 
ATOM     11  C   UNL     1     114.011 129.498 129.959  1.00  0.00     0.123 A 
ATOM     12  C   UNL     1     113.871 130.564 130.851  1.00  0.00     0.093 A 
BRANCH   3  13
ATOM     13  C   UNL     1     118.244 126.326 132.843  1.00  0.00     0.025 A 
ATOM     14  C   UNL     1     117.793 125.142 133.451  1.00  0.00     0.016 A 
ATOM     15  C   UNL     1     118.641 124.038 133.559  1.00  0.00     0.051 A 
ATOM     16  C   UNL     1     119.943 124.090 133.045  1.00  0.00     0.157 A 
ATOM     17  C   UNL     1     119.543 126.370 132.310  1.00  0.00     0.062 A 
ATOM     18  C   UNL     1     120.397 125.261 132.415  1.00  0.00     0.158 A 
BRANCH  16  19
ATOM     19  O   UNL     1     120.769 122.973 133.169  1.00  0.00    -0.504 OA
ATOM     20  H   UNL     1     120.497 122.155 133.699  1.00  0.00     0.293 HD
ENDBRANCH  16  19
BRANCH  18  21
ATOM     21  O   UNL     1     121.689 125.316 131.894  1.00  0.00    -0.504 OA
ATOM     22  H   UNL     1     122.065 124.564 131.330  1.00  0.00     0.293 HD
ENDBRANCH  18  21
ENDBRANCH   3  13
BRANCH  10  23
ATOM     23  O   UNL     1     114.473 131.699 132.895  1.00  0.00    -0.507 OA
ATOM     24  H   UNL     1     113.590 131.895 133.346  1.00  0.00     0.293 HD
ENDBRANCH  10  23
BRANCH  11  25
ATOM     25  O   UNL     1     113.249 129.472 128.794  1.00  0.00    -0.508 OA
ATOM     26  H   UNL     1     112.331 129.902 128.751  1.00  0.00     0.293 HD
ENDBRANCH  11  25
ENDBRANCH   1   2
BRANCH   1  27
ATOM     27  C   UNL     1     119.061 129.254 135.308  1.00  0.00     0.339 C 
ATOM     28  C   UNL     1     119.243 129.031 136.835  1.00  0.00     0.214 C 
ATOM     29  O   UNL     1     120.237 129.092 134.515  1.00  0.00    -0.332 OA
ATOM     30  C   UNL     1     120.013 127.727 137.101  1.00  0.00     0.180 C 
ATOM     31  C   UNL     1     121.412 128.814 135.254  1.00  0.00     0.179 C 
ATOM     32  C   UNL     1     121.230 127.562 136.148  1.00  0.00     0.177 C 
BRANCH  28  33
ATOM     33  O   UNL     1     117.995 128.971 137.473  1.00  0.00    -0.384 OA
ATOM     34  H   UNL     1     117.438 129.700 137.091  1.00  0.00     0.211 HD
ENDBRANCH  28  33
BRANCH  30  35
ATOM     35  O   UNL     1     120.434 127.717 138.440  1.00  0.00    -0.387 OA
ATOM     36  H   UNL     1     121.341 127.314 138.450  1.00  0.00     0.211 HD
ENDBRANCH  30  35
BRANCH  31  37
ATOM     37  C   UNL     1     122.601 128.663 134.287  1.00  0.00     0.191 C 
BRANCH  37  38
ATOM     38  O   UNL     1     122.179 128.200 133.031  1.00  0.00    -0.394 OA
ATOM     39  H   UNL     1     122.352 127.222 133.010  1.00  0.00     0.210 HD
ENDBRANCH  37  38
ENDBRANCH  31  37
BRANCH  32  40
ATOM     40  O   UNL     1     121.043 126.427 135.340  1.00  0.00    -0.387 OA
ATOM     41  H   UNL     1     121.863 126.335 134.785  1.00  0.00     0.211 HD
ENDBRANCH  32  40
ENDBRANCH   1  27
TORSDOF 12
ENDMDL
MODEL 7
REMARK VINA RESULT:    -6.071      2.009      7.032
REMARK INTER + INTRA:         -10.649
REMARK INTER:                  -9.026
REMARK INTRA:                  -1.623
REMARK UNBOUND:                -1.739
REMARK SMILES O=c1c(O[C@@H]2O[C@H](CO)[C@H](O)[C@@H](O)[C@@H]2O)c(-c2ccc(O)c(O)c2)oc2cc(O)cc(O)c12
REMARK SMILES IDX 4 1 3 2 16 3 25 4 2 5 26 6 1 7 33 8 27 9 31 10 28 11 30 12
REMARK SMILES IDX 17 13 18 14 19 15 20 16 24 17 22 18 21 19 23 21 32 23 29 25
REMARK SMILES IDX 5 27 14 28 6 29 12 30 7 31 10 32 15 33 13 35 8 37 9 38 11 40
REMARK H PARENT 21 20 23 22 32 24 29 26 15 34 13 36 9 39 11 41
REMARK Flexibility Score: inf
ROOT
ATOM      1  O   UNL     1     118.311 125.735 133.518  1.00  0.00    -0.454 OA
ENDROOT
BRANCH   1   2
ATOM      2  C   UNL     1     117.387 126.778 133.726  1.00  0.00     0.214 A 
ATOM      3  C   UNL     1     116.581 126.723 134.883  1.00  0.00     0.180 A 
ATOM      4  O   UNL     1     115.732 127.706 135.155  1.00  0.00    -0.452 OA
ATOM      5  C   UNL     1     117.241 127.890 132.864  1.00  0.00     0.239 A 
ATOM      6  C   UNL     1     115.564 128.763 134.374  1.00  0.00     0.146 A 
ATOM      7  O   UNL     1     117.944 127.989 131.825  1.00  0.00    -0.285 OA
ATOM      8  C   UNL     1     116.309 128.902 133.182  1.00  0.00     0.111 A 
ATOM      9  C   UNL     1     114.634 129.738 134.745  1.00  0.00     0.094 A 
ATOM     10  C   UNL     1     116.095 130.042 132.367  1.00  0.00     0.134 A 
ATOM     11  C   UNL     1     114.427 130.859 133.937  1.00  0.00     0.123 A 
ATOM     12  C   UNL     1     115.155 131.009 132.755  1.00  0.00     0.093 A 
BRANCH   3  13
ATOM     13  C   UNL     1     116.657 125.593 135.834  1.00  0.00     0.025 A 
ATOM     14  C   UNL     1     117.370 125.747 137.035  1.00  0.00     0.016 A 
ATOM     15  C   UNL     1     117.430 124.701 137.957  1.00  0.00     0.051 A 
ATOM     16  C   UNL     1     116.766 123.494 137.707  1.00  0.00     0.157 A 
ATOM     17  C   UNL     1     115.973 124.390 135.592  1.00  0.00     0.062 A 
ATOM     18  C   UNL     1     116.031 123.337 136.519  1.00  0.00     0.158 A 
BRANCH  16  19
ATOM     19  O   UNL     1     116.845 122.466 138.645  1.00  0.00    -0.504 OA
ATOM     20  H   UNL     1     117.381 121.623 138.480  1.00  0.00     0.293 HD
ENDBRANCH  16  19
BRANCH  18  21
ATOM     21  O   UNL     1     115.359 122.141 136.269  1.00  0.00    -0.504 OA
ATOM     22  H   UNL     1     115.549 121.304 136.806  1.00  0.00     0.293 HD
ENDBRANCH  18  21
ENDBRANCH   3  13
BRANCH  10  23
ATOM     23  O   UNL     1     116.802 130.218 131.177  1.00  0.00    -0.507 OA
ATOM     24  H   UNL     1     117.293 129.454 130.731  1.00  0.00     0.293 HD
ENDBRANCH  10  23
BRANCH  11  25
ATOM     25  O   UNL     1     113.495 131.829 134.297  1.00  0.00    -0.508 OA
ATOM     26  H   UNL     1     113.419 132.706 133.791  1.00  0.00     0.293 HD
ENDBRANCH  11  25
ENDBRANCH   1   2
BRANCH   1  27
ATOM     27  C   UNL     1     119.545 125.514 134.200  1.00  0.00     0.339 C 
ATOM     28  C   UNL     1     120.566 124.928 133.186  1.00  0.00     0.214 C 
ATOM     29  O   UNL     1     119.937 126.727 134.844  1.00  0.00    -0.332 OA
ATOM     30  C   UNL     1     121.063 126.024 132.229  1.00  0.00     0.180 C 
ATOM     31  C   UNL     1     121.236 127.178 134.507  1.00  0.00     0.179 C 
ATOM     32  C   UNL     1     121.390 127.348 132.975  1.00  0.00     0.177 C 
BRANCH  28  33
ATOM     33  O   UNL     1     119.979 123.894 132.442  1.00  0.00    -0.384 OA
ATOM     34  H   UNL     1     119.222 124.294 131.937  1.00  0.00     0.211 HD
ENDBRANCH  28  33
BRANCH  30  35
ATOM     35  O   UNL     1     122.197 125.550 131.551  1.00  0.00    -0.387 OA
ATOM     36  H   UNL     1     122.595 126.330 131.083  1.00  0.00     0.211 HD
ENDBRANCH  30  35
BRANCH  31  37
ATOM     37  C   UNL     1     121.536 128.484 135.265  1.00  0.00     0.191 C 
BRANCH  37  38
ATOM     38  O   UNL     1     120.522 129.434 135.064  1.00  0.00    -0.394 OA
ATOM     39  H   UNL     1     120.867 130.303 135.399  1.00  0.00     0.210 HD
ENDBRANCH  37  38
ENDBRANCH  31  37
BRANCH  32  40
ATOM     40  O   UNL     1     120.533 128.366 132.524  1.00  0.00    -0.387 OA
ATOM     41  H   UNL     1     120.843 129.209 132.949  1.00  0.00     0.211 HD
ENDBRANCH  32  40
ENDBRANCH   1  27
TORSDOF 12
ENDMDL
MODEL 8
REMARK VINA RESULT:    -5.978      1.680      5.312
REMARK INTER + INTRA:         -10.512
REMARK INTER:                  -9.877
REMARK INTRA:                  -0.636
REMARK UNBOUND:                -1.739
REMARK SMILES O=c1c(O[C@@H]2O[C@H](CO)[C@H](O)[C@@H](O)[C@@H]2O)c(-c2ccc(O)c(O)c2)oc2cc(O)cc(O)c12
REMARK SMILES IDX 4 1 3 2 16 3 25 4 2 5 26 6 1 7 33 8 27 9 31 10 28 11 30 12
REMARK SMILES IDX 17 13 18 14 19 15 20 16 24 17 22 18 21 19 23 21 32 23 29 25
REMARK SMILES IDX 5 27 14 28 6 29 12 30 7 31 10 32 15 33 13 35 8 37 9 38 11 40
REMARK H PARENT 21 20 23 22 32 24 29 26 15 34 13 36 9 39 11 41
REMARK Flexibility Score: inf
ROOT
ATOM      1  O   UNL     1     119.215 126.320 134.023  1.00  0.00    -0.454 OA
ENDROOT
BRANCH   1   2
ATOM      2  C   UNL     1     118.198 125.594 134.673  1.00  0.00     0.214 A 
ATOM      3  C   UNL     1     116.860 125.973 134.433  1.00  0.00     0.180 A 
ATOM      4  O   UNL     1     115.861 125.289 134.977  1.00  0.00    -0.452 OA
ATOM      5  C   UNL     1     118.434 124.489 135.525  1.00  0.00     0.239 A 
ATOM      6  C   UNL     1     116.041 124.251 135.781  1.00  0.00     0.146 A 
ATOM      7  O   UNL     1     119.609 124.107 135.763  1.00  0.00    -0.285 OA
ATOM      8  C   UNL     1     117.342 123.805 136.101  1.00  0.00     0.111 A 
ATOM      9  C   UNL     1     114.920 123.606 136.313  1.00  0.00     0.094 A 
ATOM     10  C   UNL     1     117.493 122.698 136.972  1.00  0.00     0.134 A 
ATOM     11  C   UNL     1     115.076 122.516 137.173  1.00  0.00     0.123 A 
ATOM     12  C   UNL     1     116.357 122.065 137.499  1.00  0.00     0.093 A 
BRANCH   3  13
ATOM     13  C   UNL     1     116.519 127.121 133.566  1.00  0.00     0.025 A 
ATOM     14  C   UNL     1     116.400 128.402 134.130  1.00  0.00     0.016 A 
ATOM     15  C   UNL     1     116.105 129.503 133.323  1.00  0.00     0.051 A 
ATOM     16  C   UNL     1     115.943 129.347 131.941  1.00  0.00     0.157 A 
ATOM     17  C   UNL     1     116.376 126.969 132.176  1.00  0.00     0.062 A 
ATOM     18  C   UNL     1     116.081 128.074 131.363  1.00  0.00     0.158 A 
BRANCH  16  19
ATOM     19  O   UNL     1     115.646 130.464 131.160  1.00  0.00    -0.504 OA
ATOM     20  H   UNL     1     114.696 130.724 130.927  1.00  0.00     0.293 HD
ENDBRANCH  16  19
BRANCH  18  21
ATOM     21  O   UNL     1     115.931 127.914 129.985  1.00  0.00    -0.504 OA
ATOM     22  H   UNL     1     116.596 128.306 129.331  1.00  0.00     0.293 HD
ENDBRANCH  18  21
ENDBRANCH   3  13
BRANCH  10  23
ATOM     23  O   UNL     1     118.760 122.226 137.323  1.00  0.00    -0.507 OA
ATOM     24  H   UNL     1     119.573 122.407 136.749  1.00  0.00     0.293 HD
ENDBRANCH  10  23
BRANCH  11  25
ATOM     25  O   UNL     1     113.964 121.875 137.714  1.00  0.00    -0.508 OA
ATOM     26  H   UNL     1     113.098 122.374 137.891  1.00  0.00     0.293 HD
ENDBRANCH  11  25
ENDBRANCH   1   2
BRANCH   1  27
ATOM     27  C   UNL     1     120.606 126.009 133.964  1.00  0.00     0.339 C 
ATOM     28  C   UNL     1     121.038 125.984 132.472  1.00  0.00     0.214 C 
ATOM     29  O   UNL     1     121.318 126.922 134.800  1.00  0.00    -0.332 OA
ATOM     30  C   UNL     1     121.132 127.414 131.914  1.00  0.00     0.180 C 
ATOM     31  C   UNL     1     122.362 127.624 134.149  1.00  0.00     0.179 C 
ATOM     32  C   UNL     1     121.837 128.382 132.905  1.00  0.00     0.177 C 
BRANCH  28  33
ATOM     33  O   UNL     1     120.120 125.249 131.708  1.00  0.00    -0.384 OA
ATOM     34  H   UNL     1     120.344 124.288 131.831  1.00  0.00     0.211 HD
ENDBRANCH  28  33
BRANCH  30  35
ATOM     35  O   UNL     1     121.820 127.377 130.691  1.00  0.00    -0.387 OA
ATOM     36  H   UNL     1     122.788 127.351 130.909  1.00  0.00     0.211 HD
ENDBRANCH  30  35
BRANCH  31  37
ATOM     37  C   UNL     1     123.046 128.568 135.154  1.00  0.00     0.191 C 
BRANCH  37  38
ATOM     38  O   UNL     1     124.425 128.663 134.907  1.00  0.00    -0.394 OA
ATOM     39  H   UNL     1     124.858 128.902 135.768  1.00  0.00     0.210 HD
ENDBRANCH  37  38
ENDBRANCH  31  37
BRANCH  32  40
ATOM     40  O   UNL     1     120.935 129.382 133.307  1.00  0.00    -0.387 OA
ATOM     41  H   UNL     1     120.437 129.660 132.492  1.00  0.00     0.211 HD
ENDBRANCH  32  40
ENDBRANCH   1  27
TORSDOF 12
ENDMDL
MODEL 9
REMARK VINA RESULT:    -5.746      2.885      6.823
REMARK INTER + INTRA:         -10.172
REMARK INTER:                  -9.048
REMARK INTRA:                  -1.124
REMARK UNBOUND:                -1.739
REMARK SMILES O=c1c(O[C@@H]2O[C@H](CO)[C@H](O)[C@@H](O)[C@@H]2O)c(-c2ccc(O)c(O)c2)oc2cc(O)cc(O)c12
REMARK SMILES IDX 4 1 3 2 16 3 25 4 2 5 26 6 1 7 33 8 27 9 31 10 28 11 30 12
REMARK SMILES IDX 17 13 18 14 19 15 20 16 24 17 22 18 21 19 23 21 32 23 29 25
REMARK SMILES IDX 5 27 14 28 6 29 12 30 7 31 10 32 15 33 13 35 8 37 9 38 11 40
REMARK H PARENT 21 20 23 22 32 24 29 26 15 34 13 36 9 39 11 41
REMARK Flexibility Score: inf
ROOT
ATOM      1  O   UNL     1     118.243 128.105 133.090  1.00  0.00    -0.454 OA
ENDROOT
BRANCH   1   2
ATOM      2  C   UNL     1     117.304 129.125 133.345  1.00  0.00     0.214 A 
ATOM      3  C   UNL     1     117.297 129.708 134.630  1.00  0.00     0.180 A 
ATOM      4  O   UNL     1     116.470 130.708 134.907  1.00  0.00    -0.452 OA
ATOM      5  C   UNL     1     116.393 129.621 132.383  1.00  0.00     0.239 A 
ATOM      6  C   UNL     1     115.601 131.200 134.035  1.00  0.00     0.146 A 
ATOM      7  O   UNL     1     116.367 129.140 131.220  1.00  0.00    -0.285 OA
ATOM      8  C   UNL     1     115.516 130.671 132.729  1.00  0.00     0.111 A 
ATOM      9  C   UNL     1     114.766 132.248 134.432  1.00  0.00     0.094 A 
ATOM     10  C   UNL     1     114.567 131.217 131.828  1.00  0.00     0.134 A 
ATOM     11  C   UNL     1     113.831 132.780 133.540  1.00  0.00     0.123 A 
ATOM     12  C   UNL     1     113.735 132.267 132.244  1.00  0.00     0.093 A 
BRANCH   3  13
ATOM     13  C   UNL     1     118.205 129.246 135.701  1.00  0.00     0.025 A 
ATOM     14  C   UNL     1     117.734 129.168 137.022  1.00  0.00     0.016 A 
ATOM     15  C   UNL     1     118.568 128.709 138.043  1.00  0.00     0.051 A 
ATOM     16  C   UNL     1     119.878 128.303 137.760  1.00  0.00     0.157 A 
ATOM     17  C   UNL     1     119.513 128.819 135.415  1.00  0.00     0.062 A 
ATOM     18  C   UNL     1     120.354 128.355 136.439  1.00  0.00     0.158 A 
BRANCH  16  19
ATOM     19  O   UNL     1     120.690 127.851 138.800  1.00  0.00    -0.504 OA
ATOM     20  H   UNL     1     120.310 127.503 139.671  1.00  0.00     0.293 HD
ENDBRANCH  16  19
BRANCH  18  21
ATOM     21  O   UNL     1     121.654 127.942 136.149  1.00  0.00    -0.504 OA
ATOM     22  H   UNL     1     122.433 128.186 136.747  1.00  0.00     0.293 HD
ENDBRANCH  18  21
ENDBRANCH   3  13
BRANCH  10  23
ATOM     23  O   UNL     1     114.441 130.722 130.529  1.00  0.00    -0.507 OA
ATOM     24  H   UNL     1     115.058 131.017 129.784  1.00  0.00     0.293 HD
ENDBRANCH  10  23
BRANCH  11  25
ATOM     25  O   UNL     1     112.989 133.818 133.931  1.00  0.00    -0.508 OA
ATOM     26  H   UNL     1     112.020 133.857 133.632  1.00  0.00     0.293 HD
ENDBRANCH  11  25
ENDBRANCH   1   2
BRANCH   1  27
ATOM     27  C   UNL     1     118.006 126.834 132.485  1.00  0.00     0.339 C 
ATOM     28  C   UNL     1     118.955 126.691 131.263  1.00  0.00     0.214 C 
ATOM     29  O   UNL     1     118.124 125.820 133.484  1.00  0.00    -0.332 OA
ATOM     30  C   UNL     1     120.396 126.423 131.728  1.00  0.00     0.180 C 
ATOM     31  C   UNL     1     119.049 124.795 133.173  1.00  0.00     0.179 C 
ATOM     32  C   UNL     1     120.454 125.376 132.877  1.00  0.00     0.177 C 
BRANCH  28  33
ATOM     33  O   UNL     1     118.929 127.857 130.484  1.00  0.00    -0.384 OA
ATOM     34  H   UNL     1     119.849 128.233 130.494  1.00  0.00     0.211 HD
ENDBRANCH  28  33
BRANCH  30  35
ATOM     35  O   UNL     1     121.151 125.986 130.629  1.00  0.00    -0.387 OA
ATOM     36  H   UNL     1     121.972 125.567 130.996  1.00  0.00     0.211 HD
ENDBRANCH  30  35
BRANCH  31  37
ATOM     37  C   UNL     1     119.080 123.770 134.323  1.00  0.00     0.191 C 
BRANCH  37  38
ATOM     38  O   UNL     1     120.394 123.365 134.609  1.00  0.00    -0.394 OA
ATOM     39  H   UNL     1     120.331 122.613 135.255  1.00  0.00     0.210 HD
ENDBRANCH  37  38
ENDBRANCH  31  37
BRANCH  32  40
ATOM     40  O   UNL     1     120.970 125.980 134.037  1.00  0.00    -0.387 OA
ATOM     41  H   UNL     1     120.193 126.361 134.528  1.00  0.00     0.211 HD
ENDBRANCH  32  40
ENDBRANCH   1  27
TORSDOF 12
ENDMDL
