MODEL 1
REMARK VINA RESULT:    -2.444      0.000      0.000
REMARK INTER + INTRA:          -2.444
REMARK INTER:                  -2.444
REMARK INTRA:                   0.000
REMARK UNBOUND:                 0.000
REMARK SMILES CC(=O)[O-]
REMARK SMILES IDX 1 1 2 2 3 3 4 4
REMARK H PARENT
REMARK Flexibility Score: inf
ROOT
ATOM      1  C   UNL     1      14.958  19.373  10.709  1.00  0.00     0.063 C 
ATOM      2  C   UNL     1      13.658  19.158  11.408  1.00  0.00     0.038 C 
ATOM      3  O   UNL     1      13.001  20.143  11.836  1.00  0.00    -0.550 OA
ATOM      4  O   UNL     1      13.144  17.875  11.541  1.00  0.00    -0.550 OA
ENDROOT
TORSDOF 0
ENDMDL
MODEL 2
REMARK VINA RESULT:    -2.443      4.813      5.308
REMARK INTER + INTRA:          -2.443
REMARK INTER:                  -2.443
REMARK INTRA:                   0.000
REMARK UNBOUND:                 0.000
REMARK SMILES CC(=O)[O-]
REMARK SMILES IDX 1 1 2 2 3 3 4 4
REMARK H PARENT
REMARK Flexibility Score: inf
ROOT
ATOM      1  C   UNL     1      16.988  20.111  10.649  1.00  0.00     0.063 C 
ATOM      2  C   UNL     1      17.987  20.677   9.698  1.00  0.00     0.038 C 
ATOM      3  O   UNL     1      17.795  20.595   8.456  1.00  0.00    -0.550 OA
ATOM      4  O   UNL     1      19.107  21.342  10.179  1.00  0.00    -0.550 OA
ENDROOT
TORSDOF 0
ENDMDL
MODEL 3
REMARK VINA RESULT:    -2.388     17.435     17.863
REMARK INTER + INTRA:          -2.388
REMARK INTER:                  -2.388
REMARK INTRA:                   0.000
REMARK UNBOUND:                 0.000
REMARK SMILES CC(=O)[O-]
REMARK SMILES IDX 1 1 2 2 3 3 4 4
REMARK H PARENT
REMARK Flexibility Score: inf
ROOT
ATOM      1  C   UNL     1      19.994  36.234   8.393  1.00  0.00     0.063 C 
ATOM      2  C   UNL     1      18.538  35.948   8.247  1.00  0.00     0.038 C 
ATOM      3  O   UNL     1      17.874  35.529   9.232  1.00  0.00    -0.550 OA
ATOM      4  O   UNL     1      17.898  36.192   7.039  1.00  0.00    -0.550 OA
ENDROOT
TORSDOF 0
ENDMDL
MODEL 4
REMARK VINA RESULT:    -2.377     17.538     17.965
REMARK INTER + INTRA:          -2.377
REMARK INTER:                  -2.377
REMARK INTRA:                   0.000
REMARK UNBOUND:                 0.000
REMARK SMILES CC(=O)[O-]
REMARK SMILES IDX 1 1 2 2 3 3 4 4
REMARK H PARENT
REMARK Flexibility Score: inf
ROOT
ATOM      1  C   UNL     1      20.214  36.272   8.502  1.00  0.00     0.063 C 
ATOM      2  C   UNL     1      18.769  36.044   8.215  1.00  0.00     0.038 C 
ATOM      3  O   UNL     1      18.316  36.240   7.057  1.00  0.00    -0.550 OA
ATOM      4  O   UNL     1      17.928  35.565   9.212  1.00  0.00    -0.550 OA
ENDROOT
TORSDOF 0
ENDMDL
MODEL 5
REMARK VINA RESULT:    -2.324     18.173     18.550
REMARK INTER + INTRA:          -2.324
REMARK INTER:                  -2.324
REMARK INTRA:                   0.000
REMARK UNBOUND:                 0.000
REMARK SMILES CC(=O)[O-]
REMARK SMILES IDX 1 1 2 2 3 3 4 4
REMARK H PARENT
REMARK Flexibility Score: inf
ROOT
ATOM      1  C   UNL     1      18.251  35.822   8.450  1.00  0.00     0.063 C 
ATOM      2  C   UNL     1      19.584  36.294   7.976  1.00  0.00     0.038 C 
ATOM      3  O   UNL     1      20.581  36.247   8.744  1.00  0.00    -0.550 OA
ATOM      4  O   UNL     1      19.741  36.737   6.669  1.00  0.00    -0.550 OA
ENDROOT
TORSDOF 0
ENDMDL
MODEL 6
REMARK VINA RESULT:    -2.324      1.456      1.784
REMARK INTER + INTRA:          -2.324
REMARK INTER:                  -2.324
REMARK INTRA:                   0.000
REMARK UNBOUND:                 0.000
REMARK SMILES CC(=O)[O-]
REMARK SMILES IDX 1 1 2 2 3 3 4 4
REMARK H PARENT
REMARK Flexibility Score: inf
ROOT
ATOM      1  C   UNL     1      13.141  17.875  11.500  1.00  0.00     0.063 C 
ATOM      2  C   UNL     1      13.818  19.181  11.257  1.00  0.00     0.038 C 
ATOM      3  O   UNL     1      13.444  20.211  11.877  1.00  0.00    -0.550 OA
ATOM      4  O   UNL     1      14.898  19.254  10.388  1.00  0.00    -0.550 OA
ENDROOT
TORSDOF 0
ENDMDL
MODEL 7
REMARK VINA RESULT:    -2.315      4.501      4.900
REMARK INTER + INTRA:          -2.315
REMARK INTER:                  -2.315
REMARK INTRA:                   0.000
REMARK UNBOUND:                 0.000
REMARK SMILES CC(=O)[O-]
REMARK SMILES IDX 1 1 2 2 3 3 4 4
REMARK H PARENT
REMARK Flexibility Score: inf
ROOT
ATOM      1  C   UNL     1      19.117  21.251  10.004  1.00  0.00     0.063 C 
ATOM      2  C   UNL     1      17.857  20.506   9.721  1.00  0.00     0.038 C 
ATOM      3  O   UNL     1      17.566  20.180   8.540  1.00  0.00    -0.550 OA
ATOM      4  O   UNL     1      17.026  20.122  10.766  1.00  0.00    -0.550 OA
ENDROOT
TORSDOF 0
ENDMDL
MODEL 8
REMARK VINA RESULT:    -2.305     17.810     18.194
REMARK INTER + INTRA:          -2.305
REMARK INTER:                  -2.305
REMARK INTRA:                   0.000
REMARK UNBOUND:                 0.000
REMARK SMILES CC(=O)[O-]
REMARK SMILES IDX 1 1 2 2 3 3 4 4
REMARK H PARENT
REMARK Flexibility Score: inf
ROOT
ATOM      1  C   UNL     1      17.970  35.549   8.825  1.00  0.00     0.063 C 
ATOM      2  C   UNL     1      18.637  36.125   7.623  1.00  0.00     0.038 C 
ATOM      3  O   UNL     1      17.987  36.286   6.556  1.00  0.00    -0.550 OA
ATOM      4  O   UNL     1      19.962  36.536   7.691  1.00  0.00    -0.550 OA
ENDROOT
TORSDOF 0
ENDMDL
MODEL 9
REMARK VINA RESULT:    -2.173     19.561     19.914
REMARK INTER + INTRA:          -2.173
REMARK INTER:                  -2.173
REMARK INTRA:                   0.000
REMARK UNBOUND:                 0.000
REMARK SMILES CC(=O)[O-]
REMARK SMILES IDX 1 1 2 2 3 3 4 4
REMARK H PARENT
REMARK Flexibility Score: inf
ROOT
ATOM      1  C   UNL     1      21.768  36.803   5.089  1.00  0.00     0.063 C 
ATOM      2  C   UNL     1      20.399  36.974   5.654  1.00  0.00     0.038 C 
ATOM      3  O   UNL     1      19.456  37.366   4.918  1.00  0.00    -0.550 OA
ATOM      4  O   UNL     1      20.149  36.652   6.982  1.00  0.00    -0.550 OA
ENDROOT
TORSDOF 0
ENDMDL
