MODEL 1
REMARK VINA RESULT:    -2.237      0.000      0.000
REMARK INTER + INTRA:          -3.120
REMARK INTER:                  -3.022
REMARK INTRA:                  -0.098
REMARK UNBOUND:                -0.098
REMARK SMILES CC[C@H](CC[C@H](C)[C@H]1CC[C@H]2[C@H]3CC(=O)C4=CC(=O)CC[C@@]4(C)[C@H]3CC[C@@]12C)C(C)C
REMARK SMILES IDX 4 1 3 2 2 3 1 4 29 5 30 6 31 7 5 8 6 9 7 10 8 11 9 12 27 13
REMARK SMILES IDX 10 14 11 15 26 16 28 17 12 18 25 19 24 20 13 21 22 22 14 23
REMARK SMILES IDX 16 24 21 25 23 26 15 27 17 28 20 29 18 30 19 31
REMARK H PARENT
REMARK Flexibility Score: inf
ROOT
ATOM      1  C   UNL     1     -11.247 -32.079  36.606  1.00  0.00     0.004 C 
ENDROOT
BRANCH   1   2
ATOM      2  C   UNL     1     -11.206 -31.599  38.080  1.00  0.00    -0.009 C 
BRANCH   2   3
ATOM      3  C   UNL     1      -9.956 -32.161  38.829  1.00  0.00     0.000 C 
ATOM      4  C   UNL     1      -9.990 -33.686  38.942  1.00  0.00     0.004 C 
ENDBRANCH   2   3
BRANCH   2   5
ATOM      5  C   UNL     1     -11.342 -30.046  38.174  1.00  0.00    -0.014 C 
ATOM      6  C   UNL     1     -10.197 -29.366  38.947  1.00  0.00     0.007 C 
ATOM      7  C   UNL     1     -12.706 -29.621  38.742  1.00  0.00     0.007 C 
ENDBRANCH   2   5
ENDBRANCH   1   2
BRANCH   1   8
ATOM      8  C   UNL     1     -10.189 -31.375  35.735  1.00  0.00     0.004 C 
BRANCH   8   9
ATOM      9  C   UNL     1      -9.997 -32.074  34.358  1.00  0.00    -0.011 C 
ATOM     10  C   UNL     1      -9.882 -31.039  33.227  1.00  0.00     0.008 C 
BRANCH   9  11
ATOM     11  C   UNL     1     -11.004 -33.227  33.999  1.00  0.00    -0.002 C 
ATOM     12  C   UNL     1     -12.458 -32.764  33.924  1.00  0.00     0.005 C 
ATOM     13  C   UNL     1     -10.792 -34.175  32.765  1.00  0.00    -0.026 C 
ATOM     14  C   UNL     1     -13.214 -33.958  33.377  1.00  0.00     0.005 C 
ATOM     15  C   UNL     1     -12.241 -34.683  32.431  1.00  0.00    -0.001 C 
ATOM     16  C   UNL     1     -10.153 -33.466  31.544  1.00  0.00     0.007 C 
ATOM     17  C   UNL     1      -9.894 -35.378  33.165  1.00  0.00     0.012 C 
ATOM     18  C   UNL     1     -12.653 -34.634  30.921  1.00  0.00     0.004 C 
ATOM     19  C   UNL     1     -10.203 -34.285  30.241  1.00  0.00     0.005 C 
ATOM     20  C   UNL     1     -11.487 -35.151  30.041  1.00  0.00     0.003 C 
ATOM     21  C   UNL     1     -13.228 -33.276  30.420  1.00  0.00     0.085 C 
ATOM     22  C   UNL     1     -11.907 -35.290  28.532  1.00  0.00    -0.000 C 
ATOM     23  C   UNL     1     -13.119 -33.028  28.936  1.00  0.00     0.159 C 
ATOM     24  C   UNL     1     -12.370 -33.932  28.018  1.00  0.00     0.005 C 
ATOM     25  C   UNL     1     -10.702 -35.835  27.693  1.00  0.00     0.020 C 
ATOM     26  C   UNL     1     -13.090 -36.287  28.387  1.00  0.00     0.017 C 
ATOM     27  O   UNL     1     -13.678 -31.994  28.475  1.00  0.00    -0.295 OA
ATOM     28  C   UNL     1     -12.187 -33.578  26.730  1.00  0.00     0.055 C 
ATOM     29  C   UNL     1     -10.939 -35.775  26.179  1.00  0.00     0.081 C 
ATOM     30  C   UNL     1     -11.467 -34.435  25.773  1.00  0.00     0.156 C 
ATOM     31  O   UNL     1     -11.329 -34.049  24.583  1.00  0.00    -0.295 OA
ENDBRANCH   9  11
ENDBRANCH   8   9
ENDBRANCH   1   8
TORSDOF 6
ENDMDL
