MODEL 1
REMARK VINA RESULT:     3.122      0.000      0.000
REMARK INTER + INTRA:           4.496
REMARK INTER:                   5.130
REMARK INTRA:                  -0.634
REMARK UNBOUND:                -0.634
REMARK SMILES CCCCCCCCCCCCCC
REMARK SMILES IDX 7 1 6 2 5 3 4 4 3 5 2 6 1 7 8 8 9 9 10 10 11 11 12 12 13 13
REMARK SMILES IDX 14 14
REMARK H PARENT
REMARK Flexibility Score: inf
ROOT
ATOM      1  C   UNL     1      15.136  97.378  10.037  1.00  0.00    -0.000 C 
ENDROOT
BRANCH   1   2
ATOM      2  C   UNL     1      16.226  97.726   9.010  1.00  0.00    -0.000 C 
BRANCH   2   3
ATOM      3  C   UNL     1      17.614  97.211   9.425  1.00  0.00    -0.000 C 
BRANCH   3   4
ATOM      4  C   UNL     1      18.758  97.930   8.691  1.00  0.00    -0.000 C 
BRANCH   4   5
ATOM      5  C   UNL     1      19.520  98.915   9.594  1.00  0.00    -0.000 C 
BRANCH   5   6
ATOM      6  C   UNL     1      19.102 100.386   9.394  1.00  0.00    -0.003 C 
ATOM      7  C   UNL     1      18.285 100.593   8.118  1.00  0.00     0.004 C 
ENDBRANCH   5   6
ENDBRANCH   4   5
ENDBRANCH   3   4
ENDBRANCH   2   3
ENDBRANCH   1   2
BRANCH   1   8
ATOM      8  C   UNL     1      14.675  95.914   9.944  1.00  0.00    -0.000 C 
BRANCH   8   9
ATOM      9  C   UNL     1      15.103  95.212   8.637  1.00  0.00    -0.000 C 
BRANCH   9  10
ATOM     10  C   UNL     1      15.839  93.887   8.906  1.00  0.00    -0.000 C 
BRANCH  10  11
ATOM     11  C   UNL     1      17.360  94.067   9.031  1.00  0.00    -0.000 C 
BRANCH  11  12
ATOM     12  C   UNL     1      18.052  94.222   7.669  1.00  0.00    -0.000 C 
BRANCH  12  13
ATOM     13  C   UNL     1      19.215  93.234   7.529  1.00  0.00    -0.003 C 
ATOM     14  C   UNL     1      19.771  92.841   8.895  1.00  0.00     0.004 C 
ENDBRANCH  12  13
ENDBRANCH  11  12
ENDBRANCH  10  11
ENDBRANCH   9  10
ENDBRANCH   8   9
ENDBRANCH   1   8
TORSDOF 11
ENDMDL
MODEL 2
REMARK VINA RESULT:     3.220      0.229      5.161
REMARK INTER + INTRA:           4.656
REMARK INTER:                   4.784
REMARK INTRA:                  -0.127
REMARK UNBOUND:                -0.634
REMARK SMILES CCCCCCCCCCCCCC
REMARK SMILES IDX 7 1 6 2 5 3 4 4 3 5 2 6 1 7 8 8 9 9 10 10 11 11 12 12 13 13
REMARK SMILES IDX 14 14
REMARK H PARENT
REMARK Flexibility Score: inf
ROOT
ATOM      1  C   UNL     1      15.036  96.053  10.003  1.00  0.00    -0.000 C 
ENDROOT
BRANCH   1   2
ATOM      2  C   UNL     1      15.237  95.326   8.663  1.00  0.00    -0.000 C 
BRANCH   2   3
ATOM      3  C   UNL     1      15.930  93.964   8.828  1.00  0.00    -0.000 C 
BRANCH   3   4
ATOM      4  C   UNL     1      17.446  94.092   9.055  1.00  0.00    -0.000 C 
BRANCH   4   5
ATOM      5  C   UNL     1      18.224  94.348   7.753  1.00  0.00    -0.000 C 
BRANCH   5   6
ATOM      6  C   UNL     1      19.230  93.231   7.405  1.00  0.00    -0.003 C 
ATOM      7  C   UNL     1      19.995  92.732   8.631  1.00  0.00     0.004 C 
ENDBRANCH   5   6
ENDBRANCH   4   5
ENDBRANCH   3   4
ENDBRANCH   2   3
ENDBRANCH   1   2
BRANCH   1   8
ATOM      8  C   UNL     1      15.033  97.584   9.858  1.00  0.00    -0.000 C 
BRANCH   8   9
ATOM      9  C   UNL     1      16.223  98.130   9.040  1.00  0.00    -0.000 C 
BRANCH   9  10
ATOM     10  C   UNL     1      17.513  97.327   9.288  1.00  0.00    -0.000 C 
BRANCH  10  11
ATOM     11  C   UNL     1      18.739  97.946   8.599  1.00  0.00    -0.000 C 
BRANCH  11  12
ATOM     12  C   UNL     1      19.532  98.880   9.526  1.00  0.00    -0.000 C 
BRANCH  12  13
ATOM     13  C   UNL     1      19.069 100.332   9.367  1.00  0.00    -0.003 C 
ATOM     14  C   UNL     1      18.325 100.532   8.050  1.00  0.00     0.004 C 
ENDBRANCH  12  13
ENDBRANCH  11  12
ENDBRANCH  10  11
ENDBRANCH   9  10
ENDBRANCH   8   9
ENDBRANCH   1   8
TORSDOF 11
ENDMDL
MODEL 3
REMARK VINA RESULT:     4.191      1.094      2.091
REMARK INTER + INTRA:           6.253
REMARK INTER:                   6.769
REMARK INTRA:                  -0.516
REMARK UNBOUND:                -0.634
REMARK SMILES CCCCCCCCCCCCCC
REMARK SMILES IDX 7 1 6 2 5 3 4 4 3 5 2 6 1 7 8 8 9 9 10 10 11 11 12 12 13 13
REMARK SMILES IDX 14 14
REMARK H PARENT
REMARK Flexibility Score: inf
ROOT
ATOM      1  C   UNL     1      15.218  98.686   9.639  1.00  0.00    -0.000 C 
ENDROOT
BRANCH   1   2
ATOM      2  C   UNL     1      16.357  98.742   8.608  1.00  0.00    -0.000 C 
BRANCH   2   3
ATOM      3  C   UNL     1      17.256  99.976   8.787  1.00  0.00    -0.000 C 
BRANCH   3   4
ATOM      4  C   UNL     1      18.751  99.618   8.842  1.00  0.00    -0.000 C 
BRANCH   4   5
ATOM      5  C   UNL     1      18.996  98.117   9.075  1.00  0.00    -0.000 C 
BRANCH   5   6
ATOM      6  C   UNL     1      18.647  97.238   7.856  1.00  0.00    -0.003 C 
ATOM      7  C   UNL     1      19.889  96.777   7.093  1.00  0.00     0.004 C 
ENDBRANCH   5   6
ENDBRANCH   4   5
ENDBRANCH   3   4
ENDBRANCH   2   3
ENDBRANCH   1   2
BRANCH   1   8
ATOM      8  C   UNL     1      14.917  97.256  10.119  1.00  0.00    -0.000 C 
BRANCH   8   9
ATOM      9  C   UNL     1      16.028  96.241   9.774  1.00  0.00    -0.000 C 
BRANCH   9  10
ATOM     10  C   UNL     1      15.557  95.196   8.748  1.00  0.00    -0.000 C 
BRANCH  10  11
ATOM     11  C   UNL     1      16.525  94.008   8.624  1.00  0.00    -0.000 C 
BRANCH  11  12
ATOM     12  C   UNL     1      17.905  94.302   9.231  1.00  0.00    -0.000 C 
BRANCH  12  13
ATOM     13  C   UNL     1      18.932  93.255   8.789  1.00  0.00    -0.003 C 
ATOM     14  C   UNL     1      19.072  93.227   7.270  1.00  0.00     0.004 C 
ENDBRANCH  12  13
ENDBRANCH  11  12
ENDBRANCH  10  11
ENDBRANCH   9  10
ENDBRANCH   8   9
ENDBRANCH   1   8
TORSDOF 11
ENDMDL
MODEL 4
REMARK VINA RESULT:     4.274      1.037      4.815
REMARK INTER + INTRA:           6.388
REMARK INTER:                   7.150
REMARK INTRA:                  -0.762
REMARK UNBOUND:                -0.634
REMARK SMILES CCCCCCCCCCCCCC
REMARK SMILES IDX 7 1 6 2 5 3 4 4 3 5 2 6 1 7 8 8 9 9 10 10 11 11 12 12 13 13
REMARK SMILES IDX 14 14
REMARK H PARENT
REMARK Flexibility Score: inf
ROOT
ATOM      1  C   UNL     1      16.135  96.470   9.733  1.00  0.00    -0.000 C 
ENDROOT
BRANCH   1   2
ATOM      2  C   UNL     1      15.627  95.568   8.596  1.00  0.00    -0.000 C 
BRANCH   2   3
ATOM      3  C   UNL     1      16.088  94.110   8.750  1.00  0.00    -0.000 C 
BRANCH   3   4
ATOM      4  C   UNL     1      17.610  93.984   8.932  1.00  0.00    -0.000 C 
BRANCH   4   5
ATOM      5  C   UNL     1      18.363  93.872   7.595  1.00  0.00    -0.000 C 
BRANCH   5   6
ATOM      6  C   UNL     1      19.568  92.910   7.644  1.00  0.00    -0.003 C 
ATOM      7  C   UNL     1      20.089  92.698   9.066  1.00  0.00     0.004 C 
ENDBRANCH   5   6
ENDBRANCH   4   5
ENDBRANCH   3   4
ENDBRANCH   2   3
ENDBRANCH   1   2
BRANCH   1   8
ATOM      8  C   UNL     1      15.131  97.571  10.116  1.00  0.00    -0.000 C 
BRANCH   8   9
ATOM      9  C   UNL     1      15.431  98.937   9.463  1.00  0.00    -0.000 C 
BRANCH   9  10
ATOM     10  C   UNL     1      16.524  98.835   8.384  1.00  0.00    -0.000 C 
BRANCH  10  11
ATOM     11  C   UNL     1      17.821  99.558   8.783  1.00  0.00    -0.000 C 
BRANCH  11  12
ATOM     12  C   UNL     1      19.043  98.628   8.781  1.00  0.00    -0.000 C 
BRANCH  12  13
ATOM     13  C   UNL     1      18.737  97.323   8.036  1.00  0.00    -0.003 C 
ATOM     14  C   UNL     1      19.908  96.905   7.153  1.00  0.00     0.004 C 
ENDBRANCH  12  13
ENDBRANCH  11  12
ENDBRANCH  10  11
ENDBRANCH   9  10
ENDBRANCH   8   9
ENDBRANCH   1   8
TORSDOF 11
ENDMDL
MODEL 5
REMARK VINA RESULT:     4.684      0.919      4.622
REMARK INTER + INTRA:           7.063
REMARK INTER:                   6.763
REMARK INTRA:                   0.299
REMARK UNBOUND:                -0.634
REMARK SMILES CCCCCCCCCCCCCC
REMARK SMILES IDX 7 1 6 2 5 3 4 4 3 5 2 6 1 7 8 8 9 9 10 10 11 11 12 12 13 13
REMARK SMILES IDX 14 14
REMARK H PARENT
REMARK Flexibility Score: inf
ROOT
ATOM      1  C   UNL     1      15.437  95.361   8.628  1.00  0.00    -0.000 C 
ENDROOT
BRANCH   1   2
ATOM      2  C   UNL     1      16.177  94.042   8.909  1.00  0.00    -0.000 C 
BRANCH   2   3
ATOM      3  C   UNL     1      17.624  94.266   9.378  1.00  0.00    -0.000 C 
BRANCH   3   4
ATOM      4  C   UNL     1      18.609  93.256   8.765  1.00  0.00    -0.000 C 
BRANCH   4   5
ATOM      5  C   UNL     1      19.070  93.655   7.352  1.00  0.00    -0.000 C 
BRANCH   5   6
ATOM      6  C   UNL     1      18.608  95.064   6.927  1.00  0.00    -0.003 C 
ATOM      7  C   UNL     1      19.755  96.075   6.914  1.00  0.00     0.004 C 
ENDBRANCH   5   6
ENDBRANCH   4   5
ENDBRANCH   3   4
ENDBRANCH   2   3
ENDBRANCH   1   2
BRANCH   1   8
ATOM      8  C   UNL     1      14.928  96.044   9.908  1.00  0.00    -0.000 C 
BRANCH   8   9
ATOM      9  C   UNL     1      15.119  97.576   9.909  1.00  0.00    -0.000 C 
BRANCH   9  10
ATOM     10  C   UNL     1      16.276  98.016   8.996  1.00  0.00    -0.000 C 
BRANCH  10  11
ATOM     11  C   UNL     1      17.638  97.474   9.459  1.00  0.00    -0.000 C 
BRANCH  11  12
ATOM     12  C   UNL     1      18.816  98.108   8.705  1.00  0.00    -0.000 C 
BRANCH  12  13
ATOM     13  C   UNL     1      19.174  99.475   9.298  1.00  0.00    -0.003 C 
ATOM     14  C   UNL     1      18.479 100.603   8.541  1.00  0.00     0.004 C 
ENDBRANCH  12  13
ENDBRANCH  11  12
ENDBRANCH  10  11
ENDBRANCH   9  10
ENDBRANCH   8   9
ENDBRANCH   1   8
TORSDOF 11
ENDMDL
