MODEL 1
REMARK VINA RESULT:    -6.510      0.000      0.000
REMARK INTER + INTRA:          -8.173
REMARK INTER:                  -7.842
REMARK INTRA:                  -0.331
REMARK UNBOUND:                -0.331
REMARK SMILES O=c1c(O)c(-c2ccc(O)c(O)c2)oc2cc(O)cc(O)c12
REMARK SMILES IDX 5 1 3 2 2 3 1 4 22 5 20 6 19 7 17 8 16 9 15 10 14 11 6 12
REMARK SMILES IDX 7 13 8 14 9 15 13 16 11 17 10 18 12 20 4 22 21 24 18 26
REMARK H PARENT 10 19 12 21 4 23 21 25 18 27
REMARK Flexibility Score: inf
ROOT
ATOM      1  C   UNL     1      23.807  -4.418  45.018  1.00  0.00     0.180 A 
ATOM      2  C   UNL     1      24.882  -3.513  45.053  1.00  0.00     0.208 A 
ATOM      3  C   UNL     1      24.851  -2.384  44.219  1.00  0.00     0.238 A 
ATOM      4  O   UNL     1      25.840  -1.607  44.215  1.00  0.00    -0.285 OA
ATOM      5  C   UNL     1      23.737  -2.166  43.372  1.00  0.00     0.111 A 
ATOM      6  C   UNL     1      23.581  -1.035  42.515  1.00  0.00     0.134 A 
ATOM      7  C   UNL     1      22.501  -0.987  41.625  1.00  0.00     0.093 A 
ATOM      8  C   UNL     1      21.538  -1.995  41.606  1.00  0.00     0.123 A 
ATOM      9  C   UNL     1      21.648  -3.076  42.481  1.00  0.00     0.094 A 
ATOM     10  C   UNL     1      22.734  -3.170  43.356  1.00  0.00     0.146 A 
ATOM     11  O   UNL     1      22.808  -4.220  44.165  1.00  0.00    -0.452 OA
ENDROOT
BRANCH   1  12
ATOM     12  C   UNL     1      23.757  -5.617  45.885  1.00  0.00     0.025 A 
ATOM     13  C   UNL     1      24.171  -6.857  45.374  1.00  0.00     0.016 A 
ATOM     14  C   UNL     1      24.112  -8.005  46.168  1.00  0.00     0.051 A 
ATOM     15  C   UNL     1      23.624  -7.933  47.479  1.00  0.00     0.157 A 
ATOM     16  C   UNL     1      23.248  -5.553  47.194  1.00  0.00     0.062 A 
ATOM     17  C   UNL     1      23.186  -6.702  47.992  1.00  0.00     0.158 A 
BRANCH  15  18
ATOM     18  O   UNL     1      23.568  -9.081  48.270  1.00  0.00    -0.504 OA
ATOM     19  H   UNL     1      23.391  -9.994  47.869  1.00  0.00     0.293 HD
ENDBRANCH  15  18
BRANCH  17  20
ATOM     20  O   UNL     1      22.681  -6.599  49.288  1.00  0.00    -0.504 OA
ATOM     21  H   UNL     1      23.036  -5.920  49.951  1.00  0.00     0.293 HD
ENDBRANCH  17  20
ENDBRANCH   1  12
BRANCH   2  22
ATOM     22  O   UNL     1      25.981  -3.760  45.880  1.00  0.00    -0.502 OA
ATOM     23  H   UNL     1      26.678  -3.054  46.085  1.00  0.00     0.293 HD
ENDBRANCH   2  22
BRANCH   6  24
ATOM     24  O   UNL     1      24.436   0.071  42.518  1.00  0.00    -0.507 OA
ATOM     25  H   UNL     1      25.429   0.030  42.695  1.00  0.00     0.293 HD
ENDBRANCH   6  24
BRANCH   8  26
ATOM     26  O   UNL     1      20.468  -1.906  40.718  1.00  0.00    -0.508 OA
ATOM     27  H   UNL     1      20.299  -1.068  40.174  1.00  0.00     0.293 HD
ENDBRANCH   8  26
TORSDOF 6
ENDMDL
MODEL 2
REMARK VINA RESULT:    -6.189      9.900     11.393
REMARK INTER + INTRA:          -7.786
REMARK INTER:                  -7.609
REMARK INTRA:                  -0.177
REMARK UNBOUND:                -0.331
REMARK SMILES O=c1c(O)c(-c2ccc(O)c(O)c2)oc2cc(O)cc(O)c12
REMARK SMILES IDX 5 1 3 2 2 3 1 4 22 5 20 6 19 7 17 8 16 9 15 10 14 11 6 12
REMARK SMILES IDX 7 13 8 14 9 15 13 16 11 17 10 18 12 20 4 22 21 24 18 26
REMARK H PARENT 10 19 12 21 4 23 21 25 18 27
REMARK Flexibility Score: inf
ROOT
ATOM      1  C   UNL     1      19.958   0.042  54.473  1.00  0.00     0.180 A 
ATOM      2  C   UNL     1      19.300   1.206  54.906  1.00  0.00     0.208 A 
ATOM      3  C   UNL     1      18.177   1.659  54.194  1.00  0.00     0.238 A 
ATOM      4  O   UNL     1      17.626   2.731  54.553  1.00  0.00    -0.285 OA
ATOM      5  C   UNL     1      17.717   0.932  53.069  1.00  0.00     0.111 A 
ATOM      6  C   UNL     1      16.566   1.276  52.299  1.00  0.00     0.134 A 
ATOM      7  C   UNL     1      16.279   0.561  51.129  1.00  0.00     0.093 A 
ATOM      8  C   UNL     1      17.062  -0.524  50.739  1.00  0.00     0.123 A 
ATOM      9  C   UNL     1      18.155  -0.907  51.516  1.00  0.00     0.094 A 
ATOM     10  C   UNL     1      18.487  -0.191  52.669  1.00  0.00     0.146 A 
ATOM     11  O   UNL     1      19.541  -0.580  53.376  1.00  0.00    -0.452 OA
ENDROOT
BRANCH   1  12
ATOM     12  C   UNL     1      21.133  -0.510  55.185  1.00  0.00     0.025 A 
ATOM     13  C   UNL     1      22.346   0.195  55.168  1.00  0.00     0.016 A 
ATOM     14  C   UNL     1      23.472  -0.318  55.816  1.00  0.00     0.051 A 
ATOM     15  C   UNL     1      23.407  -1.551  56.477  1.00  0.00     0.157 A 
ATOM     16  C   UNL     1      21.076  -1.758  55.832  1.00  0.00     0.062 A 
ATOM     17  C   UNL     1      22.204  -2.276  56.481  1.00  0.00     0.158 A 
BRANCH  15  18
ATOM     18  O   UNL     1      24.532  -2.060  57.125  1.00  0.00    -0.504 OA
ATOM     19  H   UNL     1      24.971  -1.567  57.894  1.00  0.00     0.293 HD
ENDBRANCH  15  18
BRANCH  17  20
ATOM     20  O   UNL     1      22.109  -3.513  57.118  1.00  0.00    -0.504 OA
ATOM     21  H   UNL     1      22.299  -4.383  56.633  1.00  0.00     0.293 HD
ENDBRANCH  17  20
ENDBRANCH   1  12
BRANCH   2  22
ATOM     22  O   UNL     1      19.785   1.920  56.005  1.00  0.00    -0.502 OA
ATOM     23  H   UNL     1      19.181   2.464  56.610  1.00  0.00     0.293 HD
ENDBRANCH   2  22
BRANCH   6  24
ATOM     24  O   UNL     1      15.664   2.286  52.649  1.00  0.00    -0.507 OA
ATOM     25  H   UNL     1      15.520   2.626  53.588  1.00  0.00     0.293 HD
ENDBRANCH   6  24
BRANCH   8  26
ATOM     26  O   UNL     1      16.737  -1.222  49.577  1.00  0.00    -0.508 OA
ATOM     27  H   UNL     1      15.887  -1.026  49.061  1.00  0.00     0.293 HD
ENDBRANCH   8  26
TORSDOF 6
ENDMDL
MODEL 3
REMARK VINA RESULT:    -5.960      9.067     11.248
REMARK INTER + INTRA:          -7.510
REMARK INTER:                  -7.191
REMARK INTRA:                  -0.320
REMARK UNBOUND:                -0.331
REMARK SMILES O=c1c(O)c(-c2ccc(O)c(O)c2)oc2cc(O)cc(O)c12
REMARK SMILES IDX 5 1 3 2 2 3 1 4 22 5 20 6 19 7 17 8 16 9 15 10 14 11 6 12
REMARK SMILES IDX 7 13 8 14 9 15 13 16 11 17 10 18 12 20 4 22 21 24 18 26
REMARK H PARENT 10 19 12 21 4 23 21 25 18 27
REMARK Flexibility Score: inf
ROOT
ATOM      1  C   UNL     1      20.587   0.479  53.081  1.00  0.00     0.180 A 
ATOM      2  C   UNL     1      20.889  -0.024  54.359  1.00  0.00     0.208 A 
ATOM      3  C   UNL     1      22.230  -0.277  54.692  1.00  0.00     0.238 A 
ATOM      4  O   UNL     1      22.490  -0.778  55.816  1.00  0.00    -0.285 OA
ATOM      5  C   UNL     1      23.252  -0.006  53.750  1.00  0.00     0.111 A 
ATOM      6  C   UNL     1      24.647  -0.185  53.995  1.00  0.00     0.134 A 
ATOM      7  C   UNL     1      25.560  -0.011  52.947  1.00  0.00     0.093 A 
ATOM      8  C   UNL     1      25.136   0.399  51.684  1.00  0.00     0.123 A 
ATOM      9  C   UNL     1      23.781   0.635  51.449  1.00  0.00     0.094 A 
ATOM     10  C   UNL     1      22.843   0.434  52.464  1.00  0.00     0.146 A 
ATOM     11  O   UNL     1      21.562   0.660  52.197  1.00  0.00    -0.452 OA
ENDROOT
BRANCH   1  12
ATOM     12  C   UNL     1      19.201   0.792  52.666  1.00  0.00     0.025 A 
ATOM     13  C   UNL     1      18.692   2.083  52.874  1.00  0.00     0.016 A 
ATOM     14  C   UNL     1      17.380   2.395  52.509  1.00  0.00     0.051 A 
ATOM     15  C   UNL     1      16.552   1.416  51.945  1.00  0.00     0.157 A 
ATOM     16  C   UNL     1      18.360  -0.194  52.119  1.00  0.00     0.062 A 
ATOM     17  C   UNL     1      17.044   0.115  51.754  1.00  0.00     0.158 A 
BRANCH  15  18
ATOM     18  O   UNL     1      15.243   1.731  51.580  1.00  0.00    -0.504 OA
ATOM     19  H   UNL     1      14.527   1.911  52.274  1.00  0.00     0.293 HD
ENDBRANCH  15  18
BRANCH  17  20
ATOM     20  O   UNL     1      16.240  -0.887  51.209  1.00  0.00    -0.504 OA
ATOM     21  H   UNL     1      15.560  -0.694  50.482  1.00  0.00     0.293 HD
ENDBRANCH  17  20
ENDBRANCH   1  12
BRANCH   2  22
ATOM     22  O   UNL     1      19.863  -0.305  55.264  1.00  0.00    -0.502 OA
ATOM     23  H   UNL     1      19.169  -1.023  55.095  1.00  0.00     0.293 HD
ENDBRANCH   2  22
BRANCH   6  24
ATOM     24  O   UNL     1      25.185  -0.506  55.244  1.00  0.00    -0.507 OA
ATOM     25  H   UNL     1      25.534  -1.417  55.503  1.00  0.00     0.293 HD
ENDBRANCH   6  24
BRANCH   8  26
ATOM     26  O   UNL     1      26.075   0.578  50.669  1.00  0.00    -0.508 OA
ATOM     27  H   UNL     1      26.645  -0.190  50.334  1.00  0.00     0.293 HD
ENDBRANCH   8  26
TORSDOF 6
ENDMDL
MODEL 4
REMARK VINA RESULT:    -5.936     10.734     13.228
REMARK INTER + INTRA:          -7.481
REMARK INTER:                  -7.488
REMARK INTRA:                   0.006
REMARK UNBOUND:                -0.331
REMARK SMILES O=c1c(O)c(-c2ccc(O)c(O)c2)oc2cc(O)cc(O)c12
REMARK SMILES IDX 5 1 3 2 2 3 1 4 22 5 20 6 19 7 17 8 16 9 15 10 14 11 6 12
REMARK SMILES IDX 7 13 8 14 9 15 13 16 11 17 10 18 12 20 4 22 21 24 18 26
REMARK H PARENT 10 19 12 21 4 23 21 25 18 27
REMARK Flexibility Score: inf
ROOT
ATOM      1  C   UNL     1      17.311   2.364  52.012  1.00  0.00     0.180 A 
ATOM      2  C   UNL     1      16.616   1.960  53.166  1.00  0.00     0.208 A 
ATOM      3  C   UNL     1      17.215   1.032  54.033  1.00  0.00     0.238 A 
ATOM      4  O   UNL     1      16.566   0.633  55.034  1.00  0.00    -0.285 OA
ATOM      5  C   UNL     1      18.508   0.533  53.744  1.00  0.00     0.111 A 
ATOM      6  C   UNL     1      19.227  -0.380  54.573  1.00  0.00     0.134 A 
ATOM      7  C   UNL     1      20.444  -0.908  54.125  1.00  0.00     0.093 A 
ATOM      8  C   UNL     1      20.999  -0.508  52.910  1.00  0.00     0.123 A 
ATOM      9  C   UNL     1      20.333   0.429  52.119  1.00  0.00     0.094 A 
ATOM     10  C   UNL     1      19.100   0.946  52.522  1.00  0.00     0.146 A 
ATOM     11  O   UNL     1      18.494   1.828  51.736  1.00  0.00    -0.452 OA
ENDROOT
BRANCH   1  12
ATOM     12  C   UNL     1      16.755   3.357  51.065  1.00  0.00     0.025 A 
ATOM     13  C   UNL     1      17.509   4.492  50.733  1.00  0.00     0.016 A 
ATOM     14  C   UNL     1      16.996   5.452  49.857  1.00  0.00     0.051 A 
ATOM     15  C   UNL     1      15.714   5.298  49.313  1.00  0.00     0.157 A 
ATOM     16  C   UNL     1      15.461   3.216  50.533  1.00  0.00     0.062 A 
ATOM     17  C   UNL     1      14.942   4.177  49.656  1.00  0.00     0.158 A 
BRANCH  15  18
ATOM     18  O   UNL     1      15.205   6.257  48.437  1.00  0.00    -0.504 OA
ATOM     19  H   UNL     1      15.004   6.038  47.469  1.00  0.00     0.293 HD
ENDBRANCH  15  18
BRANCH  17  20
ATOM     20  O   UNL     1      13.657   4.001  49.144  1.00  0.00    -0.504 OA
ATOM     21  H   UNL     1      13.434   4.195  48.174  1.00  0.00     0.293 HD
ENDBRANCH  17  20
ENDBRANCH   1  12
BRANCH   2  22
ATOM     22  O   UNL     1      15.332   2.449  53.419  1.00  0.00    -0.502 OA
ATOM     23  H   UNL     1      14.690   2.704  52.677  1.00  0.00     0.293 HD
ENDBRANCH   2  22
BRANCH   6  24
ATOM     24  O   UNL     1      18.807  -0.776  55.846  1.00  0.00    -0.507 OA
ATOM     25  H   UNL     1      18.968  -1.688  56.247  1.00  0.00     0.293 HD
ENDBRANCH   6  24
BRANCH   8  26
ATOM     26  O   UNL     1      22.219  -1.043  52.503  1.00  0.00    -0.508 OA
ATOM     27  H   UNL     1      22.289  -1.648  51.692  1.00  0.00     0.293 HD
ENDBRANCH   8  26
TORSDOF 6
ENDMDL
MODEL 5
REMARK VINA RESULT:    -5.872     10.886     11.797
REMARK INTER + INTRA:          -7.404
REMARK INTER:                  -7.165
REMARK INTRA:                  -0.240
REMARK UNBOUND:                -0.331
REMARK SMILES O=c1c(O)c(-c2ccc(O)c(O)c2)oc2cc(O)cc(O)c12
REMARK SMILES IDX 5 1 3 2 2 3 1 4 22 5 20 6 19 7 17 8 16 9 15 10 14 11 6 12
REMARK SMILES IDX 7 13 8 14 9 15 13 16 11 17 10 18 12 20 4 22 21 24 18 26
REMARK H PARENT 10 19 12 21 4 23 21 25 18 27
REMARK Flexibility Score: inf
ROOT
ATOM      1  C   UNL     1      17.711   2.399  51.990  1.00  0.00     0.180 A 
ATOM      2  C   UNL     1      16.460   2.195  51.382  1.00  0.00     0.208 A 
ATOM      3  C   UNL     1      15.950   3.183  50.524  1.00  0.00     0.238 A 
ATOM      4  O   UNL     1      14.806   3.020  50.026  1.00  0.00    -0.285 OA
ATOM      5  C   UNL     1      16.705   4.354  50.272  1.00  0.00     0.111 A 
ATOM      6  C   UNL     1      16.304   5.401  49.389  1.00  0.00     0.134 A 
ATOM      7  C   UNL     1      17.067   6.573  49.316  1.00  0.00     0.093 A 
ATOM      8  C   UNL     1      18.249   6.709  50.043  1.00  0.00     0.123 A 
ATOM      9  C   UNL     1      18.682   5.667  50.864  1.00  0.00     0.094 A 
ATOM     10  C   UNL     1      17.923   4.500  50.985  1.00  0.00     0.146 A 
ATOM     11  O   UNL     1      18.364   3.537  51.785  1.00  0.00    -0.452 OA
ENDROOT
BRANCH   1  12
ATOM     12  C   UNL     1      18.325   1.393  52.886  1.00  0.00     0.025 A 
ATOM     13  C   UNL     1      17.823   1.227  54.186  1.00  0.00     0.016 A 
ATOM     14  C   UNL     1      18.400   0.298  55.055  1.00  0.00     0.051 A 
ATOM     15  C   UNL     1      19.499  -0.467  54.643  1.00  0.00     0.157 A 
ATOM     16  C   UNL     1      19.441   0.637  52.483  1.00  0.00     0.062 A 
ATOM     17  C   UNL     1      20.023  -0.293  53.352  1.00  0.00     0.158 A 
BRANCH  15  18
ATOM     18  O   UNL     1      20.072  -1.395  55.512  1.00  0.00    -0.504 OA
ATOM     19  H   UNL     1      20.145  -2.376  55.270  1.00  0.00     0.293 HD
ENDBRANCH  15  18
BRANCH  17  20
ATOM     20  O   UNL     1      21.125  -1.029  52.916  1.00  0.00    -0.504 OA
ATOM     21  H   UNL     1      21.068  -2.024  52.734  1.00  0.00     0.293 HD
ENDBRANCH  17  20
ENDBRANCH   1  12
BRANCH   2  22
ATOM     22  O   UNL     1      15.722   1.042  51.662  1.00  0.00    -0.502 OA
ATOM     23  H   UNL     1      14.748   0.942  51.400  1.00  0.00     0.293 HD
ENDBRANCH   2  22
BRANCH   6  24
ATOM     24  O   UNL     1      15.189   5.331  48.549  1.00  0.00    -0.507 OA
ATOM     25  H   UNL     1      14.270   5.678  48.783  1.00  0.00     0.293 HD
ENDBRANCH   6  24
BRANCH   8  26
ATOM     26  O   UNL     1      18.992   7.883  49.934  1.00  0.00    -0.508 OA
ATOM     27  H   UNL     1      19.951   7.875  49.606  1.00  0.00     0.293 HD
ENDBRANCH   8  26
TORSDOF 6
ENDMDL
MODEL 6
REMARK VINA RESULT:    -5.861     11.294     11.864
REMARK INTER + INTRA:          -7.391
REMARK INTER:                  -7.366
REMARK INTRA:                  -0.025
REMARK UNBOUND:                -0.331
REMARK SMILES O=c1c(O)c(-c2ccc(O)c(O)c2)oc2cc(O)cc(O)c12
REMARK SMILES IDX 5 1 3 2 2 3 1 4 22 5 20 6 19 7 17 8 16 9 15 10 14 11 6 12
REMARK SMILES IDX 7 13 8 14 9 15 13 16 11 17 10 18 12 20 4 22 21 24 18 26
REMARK H PARENT 10 19 12 21 4 23 21 25 18 27
REMARK Flexibility Score: inf
ROOT
ATOM      1  C   UNL     1      17.499   2.424  52.009  1.00  0.00     0.180 A 
ATOM      2  C   UNL     1      18.345   3.321  51.332  1.00  0.00     0.208 A 
ATOM      3  C   UNL     1      17.779   4.260  50.455  1.00  0.00     0.238 A 
ATOM      4  O   UNL     1      18.544   5.024  49.811  1.00  0.00    -0.285 OA
ATOM      5  C   UNL     1      16.375   4.302  50.279  1.00  0.00     0.111 A 
ATOM      6  C   UNL     1      15.690   5.239  49.447  1.00  0.00     0.134 A 
ATOM      7  C   UNL     1      14.311   5.105  49.245  1.00  0.00     0.093 A 
ATOM      8  C   UNL     1      13.582   4.111  49.896  1.00  0.00     0.123 A 
ATOM      9  C   UNL     1      14.230   3.226  50.759  1.00  0.00     0.094 A 
ATOM     10  C   UNL     1      15.611   3.313  50.952  1.00  0.00     0.146 A 
ATOM     11  O   UNL     1      16.193   2.445  51.772  1.00  0.00    -0.452 OA
ENDROOT
BRANCH   1  12
ATOM     12  C   UNL     1      18.019   1.422  52.967  1.00  0.00     0.025 A 
ATOM     13  C   UNL     1      19.003   0.513  52.551  1.00  0.00     0.016 A 
ATOM     14  C   UNL     1      19.492  -0.454  53.432  1.00  0.00     0.051 A 
ATOM     15  C   UNL     1      18.993  -0.536  54.739  1.00  0.00     0.157 A 
ATOM     16  C   UNL     1      17.506   1.324  54.273  1.00  0.00     0.062 A 
ATOM     17  C   UNL     1      17.992   0.355  55.159  1.00  0.00     0.158 A 
BRANCH  15  18
ATOM     18  O   UNL     1      19.485  -1.501  55.617  1.00  0.00    -0.504 OA
ATOM     19  H   UNL     1      20.368  -1.970  55.452  1.00  0.00     0.293 HD
ENDBRANCH  15  18
BRANCH  17  20
ATOM     20  O   UNL     1      17.464   0.290  56.448  1.00  0.00    -0.504 OA
ATOM     21  H   UNL     1      17.907   0.752  57.234  1.00  0.00     0.293 HD
ENDBRANCH  17  20
ENDBRANCH   1  12
BRANCH   2  22
ATOM     22  O   UNL     1      19.729   3.247  51.504  1.00  0.00    -0.502 OA
ATOM     23  H   UNL     1      20.333   2.764  50.850  1.00  0.00     0.293 HD
ENDBRANCH   2  22
BRANCH   6  24
ATOM     24  O   UNL     1      16.309   6.325  48.821  1.00  0.00    -0.507 OA
ATOM     25  H   UNL     1      16.040   7.290  48.946  1.00  0.00     0.293 HD
ENDBRANCH   6  24
BRANCH   8  26
ATOM     26  O   UNL     1      12.208   4.017  49.684  1.00  0.00    -0.508 OA
ATOM     27  H   UNL     1      11.586   4.792  49.885  1.00  0.00     0.293 HD
ENDBRANCH   8  26
TORSDOF 6
ENDMDL
MODEL 7
REMARK VINA RESULT:    -5.686      9.900     12.072
REMARK INTER + INTRA:          -7.180
REMARK INTER:                  -6.876
REMARK INTRA:                  -0.304
REMARK UNBOUND:                -0.331
REMARK SMILES O=c1c(O)c(-c2ccc(O)c(O)c2)oc2cc(O)cc(O)c12
REMARK SMILES IDX 5 1 3 2 2 3 1 4 22 5 20 6 19 7 17 8 16 9 15 10 14 11 6 12
REMARK SMILES IDX 7 13 8 14 9 15 13 16 11 17 10 18 12 20 4 22 21 24 18 26
REMARK H PARENT 10 19 12 21 4 23 21 25 18 27
REMARK Flexibility Score: inf
ROOT
ATOM      1  C   UNL     1      20.700  -0.045  54.092  1.00  0.00     0.180 A 
ATOM      2  C   UNL     1      20.786  -0.912  55.195  1.00  0.00     0.208 A 
ATOM      3  C   UNL     1      22.030  -1.099  55.819  1.00  0.00     0.238 A 
ATOM      4  O   UNL     1      22.112  -1.917  56.771  1.00  0.00    -0.285 OA
ATOM      5  C   UNL     1      23.168  -0.404  55.343  1.00  0.00     0.111 A 
ATOM      6  C   UNL     1      24.469  -0.487  55.924  1.00  0.00     0.134 A 
ATOM      7  C   UNL     1      25.549   0.142  55.291  1.00  0.00     0.093 A 
ATOM      8  C   UNL     1      25.364   0.902  54.137  1.00  0.00     0.123 A 
ATOM      9  C   UNL     1      24.086   1.039  53.594  1.00  0.00     0.094 A 
ATOM     10  C   UNL     1      22.996   0.395  54.182  1.00  0.00     0.146 A 
ATOM     11  O   UNL     1      21.798   0.541  53.628  1.00  0.00    -0.452 OA
ENDROOT
BRANCH   1  12
ATOM     12  C   UNL     1      19.420   0.222  53.398  1.00  0.00     0.025 A 
ATOM     13  C   UNL     1      18.518   1.149  53.943  1.00  0.00     0.016 A 
ATOM     14  C   UNL     1      17.295   1.401  53.316  1.00  0.00     0.051 A 
ATOM     15  C   UNL     1      16.949   0.717  52.143  1.00  0.00     0.157 A 
ATOM     16  C   UNL     1      19.059  -0.477  52.232  1.00  0.00     0.062 A 
ATOM     17  C   UNL     1      17.834  -0.229  51.601  1.00  0.00     0.158 A 
BRANCH  15  18
ATOM     18  O   UNL     1      15.728   0.972  51.518  1.00  0.00    -0.504 OA
ATOM     19  H   UNL     1      15.138   1.745  51.801  1.00  0.00     0.293 HD
ENDBRANCH  15  18
BRANCH  17  20
ATOM     20  O   UNL     1      17.513  -0.937  50.443  1.00  0.00    -0.504 OA
ATOM     21  H   UNL     1      16.553  -1.106  50.166  1.00  0.00     0.293 HD
ENDBRANCH  17  20
ENDBRANCH   1  12
BRANCH   2  22
ATOM     22  O   UNL     1      19.655  -1.604  55.635  1.00  0.00    -0.502 OA
ATOM     23  H   UNL     1      18.795  -1.134  55.893  1.00  0.00     0.293 HD
ENDBRANCH   2  22
BRANCH   6  24
ATOM     24  O   UNL     1      24.748  -1.145  57.125  1.00  0.00    -0.507 OA
ATOM     25  H   UNL     1      24.651  -2.139  57.271  1.00  0.00     0.293 HD
ENDBRANCH   6  24
BRANCH   8  26
ATOM     26  O   UNL     1      26.460   1.526  53.543  1.00  0.00    -0.508 OA
ATOM     27  H   UNL     1      26.948   2.287  54.001  1.00  0.00     0.293 HD
ENDBRANCH   8  26
TORSDOF 6
ENDMDL
MODEL 8
REMARK VINA RESULT:    -5.546      3.122      6.972
REMARK INTER + INTRA:          -7.011
REMARK INTER:                  -6.689
REMARK INTRA:                  -0.322
REMARK UNBOUND:                -0.331
REMARK SMILES O=c1c(O)c(-c2ccc(O)c(O)c2)oc2cc(O)cc(O)c12
REMARK SMILES IDX 5 1 3 2 2 3 1 4 22 5 20 6 19 7 17 8 16 9 15 10 14 11 6 12
REMARK SMILES IDX 7 13 8 14 9 15 13 16 11 17 10 18 12 20 4 22 21 24 18 26
REMARK H PARENT 10 19 12 21 4 23 21 25 18 27
REMARK Flexibility Score: inf
ROOT
ATOM      1  C   UNL     1      24.950  -5.667  46.599  1.00  0.00     0.180 A 
ATOM      2  C   UNL     1      24.053  -6.144  47.570  1.00  0.00     0.208 A 
ATOM      3  C   UNL     1      23.585  -7.465  47.476  1.00  0.00     0.238 A 
ATOM      4  O   UNL     1      22.741  -7.869  48.316  1.00  0.00    -0.285 OA
ATOM      5  C   UNL     1      24.033  -8.296  46.421  1.00  0.00     0.111 A 
ATOM      6  C   UNL     1      23.657  -9.663  46.251  1.00  0.00     0.134 A 
ATOM      7  C   UNL     1      24.057 -10.351  45.099  1.00  0.00     0.093 A 
ATOM      8  C   UNL     1      24.872  -9.745  44.145  1.00  0.00     0.123 A 
ATOM      9  C   UNL     1      25.296  -8.428  44.330  1.00  0.00     0.094 A 
ATOM     10  C   UNL     1      24.884  -7.704  45.451  1.00  0.00     0.146 A 
ATOM     11  O   UNL     1      25.300  -6.450  45.585  1.00  0.00    -0.452 OA
ENDROOT
BRANCH   1  12
ATOM     12  C   UNL     1      25.505  -4.295  46.645  1.00  0.00     0.025 A 
ATOM     13  C   UNL     1      26.659  -4.042  47.402  1.00  0.00     0.016 A 
ATOM     14  C   UNL     1      27.188  -2.751  47.477  1.00  0.00     0.051 A 
ATOM     15  C   UNL     1      26.562  -1.691  46.809  1.00  0.00     0.157 A 
ATOM     16  C   UNL     1      24.867  -3.225  45.993  1.00  0.00     0.062 A 
ATOM     17  C   UNL     1      25.393  -1.929  46.067  1.00  0.00     0.158 A 
BRANCH  15  18
ATOM     18  O   UNL     1      27.093  -0.404  46.884  1.00  0.00    -0.504 OA
ATOM     19  H   UNL     1      27.965  -0.217  47.366  1.00  0.00     0.293 HD
ENDBRANCH  15  18
BRANCH  17  20
ATOM     20  O   UNL     1      24.738  -0.893  45.403  1.00  0.00    -0.504 OA
ATOM     21  H   UNL     1      24.115  -1.065  44.622  1.00  0.00     0.293 HD
ENDBRANCH  17  20
ENDBRANCH   1  12
BRANCH   2  22
ATOM     22  O   UNL     1      23.607  -5.300  48.590  1.00  0.00    -0.502 OA
ATOM     23  H   UNL     1      24.169  -5.088  49.406  1.00  0.00     0.293 HD
ENDBRANCH   2  22
BRANCH   6  24
ATOM     24  O   UNL     1      22.919 -10.392  47.188  1.00  0.00    -0.507 OA
ATOM     25  H   UNL     1      23.040 -10.330  48.188  1.00  0.00     0.293 HD
ENDBRANCH   6  24
BRANCH   8  26
ATOM     26  O   UNL     1      25.264 -10.465  43.018  1.00  0.00    -0.508 OA
ATOM     27  H   UNL     1      24.692 -10.495  42.182  1.00  0.00     0.293 HD
ENDBRANCH   8  26
TORSDOF 6
ENDMDL
MODEL 9
REMARK VINA RESULT:    -5.507     10.394     11.337
REMARK INTER + INTRA:          -6.964
REMARK INTER:                  -6.642
REMARK INTRA:                  -0.323
REMARK UNBOUND:                -0.331
REMARK SMILES O=c1c(O)c(-c2ccc(O)c(O)c2)oc2cc(O)cc(O)c12
REMARK SMILES IDX 5 1 3 2 2 3 1 4 22 5 20 6 19 7 17 8 16 9 15 10 14 11 6 12
REMARK SMILES IDX 7 13 8 14 9 15 13 16 11 17 10 18 12 20 4 22 21 24 18 26
REMARK H PARENT 10 19 12 21 4 23 21 25 18 27
REMARK Flexibility Score: inf
ROOT
ATOM      1  C   UNL     1      19.090   0.997  52.681  1.00  0.00     0.180 A 
ATOM      2  C   UNL     1      18.219   0.350  51.785  1.00  0.00     0.208 A 
ATOM      3  C   UNL     1      17.157   1.077  51.223  1.00  0.00     0.238 A 
ATOM      4  O   UNL     1      16.350   0.480  50.465  1.00  0.00    -0.285 OA
ATOM      5  C   UNL     1      16.989   2.444  51.550  1.00  0.00     0.111 A 
ATOM      6  C   UNL     1      15.973   3.288  51.008  1.00  0.00     0.134 A 
ATOM      7  C   UNL     1      15.820   4.590  51.501  1.00  0.00     0.093 A 
ATOM      8  C   UNL     1      16.686   5.099  52.467  1.00  0.00     0.123 A 
ATOM      9  C   UNL     1      17.720   4.304  52.961  1.00  0.00     0.094 A 
ATOM     10  C   UNL     1      17.876   2.990  52.515  1.00  0.00     0.146 A 
ATOM     11  O   UNL     1      18.866   2.262  53.018  1.00  0.00    -0.452 OA
ENDROOT
BRANCH   1  12
ATOM     12  C   UNL     1      20.245   0.304  53.294  1.00  0.00     0.025 A 
ATOM     13  C   UNL     1      21.473   0.275  52.616  1.00  0.00     0.016 A 
ATOM     14  C   UNL     1      22.571  -0.391  53.168  1.00  0.00     0.051 A 
ATOM     15  C   UNL     1      22.452  -1.051  54.397  1.00  0.00     0.157 A 
ATOM     16  C   UNL     1      20.124  -0.378  54.519  1.00  0.00     0.062 A 
ATOM     17  C   UNL     1      21.221  -1.048  55.073  1.00  0.00     0.158 A 
BRANCH  15  18
ATOM     18  O   UNL     1      23.550  -1.713  54.945  1.00  0.00    -0.504 OA
ATOM     19  H   UNL     1      23.922  -1.462  55.854  1.00  0.00     0.293 HD
ENDBRANCH  15  18
BRANCH  17  20
ATOM     20  O   UNL     1      21.066  -1.708  56.292  1.00  0.00    -0.504 OA
ATOM     21  H   UNL     1      21.838  -1.838  56.935  1.00  0.00     0.293 HD
ENDBRANCH  17  20
ENDBRANCH   1  12
BRANCH   2  22
ATOM     22  O   UNL     1      18.390  -1.005  51.494  1.00  0.00    -0.502 OA
ATOM     23  H   UNL     1      19.136  -1.344  50.897  1.00  0.00     0.293 HD
ENDBRANCH   2  22
BRANCH   6  24
ATOM     24  O   UNL     1      15.112   2.907  49.974  1.00  0.00    -0.507 OA
ATOM     25  H   UNL     1      14.196   3.300  49.815  1.00  0.00     0.293 HD
ENDBRANCH   6  24
BRANCH   8  26
ATOM     26  O   UNL     1      16.513   6.405  52.923  1.00  0.00    -0.508 OA
ATOM     27  H   UNL     1      16.399   6.611  53.909  1.00  0.00     0.293 HD
ENDBRANCH   8  26
TORSDOF 6
ENDMDL
