MODEL 1
REMARK VINA RESULT:    -2.870      0.000      0.000
REMARK INTER + INTRA:          -2.870
REMARK INTER:                  -2.870
REMARK INTRA:                   0.000
REMARK UNBOUND:                 0.000
REMARK SMILES CC(=O)[O-]
REMARK SMILES IDX 1 1 2 2 3 3 4 4
REMARK H PARENT
REMARK Flexibility Score: inf
ROOT
ATOM      1  C   UNL     1       8.370 -16.911 -29.261  1.00  0.00     0.063 C 
ATOM      2  C   UNL     1       7.775 -15.877 -30.154  1.00  0.00     0.038 C 
ATOM      3  O   UNL     1       7.335 -14.801 -29.671  1.00  0.00    -0.550 OA
ATOM      4  O   UNL     1       7.652 -16.120 -31.517  1.00  0.00    -0.550 OA
ENDROOT
TORSDOF 0
ENDMDL
MODEL 2
REMARK VINA RESULT:    -2.708      2.690      3.111
REMARK INTER + INTRA:          -2.708
REMARK INTER:                  -2.708
REMARK INTRA:                   0.000
REMARK UNBOUND:                 0.000
REMARK SMILES CC(=O)[O-]
REMARK SMILES IDX 1 1 2 2 3 3 4 4
REMARK H PARENT
REMARK Flexibility Score: inf
ROOT
ATOM      1  C   UNL     1       8.518 -17.160 -27.681  1.00  0.00     0.063 C 
ATOM      2  C   UNL     1       9.037 -17.815 -28.916  1.00  0.00     0.038 C 
ATOM      3  O   UNL     1       8.422 -17.683 -30.006  1.00  0.00    -0.550 OA
ATOM      4  O   UNL     1      10.170 -18.617 -28.856  1.00  0.00    -0.550 OA
ENDROOT
TORSDOF 0
ENDMDL
MODEL 3
REMARK VINA RESULT:    -2.696      1.904      2.172
REMARK INTER + INTRA:          -2.696
REMARK INTER:                  -2.696
REMARK INTRA:                   0.000
REMARK UNBOUND:                 0.000
REMARK SMILES CC(=O)[O-]
REMARK SMILES IDX 1 1 2 2 3 3 4 4
REMARK H PARENT
REMARK Flexibility Score: inf
ROOT
ATOM      1  C   UNL     1      10.126 -16.470 -31.144  1.00  0.00     0.063 C 
ATOM      2  C   UNL     1       8.711 -16.791 -30.797  1.00  0.00     0.038 C 
ATOM      3  O   UNL     1       8.454 -17.724 -29.993  1.00  0.00    -0.550 OA
ATOM      4  O   UNL     1       7.671 -16.098 -31.404  1.00  0.00    -0.550 OA
ENDROOT
TORSDOF 0
ENDMDL
MODEL 4
REMARK VINA RESULT:    -2.587      2.066      2.521
REMARK INTER + INTRA:          -2.587
REMARK INTER:                  -2.587
REMARK INTRA:                   0.000
REMARK UNBOUND:                 0.000
REMARK SMILES CC(=O)[O-]
REMARK SMILES IDX 1 1 2 2 3 3 4 4
REMARK H PARENT
REMARK Flexibility Score: inf
ROOT
ATOM      1  C   UNL     1       7.879 -15.854 -30.160  1.00  0.00     0.063 C 
ATOM      2  C   UNL     1       8.818 -16.760 -30.881  1.00  0.00     0.038 C 
ATOM      3  O   UNL     1       8.512 -17.217 -32.013  1.00  0.00    -0.550 OA
ATOM      4  O   UNL     1      10.011 -17.148 -30.281  1.00  0.00    -0.550 OA
ENDROOT
TORSDOF 0
ENDMDL
MODEL 5
REMARK VINA RESULT:    -2.513      6.895      7.445
REMARK INTER + INTRA:          -2.513
REMARK INTER:                  -2.513
REMARK INTRA:                   0.000
REMARK UNBOUND:                 0.000
REMARK SMILES CC(=O)[O-]
REMARK SMILES IDX 1 1 2 2 3 3 4 4
REMARK H PARENT
REMARK Flexibility Score: inf
ROOT
ATOM      1  C   UNL     1      12.898 -19.049 -26.270  1.00  0.00     0.063 C 
ATOM      2  C   UNL     1      12.242 -18.438 -25.078  1.00  0.00     0.038 C 
ATOM      3  O   UNL     1      11.002 -18.224 -25.080  1.00  0.00    -0.550 OA
ATOM      4  O   UNL     1      13.006 -18.053 -23.983  1.00  0.00    -0.550 OA
ENDROOT
TORSDOF 0
ENDMDL
MODEL 6
REMARK VINA RESULT:    -2.482      6.465      6.835
REMARK INTER + INTRA:          -2.482
REMARK INTER:                  -2.482
REMARK INTRA:                   0.000
REMARK UNBOUND:                 0.000
REMARK SMILES CC(=O)[O-]
REMARK SMILES IDX 1 1 2 2 3 3 4 4
REMARK H PARENT
REMARK Flexibility Score: inf
ROOT
ATOM      1  C   UNL     1      12.594 -18.319 -24.246  1.00  0.00     0.063 C 
ATOM      2  C   UNL     1      11.675 -18.583 -25.390  1.00  0.00     0.038 C 
ATOM      3  O   UNL     1      10.977 -17.652 -25.868  1.00  0.00    -0.550 OA
ATOM      4  O   UNL     1      11.546 -19.871 -25.897  1.00  0.00    -0.550 OA
ENDROOT
TORSDOF 0
ENDMDL
MODEL 7
REMARK VINA RESULT:    -2.434      4.883      5.390
REMARK INTER + INTRA:          -2.434
REMARK INTER:                  -2.434
REMARK INTRA:                   0.000
REMARK UNBOUND:                 0.000
REMARK SMILES CC(=O)[O-]
REMARK SMILES IDX 1 1 2 2 3 3 4 4
REMARK H PARENT
REMARK Flexibility Score: inf
ROOT
ATOM      1  C   UNL     1      12.196 -18.345 -27.451  1.00  0.00     0.063 C 
ATOM      2  C   UNL     1      11.368 -19.133 -28.409  1.00  0.00     0.038 C 
ATOM      3  O   UNL     1      11.807 -20.212 -28.884  1.00  0.00    -0.550 OA
ATOM      4  O   UNL     1      10.133 -18.649 -28.824  1.00  0.00    -0.550 OA
ENDROOT
TORSDOF 0
ENDMDL
MODEL 8
REMARK VINA RESULT:    -2.422      3.062      3.650
REMARK INTER + INTRA:          -2.422
REMARK INTER:                  -2.422
REMARK INTRA:                   0.000
REMARK UNBOUND:                 0.000
REMARK SMILES CC(=O)[O-]
REMARK SMILES IDX 1 1 2 2 3 3 4 4
REMARK H PARENT
REMARK Flexibility Score: inf
ROOT
ATOM      1  C   UNL     1       9.475 -17.389 -27.093  1.00  0.00     0.063 C 
ATOM      2  C   UNL     1       8.135 -17.765 -27.629  1.00  0.00     0.038 C 
ATOM      3  O   UNL     1       8.006 -18.089 -28.837  1.00  0.00    -0.550 OA
ATOM      4  O   UNL     1       7.015 -17.705 -26.808  1.00  0.00    -0.550 OA
ENDROOT
TORSDOF 0
ENDMDL
MODEL 9
REMARK VINA RESULT:    -2.384      4.233      4.525
REMARK INTER + INTRA:          -2.384
REMARK INTER:                  -2.384
REMARK INTRA:                   0.000
REMARK UNBOUND:                 0.000
REMARK SMILES CC(=O)[O-]
REMARK SMILES IDX 1 1 2 2 3 3 4 4
REMARK H PARENT
REMARK Flexibility Score: inf
ROOT
ATOM      1  C   UNL     1      12.236 -18.230 -27.816  1.00  0.00     0.063 C 
ATOM      2  C   UNL     1      10.747 -18.162 -27.805  1.00  0.00     0.038 C 
ATOM      3  O   UNL     1      10.139 -17.800 -26.764  1.00  0.00    -0.550 OA
ATOM      4  O   UNL     1      10.023 -18.551 -28.926  1.00  0.00    -0.550 OA
ENDROOT
TORSDOF 0
ENDMDL
