MODEL 1
REMARK VINA RESULT:    -3.725      0.000      0.000
REMARK INTER + INTRA:          -4.692
REMARK INTER:                  -4.487
REMARK INTRA:                  -0.205
REMARK UNBOUND:                -0.205
REMARK SMILES OCC(O)CO
REMARK SMILES IDX 3 1 5 2 6 3 2 5 1 6 4 8
REMARK H PARENT 6 4 1 7 4 9
REMARK Flexibility Score: inf
ROOT
ATOM      1  C   UNL     1       2.030  29.736  69.466  1.00  0.00     0.165 C 
ENDROOT
BRANCH   1   2
ATOM      2  C   UNL     1       3.287  29.078  70.053  1.00  0.00     0.190 C 
BRANCH   2   3
ATOM      3  O   UNL     1       2.934  27.962  70.823  1.00  0.00    -0.394 OA
ATOM      4  H   UNL     1       3.702  27.336  70.767  1.00  0.00     0.210 HD
ENDBRANCH   2   3
ENDBRANCH   1   2
BRANCH   1   5
ATOM      5  C   UNL     1       0.881  29.738  70.484  1.00  0.00     0.190 C 
BRANCH   5   6
ATOM      6  O   UNL     1       0.226  28.498  70.484  1.00  0.00    -0.394 OA
ATOM      7  H   UNL     1       0.933  27.803  70.542  1.00  0.00     0.210 HD
ENDBRANCH   5   6
ENDBRANCH   1   5
BRANCH   1   8
ATOM      8  O   UNL     1       1.624  29.035  68.318  1.00  0.00    -0.388 OA
ATOM      9  H   UNL     1       1.696  28.067  68.532  1.00  0.00     0.211 HD
ENDBRANCH   1   8
TORSDOF 5
ENDMDL
MODEL 2
REMARK VINA RESULT:    -3.592      4.159      5.170
REMARK INTER + INTRA:          -4.532
REMARK INTER:                  -4.516
REMARK INTRA:                  -0.017
REMARK UNBOUND:                -0.205
REMARK SMILES OCC(O)CO
REMARK SMILES IDX 3 1 5 2 6 3 2 5 1 6 4 8
REMARK H PARENT 6 4 1 7 4 9
REMARK Flexibility Score: inf
ROOT
ATOM      1  C   UNL     1      -2.152  27.728  72.707  1.00  0.00     0.165 C 
ENDROOT
BRANCH   1   2
ATOM      2  C   UNL     1      -2.229  27.194  74.144  1.00  0.00     0.190 C 
BRANCH   2   3
ATOM      3  O   UNL     1      -0.972  26.731  74.556  1.00  0.00    -0.394 OA
ATOM      4  H   UNL     1      -0.666  26.103  73.850  1.00  0.00     0.210 HD
ENDBRANCH   2   3
ENDBRANCH   1   2
BRANCH   1   5
ATOM      5  C   UNL     1      -1.440  26.730  71.785  1.00  0.00     0.190 C 
BRANCH   5   6
ATOM      6  O   UNL     1      -0.748  27.409  70.771  1.00  0.00    -0.394 OA
ATOM      7  H   UNL     1      -1.208  28.281  70.648  1.00  0.00     0.210 HD
ENDBRANCH   5   6
ENDBRANCH   1   5
BRANCH   1   8
ATOM      8  O   UNL     1      -1.451  28.946  72.694  1.00  0.00    -0.388 OA
ATOM      9  H   UNL     1      -2.078  29.635  72.350  1.00  0.00     0.211 HD
ENDBRANCH   1   8
TORSDOF 5
ENDMDL
MODEL 3
REMARK VINA RESULT:    -3.515      0.950      2.378
REMARK INTER + INTRA:          -4.439
REMARK INTER:                  -4.221
REMARK INTRA:                  -0.218
REMARK UNBOUND:                -0.205
REMARK SMILES OCC(O)CO
REMARK SMILES IDX 3 1 5 2 6 3 2 5 1 6 4 8
REMARK H PARENT 6 4 1 7 4 9
REMARK Flexibility Score: inf
ROOT
ATOM      1  C   UNL     1       1.730  29.799  69.492  1.00  0.00     0.165 C 
ENDROOT
BRANCH   1   2
ATOM      2  C   UNL     1       0.645  29.692  70.573  1.00  0.00     0.190 C 
BRANCH   2   3
ATOM      3  O   UNL     1       0.073  28.413  70.559  1.00  0.00    -0.394 OA
ATOM      4  H   UNL     1      -0.592  28.401  71.296  1.00  0.00     0.210 HD
ENDBRANCH   2   3
ENDBRANCH   1   2
BRANCH   1   5
ATOM      5  C   UNL     1       3.079  29.281  70.011  1.00  0.00     0.190 C 
BRANCH   5   6
ATOM      6  O   UNL     1       2.900  28.095  70.739  1.00  0.00    -0.394 OA
ATOM      7  H   UNL     1       3.772  27.892  71.168  1.00  0.00     0.210 HD
ENDBRANCH   5   6
ENDBRANCH   1   5
BRANCH   1   8
ATOM      8  O   UNL     1       1.874  31.140  69.101  1.00  0.00    -0.388 OA
ATOM      9  H   UNL     1       2.797  31.414  69.345  1.00  0.00     0.211 HD
ENDBRANCH   1   8
TORSDOF 5
ENDMDL
MODEL 4
REMARK VINA RESULT:    -3.479     13.300     13.803
REMARK INTER + INTRA:          -4.396
REMARK INTER:                  -4.392
REMARK INTRA:                  -0.004
REMARK UNBOUND:                -0.205
REMARK SMILES OCC(O)CO
REMARK SMILES IDX 3 1 5 2 6 3 2 5 1 6 4 8
REMARK H PARENT 6 4 1 7 4 9
REMARK Flexibility Score: inf
ROOT
ATOM      1  C   UNL     1      10.048  39.942  72.172  1.00  0.00     0.165 C 
ENDROOT
BRANCH   1   2
ATOM      2  C   UNL     1       9.243  38.761  72.734  1.00  0.00     0.190 C 
BRANCH   2   3
ATOM      3  O   UNL     1       8.164  39.231  73.496  1.00  0.00    -0.394 OA
ATOM      4  H   UNL     1       8.494  40.039  73.970  1.00  0.00     0.210 HD
ENDBRANCH   2   3
ENDBRANCH   1   2
BRANCH   1   5
ATOM      5  C   UNL     1      10.115  39.884  70.640  1.00  0.00     0.190 C 
BRANCH   5   6
ATOM      6  O   UNL     1       9.713  41.109  70.087  1.00  0.00    -0.394 OA
ATOM      7  H   UNL     1       8.740  41.196  70.267  1.00  0.00     0.210 HD
ENDBRANCH   5   6
ENDBRANCH   1   5
BRANCH   1   8
ATOM      8  O   UNL     1      11.353  39.910  72.690  1.00  0.00    -0.388 OA
ATOM      9  H   UNL     1      11.269  39.886  73.679  1.00  0.00     0.211 HD
ENDBRANCH   1   8
TORSDOF 5
ENDMDL
MODEL 5
REMARK VINA RESULT:    -3.476      0.650      2.522
REMARK INTER + INTRA:          -4.393
REMARK INTER:                  -4.169
REMARK INTRA:                  -0.224
REMARK UNBOUND:                -0.205
REMARK SMILES OCC(O)CO
REMARK SMILES IDX 3 1 5 2 6 3 2 5 1 6 4 8
REMARK H PARENT 6 4 1 7 4 9
REMARK Flexibility Score: inf
ROOT
ATOM      1  C   UNL     1       2.569  29.352  70.134  1.00  0.00     0.165 C 
ENDROOT
BRANCH   1   2
ATOM      2  C   UNL     1       1.096  29.707  70.381  1.00  0.00     0.190 C 
BRANCH   2   3
ATOM      3  O   UNL     1       0.332  28.539  70.503  1.00  0.00    -0.394 OA
ATOM      4  H   UNL     1      -0.607  28.837  70.628  1.00  0.00     0.210 HD
ENDBRANCH   2   3
ENDBRANCH   1   2
BRANCH   1   5
ATOM      5  C   UNL     1       2.865  29.234  68.633  1.00  0.00     0.190 C 
BRANCH   5   6
ATOM      6  O   UNL     1       1.708  28.858  67.935  1.00  0.00    -0.394 OA
ATOM      7  H   UNL     1       1.169  29.683  67.811  1.00  0.00     0.210 HD
ENDBRANCH   5   6
ENDBRANCH   1   5
BRANCH   1   8
ATOM      8  O   UNL     1       2.870  28.130  70.758  1.00  0.00    -0.388 OA
ATOM      9  H   UNL     1       2.212  28.012  71.492  1.00  0.00     0.211 HD
ENDBRANCH   1   8
TORSDOF 5
ENDMDL
MODEL 6
REMARK VINA RESULT:    -3.474     13.437     13.880
REMARK INTER + INTRA:          -4.391
REMARK INTER:                  -4.223
REMARK INTRA:                  -0.168
REMARK UNBOUND:                -0.205
REMARK SMILES OCC(O)CO
REMARK SMILES IDX 3 1 5 2 6 3 2 5 1 6 4 8
REMARK H PARENT 6 4 1 7 4 9
REMARK Flexibility Score: inf
ROOT
ATOM      1  C   UNL     1      10.454  39.207  72.118  1.00  0.00     0.165 C 
ENDROOT
BRANCH   1   2
ATOM      2  C   UNL     1      10.206  39.597  70.655  1.00  0.00     0.190 C 
BRANCH   2   3
ATOM      3  O   UNL     1       9.775  40.929  70.576  1.00  0.00    -0.394 OA
ATOM      4  H   UNL     1       9.882  41.306  71.488  1.00  0.00     0.210 HD
ENDBRANCH   2   3
ENDBRANCH   1   2
BRANCH   1   5
ATOM      5  C   UNL     1       9.130  39.004  72.868  1.00  0.00     0.190 C 
BRANCH   5   6
ATOM      6  O   UNL     1       8.745  40.190  73.510  1.00  0.00    -0.394 OA
ATOM      7  H   UNL     1       9.581  40.630  73.819  1.00  0.00     0.210 HD
ENDBRANCH   5   6
ENDBRANCH   1   5
BRANCH   1   8
ATOM      8  O   UNL     1      11.193  40.216  72.756  1.00  0.00    -0.388 OA
ATOM      9  H   UNL     1      10.942  40.193  73.717  1.00  0.00     0.211 HD
ENDBRANCH   1   8
TORSDOF 5
ENDMDL
MODEL 7
REMARK VINA RESULT:    -3.353      5.547      6.676
REMARK INTER + INTRA:          -4.244
REMARK INTER:                  -4.020
REMARK INTRA:                  -0.224
REMARK UNBOUND:                -0.205
REMARK SMILES OCC(O)CO
REMARK SMILES IDX 3 1 5 2 6 3 2 5 1 6 4 8
REMARK H PARENT 6 4 1 7 4 9
REMARK Flexibility Score: inf
ROOT
ATOM      1  C   UNL     1       6.672  29.321  67.059  1.00  0.00     0.165 C 
ENDROOT
BRANCH   1   2
ATOM      2  C   UNL     1       7.450  30.383  66.270  1.00  0.00     0.190 C 
BRANCH   2   3
ATOM      3  O   UNL     1       7.325  30.152  64.894  1.00  0.00    -0.394 OA
ATOM      4  H   UNL     1       7.763  30.921  64.445  1.00  0.00     0.210 HD
ENDBRANCH   2   3
ENDBRANCH   1   2
BRANCH   1   5
ATOM      5  C   UNL     1       7.393  27.967  67.022  1.00  0.00     0.190 C 
BRANCH   5   6
ATOM      6  O   UNL     1       7.215  27.351  65.774  1.00  0.00    -0.394 OA
ATOM      7  H   UNL     1       6.311  26.941  65.787  1.00  0.00     0.210 HD
ENDBRANCH   5   6
ENDBRANCH   1   5
BRANCH   1   8
ATOM      8  O   UNL     1       5.388  29.172  66.507  1.00  0.00    -0.388 OA
ATOM      9  H   UNL     1       5.032  30.087  66.357  1.00  0.00     0.211 HD
ENDBRANCH   1   8
TORSDOF 5
ENDMDL
MODEL 8
REMARK VINA RESULT:    -3.322      4.304      5.181
REMARK INTER + INTRA:          -4.207
REMARK INTER:                  -4.204
REMARK INTRA:                  -0.002
REMARK UNBOUND:                -0.205
REMARK SMILES OCC(O)CO
REMARK SMILES IDX 3 1 5 2 6 3 2 5 1 6 4 8
REMARK H PARENT 6 4 1 7 4 9
REMARK Flexibility Score: inf
ROOT
ATOM      1  C   UNL     1      -1.504  27.715  72.726  1.00  0.00     0.165 C 
ENDROOT
BRANCH   1   2
ATOM      2  C   UNL     1      -1.934  26.811  71.562  1.00  0.00     0.190 C 
BRANCH   2   3
ATOM      3  O   UNL     1      -1.073  26.987  70.470  1.00  0.00    -0.394 OA
ATOM      4  H   UNL     1      -0.974  26.093  70.051  1.00  0.00     0.210 HD
ENDBRANCH   2   3
ENDBRANCH   1   2
BRANCH   1   5
ATOM      5  C   UNL     1      -2.148  27.262  74.044  1.00  0.00     0.190 C 
BRANCH   5   6
ATOM      6  O   UNL     1      -1.164  26.832  74.946  1.00  0.00    -0.394 OA
ATOM      7  H   UNL     1      -0.856  27.640  75.436  1.00  0.00     0.210 HD
ENDBRANCH   5   6
ENDBRANCH   1   5
BRANCH   1   8
ATOM      8  O   UNL     1      -1.887  29.040  72.460  1.00  0.00    -0.388 OA
ATOM      9  H   UNL     1      -1.376  29.332  71.660  1.00  0.00     0.211 HD
ENDBRANCH   1   8
TORSDOF 5
ENDMDL
MODEL 9
REMARK VINA RESULT:    -3.265      5.127      6.318
REMARK INTER + INTRA:          -4.139
REMARK INTER:                  -3.932
REMARK INTRA:                  -0.207
REMARK UNBOUND:                -0.205
REMARK SMILES OCC(O)CO
REMARK SMILES IDX 3 1 5 2 6 3 2 5 1 6 4 8
REMARK H PARENT 6 4 1 7 4 9
REMARK Flexibility Score: inf
ROOT
ATOM      1  C   UNL     1       7.184  28.942  66.962  1.00  0.00     0.165 C 
ENDROOT
BRANCH   1   2
ATOM      2  C   UNL     1       5.921  28.987  67.833  1.00  0.00     0.190 C 
BRANCH   2   3
ATOM      3  O   UNL     1       4.801  29.283  67.045  1.00  0.00    -0.394 OA
ATOM      4  H   UNL     1       4.152  29.732  67.648  1.00  0.00     0.210 HD
ENDBRANCH   2   3
ENDBRANCH   1   2
BRANCH   1   5
ATOM      5  C   UNL     1       7.379  30.263  66.205  1.00  0.00     0.190 C 
BRANCH   5   6
ATOM      6  O   UNL     1       6.840  30.171  64.914  1.00  0.00    -0.394 OA
ATOM      7  H   UNL     1       5.944  30.601  64.949  1.00  0.00     0.210 HD
ENDBRANCH   5   6
ENDBRANCH   1   5
BRANCH   1   8
ATOM      8  O   UNL     1       7.080  27.893  66.034  1.00  0.00    -0.388 OA
ATOM      9  H   UNL     1       6.119  27.817  65.793  1.00  0.00     0.211 HD
ENDBRANCH   1   8
TORSDOF 5
ENDMDL
