MODEL 1
REMARK VINA RESULT:    37.012      0.000      0.000
REMARK INTER + INTRA:          44.667
REMARK INTER:                  44.585
REMARK INTRA:                   0.082
REMARK UNBOUND:                 0.082
REMARK SMILES O=c1c(O)c(-c2ccc(O)c(O)c2)oc2cc(O)cc(O)c12
REMARK SMILES IDX 5 1 3 2 2 3 1 4 22 5 20 6 19 7 17 8 16 9 15 10 14 11 6 12
REMARK SMILES IDX 7 13 8 14 9 15 13 16 11 17 10 18 12 20 4 22 21 24 18 26
REMARK H PARENT 10 19 12 21 4 23 21 25 18 27
REMARK Flexibility Score: inf
ROOT
ATOM      1  C   UNL     1      10.556   9.115  16.337  1.00  0.00     0.180 A 
ATOM      2  C   UNL     1      10.452   7.712  16.294  1.00  0.00     0.208 A 
ATOM      3  C   UNL     1       9.262   7.133  15.823  1.00  0.00     0.238 A 
ATOM      4  O   UNL     1       9.162   5.878  15.771  1.00  0.00    -0.285 OA
ATOM      5  C   UNL     1       8.195   7.963  15.424  1.00  0.00     0.111 A 
ATOM      6  C   UNL     1       6.962   7.461  14.943  1.00  0.00     0.134 A 
ATOM      7  C   UNL     1       5.944   8.354  14.573  1.00  0.00     0.093 A 
ATOM      8  C   UNL     1       6.133   9.733  14.677  1.00  0.00     0.123 A 
ATOM      9  C   UNL     1       7.349  10.235  15.152  1.00  0.00     0.094 A 
ATOM     10  C   UNL     1       8.377   9.363  15.524  1.00  0.00     0.146 A 
ATOM     11  O   UNL     1       9.523   9.866  15.967  1.00  0.00    -0.452 OA
ENDROOT
BRANCH   1  12
ATOM     12  C   UNL     1      11.785   9.799  16.802  1.00  0.00     0.025 A 
ATOM     13  C   UNL     1      11.674  10.949  17.600  1.00  0.00     0.016 A 
ATOM     14  C   UNL     1      12.819  11.623  18.032  1.00  0.00     0.051 A 
ATOM     15  C   UNL     1      14.090  11.165  17.663  1.00  0.00     0.157 A 
ATOM     16  C   UNL     1      13.061   9.354  16.416  1.00  0.00     0.062 A 
ATOM     17  C   UNL     1      14.212  10.031  16.850  1.00  0.00     0.158 A 
BRANCH  15  18
ATOM     18  O   UNL     1      15.234  11.832  18.095  1.00  0.00    -0.504 OA
ATOM     19  H   UNL     1      15.937  12.158  17.442  1.00  0.00     0.293 HD
ENDBRANCH  15  18
BRANCH  17  20
ATOM     20  O   UNL     1      15.477   9.585  16.472  1.00  0.00    -0.504 OA
ATOM     21  H   UNL     1      15.725   8.603  16.507  1.00  0.00     0.293 HD
ENDBRANCH  17  20
ENDBRANCH   1  12
BRANCH   2  22
ATOM     22  O   UNL     1      11.506   6.911  16.742  1.00  0.00    -0.502 OA
ATOM     23  H   UNL     1      12.378   6.829  16.235  1.00  0.00     0.293 HD
ENDBRANCH   2  22
BRANCH   6  24
ATOM     24  O   UNL     1       6.742   6.088  14.827  1.00  0.00    -0.507 OA
ATOM     25  H   UNL     1       6.985   5.578  13.985  1.00  0.00     0.293 HD
ENDBRANCH   6  24
BRANCH   8  26
ATOM     26  O   UNL     1       5.106  10.597  14.305  1.00  0.00    -0.508 OA
ATOM     27  H   UNL     1       5.249  11.599  14.252  1.00  0.00     0.293 HD
ENDBRANCH   8  26
TORSDOF 6
ENDMDL
MODEL 2
REMARK VINA RESULT:    39.033      1.367      6.647
REMARK INTER + INTRA:          47.102
REMARK INTER:                  46.665
REMARK INTRA:                   0.436
REMARK UNBOUND:                 0.082
REMARK SMILES O=c1c(O)c(-c2ccc(O)c(O)c2)oc2cc(O)cc(O)c12
REMARK SMILES IDX 5 1 3 2 2 3 1 4 22 5 20 6 19 7 17 8 16 9 15 10 14 11 6 12
REMARK SMILES IDX 7 13 8 14 9 15 13 16 11 17 10 18 12 20 4 22 21 24 18 26
REMARK H PARENT 10 19 12 21 4 23 21 25 18 27
REMARK Flexibility Score: inf
ROOT
ATOM      1  C   UNL     1       8.286   8.952  15.626  1.00  0.00     0.180 A 
ATOM      2  C   UNL     1       8.497   7.566  15.757  1.00  0.00     0.208 A 
ATOM      3  C   UNL     1       9.678   7.113  16.367  1.00  0.00     0.238 A 
ATOM      4  O   UNL     1       9.872   5.875  16.499  1.00  0.00    -0.285 OA
ATOM      5  C   UNL     1      10.633   8.048  16.816  1.00  0.00     0.111 A 
ATOM      6  C   UNL     1      11.849   7.676  17.436  1.00  0.00     0.134 A 
ATOM      7  C   UNL     1      12.753   8.668  17.847  1.00  0.00     0.093 A 
ATOM      8  C   UNL     1      12.466  10.020  17.649  1.00  0.00     0.123 A 
ATOM      9  C   UNL     1      11.266  10.394  17.037  1.00  0.00     0.094 A 
ATOM     10  C   UNL     1      10.351   9.421  16.621  1.00  0.00     0.146 A 
ATOM     11  O   UNL     1       9.217   9.804  16.047  1.00  0.00    -0.452 OA
ENDROOT
BRANCH   1  12
ATOM     12  C   UNL     1       7.058   9.507  15.012  1.00  0.00     0.025 A 
ATOM     13  C   UNL     1       5.917   8.696  14.897  1.00  0.00     0.016 A 
ATOM     14  C   UNL     1       4.754   9.191  14.303  1.00  0.00     0.051 A 
ATOM     15  C   UNL     1       4.719  10.499  13.802  1.00  0.00     0.157 A 
ATOM     16  C   UNL     1       7.026  10.812  14.489  1.00  0.00     0.062 A 
ATOM     17  C   UNL     1       5.858  11.309  13.891  1.00  0.00     0.158 A 
BRANCH  15  18
ATOM     18  O   UNL     1       3.560  10.998  13.211  1.00  0.00    -0.504 OA
ATOM     19  H   UNL     1       3.043  10.463  12.523  1.00  0.00     0.293 HD
ENDBRANCH  15  18
BRANCH  17  20
ATOM     20  O   UNL     1       5.825  12.605  13.380  1.00  0.00    -0.504 OA
ATOM     21  H   UNL     1       5.760  13.414  13.988  1.00  0.00     0.293 HD
ENDBRANCH  17  20
ENDBRANCH   1  12
BRANCH   2  22
ATOM     22  O   UNL     1       7.558   6.659  15.259  1.00  0.00    -0.502 OA
ATOM     23  H   UNL     1       7.162   6.743  14.331  1.00  0.00     0.293 HD
ENDBRANCH   2  22
BRANCH   6  24
ATOM     24  O   UNL     1      12.166   6.334  17.648  1.00  0.00    -0.507 OA
ATOM     25  H   UNL     1      13.047   5.938  17.337  1.00  0.00     0.293 HD
ENDBRANCH   6  24
BRANCH   8  26
ATOM     26  O   UNL     1      13.380  10.985  18.065  1.00  0.00    -0.508 OA
ATOM     27  H   UNL     1      14.214  10.736  18.585  1.00  0.00     0.293 HD
ENDBRANCH   8  26
TORSDOF 6
ENDMDL
