MODEL 1
REMARK VINA RESULT:    22.849      0.000      0.000
REMARK INTER + INTRA:          27.305
REMARK INTER:                  27.524
REMARK INTRA:                  -0.219
REMARK UNBOUND:                -0.219
REMARK SMILES O=c1c(O)c(-c2ccc(O)c(O)c2)oc2cc(O)cc(O)c12
REMARK SMILES IDX 5 1 3 2 2 3 1 4 22 5 20 6 19 7 17 8 16 9 15 10 14 11 6 12
REMARK SMILES IDX 7 13 8 14 9 15 13 16 11 17 10 18 12 20 4 22 21 24 18 26
REMARK H PARENT 10 19 12 21 4 23 21 25 18 27
REMARK Flexibility Score: inf
ROOT
ATOM      1  C   UNL     1      -6.257   7.231  16.056  1.00  0.00     0.180 A 
ATOM      2  C   UNL     1      -7.070   6.904  14.955  1.00  0.00     0.208 A 
ATOM      3  C   UNL     1      -7.311   5.553  14.665  1.00  0.00     0.238 A 
ATOM      4  O   UNL     1      -8.046   5.249  13.686  1.00  0.00    -0.285 OA
ATOM      5  C   UNL     1      -6.720   4.553  15.464  1.00  0.00     0.111 A 
ATOM      6  C   UNL     1      -6.908   3.168  15.237  1.00  0.00     0.134 A 
ATOM      7  C   UNL     1      -6.278   2.234  16.073  1.00  0.00     0.093 A 
ATOM      8  C   UNL     1      -5.465   2.656  17.128  1.00  0.00     0.123 A 
ATOM      9  C   UNL     1      -5.275   4.023  17.357  1.00  0.00     0.094 A 
ATOM     10  C   UNL     1      -5.897   4.969  16.537  1.00  0.00     0.146 A 
ATOM     11  O   UNL     1      -5.704   6.261  16.779  1.00  0.00    -0.452 OA
ENDROOT
BRANCH   1  12
ATOM     12  C   UNL     1      -5.972   8.633  16.437  1.00  0.00     0.025 A 
ATOM     13  C   UNL     1      -4.657   9.118  16.356  1.00  0.00     0.016 A 
ATOM     14  C   UNL     1      -4.362  10.430  16.731  1.00  0.00     0.051 A 
ATOM     15  C   UNL     1      -5.376  11.275  17.207  1.00  0.00     0.157 A 
ATOM     16  C   UNL     1      -6.982   9.476  16.935  1.00  0.00     0.062 A 
ATOM     17  C   UNL     1      -6.691  10.791  17.313  1.00  0.00     0.158 A 
BRANCH  15  18
ATOM     18  O   UNL     1      -5.079  12.585  17.578  1.00  0.00    -0.504 OA
ATOM     19  H   UNL     1      -4.289  12.802  18.174  1.00  0.00     0.293 HD
ENDBRANCH  15  18
BRANCH  17  20
ATOM     20  O   UNL     1      -7.718  11.602  17.796  1.00  0.00    -0.504 OA
ATOM     21  H   UNL     1      -8.516  11.221  18.291  1.00  0.00     0.293 HD
ENDBRANCH  17  20
ENDBRANCH   1  12
BRANCH   2  22
ATOM     22  O   UNL     1      -7.603   7.914  14.148  1.00  0.00    -0.502 OA
ATOM     23  H   UNL     1      -8.216   8.634  14.514  1.00  0.00     0.293 HD
ENDBRANCH   2  22
BRANCH   6  24
ATOM     24  O   UNL     1      -7.713   2.715  14.191  1.00  0.00    -0.507 OA
ATOM     25  H   UNL     1      -7.334   2.166  13.427  1.00  0.00     0.293 HD
ENDBRANCH   6  24
BRANCH   8  26
ATOM     26  O   UNL     1      -4.850   1.708  17.942  1.00  0.00    -0.508 OA
ATOM     27  H   UNL     1      -4.305   1.979  18.753  1.00  0.00     0.293 HD
ENDBRANCH   8  26
TORSDOF 6
ENDMDL
MODEL 2
REMARK VINA RESULT:    25.457      1.230      2.882
REMARK INTER + INTRA:          30.447
REMARK INTER:                  30.655
REMARK INTRA:                  -0.208
REMARK UNBOUND:                -0.219
REMARK SMILES O=c1c(O)c(-c2ccc(O)c(O)c2)oc2cc(O)cc(O)c12
REMARK SMILES IDX 5 1 3 2 2 3 1 4 22 5 20 6 19 7 17 8 16 9 15 10 14 11 6 12
REMARK SMILES IDX 7 13 8 14 9 15 13 16 11 17 10 18 12 20 4 22 21 24 18 26
REMARK H PARENT 10 19 12 21 4 23 21 25 18 27
REMARK Flexibility Score: inf
ROOT
ATOM      1  C   UNL     1      -5.977   7.550  16.602  1.00  0.00     0.180 A 
ATOM      2  C   UNL     1      -5.465   6.614  17.520  1.00  0.00     0.208 A 
ATOM      3  C   UNL     1      -5.708   5.249  17.304  1.00  0.00     0.238 A 
ATOM      4  O   UNL     1      -5.246   4.401  18.114  1.00  0.00    -0.285 OA
ATOM      5  C   UNL     1      -6.472   4.845  16.190  1.00  0.00     0.111 A 
ATOM      6  C   UNL     1      -6.765   3.490  15.902  1.00  0.00     0.134 A 
ATOM      7  C   UNL     1      -7.540   3.169  14.778  1.00  0.00     0.093 A 
ATOM      8  C   UNL     1      -8.027   4.174  13.938  1.00  0.00     0.123 A 
ATOM      9  C   UNL     1      -7.740   5.514  14.216  1.00  0.00     0.094 A 
ATOM     10  C   UNL     1      -6.968   5.853  15.331  1.00  0.00     0.146 A 
ATOM     11  O   UNL     1      -6.706   7.134  15.571  1.00  0.00    -0.452 OA
ENDROOT
BRANCH   1  12
ATOM     12  C   UNL     1      -5.748   9.006  16.751  1.00  0.00     0.025 A 
ATOM     13  C   UNL     1      -4.454   9.523  16.578  1.00  0.00     0.016 A 
ATOM     14  C   UNL     1      -4.211  10.889  16.734  1.00  0.00     0.051 A 
ATOM     15  C   UNL     1      -5.255  11.758  17.081  1.00  0.00     0.157 A 
ATOM     16  C   UNL     1      -6.789   9.877  17.118  1.00  0.00     0.062 A 
ATOM     17  C   UNL     1      -6.549  11.247  17.278  1.00  0.00     0.158 A 
BRANCH  15  18
ATOM     18  O   UNL     1      -5.011  13.122  17.234  1.00  0.00    -0.504 OA
ATOM     19  H   UNL     1      -5.624  13.712  17.785  1.00  0.00     0.293 HD
ENDBRANCH  15  18
BRANCH  17  20
ATOM     20  O   UNL     1      -7.606  12.083  17.637  1.00  0.00    -0.504 OA
ATOM     21  H   UNL     1      -8.506  11.718  17.926  1.00  0.00     0.293 HD
ENDBRANCH  17  20
ENDBRANCH   1  12
BRANCH   2  22
ATOM     22  O   UNL     1      -4.753   7.044  18.643  1.00  0.00    -0.502 OA
ATOM     23  H   UNL     1      -3.927   6.563  18.979  1.00  0.00     0.293 HD
ENDBRANCH   2  22
BRANCH   6  24
ATOM     24  O   UNL     1      -6.295   2.463  16.723  1.00  0.00    -0.507 OA
ATOM     25  H   UNL     1      -5.911   1.608  16.339  1.00  0.00     0.293 HD
ENDBRANCH   6  24
BRANCH   8  26
ATOM     26  O   UNL     1      -8.796   3.828  12.829  1.00  0.00    -0.508 OA
ATOM     27  H   UNL     1      -8.565   3.026  12.254  1.00  0.00     0.293 HD
ENDBRANCH   8  26
TORSDOF 6
ENDMDL
