MODEL 1
REMARK VINA RESULT:    -5.268      0.000      0.000
REMARK INTER + INTRA:          -6.773
REMARK INTER:                  -6.346
REMARK INTRA:                  -0.427
REMARK UNBOUND:                -0.427
REMARK SMILES NC(=O)C[C@H]([NH3+])C(=O)[O-]
REMARK SMILES IDX 4 1 5 2 6 3 7 7 8 8 9 9 2 10 3 11 1 12
REMARK H PARENT 6 4 6 5 6 6 1 13 1 14
REMARK Flexibility Score: inf
ROOT
ATOM      1  C   UNL     1      -7.689   7.037  -0.969  1.00  0.00     0.171 C 
ENDROOT
BRANCH   1   2
ATOM      2  C   UNL     1      -7.221   6.052  -2.059  1.00  0.00     0.237 C 
BRANCH   2   3
ATOM      3  N   UNL     1      -8.062   4.849  -2.059  1.00  0.00    -0.350 N 
ATOM      4  H   UNL     1      -7.997   4.370  -2.986  1.00  0.00     0.345 HD
ATOM      5  H   UNL     1      -7.760   4.187  -1.308  1.00  0.00     0.345 HD
ATOM      6  H   UNL     1      -9.061   5.115  -1.898  1.00  0.00     0.345 HD
ENDBRANCH   2   3
BRANCH   2   7
ATOM      7  C   UNL     1      -5.777   5.671  -1.857  1.00  0.00     0.100 C 
ATOM      8  O   UNL     1      -5.036   6.371  -1.118  1.00  0.00    -0.544 OA
ATOM      9  O   UNL     1      -5.256   4.539  -2.473  1.00  0.00    -0.544 OA
ENDBRANCH   2   7
ENDBRANCH   1   2
BRANCH   1  10
ATOM     10  C   UNL     1      -8.025   6.326   0.311  1.00  0.00     0.223 C 
ATOM     11  O   UNL     1      -9.156   5.787   0.449  1.00  0.00    -0.275 OA
ATOM     12  N   UNL     1      -7.088   6.289   1.387  1.00  0.00    -0.369 N 
ATOM     13  H   UNL     1      -6.154   6.747   1.298  1.00  0.00     0.159 HD
ATOM     14  H   UNL     1      -7.331   5.806   2.280  1.00  0.00     0.159 HD
ENDBRANCH   1  10
TORSDOF 4
ENDMDL
MODEL 2
REMARK VINA RESULT:    -5.226      1.788      3.603
REMARK INTER + INTRA:          -6.722
REMARK INTER:                  -6.388
REMARK INTRA:                  -0.333
REMARK UNBOUND:                -0.427
REMARK SMILES NC(=O)C[C@H]([NH3+])C(=O)[O-]
REMARK SMILES IDX 4 1 5 2 6 3 7 7 8 8 9 9 2 10 3 11 1 12
REMARK H PARENT 6 4 6 5 6 6 1 13 1 14
REMARK Flexibility Score: inf
ROOT
ATOM      1  C   UNL     1      -6.673   6.753  -2.154  1.00  0.00     0.171 C 
ENDROOT
BRANCH   1   2
ATOM      2  C   UNL     1      -7.191   6.686  -0.702  1.00  0.00     0.237 C 
BRANCH   2   3
ATOM      3  N   UNL     1      -6.157   6.143   0.187  1.00  0.00    -0.350 N 
ATOM      4  H   UNL     1      -5.265   6.672   0.059  1.00  0.00     0.345 HD
ATOM      5  H   UNL     1      -6.457   6.209   1.187  1.00  0.00     0.345 HD
ATOM      6  H   UNL     1      -5.978   5.139  -0.050  1.00  0.00     0.345 HD
ENDBRANCH   2   3
BRANCH   2   7
ATOM      7  C   UNL     1      -8.440   5.847  -0.614  1.00  0.00     0.100 C 
ATOM      8  O   UNL     1      -9.111   5.822   0.450  1.00  0.00    -0.544 OA
ATOM      9  O   UNL     1      -8.866   5.107  -1.711  1.00  0.00    -0.544 OA
ENDBRANCH   2   7
ENDBRANCH   1   2
BRANCH   1  10
ATOM     10  C   UNL     1      -5.441   5.915  -2.341  1.00  0.00     0.223 C 
ATOM     11  O   UNL     1      -5.528   4.658  -2.295  1.00  0.00    -0.275 OA
ATOM     12  N   UNL     1      -4.168   6.529  -2.531  1.00  0.00    -0.369 N 
ATOM     13  H   UNL     1      -4.074   7.569  -2.553  1.00  0.00     0.159 HD
ATOM     14  H   UNL     1      -3.312   5.943  -2.647  1.00  0.00     0.159 HD
ENDBRANCH   1  10
TORSDOF 4
ENDMDL
MODEL 3
REMARK VINA RESULT:    -5.214      1.801      3.735
REMARK INTER + INTRA:          -6.708
REMARK INTER:                  -6.394
REMARK INTRA:                  -0.313
REMARK UNBOUND:                -0.427
REMARK SMILES NC(=O)C[C@H]([NH3+])C(=O)[O-]
REMARK SMILES IDX 4 1 5 2 6 3 7 7 8 8 9 9 2 10 3 11 1 12
REMARK H PARENT 6 4 6 5 6 6 1 13 1 14
REMARK Flexibility Score: inf
ROOT
ATOM      1  C   UNL     1      -6.620   6.794  -2.156  1.00  0.00     0.171 C 
ENDROOT
BRANCH   1   2
ATOM      2  C   UNL     1      -7.153   6.705  -0.711  1.00  0.00     0.237 C 
BRANCH   2   3
ATOM      3  N   UNL     1      -6.126   6.152   0.180  1.00  0.00    -0.350 N 
ATOM      4  H   UNL     1      -6.393   6.321   1.177  1.00  0.00     0.345 HD
ATOM      5  H   UNL     1      -6.015   5.124   0.023  1.00  0.00     0.345 HD
ATOM      6  H   UNL     1      -5.210   6.625   0.002  1.00  0.00     0.345 HD
ENDBRANCH   2   3
BRANCH   2   7
ATOM      7  C   UNL     1      -8.400   5.862  -0.648  1.00  0.00     0.100 C 
ATOM      8  O   UNL     1      -8.734   5.152  -1.632  1.00  0.00    -0.544 OA
ATOM      9  O   UNL     1      -9.182   5.851   0.501  1.00  0.00    -0.544 OA
ENDBRANCH   2   7
ENDBRANCH   1   2
BRANCH   1  10
ATOM     10  C   UNL     1      -5.399   5.941  -2.349  1.00  0.00     0.223 C 
ATOM     11  O   UNL     1      -5.508   4.686  -2.354  1.00  0.00    -0.275 OA
ATOM     12  N   UNL     1      -4.111   6.539  -2.489  1.00  0.00    -0.369 N 
ATOM     13  H   UNL     1      -4.000   7.577  -2.468  1.00  0.00     0.159 HD
ATOM     14  H   UNL     1      -3.263   5.943  -2.608  1.00  0.00     0.159 HD
ENDBRANCH   1  10
TORSDOF 4
ENDMDL
MODEL 4
REMARK VINA RESULT:    -5.021      1.686      3.947
REMARK INTER + INTRA:          -6.476
REMARK INTER:                  -6.229
REMARK INTRA:                  -0.247
REMARK UNBOUND:                -0.427
REMARK SMILES NC(=O)C[C@H]([NH3+])C(=O)[O-]
REMARK SMILES IDX 4 1 5 2 6 3 7 7 8 8 9 9 2 10 3 11 1 12
REMARK H PARENT 6 4 6 5 6 6 1 13 1 14
REMARK Flexibility Score: inf
ROOT
ATOM      1  C   UNL     1      -5.685   6.055  -1.155  1.00  0.00     0.171 C 
ENDROOT
BRANCH   1   2
ATOM      2  C   UNL     1      -7.043   6.756  -1.363  1.00  0.00     0.237 C 
BRANCH   2   3
ATOM      3  N   UNL     1      -7.063   8.051  -0.673  1.00  0.00    -0.350 N 
ATOM      4  H   UNL     1      -6.384   8.705  -1.125  1.00  0.00     0.345 HD
ATOM      5  H   UNL     1      -8.020   8.473  -0.705  1.00  0.00     0.345 HD
ATOM      6  H   UNL     1      -6.779   7.924   0.326  1.00  0.00     0.345 HD
ENDBRANCH   2   3
BRANCH   2   7
ATOM      7  C   UNL     1      -8.176   5.892  -0.872  1.00  0.00     0.100 C 
ATOM      8  O   UNL     1      -8.724   5.066  -1.648  1.00  0.00    -0.544 OA
ATOM      9  O   UNL     1      -8.615   5.991   0.443  1.00  0.00    -0.544 OA
ENDBRANCH   2   7
ENDBRANCH   1   2
BRANCH   1  10
ATOM     10  C   UNL     1      -5.209   5.387  -2.413  1.00  0.00     0.223 C 
ATOM     11  O   UNL     1      -4.267   5.900  -3.075  1.00  0.00    -0.275 OA
ATOM     12  N   UNL     1      -5.840   4.198  -2.886  1.00  0.00    -0.369 N 
ATOM     13  H   UNL     1      -6.635   3.770  -2.361  1.00  0.00     0.159 HD
ATOM     14  H   UNL     1      -5.515   3.745  -3.769  1.00  0.00     0.159 HD
ENDBRANCH   1  10
TORSDOF 4
ENDMDL
MODEL 5
REMARK VINA RESULT:    -4.957      2.201      3.913
REMARK INTER + INTRA:          -6.398
REMARK INTER:                  -6.308
REMARK INTRA:                  -0.090
REMARK UNBOUND:                -0.427
REMARK SMILES NC(=O)C[C@H]([NH3+])C(=O)[O-]
REMARK SMILES IDX 4 1 5 2 6 3 7 7 8 8 9 9 2 10 3 11 1 12
REMARK H PARENT 6 4 6 5 6 6 1 13 1 14
REMARK Flexibility Score: inf
ROOT
ATOM      1  C   UNL     1      -6.254   5.289  -2.106  1.00  0.00     0.171 C 
ENDROOT
BRANCH   1   2
ATOM      2  C   UNL     1      -6.399   6.535  -1.209  1.00  0.00     0.237 C 
BRANCH   2   3
ATOM      3  N   UNL     1      -6.427   6.147   0.207  1.00  0.00    -0.350 N 
ATOM      4  H   UNL     1      -6.087   5.164   0.312  1.00  0.00     0.345 HD
ATOM      5  H   UNL     1      -5.822   6.783   0.776  1.00  0.00     0.345 HD
ATOM      6  H   UNL     1      -7.408   6.195   0.568  1.00  0.00     0.345 HD
ENDBRANCH   2   3
BRANCH   2   7
ATOM      7  C   UNL     1      -7.646   7.307  -1.556  1.00  0.00     0.100 C 
ATOM      8  O   UNL     1      -7.597   8.557  -1.697  1.00  0.00    -0.544 OA
ATOM      9  O   UNL     1      -8.854   6.645  -1.737  1.00  0.00    -0.544 OA
ENDBRANCH   2   7
ENDBRANCH   1   2
BRANCH   1  10
ATOM     10  C   UNL     1      -4.881   5.197  -2.706  1.00  0.00     0.223 C 
ATOM     11  O   UNL     1      -4.476   4.099  -3.175  1.00  0.00    -0.275 OA
ATOM     12  N   UNL     1      -4.015   6.331  -2.716  1.00  0.00    -0.369 N 
ATOM     13  H   UNL     1      -4.327   7.244  -2.314  1.00  0.00     0.159 HD
ATOM     14  H   UNL     1      -3.056   6.259  -3.121  1.00  0.00     0.159 HD
ENDBRANCH   1  10
TORSDOF 4
ENDMDL
MODEL 6
REMARK VINA RESULT:    -4.735      1.703      2.233
REMARK INTER + INTRA:          -6.131
REMARK INTER:                  -5.849
REMARK INTRA:                  -0.282
REMARK UNBOUND:                -0.427
REMARK SMILES NC(=O)C[C@H]([NH3+])C(=O)[O-]
REMARK SMILES IDX 4 1 5 2 6 3 7 7 8 8 9 9 2 10 3 11 1 12
REMARK H PARENT 6 4 6 5 6 6 1 13 1 14
REMARK Flexibility Score: inf
ROOT
ATOM      1  C   UNL     1      -7.392   5.309  -2.144  1.00  0.00     0.171 C 
ENDROOT
BRANCH   1   2
ATOM      2  C   UNL     1      -5.996   5.654  -1.588  1.00  0.00     0.237 C 
BRANCH   2   3
ATOM      3  N   UNL     1      -5.943   7.061  -1.171  1.00  0.00    -0.350 N 
ATOM      4  H   UNL     1      -6.745   7.273  -0.536  1.00  0.00     0.345 HD
ATOM      5  H   UNL     1      -5.046   7.265  -0.674  1.00  0.00     0.345 HD
ATOM      6  H   UNL     1      -6.017   7.681  -2.011  1.00  0.00     0.345 HD
ENDBRANCH   2   3
BRANCH   2   7
ATOM      7  C   UNL     1      -4.925   5.379  -2.612  1.00  0.00     0.100 C 
ATOM      8  O   UNL     1      -4.224   6.322  -3.063  1.00  0.00    -0.544 OA
ATOM      9  O   UNL     1      -4.694   4.081  -3.054  1.00  0.00    -0.544 OA
ENDBRANCH   2   7
ENDBRANCH   1   2
BRANCH   1  10
ATOM     10  C   UNL     1      -8.478   6.035  -1.403  1.00  0.00     0.223 C 
ATOM     11  O   UNL     1      -8.611   5.861  -0.162  1.00  0.00    -0.275 OA
ATOM     12  N   UNL     1      -9.384   6.891  -2.099  1.00  0.00    -0.369 N 
ATOM     13  H   UNL     1      -9.300   7.032  -3.130  1.00  0.00     0.159 HD
ATOM     14  H   UNL     1     -10.146   7.383  -1.582  1.00  0.00     0.159 HD
ENDBRANCH   1  10
TORSDOF 4
ENDMDL
MODEL 7
REMARK VINA RESULT:    -4.645      1.771      2.879
REMARK INTER + INTRA:          -6.022
REMARK INTER:                  -5.888
REMARK INTRA:                  -0.134
REMARK UNBOUND:                -0.427
REMARK SMILES NC(=O)C[C@H]([NH3+])C(=O)[O-]
REMARK SMILES IDX 4 1 5 2 6 3 7 7 8 8 9 9 2 10 3 11 1 12
REMARK H PARENT 6 4 6 5 6 6 1 13 1 14
REMARK Flexibility Score: inf
ROOT
ATOM      1  C   UNL     1      -7.420   7.608  -0.966  1.00  0.00     0.171 C 
ENDROOT
BRANCH   1   2
ATOM      2  C   UNL     1      -8.200   6.888  -2.085  1.00  0.00     0.237 C 
BRANCH   2   3
ATOM      3  N   UNL     1      -9.133   7.814  -2.738  1.00  0.00    -0.350 N 
ATOM      4  H   UNL     1      -8.663   8.280  -3.547  1.00  0.00     0.345 HD
ATOM      5  H   UNL     1      -9.981   7.305  -3.079  1.00  0.00     0.345 HD
ATOM      6  H   UNL     1      -9.429   8.555  -2.061  1.00  0.00     0.345 HD
ENDBRANCH   2   3
BRANCH   2   7
ATOM      7  C   UNL     1      -8.950   5.699  -1.541  1.00  0.00     0.100 C 
ATOM      8  O   UNL     1      -9.667   5.821  -0.513  1.00  0.00    -0.544 OA
ATOM      9  O   UNL     1      -8.866   4.466  -2.175  1.00  0.00    -0.544 OA
ENDBRANCH   2   7
ENDBRANCH   1   2
BRANCH   1  10
ATOM     10  C   UNL     1      -6.578   6.649  -0.174  1.00  0.00     0.223 C 
ATOM     11  O   UNL     1      -5.579   6.102  -0.714  1.00  0.00    -0.275 OA
ATOM     12  N   UNL     1      -6.921   6.324   1.172  1.00  0.00    -0.369 N 
ATOM     13  H   UNL     1      -7.756   6.753   1.629  1.00  0.00     0.159 HD
ATOM     14  H   UNL     1      -6.341   5.646   1.714  1.00  0.00     0.159 HD
ENDBRANCH   1  10
TORSDOF 4
ENDMDL
MODEL 8
REMARK VINA RESULT:    -4.641      2.083      2.506
REMARK INTER + INTRA:          -6.018
REMARK INTER:                  -5.920
REMARK INTRA:                  -0.098
REMARK UNBOUND:                -0.427
REMARK SMILES NC(=O)C[C@H]([NH3+])C(=O)[O-]
REMARK SMILES IDX 4 1 5 2 6 3 7 7 8 8 9 9 2 10 3 11 1 12
REMARK H PARENT 6 4 6 5 6 6 1 13 1 14
REMARK Flexibility Score: inf
ROOT
ATOM      1  C   UNL     1      -6.579   6.545  -1.964  1.00  0.00     0.171 C 
ENDROOT
BRANCH   1   2
ATOM      2  C   UNL     1      -5.195   5.899  -2.178  1.00  0.00     0.237 C 
BRANCH   2   3
ATOM      3  N   UNL     1      -4.371   6.733  -3.060  1.00  0.00    -0.350 N 
ATOM      4  H   UNL     1      -3.419   6.311  -3.160  1.00  0.00     0.345 HD
ATOM      5  H   UNL     1      -4.811   6.818  -4.006  1.00  0.00     0.345 HD
ATOM      6  H   UNL     1      -4.263   7.688  -2.646  1.00  0.00     0.345 HD
ENDBRANCH   2   3
BRANCH   2   7
ATOM      7  C   UNL     1      -5.332   4.514  -2.757  1.00  0.00     0.100 C 
ATOM      8  O   UNL     1      -6.473   4.025  -2.965  1.00  0.00    -0.544 OA
ATOM      9  O   UNL     1      -4.201   3.773  -3.079  1.00  0.00    -0.544 OA
ENDBRANCH   2   7
ENDBRANCH   1   2
BRANCH   1  10
ATOM     10  C   UNL     1      -6.724   7.093  -0.574  1.00  0.00     0.223 C 
ATOM     11  O   UNL     1      -6.872   8.333  -0.403  1.00  0.00    -0.275 OA
ATOM     12  N   UNL     1      -6.657   6.227   0.558  1.00  0.00    -0.369 N 
ATOM     13  H   UNL     1      -6.515   5.200   0.437  1.00  0.00     0.159 HD
ATOM     14  H   UNL     1      -6.744   6.614   1.524  1.00  0.00     0.159 HD
ENDBRANCH   1  10
TORSDOF 4
ENDMDL
MODEL 9
REMARK VINA RESULT:    -4.443      2.398      3.712
REMARK INTER + INTRA:          -5.779
REMARK INTER:                  -5.574
REMARK INTRA:                  -0.205
REMARK UNBOUND:                -0.427
REMARK SMILES NC(=O)C[C@H]([NH3+])C(=O)[O-]
REMARK SMILES IDX 4 1 5 2 6 3 7 7 8 8 9 9 2 10 3 11 1 12
REMARK H PARENT 6 4 6 5 6 6 1 13 1 14
REMARK Flexibility Score: inf
ROOT
ATOM      1  C   UNL     1      -7.124   7.254  -1.981  1.00  0.00     0.171 C 
ENDROOT
BRANCH   1   2
ATOM      2  C   UNL     1      -7.430   6.849  -0.525  1.00  0.00     0.237 C 
BRANCH   2   3
ATOM      3  N   UNL     1      -6.260   6.203   0.084  1.00  0.00    -0.350 N 
ATOM      4  H   UNL     1      -5.420   6.816  -0.023  1.00  0.00     0.345 HD
ATOM      5  H   UNL     1      -6.426   6.021   1.100  1.00  0.00     0.345 HD
ATOM      6  H   UNL     1      -6.066   5.295  -0.399  1.00  0.00     0.345 HD
ENDBRANCH   2   3
BRANCH   2   7
ATOM      7  C   UNL     1      -8.620   5.927  -0.460  1.00  0.00     0.100 C 
ATOM      8  O   UNL     1      -9.293   5.836   0.599  1.00  0.00    -0.544 OA
ATOM      9  O   UNL     1      -8.991   5.181  -1.574  1.00  0.00    -0.544 OA
ENDBRANCH   2   7
ENDBRANCH   1   2
BRANCH   1  10
ATOM     10  C   UNL     1      -8.026   8.361  -2.447  1.00  0.00     0.223 C 
ATOM     11  O   UNL     1      -7.712   9.560  -2.219  1.00  0.00    -0.275 OA
ATOM     12  N   UNL     1      -9.253   8.066  -3.113  1.00  0.00    -0.369 N 
ATOM     13  H   UNL     1      -9.538   7.078  -3.294  1.00  0.00     0.159 HD
ATOM     14  H   UNL     1      -9.883   8.838  -3.423  1.00  0.00     0.159 HD
ENDBRANCH   1  10
TORSDOF 4
ENDMDL
