MODEL 1
REMARK VINA RESULT:    -0.479      0.000      0.000
REMARK INTER + INTRA:          -3.207
REMARK INTER:                  -1.206
REMARK INTRA:                  -2.001
REMARK UNBOUND:                -2.001
REMARK SMILES CCCCCCCCCCCCCCCCCCCCCCCCCCCC(=O)[O-]
REMARK SMILES IDX 15 1 16 2 17 3 18 4 19 5 20 6 21 7 22 8 23 9 24 10 25 11
REMARK SMILES IDX 26 12 27 13 28 14 29 15 30 16 14 17 13 18 12 19 11 20 10 21
REMARK SMILES IDX 9 22 8 23 7 24 6 25 5 26 4 27 3 28 2 29 1 30
REMARK H PARENT
REMARK Flexibility Score: inf
ROOT
ATOM      1  C   UNL     1      -9.770  36.513  -0.878  1.00  0.00     0.000 C 
ENDROOT
BRANCH   1   2
ATOM      2  C   UNL     1      -9.036  37.866  -0.919  1.00  0.00     0.000 C 
BRANCH   2   3
ATOM      3  C   UNL     1      -7.622  37.745  -1.527  1.00  0.00     0.000 C 
BRANCH   3   4
ATOM      4  C   UNL     1      -6.489  37.896  -0.495  1.00  0.00     0.000 C 
BRANCH   4   5
ATOM      5  C   UNL     1      -5.092  37.855  -1.133  1.00  0.00     0.000 C 
BRANCH   5   6
ATOM      6  C   UNL     1      -4.078  37.019  -0.333  1.00  0.00     0.000 C 
BRANCH   6   7
ATOM      7  C   UNL     1      -3.882  35.584  -0.862  1.00  0.00     0.000 C 
BRANCH   7   8
ATOM      8  C   UNL     1      -4.426  34.499   0.095  1.00  0.00     0.000 C 
BRANCH   8   9
ATOM      9  C   UNL     1      -4.765  35.054   1.490  1.00  0.00     0.000 C 
BRANCH   9  10
ATOM     10  C   UNL     1      -6.261  34.912   1.854  1.00  0.00     0.000 C 
BRANCH  10  11
ATOM     11  C   UNL     1      -7.133  34.365   0.708  1.00  0.00     0.000 C 
BRANCH  11  12
ATOM     12  C   UNL     1      -7.769  32.991   0.979  1.00  0.00     0.006 C 
BRANCH  12  13
ATOM     13  C   UNL     1      -6.736  31.922   1.364  1.00  0.00     0.053 C 
BRANCH  13  14
ATOM     14  C   UNL     1      -7.410  30.625   1.686  1.00  0.00     0.041 C 
ATOM     15  O   UNL     1      -7.857  30.413   2.847  1.00  0.00    -0.550 OA
ATOM     16  O   UNL     1      -7.550  29.649   0.706  1.00  0.00    -0.550 OA
ENDBRANCH  13  14
ENDBRANCH  12  13
ENDBRANCH  11  12
ENDBRANCH  10  11
ENDBRANCH   9  10
ENDBRANCH   8   9
ENDBRANCH   7   8
ENDBRANCH   6   7
ENDBRANCH   5   6
ENDBRANCH   4   5
ENDBRANCH   3   4
ENDBRANCH   2   3
ENDBRANCH   1   2
BRANCH   1  17
ATOM     17  C   UNL     1     -11.128  36.551  -1.600  1.00  0.00     0.000 C 
BRANCH  17  18
ATOM     18  C   UNL     1     -11.047  36.455  -3.134  1.00  0.00     0.000 C 
BRANCH  18  19
ATOM     19  C   UNL     1     -12.410  36.155  -3.783  1.00  0.00     0.000 C 
BRANCH  19  20
ATOM     20  C   UNL     1     -12.297  35.882  -5.292  1.00  0.00     0.000 C 
BRANCH  20  21
ATOM     21  C   UNL     1     -13.579  36.258  -6.053  1.00  0.00     0.000 C 
BRANCH  21  22
ATOM     22  C   UNL     1     -13.836  35.288  -7.216  1.00  0.00    -0.000 C 
BRANCH  22  23
ATOM     23  C   UNL     1     -13.364  35.840  -8.574  1.00  0.00    -0.000 C 
BRANCH  23  24
ATOM     24  C   UNL     1     -13.749  34.989  -9.799  1.00  0.00    -0.000 C 
BRANCH  24  25
ATOM     25  C   UNL     1     -14.771  33.890  -9.469  1.00  0.00    -0.000 C 
BRANCH  25  26
ATOM     26  C   UNL     1     -16.105  34.079 -10.209  1.00  0.00    -0.000 C 
BRANCH  26  27
ATOM     27  C   UNL     1     -16.148  33.395 -11.594  1.00  0.00    -0.000 C 
BRANCH  27  28
ATOM     28  C   UNL     1     -17.590  33.144 -12.067  1.00  0.00    -0.000 C 
BRANCH  28  29
ATOM     29  C   UNL     1     -17.934  33.917 -13.349  1.00  0.00    -0.003 C 
ATOM     30  C   UNL     1     -19.425  34.243 -13.458  1.00  0.00     0.004 C 
ENDBRANCH  28  29
ENDBRANCH  27  28
ENDBRANCH  26  27
ENDBRANCH  25  26
ENDBRANCH  24  25
ENDBRANCH  23  24
ENDBRANCH  22  23
ENDBRANCH  21  22
ENDBRANCH  20  21
ENDBRANCH  19  20
ENDBRANCH  18  19
ENDBRANCH  17  18
ENDBRANCH   1  17
TORSDOF 26
ENDMDL
MODEL 2
REMARK VINA RESULT:    -0.153      1.208      1.506
REMARK INTER + INTRA:          -2.386
REMARK INTER:                  -1.455
REMARK INTRA:                  -0.931
REMARK UNBOUND:                -2.001
REMARK SMILES CCCCCCCCCCCCCCCCCCCCCCCCCCCC(=O)[O-]
REMARK SMILES IDX 15 1 16 2 17 3 18 4 19 5 20 6 21 7 22 8 23 9 24 10 25 11
REMARK SMILES IDX 26 12 27 13 28 14 29 15 30 16 14 17 13 18 12 19 11 20 10 21
REMARK SMILES IDX 9 22 8 23 7 24 6 25 5 26 4 27 3 28 2 29 1 30
REMARK H PARENT
REMARK Flexibility Score: inf
ROOT
ATOM      1  C   UNL     1      -9.527  36.622  -0.942  1.00  0.00     0.000 C 
ENDROOT
BRANCH   1   2
ATOM      2  C   UNL     1      -9.073  38.063  -1.235  1.00  0.00     0.000 C 
BRANCH   2   3
ATOM      3  C   UNL     1      -7.845  38.111  -2.168  1.00  0.00     0.000 C 
BRANCH   3   4
ATOM      4  C   UNL     1      -6.498  38.106  -1.422  1.00  0.00     0.000 C 
BRANCH   4   5
ATOM      5  C   UNL     1      -5.293  37.964  -2.366  1.00  0.00     0.000 C 
BRANCH   5   6
ATOM      6  C   UNL     1      -4.011  37.497  -1.654  1.00  0.00     0.000 C 
BRANCH   6   7
ATOM      7  C   UNL     1      -4.004  36.003  -1.276  1.00  0.00     0.000 C 
BRANCH   7   8
ATOM      8  C   UNL     1      -3.997  35.758   0.250  1.00  0.00     0.000 C 
BRANCH   8   9
ATOM      9  C   UNL     1      -4.041  37.064   1.061  1.00  0.00     0.000 C 
BRANCH   9  10
ATOM     10  C   UNL     1      -5.450  37.396   1.605  1.00  0.00     0.000 C 
BRANCH  10  11
ATOM     11  C   UNL     1      -6.497  36.299   1.334  1.00  0.00     0.000 C 
BRANCH  11  12
ATOM     12  C   UNL     1      -6.435  35.097   2.290  1.00  0.00     0.006 C 
BRANCH  12  13
ATOM     13  C   UNL     1      -5.989  33.803   1.594  1.00  0.00     0.053 C 
BRANCH  13  14
ATOM     14  C   UNL     1      -7.169  33.042   1.079  1.00  0.00     0.041 C 
ATOM     15  O   UNL     1      -7.239  31.792   1.237  1.00  0.00    -0.550 OA
ATOM     16  O   UNL     1      -8.199  33.712   0.426  1.00  0.00    -0.550 OA
ENDBRANCH  13  14
ENDBRANCH  12  13
ENDBRANCH  11  12
ENDBRANCH  10  11
ENDBRANCH   9  10
ENDBRANCH   8   9
ENDBRANCH   7   8
ENDBRANCH   6   7
ENDBRANCH   5   6
ENDBRANCH   4   5
ENDBRANCH   3   4
ENDBRANCH   2   3
ENDBRANCH   1   2
BRANCH   1  17
ATOM     17  C   UNL     1     -10.928  36.314  -1.498  1.00  0.00     0.000 C 
BRANCH  17  18
ATOM     18  C   UNL     1     -11.110  36.619  -2.996  1.00  0.00     0.000 C 
BRANCH  18  19
ATOM     19  C   UNL     1     -12.376  35.971  -3.584  1.00  0.00     0.000 C 
BRANCH  19  20
ATOM     20  C   UNL     1     -12.247  35.682  -5.089  1.00  0.00     0.000 C 
BRANCH  20  21
ATOM     21  C   UNL     1     -13.296  36.434  -5.922  1.00  0.00     0.000 C 
BRANCH  21  22
ATOM     22  C   UNL     1     -13.826  35.556  -7.066  1.00  0.00    -0.000 C 
BRANCH  22  23
ATOM     23  C   UNL     1     -13.178  35.883  -8.425  1.00  0.00    -0.000 C 
BRANCH  23  24
ATOM     24  C   UNL     1     -13.679  35.039  -9.612  1.00  0.00    -0.000 C 
BRANCH  24  25
ATOM     25  C   UNL     1     -14.826  34.089  -9.232  1.00  0.00    -0.000 C 
BRANCH  25  26
ATOM     26  C   UNL     1     -15.959  34.083 -10.271  1.00  0.00    -0.000 C 
BRANCH  26  27
ATOM     27  C   UNL     1     -15.630  33.269 -11.542  1.00  0.00    -0.000 C 
BRANCH  27  28
ATOM     28  C   UNL     1     -16.588  33.599 -12.700  1.00  0.00    -0.000 C 
BRANCH  28  29
ATOM     29  C   UNL     1     -17.991  33.992 -12.212  1.00  0.00    -0.003 C 
ATOM     30  C   UNL     1     -19.026  33.994 -13.339  1.00  0.00     0.004 C 
ENDBRANCH  28  29
ENDBRANCH  27  28
ENDBRANCH  26  27
ENDBRANCH  25  26
ENDBRANCH  24  25
ENDBRANCH  23  24
ENDBRANCH  22  23
ENDBRANCH  21  22
ENDBRANCH  20  21
ENDBRANCH  19  20
ENDBRANCH  18  19
ENDBRANCH  17  18
ENDBRANCH   1  17
TORSDOF 26
ENDMDL
MODEL 3
REMARK VINA RESULT:     0.800      0.991      1.784
REMARK INTER + INTRA:           0.015
REMARK INTER:                   1.369
REMARK INTRA:                  -1.354
REMARK UNBOUND:                -2.001
REMARK SMILES CCCCCCCCCCCCCCCCCCCCCCCCCCCC(=O)[O-]
REMARK SMILES IDX 15 1 16 2 17 3 18 4 19 5 20 6 21 7 22 8 23 9 24 10 25 11
REMARK SMILES IDX 26 12 27 13 28 14 29 15 30 16 14 17 13 18 12 19 11 20 10 21
REMARK SMILES IDX 9 22 8 23 7 24 6 25 5 26 4 27 3 28 2 29 1 30
REMARK H PARENT
REMARK Flexibility Score: inf
ROOT
ATOM      1  C   UNL     1     -11.977  36.241  -1.932  1.00  0.00     0.000 C 
ENDROOT
BRANCH   1   2
ATOM      2  C   UNL     1     -10.744  36.426  -1.030  1.00  0.00     0.000 C 
BRANCH   2   3
ATOM      3  C   UNL     1      -9.557  37.059  -1.787  1.00  0.00     0.000 C 
BRANCH   3   4
ATOM      4  C   UNL     1      -8.790  38.113  -0.967  1.00  0.00     0.000 C 
BRANCH   4   5
ATOM      5  C   UNL     1      -7.277  38.094  -1.236  1.00  0.00     0.000 C 
BRANCH   5   6
ATOM      6  C   UNL     1      -6.428  38.104   0.047  1.00  0.00     0.000 C 
BRANCH   6   7
ATOM      7  C   UNL     1      -5.298  37.056   0.067  1.00  0.00     0.000 C 
BRANCH   7   8
ATOM      8  C   UNL     1      -5.114  36.380   1.445  1.00  0.00     0.000 C 
BRANCH   8   9
ATOM      9  C   UNL     1      -6.449  35.958   2.082  1.00  0.00     0.000 C 
BRANCH   9  10
ATOM     10  C   UNL     1      -7.363  35.171   1.114  1.00  0.00     0.000 C 
BRANCH  10  11
ATOM     11  C   UNL     1      -6.731  33.875   0.575  1.00  0.00     0.000 C 
BRANCH  11  12
ATOM     12  C   UNL     1      -7.499  32.588   0.922  1.00  0.00     0.006 C 
BRANCH  12  13
ATOM     13  C   UNL     1      -6.616  31.530   1.599  1.00  0.00     0.053 C 
BRANCH  13  14
ATOM     14  C   UNL     1      -7.355  30.237   1.745  1.00  0.00     0.041 C 
ATOM     15  O   UNL     1      -7.757  29.859   2.879  1.00  0.00    -0.550 OA
ATOM     16  O   UNL     1      -7.604  29.447   0.628  1.00  0.00    -0.550 OA
ENDBRANCH  13  14
ENDBRANCH  12  13
ENDBRANCH  11  12
ENDBRANCH  10  11
ENDBRANCH   9  10
ENDBRANCH   8   9
ENDBRANCH   7   8
ENDBRANCH   6   7
ENDBRANCH   5   6
ENDBRANCH   4   5
ENDBRANCH   3   4
ENDBRANCH   2   3
ENDBRANCH   1   2
BRANCH   1  17
ATOM     17  C   UNL     1     -11.607  35.927  -3.392  1.00  0.00     0.000 C 
BRANCH  17  18
ATOM     18  C   UNL     1     -12.631  36.408  -4.436  1.00  0.00     0.000 C 
BRANCH  18  19
ATOM     19  C   UNL     1     -12.472  35.699  -5.793  1.00  0.00     0.000 C 
BRANCH  19  20
ATOM     20  C   UNL     1     -13.606  36.041  -6.774  1.00  0.00     0.000 C 
BRANCH  20  21
ATOM     21  C   UNL     1     -13.077  36.531  -8.131  1.00  0.00     0.000 C 
BRANCH  21  22
ATOM     22  C   UNL     1     -13.372  35.511  -9.240  1.00  0.00    -0.000 C 
BRANCH  22  23
ATOM     23  C   UNL     1     -14.274  34.354  -8.769  1.00  0.00    -0.000 C 
BRANCH  23  24
ATOM     24  C   UNL     1     -15.449  34.013  -9.705  1.00  0.00    -0.000 C 
BRANCH  24  25
ATOM     25  C   UNL     1     -14.992  33.472 -11.069  1.00  0.00    -0.000 C 
BRANCH  25  26
ATOM     26  C   UNL     1     -16.056  33.653 -12.164  1.00  0.00    -0.000 C 
BRANCH  26  27
ATOM     27  C   UNL     1     -17.480  33.886 -11.612  1.00  0.00    -0.000 C 
BRANCH  27  28
ATOM     28  C   UNL     1     -18.559  33.306 -12.542  1.00  0.00    -0.000 C 
BRANCH  28  29
ATOM     29  C   UNL     1     -18.923  34.258 -13.692  1.00  0.00    -0.003 C 
ATOM     30  C   UNL     1     -20.385  34.125 -14.126  1.00  0.00     0.004 C 
ENDBRANCH  28  29
ENDBRANCH  27  28
ENDBRANCH  26  27
ENDBRANCH  25  26
ENDBRANCH  24  25
ENDBRANCH  23  24
ENDBRANCH  22  23
ENDBRANCH  21  22
ENDBRANCH  20  21
ENDBRANCH  19  20
ENDBRANCH  18  19
ENDBRANCH  17  18
ENDBRANCH   1  17
TORSDOF 26
ENDMDL
MODEL 4
REMARK VINA RESULT:     1.022      4.676     12.881
REMARK INTER + INTRA:           0.575
REMARK INTER:                   1.358
REMARK INTRA:                  -0.783
REMARK UNBOUND:                -2.001
REMARK SMILES CCCCCCCCCCCCCCCCCCCCCCCCCCCC(=O)[O-]
REMARK SMILES IDX 15 1 16 2 17 3 18 4 19 5 20 6 21 7 22 8 23 9 24 10 25 11
REMARK SMILES IDX 26 12 27 13 28 14 29 15 30 16 14 17 13 18 12 19 11 20 10 21
REMARK SMILES IDX 9 22 8 23 7 24 6 25 5 26 4 27 3 28 2 29 1 30
REMARK H PARENT
REMARK Flexibility Score: inf
ROOT
ATOM      1  C   UNL     1      -9.466  37.367  -1.670  1.00  0.00     0.000 C 
ENDROOT
BRANCH   1   2
ATOM      2  C   UNL     1     -10.568  36.586  -0.934  1.00  0.00     0.000 C 
BRANCH   2   3
ATOM      3  C   UNL     1     -11.796  36.321  -1.832  1.00  0.00     0.000 C 
BRANCH   3   4
ATOM      4  C   UNL     1     -11.443  36.093  -3.313  1.00  0.00     0.000 C 
BRANCH   4   5
ATOM      5  C   UNL     1     -12.652  36.255  -4.247  1.00  0.00     0.000 C 
BRANCH   5   6
ATOM      6  C   UNL     1     -12.329  35.966  -5.723  1.00  0.00     0.000 C 
BRANCH   6   7
ATOM      7  C   UNL     1     -13.569  35.815  -6.626  1.00  0.00     0.000 C 
BRANCH   7   8
ATOM      8  C   UNL     1     -13.383  36.434  -8.030  1.00  0.00     0.000 C 
BRANCH   8   9
ATOM      9  C   UNL     1     -13.147  35.374  -9.120  1.00  0.00     0.000 C 
BRANCH   9  10
ATOM     10  C   UNL     1     -14.343  34.411  -9.300  1.00  0.00     0.000 C 
BRANCH  10  11
ATOM     11  C   UNL     1     -14.853  34.314 -10.750  1.00  0.00     0.000 C 
BRANCH  11  12
ATOM     12  C   UNL     1     -16.075  33.402 -10.946  1.00  0.00     0.006 C 
BRANCH  12  13
ATOM     13  C   UNL     1     -16.705  33.539 -12.340  1.00  0.00     0.053 C 
BRANCH  13  14
ATOM     14  C   UNL     1     -18.126  33.995 -12.237  1.00  0.00     0.041 C 
ATOM     15  O   UNL     1     -18.891  33.921 -13.238  1.00  0.00    -0.550 OA
ATOM     16  O   UNL     1     -18.612  34.500 -11.036  1.00  0.00    -0.550 OA
ENDBRANCH  13  14
ENDBRANCH  12  13
ENDBRANCH  11  12
ENDBRANCH  10  11
ENDBRANCH   9  10
ENDBRANCH   8   9
ENDBRANCH   7   8
ENDBRANCH   6   7
ENDBRANCH   5   6
ENDBRANCH   4   5
ENDBRANCH   3   4
ENDBRANCH   2   3
ENDBRANCH   1   2
BRANCH   1  17
ATOM     17  C   UNL     1      -8.526  38.118  -0.711  1.00  0.00     0.000 C 
BRANCH  17  18
ATOM     18  C   UNL     1      -7.178  37.421  -0.450  1.00  0.00     0.000 C 
BRANCH  18  19
ATOM     19  C   UNL     1      -6.058  37.929  -1.376  1.00  0.00     0.000 C 
BRANCH  19  20
ATOM     20  C   UNL     1      -4.655  37.675  -0.799  1.00  0.00     0.000 C 
BRANCH  20  21
ATOM     21  C   UNL     1      -4.431  36.200  -0.432  1.00  0.00     0.000 C 
BRANCH  21  22
ATOM     22  C   UNL     1      -4.309  36.021   1.088  1.00  0.00    -0.000 C 
BRANCH  22  23
ATOM     23  C   UNL     1      -5.669  36.066   1.810  1.00  0.00    -0.000 C 
BRANCH  23  24
ATOM     24  C   UNL     1      -6.537  34.802   1.657  1.00  0.00    -0.000 C 
BRANCH  24  25
ATOM     25  C   UNL     1      -5.707  33.522   1.478  1.00  0.00    -0.000 C 
BRANCH  25  26
ATOM     26  C   UNL     1      -6.547  32.337   0.972  1.00  0.00    -0.000 C 
BRANCH  26  27
ATOM     27  C   UNL     1      -7.297  31.586   2.095  1.00  0.00    -0.000 C 
BRANCH  27  28
ATOM     28  C   UNL     1      -7.626  30.137   1.697  1.00  0.00    -0.000 C 
BRANCH  28  29
ATOM     29  C   UNL     1      -7.424  29.876   0.196  1.00  0.00    -0.003 C 
ATOM     30  C   UNL     1      -8.414  28.851  -0.362  1.00  0.00     0.004 C 
ENDBRANCH  28  29
ENDBRANCH  27  28
ENDBRANCH  26  27
ENDBRANCH  25  26
ENDBRANCH  24  25
ENDBRANCH  23  24
ENDBRANCH  22  23
ENDBRANCH  21  22
ENDBRANCH  20  21
ENDBRANCH  19  20
ENDBRANCH  18  19
ENDBRANCH  17  18
ENDBRANCH   1  17
TORSDOF 26
ENDMDL
MODEL 5
REMARK VINA RESULT:     1.082      4.426     12.730
REMARK INTER + INTRA:           0.727
REMARK INTER:                   2.135
REMARK INTRA:                  -1.408
REMARK UNBOUND:                -2.001
REMARK SMILES CCCCCCCCCCCCCCCCCCCCCCCCCCCC(=O)[O-]
REMARK SMILES IDX 15 1 16 2 17 3 18 4 19 5 20 6 21 7 22 8 23 9 24 10 25 11
REMARK SMILES IDX 26 12 27 13 28 14 29 15 30 16 14 17 13 18 12 19 11 20 10 21
REMARK SMILES IDX 9 22 8 23 7 24 6 25 5 26 4 27 3 28 2 29 1 30
REMARK H PARENT
REMARK Flexibility Score: inf
ROOT
ATOM      1  C   UNL     1      -8.537  38.125  -1.097  1.00  0.00     0.000 C 
ENDROOT
BRANCH   1   2
ATOM      2  C   UNL     1      -9.342  37.207  -2.035  1.00  0.00     0.000 C 
BRANCH   2   3
ATOM      3  C   UNL     1     -10.439  36.423  -1.284  1.00  0.00     0.000 C 
BRANCH   3   4
ATOM      4  C   UNL     1     -11.741  36.255  -2.088  1.00  0.00     0.000 C 
BRANCH   4   5
ATOM      5  C   UNL     1     -11.492  36.025  -3.587  1.00  0.00     0.000 C 
BRANCH   5   6
ATOM      6  C   UNL     1     -12.615  36.573  -4.485  1.00  0.00     0.000 C 
BRANCH   6   7
ATOM      7  C   UNL     1     -13.149  35.563  -5.520  1.00  0.00     0.000 C 
BRANCH   7   8
ATOM      8  C   UNL     1     -13.245  36.144  -6.949  1.00  0.00     0.000 C 
BRANCH   8   9
ATOM      9  C   UNL     1     -13.681  35.096  -7.988  1.00  0.00     0.000 C 
BRANCH   9  10
ATOM     10  C   UNL     1     -13.142  35.386  -9.408  1.00  0.00     0.000 C 
BRANCH  10  11
ATOM     11  C   UNL     1     -14.136  35.044 -10.534  1.00  0.00     0.000 C 
BRANCH  11  12
ATOM     12  C   UNL     1     -15.183  33.978 -10.170  1.00  0.00     0.006 C 
BRANCH  12  13
ATOM     13  C   UNL     1     -15.897  33.400 -11.400  1.00  0.00     0.053 C 
BRANCH  13  14
ATOM     14  C   UNL     1     -17.327  33.839 -11.439  1.00  0.00     0.041 C 
ATOM     15  O   UNL     1     -18.011  33.874 -10.379  1.00  0.00    -0.550 OA
ATOM     16  O   UNL     1     -17.908  34.216 -12.645  1.00  0.00    -0.550 OA
ENDBRANCH  13  14
ENDBRANCH  12  13
ENDBRANCH  11  12
ENDBRANCH  10  11
ENDBRANCH   9  10
ENDBRANCH   8   9
ENDBRANCH   7   8
ENDBRANCH   6   7
ENDBRANCH   5   6
ENDBRANCH   4   5
ENDBRANCH   3   4
ENDBRANCH   2   3
ENDBRANCH   1   2
BRANCH   1  17
ATOM     17  C   UNL     1      -7.513  37.355  -0.245  1.00  0.00     0.000 C 
BRANCH  17  18
ATOM     18  C   UNL     1      -7.121  38.046   1.074  1.00  0.00     0.000 C 
BRANCH  18  19
ATOM     19  C   UNL     1      -5.626  37.890   1.404  1.00  0.00     0.000 C 
BRANCH  19  20
ATOM     20  C   UNL     1      -4.764  37.669   0.149  1.00  0.00     0.000 C 
BRANCH  20  21
ATOM     21  C   UNL     1      -3.875  36.420   0.262  1.00  0.00     0.000 C 
BRANCH  21  22
ATOM     22  C   UNL     1      -4.549  35.202  -0.385  1.00  0.00    -0.000 C 
BRANCH  22  23
ATOM     23  C   UNL     1      -4.117  33.867   0.252  1.00  0.00    -0.000 C 
BRANCH  23  24
ATOM     24  C   UNL     1      -4.434  33.721   1.752  1.00  0.00    -0.000 C 
BRANCH  24  25
ATOM     25  C   UNL     1      -5.934  33.847   2.064  1.00  0.00    -0.000 C 
BRANCH  25  26
ATOM     26  C   UNL     1      -6.811  33.746   0.806  1.00  0.00    -0.000 C 
BRANCH  26  27
ATOM     27  C   UNL     1      -7.489  32.368   0.632  1.00  0.00    -0.000 C 
BRANCH  27  28
ATOM     28  C   UNL     1      -6.907  31.317   1.592  1.00  0.00    -0.000 C 
BRANCH  28  29
ATOM     29  C   UNL     1      -7.924  30.226   1.961  1.00  0.00    -0.003 C 
ATOM     30  C   UNL     1      -7.847  29.823   3.435  1.00  0.00     0.004 C 
ENDBRANCH  28  29
ENDBRANCH  27  28
ENDBRANCH  26  27
ENDBRANCH  25  26
ENDBRANCH  24  25
ENDBRANCH  23  24
ENDBRANCH  22  23
ENDBRANCH  21  22
ENDBRANCH  20  21
ENDBRANCH  19  20
ENDBRANCH  18  19
ENDBRANCH  17  18
ENDBRANCH   1  17
TORSDOF 26
ENDMDL
MODEL 6
REMARK VINA RESULT:     1.502      1.774      3.091
REMARK INTER + INTRA:           1.785
REMARK INTER:                   2.326
REMARK INTRA:                  -0.541
REMARK UNBOUND:                -2.001
REMARK SMILES CCCCCCCCCCCCCCCCCCCCCCCCCCCC(=O)[O-]
REMARK SMILES IDX 15 1 16 2 17 3 18 4 19 5 20 6 21 7 22 8 23 9 24 10 25 11
REMARK SMILES IDX 26 12 27 13 28 14 29 15 30 16 14 17 13 18 12 19 11 20 10 21
REMARK SMILES IDX 9 22 8 23 7 24 6 25 5 26 4 27 3 28 2 29 1 30
REMARK H PARENT
REMARK Flexibility Score: inf
ROOT
ATOM      1  C   UNL     1     -12.461  35.921  -2.528  1.00  0.00     0.000 C 
ENDROOT
BRANCH   1   2
ATOM      2  C   UNL     1     -11.471  36.255  -1.398  1.00  0.00     0.000 C 
BRANCH   2   3
ATOM      3  C   UNL     1     -10.094  36.696  -1.939  1.00  0.00     0.000 C 
BRANCH   3   4
ATOM      4  C   UNL     1      -9.267  37.516  -0.932  1.00  0.00     0.000 C 
BRANCH   4   5
ATOM      5  C   UNL     1      -7.915  37.974  -1.503  1.00  0.00     0.000 C 
BRANCH   5   6
ATOM      6  C   UNL     1      -6.744  37.793  -0.522  1.00  0.00     0.000 C 
BRANCH   6   7
ATOM      7  C   UNL     1      -5.357  37.742  -1.192  1.00  0.00     0.000 C 
BRANCH   7   8
ATOM      8  C   UNL     1      -4.187  37.862  -0.189  1.00  0.00     0.000 C 
BRANCH   8   9
ATOM      9  C   UNL     1      -4.116  36.673   0.785  1.00  0.00     0.000 C 
BRANCH   9  10
ATOM     10  C   UNL     1      -4.391  35.312   0.105  1.00  0.00     0.000 C 
BRANCH  10  11
ATOM     11  C   UNL     1      -3.895  34.099   0.915  1.00  0.00     0.000 C 
BRANCH  11  12
ATOM     12  C   UNL     1      -4.963  33.434   1.800  1.00  0.00     0.006 C 
BRANCH  12  13
ATOM     13  C   UNL     1      -6.219  33.028   1.016  1.00  0.00     0.053 C 
BRANCH  13  14
ATOM     14  C   UNL     1      -7.286  34.069   1.148  1.00  0.00     0.041 C 
ATOM     15  O   UNL     1      -8.282  34.061   0.373  1.00  0.00    -0.550 OA
ATOM     16  O   UNL     1      -7.186  35.050   2.129  1.00  0.00    -0.550 OA
ENDBRANCH  13  14
ENDBRANCH  12  13
ENDBRANCH  11  12
ENDBRANCH  10  11
ENDBRANCH   9  10
ENDBRANCH   8   9
ENDBRANCH   7   8
ENDBRANCH   6   7
ENDBRANCH   5   6
ENDBRANCH   4   5
ENDBRANCH   3   4
ENDBRANCH   2   3
ENDBRANCH   1   2
BRANCH   1  17
ATOM     17  C   UNL     1     -11.792  35.879  -3.913  1.00  0.00     0.000 C 
BRANCH  17  18
ATOM     18  C   UNL     1     -12.579  36.584  -5.032  1.00  0.00     0.000 C 
BRANCH  18  19
ATOM     19  C   UNL     1     -13.177  35.596  -6.050  1.00  0.00     0.000 C 
BRANCH  19  20
ATOM     20  C   UNL     1     -13.666  36.292  -7.331  1.00  0.00     0.000 C 
BRANCH  20  21
ATOM     21  C   UNL     1     -13.306  35.504  -8.600  1.00  0.00     0.000 C 
BRANCH  21  22
ATOM     22  C   UNL     1     -14.435  34.538  -8.989  1.00  0.00    -0.000 C 
BRANCH  22  23
ATOM     23  C   UNL     1     -14.609  34.399 -10.513  1.00  0.00    -0.000 C 
BRANCH  23  24
ATOM     24  C   UNL     1     -15.443  33.188 -10.972  1.00  0.00    -0.000 C 
BRANCH  24  25
ATOM     25  C   UNL     1     -15.972  33.332 -12.408  1.00  0.00    -0.000 C 
BRANCH  25  26
ATOM     26  C   UNL     1     -17.219  34.227 -12.493  1.00  0.00    -0.000 C 
BRANCH  26  27
ATOM     27  C   UNL     1     -18.432  33.677 -11.710  1.00  0.00    -0.000 C 
BRANCH  27  28
ATOM     28  C   UNL     1     -18.158  33.610 -10.198  1.00  0.00    -0.000 C 
BRANCH  28  29
ATOM     29  C   UNL     1     -19.331  33.008  -9.410  1.00  0.00    -0.003 C 
ATOM     30  C   UNL     1     -19.660  33.802  -8.144  1.00  0.00     0.004 C 
ENDBRANCH  28  29
ENDBRANCH  27  28
ENDBRANCH  26  27
ENDBRANCH  25  26
ENDBRANCH  24  25
ENDBRANCH  23  24
ENDBRANCH  22  23
ENDBRANCH  21  22
ENDBRANCH  20  21
ENDBRANCH  19  20
ENDBRANCH  18  19
ENDBRANCH  17  18
ENDBRANCH   1  17
TORSDOF 26
ENDMDL
MODEL 7
REMARK VINA RESULT:     1.764      4.114     13.118
REMARK INTER + INTRA:           2.445
REMARK INTER:                   3.716
REMARK INTRA:                  -1.271
REMARK UNBOUND:                -2.001
REMARK SMILES CCCCCCCCCCCCCCCCCCCCCCCCCCCC(=O)[O-]
REMARK SMILES IDX 15 1 16 2 17 3 18 4 19 5 20 6 21 7 22 8 23 9 24 10 25 11
REMARK SMILES IDX 26 12 27 13 28 14 29 15 30 16 14 17 13 18 12 19 11 20 10 21
REMARK SMILES IDX 9 22 8 23 7 24 6 25 5 26 4 27 3 28 2 29 1 30
REMARK H PARENT
REMARK Flexibility Score: inf
ROOT
ATOM      1  C   UNL     1     -10.910  36.227  -1.258  1.00  0.00     0.000 C 
ENDROOT
BRANCH   1   2
ATOM      2  C   UNL     1     -12.117  36.117  -2.207  1.00  0.00     0.000 C 
BRANCH   2   3
ATOM      3  C   UNL     1     -11.688  36.010  -3.686  1.00  0.00     0.000 C 
BRANCH   3   4
ATOM      4  C   UNL     1     -12.789  36.421  -4.681  1.00  0.00     0.000 C 
BRANCH   4   5
ATOM      5  C   UNL     1     -12.500  35.954  -6.117  1.00  0.00     0.000 C 
BRANCH   5   6
ATOM      6  C   UNL     1     -13.754  35.471  -6.867  1.00  0.00     0.000 C 
BRANCH   6   7
ATOM      7  C   UNL     1     -13.603  35.440  -8.401  1.00  0.00     0.000 C 
BRANCH   7   8
ATOM      8  C   UNL     1     -14.728  34.654  -9.111  1.00  0.00     0.000 C 
BRANCH   8   9
ATOM      9  C   UNL     1     -14.659  34.772 -10.643  1.00  0.00     0.000 C 
BRANCH   9  10
ATOM     10  C   UNL     1     -14.540  33.404 -11.354  1.00  0.00     0.000 C 
BRANCH  10  11
ATOM     11  C   UNL     1     -15.807  32.989 -12.124  1.00  0.00     0.000 C 
BRANCH  11  12
ATOM     12  C   UNL     1     -16.973  33.988 -12.036  1.00  0.00     0.006 C 
BRANCH  12  13
ATOM     13  C   UNL     1     -18.228  33.385 -11.389  1.00  0.00     0.053 C 
BRANCH  13  14
ATOM     14  C   UNL     1     -18.397  33.888  -9.990  1.00  0.00     0.041 C 
ATOM     15  O   UNL     1     -19.481  34.429  -9.636  1.00  0.00    -0.550 OA
ATOM     16  O   UNL     1     -17.361  33.757  -9.072  1.00  0.00    -0.550 OA
ENDBRANCH  13  14
ENDBRANCH  12  13
ENDBRANCH  11  12
ENDBRANCH  10  11
ENDBRANCH   9  10
ENDBRANCH   8   9
ENDBRANCH   7   8
ENDBRANCH   6   7
ENDBRANCH   5   6
ENDBRANCH   4   5
ENDBRANCH   3   4
ENDBRANCH   2   3
ENDBRANCH   1   2
BRANCH   1  17
ATOM     17  C   UNL     1     -10.321  37.648  -1.206  1.00  0.00     0.000 C 
BRANCH  17  18
ATOM     18  C   UNL     1      -8.952  37.804  -1.893  1.00  0.00     0.000 C 
BRANCH  18  19
ATOM     19  C   UNL     1      -7.799  37.222  -1.057  1.00  0.00     0.000 C 
BRANCH  19  20
ATOM     20  C   UNL     1      -7.425  38.116   0.137  1.00  0.00     0.000 C 
BRANCH  20  21
ATOM     21  C   UNL     1      -5.914  38.123   0.414  1.00  0.00     0.000 C 
BRANCH  21  22
ATOM     22  C   UNL     1      -5.116  37.862  -0.872  1.00  0.00    -0.000 C 
BRANCH  22  23
ATOM     23  C   UNL     1      -3.891  36.955  -0.646  1.00  0.00    -0.000 C 
BRANCH  23  24
ATOM     24  C   UNL     1      -4.202  35.454  -0.497  1.00  0.00    -0.000 C 
BRANCH  24  25
ATOM     25  C   UNL     1      -4.082  34.957   0.952  1.00  0.00    -0.000 C 
BRANCH  25  26
ATOM     26  C   UNL     1      -5.412  35.037   1.719  1.00  0.00    -0.000 C 
BRANCH  26  27
ATOM     27  C   UNL     1      -6.507  34.101   1.160  1.00  0.00    -0.000 C 
BRANCH  27  28
ATOM     28  C   UNL     1      -6.157  32.618   1.370  1.00  0.00    -0.000 C 
BRANCH  28  29
ATOM     29  C   UNL     1      -7.370  31.693   1.190  1.00  0.00    -0.003 C 
ATOM     30  C   UNL     1      -7.113  30.277   1.709  1.00  0.00     0.004 C 
ENDBRANCH  28  29
ENDBRANCH  27  28
ENDBRANCH  26  27
ENDBRANCH  25  26
ENDBRANCH  24  25
ENDBRANCH  23  24
ENDBRANCH  22  23
ENDBRANCH  21  22
ENDBRANCH  20  21
ENDBRANCH  19  20
ENDBRANCH  18  19
ENDBRANCH  17  18
ENDBRANCH   1  17
TORSDOF 26
ENDMDL
