MODEL 1
REMARK VINA RESULT:    -3.317      0.000      0.000
REMARK INTER + INTRA:          -3.535
REMARK INTER:                  -3.511
REMARK INTRA:                  -0.024
REMARK UNBOUND:                -0.024
REMARK SMILES O=C([O-])c1cccnc1
REMARK SMILES IDX 4 1 5 2 9 3 6 4 8 5 7 6 2 7 1 8 3 9
REMARK H PARENT
REMARK Flexibility Score: inf
ROOT
ATOM      1  C   UNL     1      54.824  27.490  50.417  1.00  0.00     0.016 A 
ATOM      2  C   UNL     1      53.521  27.944  50.154  1.00  0.00     0.013 A 
ATOM      3  C   UNL     1      55.763  28.408  50.918  1.00  0.00     0.120 A 
ATOM      4  C   UNL     1      53.183  29.278  50.389  1.00  0.00     0.021 A 
ATOM      5  N   UNL     1      55.408  29.702  51.139  1.00  0.00    -0.264 NA
ATOM      6  C   UNL     1      54.151  30.152  50.888  1.00  0.00     0.111 A 
ENDROOT
BRANCH   1   7
ATOM      7  C   UNL     1      55.193  26.080  50.171  1.00  0.00     0.073 C 
ATOM      8  O   UNL     1      54.412  25.313  49.546  1.00  0.00    -0.545 OA
ATOM      9  O   UNL     1      56.408  25.580  50.624  1.00  0.00    -0.545 OA
ENDBRANCH   1   7
TORSDOF 1
ENDMDL
MODEL 2
REMARK VINA RESULT:    -3.279      0.919      1.931
REMARK INTER + INTRA:          -3.495
REMARK INTER:                  -3.471
REMARK INTRA:                  -0.024
REMARK UNBOUND:                -0.024
REMARK SMILES O=C([O-])c1cccnc1
REMARK SMILES IDX 4 1 5 2 9 3 6 4 8 5 7 6 2 7 1 8 3 9
REMARK H PARENT
REMARK Flexibility Score: inf
ROOT
ATOM      1  C   UNL     1      54.793  27.449  50.378  1.00  0.00     0.016 A 
ATOM      2  C   UNL     1      55.752  28.338  50.890  1.00  0.00     0.013 A 
ATOM      3  C   UNL     1      53.508  27.944  50.094  1.00  0.00     0.120 A 
ATOM      4  C   UNL     1      55.422  29.677  51.107  1.00  0.00     0.021 A 
ATOM      5  N   UNL     1      53.212  29.252  50.315  1.00  0.00    -0.264 NA
ATOM      6  C   UNL     1      54.132  30.120  50.809  1.00  0.00     0.111 A 
ENDROOT
BRANCH   1   7
ATOM      7  C   UNL     1      55.131  26.029  50.145  1.00  0.00     0.073 C 
ATOM      8  O   UNL     1      56.231  25.559  50.542  1.00  0.00    -0.545 OA
ATOM      9  O   UNL     1      54.240  25.191  49.486  1.00  0.00    -0.545 OA
ENDBRANCH   1   7
TORSDOF 1
ENDMDL
MODEL 3
REMARK VINA RESULT:    -3.217     10.165     10.979
REMARK INTER + INTRA:          -3.429
REMARK INTER:                  -3.405
REMARK INTRA:                  -0.024
REMARK UNBOUND:                -0.024
REMARK SMILES O=C([O-])c1cccnc1
REMARK SMILES IDX 4 1 5 2 9 3 6 4 8 5 7 6 2 7 1 8 3 9
REMARK H PARENT
REMARK Flexibility Score: inf
ROOT
ATOM      1  C   UNL     1      57.842  17.318  50.808  1.00  0.00     0.016 A 
ATOM      2  C   UNL     1      58.363  17.331  52.113  1.00  0.00     0.013 A 
ATOM      3  C   UNL     1      56.635  17.997  50.566  1.00  0.00     0.120 A 
ATOM      4  C   UNL     1      57.688  18.005  53.132  1.00  0.00     0.021 A 
ATOM      5  N   UNL     1      55.997  18.646  51.576  1.00  0.00    -0.264 NA
ATOM      6  C   UNL     1      56.493  18.665  52.840  1.00  0.00     0.111 A 
ENDROOT
BRANCH   1   7
ATOM      7  C   UNL     1      58.548  16.607  49.722  1.00  0.00     0.073 C 
ATOM      8  O   UNL     1      59.729  16.197  49.887  1.00  0.00    -0.545 OA
ATOM      9  O   UNL     1      57.920  16.379  48.504  1.00  0.00    -0.545 OA
ENDBRANCH   1   7
TORSDOF 1
ENDMDL
MODEL 4
REMARK VINA RESULT:    -3.187      1.567      2.563
REMARK INTER + INTRA:          -3.397
REMARK INTER:                  -3.377
REMARK INTRA:                  -0.020
REMARK UNBOUND:                -0.024
REMARK SMILES O=C([O-])c1cccnc1
REMARK SMILES IDX 4 1 5 2 9 3 6 4 8 5 7 6 2 7 1 8 3 9
REMARK H PARENT
REMARK Flexibility Score: inf
ROOT
ATOM      1  C   UNL     1      54.611  26.561  50.146  1.00  0.00     0.016 A 
ATOM      2  C   UNL     1      55.953  26.301  50.473  1.00  0.00     0.013 A 
ATOM      3  C   UNL     1      54.134  27.876  50.282  1.00  0.00     0.120 A 
ATOM      4  C   UNL     1      56.778  27.334  50.921  1.00  0.00     0.021 A 
ATOM      5  N   UNL     1      54.958  28.864  50.721  1.00  0.00    -0.264 NA
ATOM      6  C   UNL     1      56.257  28.624  51.039  1.00  0.00     0.111 A 
ENDROOT
BRANCH   1   7
ATOM      7  C   UNL     1      53.728  25.474  49.672  1.00  0.00     0.073 C 
ATOM      8  O   UNL     1      53.737  24.349  50.239  1.00  0.00    -0.545 OA
ATOM      9  O   UNL     1      52.875  25.679  48.594  1.00  0.00    -0.545 OA
ENDBRANCH   1   7
TORSDOF 1
ENDMDL
MODEL 5
REMARK VINA RESULT:    -3.181      2.400      3.085
REMARK INTER + INTRA:          -3.391
REMARK INTER:                  -3.368
REMARK INTRA:                  -0.023
REMARK UNBOUND:                -0.024
REMARK SMILES O=C([O-])c1cccnc1
REMARK SMILES IDX 4 1 5 2 9 3 6 4 8 5 7 6 2 7 1 8 3 9
REMARK H PARENT
REMARK Flexibility Score: inf
ROOT
ATOM      1  C   UNL     1      55.395  27.064  50.385  1.00  0.00     0.016 A 
ATOM      2  C   UNL     1      54.327  27.976  50.344  1.00  0.00     0.013 A 
ATOM      3  C   UNL     1      55.154  25.736  49.991  1.00  0.00     0.120 A 
ATOM      4  C   UNL     1      53.064  27.558  49.921  1.00  0.00     0.021 A 
ATOM      5  N   UNL     1      53.914  25.355  49.583  1.00  0.00    -0.264 NA
ATOM      6  C   UNL     1      52.875  26.229  49.540  1.00  0.00     0.111 A 
ENDROOT
BRANCH   1   7
ATOM      7  C   UNL     1      56.736  27.495  50.832  1.00  0.00     0.073 C 
ATOM      8  O   UNL     1      57.620  26.643  51.120  1.00  0.00    -0.545 OA
ATOM      9  O   UNL     1      57.043  28.846  50.938  1.00  0.00    -0.545 OA
ENDBRANCH   1   7
TORSDOF 1
ENDMDL
MODEL 6
REMARK VINA RESULT:    -3.178      2.860      3.665
REMARK INTER + INTRA:          -3.388
REMARK INTER:                  -3.365
REMARK INTRA:                  -0.023
REMARK UNBOUND:                -0.024
REMARK SMILES O=C([O-])c1cccnc1
REMARK SMILES IDX 4 1 5 2 9 3 6 4 8 5 7 6 2 7 1 8 3 9
REMARK H PARENT
REMARK Flexibility Score: inf
ROOT
ATOM      1  C   UNL     1      55.435  28.324  50.716  1.00  0.00     0.016 A 
ATOM      2  C   UNL     1      54.126  28.038  50.294  1.00  0.00     0.013 A 
ATOM      3  C   UNL     1      56.368  27.273  50.755  1.00  0.00     0.120 A 
ATOM      4  C   UNL     1      53.777  26.738  49.926  1.00  0.00     0.021 A 
ATOM      5  N   UNL     1      56.002  26.016  50.392  1.00  0.00    -0.264 NA
ATOM      6  C   UNL     1      54.739  25.729  49.982  1.00  0.00     0.111 A 
ENDROOT
BRANCH   1   7
ATOM      7  C   UNL     1      55.817  29.697  51.109  1.00  0.00     0.073 C 
ATOM      8  O   UNL     1      56.869  29.906  51.771  1.00  0.00    -0.545 OA
ATOM      9  O   UNL     1      55.021  30.779  50.752  1.00  0.00    -0.545 OA
ENDBRANCH   1   7
TORSDOF 1
ENDMDL
MODEL 7
REMARK VINA RESULT:    -3.141      1.827      2.423
REMARK INTER + INTRA:          -3.348
REMARK INTER:                  -3.331
REMARK INTRA:                  -0.017
REMARK UNBOUND:                -0.024
REMARK SMILES O=C([O-])c1cccnc1
REMARK SMILES IDX 4 1 5 2 9 3 6 4 8 5 7 6 2 7 1 8 3 9
REMARK H PARENT
REMARK Flexibility Score: inf
ROOT
ATOM      1  C   UNL     1      56.405  26.593  50.642  1.00  0.00     0.016 A 
ATOM      2  C   UNL     1      55.229  25.980  50.179  1.00  0.00     0.013 A 
ATOM      3  C   UNL     1      56.380  27.975  50.900  1.00  0.00     0.120 A 
ATOM      4  C   UNL     1      54.073  26.737  49.985  1.00  0.00     0.021 A 
ATOM      5  N   UNL     1      55.240  28.690  50.703  1.00  0.00    -0.264 NA
ATOM      6  C   UNL     1      54.098  28.106  50.255  1.00  0.00     0.111 A 
ENDROOT
BRANCH   1   7
ATOM      7  C   UNL     1      57.635  25.801  50.851  1.00  0.00     0.073 C 
ATOM      8  O   UNL     1      58.645  25.980  50.118  1.00  0.00    -0.545 OA
ATOM      9  O   UNL     1      57.697  24.848  51.860  1.00  0.00    -0.545 OA
ENDBRANCH   1   7
TORSDOF 1
ENDMDL
MODEL 8
REMARK VINA RESULT:    -3.036      9.857     11.228
REMARK INTER + INTRA:          -3.238
REMARK INTER:                  -3.214
REMARK INTRA:                  -0.024
REMARK UNBOUND:                -0.024
REMARK SMILES O=C([O-])c1cccnc1
REMARK SMILES IDX 4 1 5 2 9 3 6 4 8 5 7 6 2 7 1 8 3 9
REMARK H PARENT
REMARK Flexibility Score: inf
ROOT
ATOM      1  C   UNL     1      57.560  17.728  51.192  1.00  0.00     0.016 A 
ATOM      2  C   UNL     1      57.802  17.141  49.939  1.00  0.00     0.013 A 
ATOM      3  C   UNL     1      58.452  17.449  52.242  1.00  0.00     0.120 A 
ATOM      4  C   UNL     1      58.904  16.304  49.757  1.00  0.00     0.021 A 
ATOM      5  N   UNL     1      59.518  16.630  52.039  1.00  0.00    -0.264 NA
ATOM      6  C   UNL     1      59.760  16.058  50.831  1.00  0.00     0.111 A 
ENDROOT
BRANCH   1   7
ATOM      7  C   UNL     1      56.396  18.615  51.396  1.00  0.00     0.073 C 
ATOM      8  O   UNL     1      55.499  18.708  50.515  1.00  0.00    -0.545 OA
ATOM      9  O   UNL     1      56.273  19.360  52.562  1.00  0.00    -0.545 OA
ENDBRANCH   1   7
TORSDOF 1
ENDMDL
MODEL 9
REMARK VINA RESULT:    -2.989      3.262      4.481
REMARK INTER + INTRA:          -3.188
REMARK INTER:                  -3.171
REMARK INTRA:                  -0.017
REMARK UNBOUND:                -0.024
REMARK SMILES O=C([O-])c1cccnc1
REMARK SMILES IDX 4 1 5 2 9 3 6 4 8 5 7 6 2 7 1 8 3 9
REMARK H PARENT
REMARK Flexibility Score: inf
ROOT
ATOM      1  C   UNL     1      57.184  27.809  50.696  1.00  0.00     0.016 A 
ATOM      2  C   UNL     1      58.197  28.700  50.303  1.00  0.00     0.013 A 
ATOM      3  C   UNL     1      57.472  26.433  50.703  1.00  0.00     0.120 A 
ATOM      4  C   UNL     1      59.451  28.216  49.930  1.00  0.00     0.021 A 
ATOM      5  N   UNL     1      58.702  25.987  50.334  1.00  0.00    -0.264 NA
ATOM      6  C   UNL     1      59.688  26.840  49.953  1.00  0.00     0.111 A 
ENDROOT
BRANCH   1   7
ATOM      7  C   UNL     1      55.852  28.312  51.093  1.00  0.00     0.073 C 
ATOM      8  O   UNL     1      55.711  28.994  52.143  1.00  0.00    -0.545 OA
ATOM      9  O   UNL     1      54.735  28.040  50.312  1.00  0.00    -0.545 OA
ENDBRANCH   1   7
TORSDOF 1
ENDMDL
