MODEL 1
REMARK VINA RESULT:    -4.317      0.000      0.000
REMARK INTER + INTRA:         -10.172
REMARK INTER:                  -7.849
REMARK INTRA:                  -2.322
REMARK UNBOUND:                -2.322
REMARK SMILES CCCCCC=CCC=CCCCCCCCC(=O)[O-]
REMARK SMILES IDX 11 1 12 2 13 3 14 4 15 5 16 6 17 7 18 8 19 9 20 10 10 11
REMARK SMILES IDX 9 12 8 13 7 14 6 15 5 16 4 17 3 18 2 19 1 20
REMARK H PARENT
REMARK Flexibility Score: inf
ROOT
ATOM      1  C   UNL     1      98.641 104.550  96.694  1.00  0.00     0.027 C 
ENDROOT
BRANCH   1   2
ATOM      2  C   UNL     1     100.171 104.591  96.553  1.00  0.00     0.004 C 
BRANCH   2   3
ATOM      3  C   UNL     1     100.651 105.224  95.234  1.00  0.00     0.000 C 
BRANCH   3   4
ATOM      4  C   UNL     1     101.961 106.013  95.405  1.00  0.00     0.000 C 
BRANCH   4   5
ATOM      5  C   UNL     1     101.751 107.355  96.122  1.00  0.00     0.000 C 
BRANCH   5   6
ATOM      6  C   UNL     1     102.160 108.561  95.258  1.00  0.00     0.006 C 
BRANCH   6   7
ATOM      7  C   UNL     1     100.945 109.280  94.657  1.00  0.00     0.053 C 
BRANCH   7   8
ATOM      8  C   UNL     1     100.317 110.224  95.638  1.00  0.00     0.041 C 
ATOM      9  O   UNL     1      99.106 110.547  95.520  1.00  0.00    -0.550 OA
ATOM     10  O   UNL     1     101.060 110.717  96.704  1.00  0.00    -0.550 OA
ENDBRANCH   7   8
ENDBRANCH   6   7
ENDBRANCH   5   6
ENDBRANCH   4   5
ENDBRANCH   3   4
ENDBRANCH   2   3
ENDBRANCH   1   2
BRANCH   1  11
ATOM     11  C   UNL     1      98.201 105.001  98.067  1.00  0.00    -0.031 C 
ATOM     12  C   UNL     1      97.989 106.280  98.429  1.00  0.00    -0.027 C 
BRANCH  12  13
ATOM     13  C   UNL     1      98.193 107.477  97.535  1.00  0.00     0.054 C 
BRANCH  13  14
ATOM     14  C   UNL     1      97.494 108.705  98.062  1.00  0.00    -0.027 C 
ATOM     15  C   UNL     1      96.272 109.121  97.679  1.00  0.00    -0.031 C 
BRANCH  15  16
ATOM     16  C   UNL     1      95.377 108.391  96.710  1.00  0.00     0.027 C 
BRANCH  16  17
ATOM     17  C   UNL     1      94.243 107.682  97.461  1.00  0.00     0.004 C 
BRANCH  17  18
ATOM     18  C   UNL     1      94.361 106.157  97.325  1.00  0.00     0.000 C 
BRANCH  18  19
ATOM     19  C   UNL     1      95.119 105.735  96.057  1.00  0.00    -0.003 C 
ATOM     20  C   UNL     1      94.660 104.379  95.519  1.00  0.00     0.004 C 
ENDBRANCH  18  19
ENDBRANCH  17  18
ENDBRANCH  16  17
ENDBRANCH  15  16
ENDBRANCH  13  14
ENDBRANCH  12  13
ENDBRANCH   1  11
TORSDOF 14
ENDMDL
MODEL 2
REMARK VINA RESULT:    -4.251      2.745      6.217
REMARK INTER + INTRA:         -10.053
REMARK INTER:                  -7.850
REMARK INTRA:                  -2.203
REMARK UNBOUND:                -2.322
REMARK SMILES CCCCCC=CCC=CCCCCCCCC(=O)[O-]
REMARK SMILES IDX 11 1 12 2 13 3 14 4 15 5 16 6 17 7 18 8 19 9 20 10 10 11
REMARK SMILES IDX 9 12 8 13 7 14 6 15 5 16 4 17 3 18 2 19 1 20
REMARK H PARENT
REMARK Flexibility Score: inf
ROOT
ATOM      1  C   UNL     1      95.945 108.404  97.098  1.00  0.00     0.027 C 
ENDROOT
BRANCH   1   2
ATOM      2  C   UNL     1      94.789 107.519  96.603  1.00  0.00     0.004 C 
BRANCH   2   3
ATOM      3  C   UNL     1      94.919 106.044  97.024  1.00  0.00     0.000 C 
BRANCH   3   4
ATOM      4  C   UNL     1      94.790 105.081  95.830  1.00  0.00     0.000 C 
BRANCH   4   5
ATOM      5  C   UNL     1      95.986 104.125  95.713  1.00  0.00     0.000 C 
BRANCH   5   6
ATOM      6  C   UNL     1      97.140 104.498  96.660  1.00  0.00     0.006 C 
BRANCH   6   7
ATOM      7  C   UNL     1      98.475 104.642  95.918  1.00  0.00     0.053 C 
BRANCH   7   8
ATOM      8  C   UNL     1      99.275 103.376  95.961  1.00  0.00     0.041 C 
ATOM      9  O   UNL     1      99.142 102.575  96.923  1.00  0.00    -0.550 OA
ATOM     10  O   UNL     1     100.140 103.063  94.920  1.00  0.00    -0.550 OA
ENDBRANCH   7   8
ENDBRANCH   6   7
ENDBRANCH   5   6
ENDBRANCH   4   5
ENDBRANCH   3   4
ENDBRANCH   2   3
ENDBRANCH   1   2
BRANCH   1  11
ATOM     11  C   UNL     1      96.704 107.741  98.222  1.00  0.00    -0.031 C 
ATOM     12  C   UNL     1      98.043 107.758  98.367  1.00  0.00    -0.027 C 
BRANCH  12  13
ATOM     13  C   UNL     1      99.007 108.409  97.408  1.00  0.00     0.054 C 
BRANCH  13  14
ATOM     14  C   UNL     1      99.281 109.848  97.768  1.00  0.00    -0.027 C 
ATOM     15  C   UNL     1      99.460 110.845  96.880  1.00  0.00    -0.031 C 
BRANCH  15  16
ATOM     16  C   UNL     1      99.347 110.696  95.384  1.00  0.00     0.027 C 
BRANCH  16  17
ATOM     17  C   UNL     1     100.739 110.586  94.752  1.00  0.00     0.004 C 
BRANCH  17  18
ATOM     18  C   UNL     1     101.058 109.133  94.372  1.00  0.00     0.000 C 
BRANCH  18  19
ATOM     19  C   UNL     1     102.197 108.539  95.214  1.00  0.00    -0.003 C 
ATOM     20  C   UNL     1     103.009 109.607  95.949  1.00  0.00     0.004 C 
ENDBRANCH  18  19
ENDBRANCH  17  18
ENDBRANCH  16  17
ENDBRANCH  15  16
ENDBRANCH  13  14
ENDBRANCH  12  13
ENDBRANCH   1  11
TORSDOF 14
ENDMDL
MODEL 3
REMARK VINA RESULT:    -4.245      1.431      3.723
REMARK INTER + INTRA:         -10.042
REMARK INTER:                  -7.885
REMARK INTRA:                  -2.157
REMARK UNBOUND:                -2.322
REMARK SMILES CCCCCC=CCC=CCCCCCCCC(=O)[O-]
REMARK SMILES IDX 11 1 12 2 13 3 14 4 15 5 16 6 17 7 18 8 19 9 20 10 10 11
REMARK SMILES IDX 9 12 8 13 7 14 6 15 5 16 4 17 3 18 2 19 1 20
REMARK H PARENT
REMARK Flexibility Score: inf
ROOT
ATOM      1  C   UNL     1      96.923 104.543  97.108  1.00  0.00     0.027 C 
ENDROOT
BRANCH   1   2
ATOM      2  C   UNL     1      98.188 105.266  96.620  1.00  0.00     0.004 C 
BRANCH   2   3
ATOM      3  C   UNL     1      99.274 104.314  96.084  1.00  0.00     0.000 C 
BRANCH   3   4
ATOM      4  C   UNL     1     100.255 105.021  95.132  1.00  0.00     0.000 C 
BRANCH   4   5
ATOM      5  C   UNL     1     101.681 105.086  95.698  1.00  0.00     0.000 C 
BRANCH   5   6
ATOM      6  C   UNL     1     102.183 106.529  95.879  1.00  0.00     0.006 C 
BRANCH   6   7
ATOM      7  C   UNL     1     101.065 107.560  95.675  1.00  0.00     0.053 C 
BRANCH   7   8
ATOM      8  C   UNL     1     101.551 108.769  94.935  1.00  0.00     0.041 C 
ATOM      9  O   UNL     1     102.763 109.105  94.997  1.00  0.00    -0.550 OA
ATOM     10  O   UNL     1     100.673 109.503  94.146  1.00  0.00    -0.550 OA
ENDBRANCH   7   8
ENDBRANCH   6   7
ENDBRANCH   5   6
ENDBRANCH   4   5
ENDBRANCH   3   4
ENDBRANCH   2   3
ENDBRANCH   1   2
BRANCH   1  11
ATOM     11  C   UNL     1      95.836 104.567  96.060  1.00  0.00    -0.031 C 
ATOM     12  C   UNL     1      94.814 105.442  96.026  1.00  0.00    -0.027 C 
BRANCH  12  13
ATOM     13  C   UNL     1      94.565 106.520  97.049  1.00  0.00     0.054 C 
BRANCH  13  14
ATOM     14  C   UNL     1      94.932 107.889  96.533  1.00  0.00    -0.027 C 
ATOM     15  C   UNL     1      95.850 108.703  97.089  1.00  0.00    -0.031 C 
BRANCH  15  16
ATOM     16  C   UNL     1      96.708 108.349  98.277  1.00  0.00     0.027 C 
BRANCH  16  17
ATOM     17  C   UNL     1      98.193 108.497  97.927  1.00  0.00     0.004 C 
BRANCH  17  18
ATOM     18  C   UNL     1      98.419 109.685  96.980  1.00  0.00     0.000 C 
BRANCH  18  19
ATOM     19  C   UNL     1      99.458 110.680  97.519  1.00  0.00    -0.003 C 
ATOM     20  C   UNL     1     100.487 110.020  98.438  1.00  0.00     0.004 C 
ENDBRANCH  18  19
ENDBRANCH  17  18
ENDBRANCH  16  17
ENDBRANCH  15  16
ENDBRANCH  13  14
ENDBRANCH  12  13
ENDBRANCH   1  11
TORSDOF 14
ENDMDL
MODEL 4
REMARK VINA RESULT:    -4.237      2.294      3.856
REMARK INTER + INTRA:         -10.028
REMARK INTER:                  -7.949
REMARK INTRA:                  -2.079
REMARK UNBOUND:                -2.322
REMARK SMILES CCCCCC=CCC=CCCCCCCCC(=O)[O-]
REMARK SMILES IDX 11 1 12 2 13 3 14 4 15 5 16 6 17 7 18 8 19 9 20 10 10 11
REMARK SMILES IDX 9 12 8 13 7 14 6 15 5 16 4 17 3 18 2 19 1 20
REMARK H PARENT
REMARK Flexibility Score: inf
ROOT
ATOM      1  C   UNL     1      99.329 110.506  95.455  1.00  0.00     0.027 C 
ENDROOT
BRANCH   1   2
ATOM      2  C   UNL     1     100.329 111.047  94.422  1.00  0.00     0.004 C 
BRANCH   2   3
ATOM      3  C   UNL     1     101.799 110.914  94.858  1.00  0.00     0.000 C 
BRANCH   3   4
ATOM      4  C   UNL     1     102.299 109.460  94.801  1.00  0.00     0.000 C 
BRANCH   4   5
ATOM      5  C   UNL     1     102.981 109.020  96.105  1.00  0.00     0.000 C 
BRANCH   5   6
ATOM      6  C   UNL     1     102.065 108.163  96.996  1.00  0.00     0.006 C 
BRANCH   6   7
ATOM      7  C   UNL     1     101.059 107.346  96.174  1.00  0.00     0.053 C 
BRANCH   7   8
ATOM      8  C   UNL     1     101.441 105.898  96.108  1.00  0.00     0.041 C 
ATOM      9  O   UNL     1     100.714 105.026  96.650  1.00  0.00    -0.550 OA
ATOM     10  O   UNL     1     102.582 105.510  95.417  1.00  0.00    -0.550 OA
ENDBRANCH   7   8
ENDBRANCH   6   7
ENDBRANCH   5   6
ENDBRANCH   4   5
ENDBRANCH   3   4
ENDBRANCH   2   3
ENDBRANCH   1   2
BRANCH   1  11
ATOM     11  C   UNL     1      99.614 111.048  96.836  1.00  0.00    -0.031 C 
ATOM     12  C   UNL     1      99.264 110.448  97.989  1.00  0.00    -0.027 C 
BRANCH  12  13
ATOM     13  C   UNL     1      98.496 109.155  98.093  1.00  0.00     0.054 C 
BRANCH  13  14
ATOM     14  C   UNL     1      97.168 109.338  98.784  1.00  0.00    -0.027 C 
ATOM     15  C   UNL     1      95.967 109.097  98.224  1.00  0.00    -0.031 C 
BRANCH  15  16
ATOM     16  C   UNL     1      95.759 108.541  96.838  1.00  0.00     0.027 C 
BRANCH  16  17
ATOM     17  C   UNL     1      94.390 107.859  96.736  1.00  0.00     0.004 C 
BRANCH  17  18
ATOM     18  C   UNL     1      94.455 106.414  97.251  1.00  0.00     0.000 C 
BRANCH  18  19
ATOM     19  C   UNL     1      94.803 105.408  96.143  1.00  0.00    -0.003 C 
ATOM     20  C   UNL     1      96.260 104.947  96.199  1.00  0.00     0.004 C 
ENDBRANCH  18  19
ENDBRANCH  17  18
ENDBRANCH  16  17
ENDBRANCH  15  16
ENDBRANCH  13  14
ENDBRANCH  12  13
ENDBRANCH   1  11
TORSDOF 14
ENDMDL
MODEL 5
REMARK VINA RESULT:    -4.188      1.168      5.551
REMARK INTER + INTRA:          -9.938
REMARK INTER:                  -7.703
REMARK INTRA:                  -2.235
REMARK UNBOUND:                -2.322
REMARK SMILES CCCCCC=CCC=CCCCCCCCC(=O)[O-]
REMARK SMILES IDX 11 1 12 2 13 3 14 4 15 5 16 6 17 7 18 8 19 9 20 10 10 11
REMARK SMILES IDX 9 12 8 13 7 14 6 15 5 16 4 17 3 18 2 19 1 20
REMARK H PARENT
REMARK Flexibility Score: inf
ROOT
ATOM      1  C   UNL     1      94.991 105.385  95.958  1.00  0.00     0.027 C 
ENDROOT
BRANCH   1   2
ATOM      2  C   UNL     1      94.495 106.475  96.920  1.00  0.00     0.004 C 
BRANCH   2   3
ATOM      3  C   UNL     1      94.776 107.907  96.428  1.00  0.00     0.000 C 
BRANCH   3   4
ATOM      4  C   UNL     1      95.507 108.757  97.482  1.00  0.00     0.000 C 
BRANCH   4   5
ATOM      5  C   UNL     1      96.390 107.910  98.411  1.00  0.00     0.000 C 
BRANCH   5   6
ATOM      6  C   UNL     1      97.771 108.542  98.658  1.00  0.00     0.006 C 
BRANCH   6   7
ATOM      7  C   UNL     1      98.370 109.141  97.378  1.00  0.00     0.053 C 
BRANCH   7   8
ATOM      8  C   UNL     1      99.541 110.028  97.675  1.00  0.00     0.041 C 
ATOM      9  O   UNL     1     100.487 109.609  98.393  1.00  0.00    -0.550 OA
ATOM     10  O   UNL     1      99.604 111.303  97.128  1.00  0.00    -0.550 OA
ENDBRANCH   7   8
ENDBRANCH   6   7
ENDBRANCH   5   6
ENDBRANCH   4   5
ENDBRANCH   3   4
ENDBRANCH   2   3
ENDBRANCH   1   2
BRANCH   1  11
ATOM     11  C   UNL     1      95.572 104.210  96.707  1.00  0.00    -0.031 C 
ATOM     12  C   UNL     1      96.877 103.877  96.733  1.00  0.00    -0.027 C 
BRANCH  12  13
ATOM     13  C   UNL     1      97.968 104.601  95.986  1.00  0.00     0.054 C 
BRANCH  13  14
ATOM     14  C   UNL     1      98.788 105.484  96.894  1.00  0.00    -0.027 C 
ATOM     15  C   UNL     1     100.087 105.786  96.708  1.00  0.00    -0.031 C 
BRANCH  15  16
ATOM     16  C   UNL     1     100.914 105.346  95.527  1.00  0.00     0.027 C 
BRANCH  16  17
ATOM     17  C   UNL     1     102.230 106.130  95.475  1.00  0.00     0.004 C 
BRANCH  17  18
ATOM     18  C   UNL     1     102.098 107.476  96.201  1.00  0.00     0.000 C 
BRANCH  18  19
ATOM     19  C   UNL     1     102.370 108.674  95.279  1.00  0.00    -0.003 C 
ATOM     20  C   UNL     1     101.125 109.126  94.514  1.00  0.00     0.004 C 
ENDBRANCH  18  19
ENDBRANCH  17  18
ENDBRANCH  16  17
ENDBRANCH  15  16
ENDBRANCH  13  14
ENDBRANCH  12  13
ENDBRANCH   1  11
TORSDOF 14
ENDMDL
MODEL 6
REMARK VINA RESULT:    -4.177      1.283      4.073
REMARK INTER + INTRA:          -9.918
REMARK INTER:                  -7.747
REMARK INTRA:                  -2.171
REMARK UNBOUND:                -2.322
REMARK SMILES CCCCCC=CCC=CCCCCCCCC(=O)[O-]
REMARK SMILES IDX 11 1 12 2 13 3 14 4 15 5 16 6 17 7 18 8 19 9 20 10 10 11
REMARK SMILES IDX 9 12 8 13 7 14 6 15 5 16 4 17 3 18 2 19 1 20
REMARK H PARENT
REMARK Flexibility Score: inf
ROOT
ATOM      1  C   UNL     1      96.900 107.878  97.932  1.00  0.00     0.027 C 
ENDROOT
BRANCH   1   2
ATOM      2  C   UNL     1      97.760 109.005  98.525  1.00  0.00     0.004 C 
BRANCH   2   3
ATOM      3  C   UNL     1      98.908 109.455  97.602  1.00  0.00     0.000 C 
BRANCH   3   4
ATOM      4  C   UNL     1     100.208 108.673  97.859  1.00  0.00     0.000 C 
BRANCH   4   5
ATOM      5  C   UNL     1     100.431 107.548  96.838  1.00  0.00     0.000 C 
BRANCH   5   6
ATOM      6  C   UNL     1     101.867 107.520  96.287  1.00  0.00     0.006 C 
BRANCH   6   7
ATOM      7  C   UNL     1     101.937 107.991  94.829  1.00  0.00     0.053 C 
BRANCH   7   8
ATOM      8  C   UNL     1     101.570 109.438  94.694  1.00  0.00     0.041 C 
ATOM      9  O   UNL     1     100.472 109.768  94.175  1.00  0.00    -0.550 OA
ATOM     10  O   UNL     1     102.427 110.421  95.174  1.00  0.00    -0.550 OA
ENDBRANCH   7   8
ENDBRANCH   6   7
ENDBRANCH   5   6
ENDBRANCH   4   5
ENDBRANCH   3   4
ENDBRANCH   2   3
ENDBRANCH   1   2
BRANCH   1  11
ATOM     11  C   UNL     1      95.847 108.422  96.996  1.00  0.00    -0.031 C 
ATOM     12  C   UNL     1      94.751 107.753  96.592  1.00  0.00    -0.027 C 
BRANCH  12  13
ATOM     13  C   UNL     1      94.413 106.335  96.978  1.00  0.00     0.054 C 
BRANCH  13  14
ATOM     14  C   UNL     1      94.855 105.341  95.933  1.00  0.00    -0.027 C 
ATOM     15  C   UNL     1      95.798 104.398  96.115  1.00  0.00    -0.031 C 
BRANCH  15  16
ATOM     16  C   UNL     1      96.517 104.138  97.415  1.00  0.00     0.027 C 
BRANCH  16  17
ATOM     17  C   UNL     1      97.989 104.551  97.302  1.00  0.00     0.004 C 
BRANCH  17  18
ATOM     18  C   UNL     1      98.424 104.647  95.833  1.00  0.00     0.000 C 
BRANCH  18  19
ATOM     19  C   UNL     1      99.775 103.964  95.571  1.00  0.00    -0.003 C 
ATOM     20  C   UNL     1     100.604 103.787  96.843  1.00  0.00     0.004 C 
ENDBRANCH  18  19
ENDBRANCH  17  18
ENDBRANCH  16  17
ENDBRANCH  15  16
ENDBRANCH  13  14
ENDBRANCH  12  13
ENDBRANCH   1  11
TORSDOF 14
ENDMDL
MODEL 7
REMARK VINA RESULT:    -4.177      5.267      8.775
REMARK INTER + INTRA:          -9.917
REMARK INTER:                  -7.218
REMARK INTRA:                  -2.699
REMARK UNBOUND:                -2.322
REMARK SMILES CCCCCC=CCC=CCCCCCCCC(=O)[O-]
REMARK SMILES IDX 11 1 12 2 13 3 14 4 15 5 16 6 17 7 18 8 19 9 20 10 10 11
REMARK SMILES IDX 9 12 8 13 7 14 6 15 5 16 4 17 3 18 2 19 1 20
REMARK H PARENT
REMARK Flexibility Score: inf
ROOT
ATOM      1  C   UNL     1      94.176 101.790  91.656  1.00  0.00     0.027 C 
ENDROOT
BRANCH   1   2
ATOM      2  C   UNL     1      92.877 101.895  92.471  1.00  0.00     0.004 C 
BRANCH   2   3
ATOM      3  C   UNL     1      92.952 102.915  93.621  1.00  0.00     0.000 C 
BRANCH   3   4
ATOM      4  C   UNL     1      94.383 103.089  94.160  1.00  0.00     0.000 C 
BRANCH   4   5
ATOM      5  C   UNL     1      94.489 104.215  95.198  1.00  0.00     0.000 C 
BRANCH   5   6
ATOM      6  C   UNL     1      95.853 104.241  95.910  1.00  0.00     0.006 C 
BRANCH   6   7
ATOM      7  C   UNL     1      96.348 102.832  96.261  1.00  0.00     0.053 C 
BRANCH   7   8
ATOM      8  C   UNL     1      97.829 102.804  96.489  1.00  0.00     0.041 C 
ATOM      9  O   UNL     1      98.503 101.794  96.157  1.00  0.00    -0.550 OA
ATOM     10  O   UNL     1      98.470 103.910  97.034  1.00  0.00    -0.550 OA
ENDBRANCH   7   8
ENDBRANCH   6   7
ENDBRANCH   5   6
ENDBRANCH   4   5
ENDBRANCH   3   4
ENDBRANCH   2   3
ENDBRANCH   1   2
BRANCH   1  11
ATOM     11  C   UNL     1      94.016 100.855  90.481  1.00  0.00    -0.031 C 
ATOM     12  C   UNL     1      94.189  99.521  90.525  1.00  0.00    -0.027 C 
BRANCH  12  13
ATOM     13  C   UNL     1      94.608  98.744  91.746  1.00  0.00     0.054 C 
BRANCH  13  14
ATOM     14  C   UNL     1      96.108  98.615  91.850  1.00  0.00    -0.027 C 
ATOM     15  C   UNL     1      96.863  99.161  92.822  1.00  0.00    -0.031 C 
BRANCH  15  16
ATOM     16  C   UNL     1      96.326  99.931  94.001  1.00  0.00     0.027 C 
BRANCH  16  17
ATOM     17  C   UNL     1      96.266  99.034  95.243  1.00  0.00     0.004 C 
BRANCH  17  18
ATOM     18  C   UNL     1      95.023  99.347  96.089  1.00  0.00     0.000 C 
BRANCH  18  19
ATOM     19  C   UNL     1      93.770  99.586  95.231  1.00  0.00    -0.003 C 
ATOM     20  C   UNL     1      92.932  98.321  95.044  1.00  0.00     0.004 C 
ENDBRANCH  18  19
ENDBRANCH  17  18
ENDBRANCH  16  17
ENDBRANCH  15  16
ENDBRANCH  13  14
ENDBRANCH  12  13
ENDBRANCH   1  11
TORSDOF 14
ENDMDL
MODEL 8
REMARK VINA RESULT:    -4.158      1.306      2.556
REMARK INTER + INTRA:          -9.884
REMARK INTER:                  -7.812
REMARK INTRA:                  -2.072
REMARK UNBOUND:                -2.322
REMARK SMILES CCCCCC=CCC=CCCCCCCCC(=O)[O-]
REMARK SMILES IDX 11 1 12 2 13 3 14 4 15 5 16 6 17 7 18 8 19 9 20 10 10 11
REMARK SMILES IDX 9 12 8 13 7 14 6 15 5 16 4 17 3 18 2 19 1 20
REMARK H PARENT
REMARK Flexibility Score: inf
ROOT
ATOM      1  C   UNL     1      98.240 106.479  98.415  1.00  0.00     0.027 C 
ENDROOT
BRANCH   1   2
ATOM      2  C   UNL     1      98.995 105.291  97.799  1.00  0.00     0.004 C 
BRANCH   2   3
ATOM      3  C   UNL     1      99.607 105.598  96.419  1.00  0.00     0.000 C 
BRANCH   3   4
ATOM      4  C   UNL     1     101.000 104.969  96.242  1.00  0.00     0.000 C 
BRANCH   4   5
ATOM      5  C   UNL     1     101.946 105.855  95.418  1.00  0.00     0.000 C 
BRANCH   5   6
ATOM      6  C   UNL     1     102.155 107.244  96.045  1.00  0.00     0.006 C 
BRANCH   6   7
ATOM      7  C   UNL     1     101.849 108.377  95.056  1.00  0.00     0.053 C 
BRANCH   7   8
ATOM      8  C   UNL     1     102.584 109.635  95.408  1.00  0.00     0.041 C 
ATOM      9  O   UNL     1     103.518 109.608  96.252  1.00  0.00    -0.550 OA
ATOM     10  O   UNL     1     102.262 110.829  94.776  1.00  0.00    -0.550 OA
ENDBRANCH   7   8
ENDBRANCH   6   7
ENDBRANCH   5   6
ENDBRANCH   4   5
ENDBRANCH   3   4
ENDBRANCH   2   3
ENDBRANCH   1   2
BRANCH   1  11
ATOM     11  C   UNL     1      98.580 107.772  97.715  1.00  0.00    -0.031 C 
ATOM     12  C   UNL     1      97.732 108.803  97.539  1.00  0.00    -0.027 C 
BRANCH  12  13
ATOM     13  C   UNL     1      96.290 108.820  97.979  1.00  0.00     0.054 C 
BRANCH  13  14
ATOM     14  C   UNL     1      95.339 108.742  96.811  1.00  0.00    -0.027 C 
ATOM     15  C   UNL     1      94.734 107.618  96.382  1.00  0.00    -0.031 C 
BRANCH  15  16
ATOM     16  C   UNL     1      94.856 106.268  97.043  1.00  0.00     0.027 C 
BRANCH  16  17
ATOM     17  C   UNL     1      94.771 105.152  95.996  1.00  0.00     0.004 C 
BRANCH  17  18
ATOM     18  C   UNL     1      96.107 104.403  95.880  1.00  0.00     0.000 C 
BRANCH  18  19
ATOM     19  C   UNL     1      95.960 102.894  96.126  1.00  0.00    -0.003 C 
ATOM     20  C   UNL     1      97.227 102.262  96.703  1.00  0.00     0.004 C 
ENDBRANCH  18  19
ENDBRANCH  17  18
ENDBRANCH  16  17
ENDBRANCH  15  16
ENDBRANCH  13  14
ENDBRANCH  12  13
ENDBRANCH   1  11
TORSDOF 14
ENDMDL
MODEL 9
REMARK VINA RESULT:    -4.125      1.928      4.145
REMARK INTER + INTRA:          -9.823
REMARK INTER:                  -7.409
REMARK INTRA:                  -2.414
REMARK UNBOUND:                -2.322
REMARK SMILES CCCCCC=CCC=CCCCCCCCC(=O)[O-]
REMARK SMILES IDX 11 1 12 2 13 3 14 4 15 5 16 6 17 7 18 8 19 9 20 10 10 11
REMARK SMILES IDX 9 12 8 13 7 14 6 15 5 16 4 17 3 18 2 19 1 20
REMARK H PARENT
REMARK Flexibility Score: inf
ROOT
ATOM      1  C   UNL     1      97.906 109.214  97.410  1.00  0.00     0.027 C 
ENDROOT
BRANCH   1   2
ATOM      2  C   UNL     1      99.034 110.086  97.983  1.00  0.00     0.004 C 
BRANCH   2   3
ATOM      3  C   UNL     1      99.714 110.984  96.933  1.00  0.00     0.000 C 
BRANCH   3   4
ATOM      4  C   UNL     1      99.225 110.689  95.504  1.00  0.00     0.000 C 
BRANCH   4   5
ATOM      5  C   UNL     1     100.378 110.605  94.493  1.00  0.00     0.000 C 
BRANCH   5   6
ATOM      6  C   UNL     1     101.064 109.228  94.487  1.00  0.00     0.006 C 
BRANCH   6   7
ATOM      7  C   UNL     1     102.435 109.262  95.175  1.00  0.00     0.053 C 
BRANCH   7   8
ATOM      8  C   UNL     1     102.457 108.418  96.413  1.00  0.00     0.041 C 
ATOM      9  O   UNL     1     103.482 108.389  97.143  1.00  0.00    -0.550 OA
ATOM     10  O   UNL     1     101.330 107.692  96.781  1.00  0.00    -0.550 OA
ENDBRANCH   7   8
ENDBRANCH   6   7
ENDBRANCH   5   6
ENDBRANCH   4   5
ENDBRANCH   3   4
ENDBRANCH   2   3
ENDBRANCH   1   2
BRANCH   1  11
ATOM     11  C   UNL     1      96.690 109.227  98.305  1.00  0.00    -0.031 C 
ATOM     12  C   UNL     1      95.491 108.701  97.990  1.00  0.00    -0.027 C 
BRANCH  12  13
ATOM     13  C   UNL     1      95.154 108.047  96.674  1.00  0.00     0.054 C 
BRANCH  13  14
ATOM     14  C   UNL     1      94.318 106.804  96.856  1.00  0.00    -0.027 C 
ATOM     15  C   UNL     1      94.750 105.546  96.642  1.00  0.00    -0.031 C 
BRANCH  15  16
ATOM     16  C   UNL     1      96.157 105.173  96.251  1.00  0.00     0.027 C 
BRANCH  16  17
ATOM     17  C   UNL     1      96.898 104.560  97.445  1.00  0.00     0.004 C 
BRANCH  17  18
ATOM     18  C   UNL     1      97.657 105.637  98.233  1.00  0.00     0.000 C 
BRANCH  18  19
ATOM     19  C   UNL     1      97.393 105.559  99.744  1.00  0.00    -0.003 C 
ATOM     20  C   UNL     1      95.908 105.672 100.091  1.00  0.00     0.004 C 
ENDBRANCH  18  19
ENDBRANCH  17  18
ENDBRANCH  16  17
ENDBRANCH  15  16
ENDBRANCH  13  14
ENDBRANCH  12  13
ENDBRANCH   1  11
TORSDOF 14
ENDMDL
