MODEL 1
REMARK VINA RESULT:    -6.890      0.000      0.000
REMARK INTER + INTRA:         -10.344
REMARK INTER:                  -9.105
REMARK INTRA:                  -1.239
REMARK UNBOUND:                -1.239
REMARK SMILES C=C(CC[C@H](C)[C@@H]1CC[C@@]2(C)[C@H]3CC[C@@H]4C(C)(C)[C@@H](O)CC[C@]45C[C@]35CC[C@]12C)C(C)C
REMARK SMILES IDX 4 1 3 2 2 3 1 4 30 5 31 6 32 7 5 8 6 9 7 10 8 11 28 12 9 13
REMARK SMILES IDX 10 14 27 15 29 16 11 17 12 18 26 19 25 20 13 21 23 22 24 23
REMARK SMILES IDX 14 24 15 25 22 26 16 27 21 28 19 29 17 30 18 31 20 32
REMARK H PARENT 20 33
REMARK Flexibility Score: inf
ROOT
ATOM      1  C   UNL     1     139.171 139.326 146.894  1.00  0.00     0.008 C 
ENDROOT
BRANCH   1   2
ATOM      2  C   UNL     1     138.976 140.567 146.000  1.00  0.00     0.031 C 
BRANCH   2   3
ATOM      3  C   UNL     1     139.667 141.817 146.508  1.00  0.00    -0.075 C 
ATOM      4  C   UNL     1     140.638 142.385 145.768  1.00  0.00     0.008 C 
BRANCH   3   5
ATOM      5  C   UNL     1     139.175 142.483 147.790  1.00  0.00     0.008 C 
ATOM      6  C   UNL     1     139.891 143.815 148.050  1.00  0.00     0.012 C 
ATOM      7  C   UNL     1     137.652 142.673 147.765  1.00  0.00     0.012 C 
ENDBRANCH   3   5
ENDBRANCH   2   3
ENDBRANCH   1   2
BRANCH   1   8
ATOM      8  C   UNL     1     139.275 137.981 146.121  1.00  0.00    -0.010 C 
ATOM      9  C   UNL     1     139.480 136.794 147.083  1.00  0.00     0.008 C 
BRANCH   8  10
ATOM     10  C   UNL     1     140.261 138.081 144.894  1.00  0.00    -0.002 C 
ATOM     11  C   UNL     1     140.123 136.948 143.847  1.00  0.00     0.005 C 
ATOM     12  C   UNL     1     141.819 138.324 145.061  1.00  0.00    -0.024 C 
ATOM     13  C   UNL     1     141.534 136.670 143.310  1.00  0.00     0.008 C 
ATOM     14  C   UNL     1     142.479 137.027 144.475  1.00  0.00    -0.024 C 
ATOM     15  C   UNL     1     142.395 138.572 146.471  1.00  0.00     0.008 C 
ATOM     16  C   UNL     1     142.135 139.616 144.226  1.00  0.00     0.012 C 
ATOM     17  C   UNL     1     142.432 135.806 145.461  1.00  0.00     0.012 C 
ATOM     18  C   UNL     1     144.000 137.229 144.131  1.00  0.00     0.002 C 
ATOM     19  C   UNL     1     143.951 138.613 146.496  1.00  0.00     0.008 C 
ATOM     20  C   UNL     1     144.726 138.122 145.211  1.00  0.00    -0.020 C 
ATOM     21  C   UNL     1     144.290 137.667 142.678  1.00  0.00     0.005 C 
ATOM     22  C   UNL     1     146.008 138.914 144.800  1.00  0.00    -0.020 C 
ATOM     23  C   UNL     1     146.141 137.579 145.524  1.00  0.00     0.015 C 
ATOM     24  C   UNL     1     145.787 137.842 142.439  1.00  0.00     0.005 C 
ATOM     25  C   UNL     1     146.328 139.020 143.278  1.00  0.00     0.004 C 
ATOM     26  C   UNL     1     146.474 140.124 145.640  1.00  0.00     0.010 C 
ATOM     27  C   UNL     1     147.843 139.361 143.022  1.00  0.00    -0.006 C 
ATOM     28  C   UNL     1     147.948 140.439 145.371  1.00  0.00     0.033 C 
ATOM     29  C   UNL     1     148.243 140.617 143.871  1.00  0.00     0.120 C 
ATOM     30  C   UNL     1     148.770 138.171 143.376  1.00  0.00     0.014 C 
ATOM     31  C   UNL     1     148.074 139.698 141.526  1.00  0.00     0.014 C 
BRANCH  29  32
ATOM     32  O   UNL     1     147.560 141.764 143.419  1.00  0.00    -0.393 OA
ATOM     33  H   UNL     1     148.102 142.556 143.674  1.00  0.00     0.210 HD
ENDBRANCH  29  32
ENDBRANCH   8  10
ENDBRANCH   1   8
TORSDOF 6
ENDMDL
MODEL 2
REMARK VINA RESULT:    -6.481      4.419      8.088
REMARK INTER + INTRA:          -9.804
REMARK INTER:                  -8.500
REMARK INTRA:                  -1.304
REMARK UNBOUND:                -1.239
REMARK SMILES C=C(CC[C@H](C)[C@@H]1CC[C@@]2(C)[C@H]3CC[C@@H]4C(C)(C)[C@@H](O)CC[C@]45C[C@]35CC[C@]12C)C(C)C
REMARK SMILES IDX 4 1 3 2 2 3 1 4 30 5 31 6 32 7 5 8 6 9 7 10 8 11 28 12 9 13
REMARK SMILES IDX 10 14 27 15 29 16 11 17 12 18 26 19 25 20 13 21 23 22 24 23
REMARK SMILES IDX 14 24 15 25 22 26 16 27 21 28 19 29 17 30 18 31 20 32
REMARK H PARENT 20 33
REMARK Flexibility Score: inf
ROOT
ATOM      1  C   UNL     1     140.151 142.164 144.675  1.00  0.00     0.008 C 
ENDROOT
BRANCH   1   2
ATOM      2  C   UNL     1     138.739 142.031 145.280  1.00  0.00     0.031 C 
BRANCH   2   3
ATOM      3  C   UNL     1     138.631 142.493 146.721  1.00  0.00    -0.075 C 
ATOM      4  C   UNL     1     137.418 142.598 147.294  1.00  0.00     0.008 C 
BRANCH   3   5
ATOM      5  C   UNL     1     139.901 142.718 147.537  1.00  0.00     0.008 C 
ATOM      6  C   UNL     1     139.983 144.153 148.075  1.00  0.00     0.012 C 
ATOM      7  C   UNL     1     140.014 141.696 148.676  1.00  0.00     0.012 C 
ENDBRANCH   3   5
ENDBRANCH   2   3
ENDBRANCH   1   2
BRANCH   1   8
ATOM      8  C   UNL     1     140.826 140.813 144.302  1.00  0.00    -0.010 C 
ATOM      9  C   UNL     1     140.367 140.320 142.916  1.00  0.00     0.008 C 
BRANCH   8  10
ATOM     10  C   UNL     1     140.757 139.774 145.487  1.00  0.00    -0.002 C 
ATOM     11  C   UNL     1     142.119 139.172 145.912  1.00  0.00     0.005 C 
ATOM     12  C   UNL     1     139.728 138.567 145.512  1.00  0.00    -0.024 C 
ATOM     13  C   UNL     1     141.849 137.721 146.329  1.00  0.00     0.008 C 
ATOM     14  C   UNL     1     140.634 137.286 145.486  1.00  0.00    -0.024 C 
ATOM     15  C   UNL     1     138.680 138.448 144.386  1.00  0.00     0.008 C 
ATOM     16  C   UNL     1     138.918 138.732 146.847  1.00  0.00     0.012 C 
ATOM     17  C   UNL     1     141.193 136.948 144.058  1.00  0.00     0.012 C 
ATOM     18  C   UNL     1     139.862 135.995 145.949  1.00  0.00     0.002 C 
ATOM     19  C   UNL     1     137.866 137.123 144.447  1.00  0.00     0.008 C 
ATOM     20  C   UNL     1     138.378 135.982 145.411  1.00  0.00    -0.020 C 
ATOM     21  C   UNL     1     139.971 135.672 147.456  1.00  0.00     0.005 C 
ATOM     22  C   UNL     1     137.301 135.159 146.187  1.00  0.00    -0.020 C 
ATOM     23  C   UNL     1     137.965 134.564 144.950  1.00  0.00     0.015 C 
ATOM     24  C   UNL     1     139.191 134.411 147.811  1.00  0.00     0.005 C 
ATOM     25  C   UNL     1     137.678 134.644 147.609  1.00  0.00     0.004 C 
ATOM     26  C   UNL     1     135.800 135.472 145.994  1.00  0.00     0.010 C 
ATOM     27  C   UNL     1     136.768 133.440 148.054  1.00  0.00    -0.006 C 
ATOM     28  C   UNL     1     134.936 134.288 146.438  1.00  0.00     0.033 C 
ATOM     29  C   UNL     1     135.261 133.833 147.871  1.00  0.00     0.120 C 
ATOM     30  C   UNL     1     137.076 132.153 147.247  1.00  0.00     0.014 C 
ATOM     31  C   UNL     1     137.001 133.113 149.552  1.00  0.00     0.014 C 
BRANCH  29  32
ATOM     32  O   UNL     1     134.903 134.869 148.757  1.00  0.00    -0.393 OA
ATOM     33  H   UNL     1     135.480 135.651 148.551  1.00  0.00     0.210 HD
ENDBRANCH  29  32
ENDBRANCH   8  10
ENDBRANCH   1   8
TORSDOF 6
ENDMDL
MODEL 3
REMARK VINA RESULT:    -6.398      1.533      2.739
REMARK INTER + INTRA:          -9.695
REMARK INTER:                  -7.826
REMARK INTRA:                  -1.868
REMARK UNBOUND:                -1.239
REMARK SMILES C=C(CC[C@H](C)[C@@H]1CC[C@@]2(C)[C@H]3CC[C@@H]4C(C)(C)[C@@H](O)CC[C@]45C[C@]35CC[C@]12C)C(C)C
REMARK SMILES IDX 4 1 3 2 2 3 1 4 30 5 31 6 32 7 5 8 6 9 7 10 8 11 28 12 9 13
REMARK SMILES IDX 10 14 27 15 29 16 11 17 12 18 26 19 25 20 13 21 23 22 24 23
REMARK SMILES IDX 14 24 15 25 22 26 16 27 21 28 19 29 17 30 18 31 20 32
REMARK H PARENT 20 33
REMARK Flexibility Score: inf
ROOT
ATOM      1  C   UNL     1     139.633 137.441 146.756  1.00  0.00     0.008 C 
ENDROOT
BRANCH   1   2
ATOM      2  C   UNL     1     138.625 138.578 146.492  1.00  0.00     0.031 C 
BRANCH   2   3
ATOM      3  C   UNL     1     139.226 139.807 145.838  1.00  0.00    -0.075 C 
ATOM      4  C   UNL     1     138.823 140.165 144.604  1.00  0.00     0.008 C 
BRANCH   3   5
ATOM      5  C   UNL     1     140.189 140.687 146.629  1.00  0.00     0.008 C 
ATOM      6  C   UNL     1     140.614 141.925 145.829  1.00  0.00     0.012 C 
ATOM      7  C   UNL     1     139.588 141.086 147.983  1.00  0.00     0.012 C 
ENDBRANCH   3   5
ENDBRANCH   2   3
ENDBRANCH   1   2
BRANCH   1   8
ATOM      8  C   UNL     1     140.114 136.694 145.480  1.00  0.00    -0.010 C 
ATOM      9  C   UNL     1     139.105 135.611 145.049  1.00  0.00     0.008 C 
BRANCH   8  10
ATOM     10  C   UNL     1     141.626 136.257 145.587  1.00  0.00    -0.002 C 
ATOM     11  C   UNL     1     142.009 135.539 146.906  1.00  0.00     0.005 C 
ATOM     12  C   UNL     1     142.830 137.239 145.267  1.00  0.00    -0.024 C 
ATOM     13  C   UNL     1     143.446 135.964 147.237  1.00  0.00     0.008 C 
ATOM     14  C   UNL     1     143.591 137.375 146.633  1.00  0.00    -0.024 C 
ATOM     15  C   UNL     1     142.524 138.654 144.734  1.00  0.00     0.008 C 
ATOM     16  C   UNL     1     143.672 136.524 144.152  1.00  0.00     0.012 C 
ATOM     17  C   UNL     1     142.890 138.354 147.640  1.00  0.00     0.012 C 
ATOM     18  C   UNL     1     145.051 137.934 146.453  1.00  0.00     0.002 C 
ATOM     19  C   UNL     1     143.788 139.557 144.640  1.00  0.00     0.008 C 
ATOM     20  C   UNL     1     145.110 139.057 145.345  1.00  0.00    -0.020 C 
ATOM     21  C   UNL     1     146.148 136.858 146.295  1.00  0.00     0.005 C 
ATOM     22  C   UNL     1     146.462 139.321 144.608  1.00  0.00    -0.020 C 
ATOM     23  C   UNL     1     146.047 140.212 145.773  1.00  0.00     0.015 C 
ATOM     24  C   UNL     1     147.525 137.492 146.123  1.00  0.00     0.005 C 
ATOM     25  C   UNL     1     147.595 138.265 144.789  1.00  0.00     0.004 C 
ATOM     26  C   UNL     1     146.471 140.047 143.244  1.00  0.00     0.010 C 
ATOM     27  C   UNL     1     149.010 138.867 144.456  1.00  0.00    -0.006 C 
ATOM     28  C   UNL     1     147.859 140.619 142.942  1.00  0.00     0.033 C 
ATOM     29  C   UNL     1     148.965 139.555 143.047  1.00  0.00     0.120 C 
ATOM     30  C   UNL     1     149.469 139.891 145.525  1.00  0.00     0.014 C 
ATOM     31  C   UNL     1     150.076 137.741 144.407  1.00  0.00     0.014 C 
BRANCH  29  32
ATOM     32  O   UNL     1     148.759 138.600 142.032  1.00  0.00    -0.393 OA
ATOM     33  H   UNL     1     147.904 138.133 142.228  1.00  0.00     0.210 HD
ENDBRANCH  29  32
ENDBRANCH   8  10
ENDBRANCH   1   8
TORSDOF 6
ENDMDL
MODEL 4
REMARK VINA RESULT:    -6.378      4.037      6.052
REMARK INTER + INTRA:          -9.667
REMARK INTER:                  -8.345
REMARK INTRA:                  -1.322
REMARK UNBOUND:                -1.239
REMARK SMILES C=C(CC[C@H](C)[C@@H]1CC[C@@]2(C)[C@H]3CC[C@@H]4C(C)(C)[C@@H](O)CC[C@]45C[C@]35CC[C@]12C)C(C)C
REMARK SMILES IDX 4 1 3 2 2 3 1 4 30 5 31 6 32 7 5 8 6 9 7 10 8 11 28 12 9 13
REMARK SMILES IDX 10 14 27 15 29 16 11 17 12 18 26 19 25 20 13 21 23 22 24 23
REMARK SMILES IDX 14 24 15 25 22 26 16 27 21 28 19 29 17 30 18 31 20 32
REMARK H PARENT 20 33
REMARK Flexibility Score: inf
ROOT
ATOM      1  C   UNL     1     140.472 141.577 145.505  1.00  0.00     0.008 C 
ENDROOT
BRANCH   1   2
ATOM      2  C   UNL     1     140.440 143.031 146.017  1.00  0.00     0.031 C 
BRANCH   2   3
ATOM      3  C   UNL     1     139.723 143.211 147.341  1.00  0.00    -0.075 C 
ATOM      4  C   UNL     1     139.985 144.295 148.094  1.00  0.00     0.008 C 
BRANCH   3   5
ATOM      5  C   UNL     1     138.630 142.227 147.746  1.00  0.00     0.008 C 
ATOM      6  C   UNL     1     139.082 141.316 148.895  1.00  0.00     0.012 C 
ATOM      7  C   UNL     1     137.330 142.961 148.105  1.00  0.00     0.012 C 
ENDBRANCH   3   5
ENDBRANCH   2   3
ENDBRANCH   1   2
BRANCH   1   8
ATOM      8  C   UNL     1     139.578 141.308 144.261  1.00  0.00    -0.010 C 
ATOM      9  C   UNL     1     138.478 142.379 144.119  1.00  0.00     0.008 C 
BRANCH   8  10
ATOM     10  C   UNL     1     139.120 139.801 144.179  1.00  0.00    -0.002 C 
ATOM     11  C   UNL     1     138.742 139.154 145.535  1.00  0.00     0.005 C 
ATOM     12  C   UNL     1     139.939 138.696 143.390  1.00  0.00    -0.024 C 
ATOM     13  C   UNL     1     139.178 137.685 145.459  1.00  0.00     0.008 C 
ATOM     14  C   UNL     1     140.384 137.678 144.499  1.00  0.00    -0.024 C 
ATOM     15  C   UNL     1     141.186 139.116 142.583  1.00  0.00     0.008 C 
ATOM     16  C   UNL     1     138.932 138.086 142.351  1.00  0.00     0.012 C 
ATOM     17  C   UNL     1     141.613 138.173 145.340  1.00  0.00     0.012 C 
ATOM     18  C   UNL     1     140.818 136.290 143.900  1.00  0.00     0.002 C 
ATOM     19  C   UNL     1     141.983 137.905 142.017  1.00  0.00     0.008 C 
ATOM     20  C   UNL     1     141.623 136.465 142.553  1.00  0.00    -0.020 C 
ATOM     21  C   UNL     1     139.694 135.235 143.810  1.00  0.00     0.005 C 
ATOM     22  C   UNL     1     141.636 135.290 141.523  1.00  0.00    -0.020 C 
ATOM     23  C   UNL     1     142.809 135.473 142.480  1.00  0.00     0.015 C 
ATOM     24  C   UNL     1     140.206 133.926 143.216  1.00  0.00     0.005 C 
ATOM     25  C   UNL     1     140.615 134.133 141.741  1.00  0.00     0.004 C 
ATOM     26  C   UNL     1     141.995 135.561 140.045  1.00  0.00     0.010 C 
ATOM     27  C   UNL     1     141.054 132.819 140.996  1.00  0.00    -0.006 C 
ATOM     28  C   UNL     1     142.414 134.268 139.341  1.00  0.00     0.033 C 
ATOM     29  C   UNL     1     141.366 133.152 139.496  1.00  0.00     0.120 C 
ATOM     30  C   UNL     1     142.295 132.166 141.658  1.00  0.00     0.014 C 
ATOM     31  C   UNL     1     139.910 131.773 141.028  1.00  0.00     0.014 C 
BRANCH  29  32
ATOM     32  O   UNL     1     140.196 133.547 138.818  1.00  0.00    -0.393 OA
ATOM     33  H   UNL     1     139.426 133.366 139.418  1.00  0.00     0.210 HD
ENDBRANCH  29  32
ENDBRANCH   8  10
ENDBRANCH   1   8
TORSDOF 6
ENDMDL
MODEL 5
REMARK VINA RESULT:    -6.367      3.910      8.554
REMARK INTER + INTRA:          -9.654
REMARK INTER:                  -7.820
REMARK INTRA:                  -1.834
REMARK UNBOUND:                -1.239
REMARK SMILES C=C(CC[C@H](C)[C@@H]1CC[C@@]2(C)[C@H]3CC[C@@H]4C(C)(C)[C@@H](O)CC[C@]45C[C@]35CC[C@]12C)C(C)C
REMARK SMILES IDX 4 1 3 2 2 3 1 4 30 5 31 6 32 7 5 8 6 9 7 10 8 11 28 12 9 13
REMARK SMILES IDX 10 14 27 15 29 16 11 17 12 18 26 19 25 20 13 21 23 22 24 23
REMARK SMILES IDX 14 24 15 25 22 26 16 27 21 28 19 29 17 30 18 31 20 32
REMARK H PARENT 20 33
REMARK Flexibility Score: inf
ROOT
ATOM      1  C   UNL     1     148.797 136.931 147.472  1.00  0.00     0.008 C 
ENDROOT
BRANCH   1   2
ATOM      2  C   UNL     1     148.626 137.050 145.945  1.00  0.00     0.031 C 
BRANCH   2   3
ATOM      3  C   UNL     1     148.976 138.414 145.382  1.00  0.00    -0.075 C 
ATOM      4  C   UNL     1     150.228 138.888 145.524  1.00  0.00     0.008 C 
BRANCH   3   5
ATOM      5  C   UNL     1     147.942 139.178 144.561  1.00  0.00     0.008 C 
ATOM      6  C   UNL     1     147.030 138.231 143.771  1.00  0.00     0.012 C 
ATOM      7  C   UNL     1     147.119 140.121 145.449  1.00  0.00     0.012 C 
ENDBRANCH   3   5
ENDBRANCH   2   3
ENDBRANCH   1   2
BRANCH   1   8
ATOM      8  C   UNL     1     147.928 137.919 148.300  1.00  0.00    -0.010 C 
ATOM      9  C   UNL     1     148.803 138.861 149.150  1.00  0.00     0.008 C 
BRANCH   8  10
ATOM     10  C   UNL     1     146.744 137.185 149.041  1.00  0.00    -0.002 C 
ATOM     11  C   UNL     1     147.161 135.957 149.888  1.00  0.00     0.005 C 
ATOM     12  C   UNL     1     145.401 136.766 148.308  1.00  0.00    -0.024 C 
ATOM     13  C   UNL     1     146.017 134.939 149.781  1.00  0.00     0.008 C 
ATOM     14  C   UNL     1     145.383 135.199 148.400  1.00  0.00    -0.024 C 
ATOM     15  C   UNL     1     145.189 137.173 146.835  1.00  0.00     0.008 C 
ATOM     16  C   UNL     1     144.246 137.451 149.122  1.00  0.00     0.012 C 
ATOM     17  C   UNL     1     146.323 134.505 147.352  1.00  0.00     0.012 C 
ATOM     18  C   UNL     1     143.952 134.599 148.141  1.00  0.00     0.002 C 
ATOM     19  C   UNL     1     143.915 136.538 146.204  1.00  0.00     0.008 C 
ATOM     20  C   UNL     1     143.193 135.380 146.998  1.00  0.00    -0.020 C 
ATOM     21  C   UNL     1     143.095 134.380 149.407  1.00  0.00     0.005 C 
ATOM     22  C   UNL     1     141.631 135.359 146.977  1.00  0.00    -0.020 C 
ATOM     23  C   UNL     1     142.415 134.406 146.080  1.00  0.00     0.015 C 
ATOM     24  C   UNL     1     141.728 133.801 149.059  1.00  0.00     0.005 C 
ATOM     25  C   UNL     1     140.904 134.825 148.248  1.00  0.00     0.004 C 
ATOM     26  C   UNL     1     140.853 136.443 146.199  1.00  0.00     0.010 C 
ATOM     27  C   UNL     1     139.431 134.372 147.931  1.00  0.00    -0.006 C 
ATOM     28  C   UNL     1     139.422 135.981 145.906  1.00  0.00     0.033 C 
ATOM     29  C   UNL     1     138.684 135.527 147.177  1.00  0.00     0.120 C 
ATOM     30  C   UNL     1     139.395 133.079 147.078  1.00  0.00     0.014 C 
ATOM     31  C   UNL     1     138.662 134.081 149.246  1.00  0.00     0.014 C 
BRANCH  29  32
ATOM     32  O   UNL     1     138.518 136.646 148.016  1.00  0.00    -0.393 OA
ATOM     33  H   UNL     1     137.857 137.249 147.585  1.00  0.00     0.210 HD
ENDBRANCH  29  32
ENDBRANCH   8  10
ENDBRANCH   1   8
TORSDOF 6
ENDMDL
MODEL 6
REMARK VINA RESULT:    -6.322      6.078     10.060
REMARK INTER + INTRA:          -9.593
REMARK INTER:                  -8.113
REMARK INTRA:                  -1.480
REMARK UNBOUND:                -1.239
REMARK SMILES C=C(CC[C@H](C)[C@@H]1CC[C@@]2(C)[C@H]3CC[C@@H]4C(C)(C)[C@@H](O)CC[C@]45C[C@]35CC[C@]12C)C(C)C
REMARK SMILES IDX 4 1 3 2 2 3 1 4 30 5 31 6 32 7 5 8 6 9 7 10 8 11 28 12 9 13
REMARK SMILES IDX 10 14 27 15 29 16 11 17 12 18 26 19 25 20 13 21 23 22 24 23
REMARK SMILES IDX 14 24 15 25 22 26 16 27 21 28 19 29 17 30 18 31 20 32
REMARK H PARENT 20 33
REMARK Flexibility Score: inf
ROOT
ATOM      1  C   UNL     1     151.303 140.605 140.352  1.00  0.00     0.008 C 
ENDROOT
BRANCH   1   2
ATOM      2  C   UNL     1     152.089 139.823 139.281  1.00  0.00     0.031 C 
BRANCH   2   3
ATOM      3  C   UNL     1     151.368 138.600 138.747  1.00  0.00    -0.075 C 
ATOM      4  C   UNL     1     150.133 138.733 138.227  1.00  0.00     0.008 C 
BRANCH   3   5
ATOM      5  C   UNL     1     152.094 137.259 138.697  1.00  0.00     0.008 C 
ATOM      6  C   UNL     1     152.494 136.776 140.097  1.00  0.00     0.012 C 
ATOM      7  C   UNL     1     151.252 136.201 137.970  1.00  0.00     0.012 C 
ENDBRANCH   3   5
ENDBRANCH   2   3
ENDBRANCH   1   2
BRANCH   1   8
ATOM      8  C   UNL     1     151.605 140.180 141.817  1.00  0.00    -0.010 C 
ATOM      9  C   UNL     1     153.094 139.824 142.002  1.00  0.00     0.008 C 
BRANCH   8  10
ATOM     10  C   UNL     1     150.551 139.139 142.358  1.00  0.00    -0.002 C 
ATOM     11  C   UNL     1     149.135 139.259 141.744  1.00  0.00     0.005 C 
ATOM     12  C   UNL     1     150.327 138.868 143.905  1.00  0.00    -0.024 C 
ATOM     13  C   UNL     1     148.140 138.903 142.857  1.00  0.00     0.008 C 
ATOM     14  C   UNL     1     148.845 139.314 144.165  1.00  0.00    -0.024 C 
ATOM     15  C   UNL     1     151.237 139.574 144.932  1.00  0.00     0.008 C 
ATOM     16  C   UNL     1     150.559 137.328 144.102  1.00  0.00     0.012 C 
ATOM     17  C   UNL     1     148.675 140.870 144.280  1.00  0.00     0.012 C 
ATOM     18  C   UNL     1     148.268 138.729 145.507  1.00  0.00     0.002 C 
ATOM     19  C   UNL     1     150.782 139.353 146.404  1.00  0.00     0.008 C 
ATOM     20  C   UNL     1     149.354 138.726 146.652  1.00  0.00    -0.020 C 
ATOM     21  C   UNL     1     147.520 137.385 145.367  1.00  0.00     0.005 C 
ATOM     22  C   UNL     1     149.213 137.704 147.825  1.00  0.00    -0.020 C 
ATOM     23  C   UNL     1     148.735 139.140 148.009  1.00  0.00     0.015 C 
ATOM     24  C   UNL     1     147.001 136.896 146.716  1.00  0.00     0.005 C 
ATOM     25  C   UNL     1     148.182 136.547 147.648  1.00  0.00     0.004 C 
ATOM     26  C   UNL     1     150.440 137.343 148.691  1.00  0.00     0.010 C 
ATOM     27  C   UNL     1     147.761 135.924 149.030  1.00  0.00    -0.006 C 
ATOM     28  C   UNL     1     150.005 136.736 150.027  1.00  0.00     0.033 C 
ATOM     29  C   UNL     1     149.047 135.546 149.843  1.00  0.00     0.120 C 
ATOM     30  C   UNL     1     146.883 136.897 149.858  1.00  0.00     0.014 C 
ATOM     31  C   UNL     1     146.934 134.631 148.808  1.00  0.00     0.014 C 
BRANCH  29  32
ATOM     32  O   UNL     1     149.752 134.505 149.207  1.00  0.00    -0.393 OA
ATOM     33  H   UNL     1     149.100 133.992 148.660  1.00  0.00     0.210 HD
ENDBRANCH  29  32
ENDBRANCH   8  10
ENDBRANCH   1   8
TORSDOF 6
ENDMDL
MODEL 7
REMARK VINA RESULT:    -6.288      3.623      7.998
REMARK INTER + INTRA:          -9.549
REMARK INTER:                  -8.208
REMARK INTRA:                  -1.341
REMARK UNBOUND:                -1.239
REMARK SMILES C=C(CC[C@H](C)[C@@H]1CC[C@@]2(C)[C@H]3CC[C@@H]4C(C)(C)[C@@H](O)CC[C@]45C[C@]35CC[C@]12C)C(C)C
REMARK SMILES IDX 4 1 3 2 2 3 1 4 30 5 31 6 32 7 5 8 6 9 7 10 8 11 28 12 9 13
REMARK SMILES IDX 10 14 27 15 29 16 11 17 12 18 26 19 25 20 13 21 23 22 24 23
REMARK SMILES IDX 14 24 15 25 22 26 16 27 21 28 19 29 17 30 18 31 20 32
REMARK H PARENT 20 33
REMARK Flexibility Score: inf
ROOT
ATOM      1  C   UNL     1     149.046 136.986 150.239  1.00  0.00     0.008 C 
ENDROOT
BRANCH   1   2
ATOM      2  C   UNL     1     150.107 137.237 149.149  1.00  0.00     0.031 C 
BRANCH   2   3
ATOM      3  C   UNL     1     149.799 138.408 148.236  1.00  0.00    -0.075 C 
ATOM      4  C   UNL     1     149.431 139.587 148.771  1.00  0.00     0.008 C 
BRANCH   3   5
ATOM      5  C   UNL     1     150.024 138.271 146.733  1.00  0.00     0.008 C 
ATOM      6  C   UNL     1     149.062 139.156 145.931  1.00  0.00     0.012 C 
ATOM      7  C   UNL     1     151.484 138.569 146.363  1.00  0.00     0.012 C 
ENDBRANCH   3   5
ENDBRANCH   2   3
ENDBRANCH   1   2
BRANCH   1   8
ATOM      8  C   UNL     1     148.379 135.582 150.183  1.00  0.00    -0.010 C 
ATOM      9  C   UNL     1     149.026 134.697 149.100  1.00  0.00     0.008 C 
BRANCH   8  10
ATOM     10  C   UNL     1     146.805 135.678 150.179  1.00  0.00    -0.002 C 
ATOM     11  C   UNL     1     146.067 134.381 150.597  1.00  0.00     0.005 C 
ATOM     12  C   UNL     1     145.982 136.264 148.956  1.00  0.00    -0.024 C 
ATOM     13  C   UNL     1     144.782 134.316 149.762  1.00  0.00     0.008 C 
ATOM     14  C   UNL     1     145.123 135.051 148.451  1.00  0.00    -0.024 C 
ATOM     15  C   UNL     1     146.745 136.859 147.753  1.00  0.00     0.008 C 
ATOM     16  C   UNL     1     145.121 137.434 149.550  1.00  0.00     0.012 C 
ATOM     17  C   UNL     1     145.940 134.031 147.580  1.00  0.00     0.012 C 
ATOM     18  C   UNL     1     143.919 135.504 147.545  1.00  0.00     0.002 C 
ATOM     19  C   UNL     1     145.813 137.224 146.561  1.00  0.00     0.008 C 
ATOM     20  C   UNL     1     144.325 136.697 146.594  1.00  0.00    -0.020 C 
ATOM     21  C   UNL     1     142.590 135.743 148.295  1.00  0.00     0.005 C 
ATOM     22  C   UNL     1     143.210 137.657 146.069  1.00  0.00    -0.020 C 
ATOM     23  C   UNL     1     143.710 136.520 145.185  1.00  0.00     0.015 C 
ATOM     24  C   UNL     1     141.485 136.181 147.340  1.00  0.00     0.005 C 
ATOM     25  C   UNL     1     141.810 137.570 146.748  1.00  0.00     0.004 C 
ATOM     26  C   UNL     1     143.583 139.061 145.542  1.00  0.00     0.010 C 
ATOM     27  C   UNL     1     140.679 138.170 145.832  1.00  0.00    -0.006 C 
ATOM     28  C   UNL     1     142.466 139.624 144.658  1.00  0.00     0.033 C 
ATOM     29  C   UNL     1     141.098 139.606 145.363  1.00  0.00     0.120 C 
ATOM     30  C   UNL     1     140.399 137.275 144.598  1.00  0.00     0.014 C 
ATOM     31  C   UNL     1     139.352 138.292 146.625  1.00  0.00     0.014 C 
BRANCH  29  32
ATOM     32  O   UNL     1     141.151 140.494 146.456  1.00  0.00    -0.393 OA
ATOM     33  H   UNL     1     140.583 140.115 147.177  1.00  0.00     0.210 HD
ENDBRANCH  29  32
ENDBRANCH   8  10
ENDBRANCH   1   8
TORSDOF 6
ENDMDL
MODEL 8
REMARK VINA RESULT:    -6.182      3.705      6.054
REMARK INTER + INTRA:          -9.409
REMARK INTER:                  -7.584
REMARK INTRA:                  -1.825
REMARK UNBOUND:                -1.239
REMARK SMILES C=C(CC[C@H](C)[C@@H]1CC[C@@]2(C)[C@H]3CC[C@@H]4C(C)(C)[C@@H](O)CC[C@]45C[C@]35CC[C@]12C)C(C)C
REMARK SMILES IDX 4 1 3 2 2 3 1 4 30 5 31 6 32 7 5 8 6 9 7 10 8 11 28 12 9 13
REMARK SMILES IDX 10 14 27 15 29 16 11 17 12 18 26 19 25 20 13 21 23 22 24 23
REMARK SMILES IDX 14 24 15 25 22 26 16 27 21 28 19 29 17 30 18 31 20 32
REMARK H PARENT 20 33
REMARK Flexibility Score: inf
ROOT
ATOM      1  C   UNL     1     142.558 134.804 149.616  1.00  0.00     0.008 C 
ENDROOT
BRANCH   1   2
ATOM      2  C   UNL     1     141.106 134.813 149.096  1.00  0.00     0.031 C 
BRANCH   2   3
ATOM      3  C   UNL     1     140.970 135.185 147.632  1.00  0.00    -0.075 C 
ATOM      4  C   UNL     1     141.259 136.439 147.237  1.00  0.00     0.008 C 
BRANCH   3   5
ATOM      5  C   UNL     1     140.622 134.107 146.610  1.00  0.00     0.008 C 
ATOM      6  C   UNL     1     141.808 133.793 145.689  1.00  0.00     0.012 C 
ATOM      7  C   UNL     1     140.110 132.835 147.301  1.00  0.00     0.012 C 
ENDBRANCH   3   5
ENDBRANCH   2   3
ENDBRANCH   1   2
BRANCH   1   8
ATOM      8  C   UNL     1     143.479 133.745 148.945  1.00  0.00    -0.010 C 
ATOM      9  C   UNL     1     143.147 132.322 149.435  1.00  0.00     0.008 C 
BRANCH   8  10
ATOM     10  C   UNL     1     144.995 134.176 148.982  1.00  0.00    -0.002 C 
ATOM     11  C   UNL     1     145.541 134.541 150.385  1.00  0.00     0.005 C 
ATOM     12  C   UNL     1     145.608 135.252 147.990  1.00  0.00    -0.024 C 
ATOM     13  C   UNL     1     146.557 135.673 150.182  1.00  0.00     0.008 C 
ATOM     14  C   UNL     1     146.069 136.423 148.927  1.00  0.00    -0.024 C 
ATOM     15  C   UNL     1     144.717 135.838 146.874  1.00  0.00     0.008 C 
ATOM     16  C   UNL     1     146.797 134.527 147.265  1.00  0.00     0.012 C 
ATOM     17  C   UNL     1     144.888 137.342 149.400  1.00  0.00     0.012 C 
ATOM     18  C   UNL     1     147.093 137.387 148.222  1.00  0.00     0.002 C 
ATOM     19  C   UNL     1     145.398 137.006 146.102  1.00  0.00     0.008 C 
ATOM     20  C   UNL     1     146.719 137.624 146.707  1.00  0.00    -0.020 C 
ATOM     21  C   UNL     1     148.581 137.033 148.437  1.00  0.00     0.005 C 
ATOM     22  C   UNL     1     147.846 138.031 145.704  1.00  0.00    -0.020 C 
ATOM     23  C   UNL     1     146.940 139.102 146.303  1.00  0.00     0.015 C 
ATOM     24  C   UNL     1     149.496 138.017 147.716  1.00  0.00     0.005 C 
ATOM     25  C   UNL     1     149.321 137.888 146.187  1.00  0.00     0.004 C 
ATOM     26  C   UNL     1     147.644 137.826 144.186  1.00  0.00     0.010 C 
ATOM     27  C   UNL     1     150.301 138.782 145.341  1.00  0.00    -0.006 C 
ATOM     28  C   UNL     1     148.611 138.702 143.385  1.00  0.00     0.033 C 
ATOM     29  C   UNL     1     150.074 138.500 143.815  1.00  0.00     0.120 C 
ATOM     30  C   UNL     1     150.104 140.291 145.631  1.00  0.00     0.014 C 
ATOM     31  C   UNL     1     151.775 138.435 145.679  1.00  0.00     0.014 C 
BRANCH  29  32
ATOM     32  O   UNL     1     150.454 137.183 143.488  1.00  0.00    -0.393 OA
ATOM     33  H   UNL     1     151.410 137.204 143.220  1.00  0.00     0.210 HD
ENDBRANCH  29  32
ENDBRANCH   8  10
ENDBRANCH   1   8
TORSDOF 6
ENDMDL
MODEL 9
REMARK VINA RESULT:    -6.064      4.165      8.409
REMARK INTER + INTRA:          -9.252
REMARK INTER:                  -7.578
REMARK INTRA:                  -1.674
REMARK UNBOUND:                -1.239
REMARK SMILES C=C(CC[C@H](C)[C@@H]1CC[C@@]2(C)[C@H]3CC[C@@H]4C(C)(C)[C@@H](O)CC[C@]45C[C@]35CC[C@]12C)C(C)C
REMARK SMILES IDX 4 1 3 2 2 3 1 4 30 5 31 6 32 7 5 8 6 9 7 10 8 11 28 12 9 13
REMARK SMILES IDX 10 14 27 15 29 16 11 17 12 18 26 19 25 20 13 21 23 22 24 23
REMARK SMILES IDX 14 24 15 25 22 26 16 27 21 28 19 29 17 30 18 31 20 32
REMARK H PARENT 20 33
REMARK Flexibility Score: inf
ROOT
ATOM      1  C   UNL     1     141.116 140.683 144.629  1.00  0.00     0.008 C 
ENDROOT
BRANCH   1   2
ATOM      2  C   UNL     1     140.723 141.682 145.735  1.00  0.00     0.031 C 
BRANCH   2   3
ATOM      3  C   UNL     1     139.229 141.902 145.875  1.00  0.00    -0.075 C 
ATOM      4  C   UNL     1     138.513 142.289 144.803  1.00  0.00     0.008 C 
BRANCH   3   5
ATOM      5  C   UNL     1     138.538 141.569 147.194  1.00  0.00     0.008 C 
ATOM      6  C   UNL     1     139.550 141.209 148.291  1.00  0.00     0.012 C 
ATOM      7  C   UNL     1     137.624 142.717 147.645  1.00  0.00     0.012 C 
ENDBRANCH   3   5
ENDBRANCH   2   3
ENDBRANCH   1   2
BRANCH   1   8
ATOM      8  C   UNL     1     141.877 139.424 145.134  1.00  0.00    -0.010 C 
ATOM      9  C   UNL     1     143.403 139.604 145.015  1.00  0.00     0.008 C 
BRANCH   8  10
ATOM     10  C   UNL     1     141.269 138.093 144.546  1.00  0.00    -0.002 C 
ATOM     11  C   UNL     1     141.088 138.077 143.008  1.00  0.00     0.005 C 
ATOM     12  C   UNL     1     139.966 137.408 145.138  1.00  0.00    -0.024 C 
ATOM     13  C   UNL     1     139.818 137.265 142.721  1.00  0.00     0.008 C 
ATOM     14  C   UNL     1     138.928 137.470 143.963  1.00  0.00    -0.024 C 
ATOM     15  C   UNL     1     139.312 138.003 146.403  1.00  0.00     0.008 C 
ATOM     16  C   UNL     1     140.394 135.945 145.515  1.00  0.00     0.012 C 
ATOM     17  C   UNL     1     138.265 138.884 143.795  1.00  0.00     0.012 C 
ATOM     18  C   UNL     1     137.732 136.468 144.165  1.00  0.00     0.002 C 
ATOM     19  C   UNL     1     137.949 137.338 146.755  1.00  0.00     0.008 C 
ATOM     20  C   UNL     1     137.283 136.398 145.676  1.00  0.00    -0.020 C 
ATOM     21  C   UNL     1     137.925 135.080 143.517  1.00  0.00     0.005 C 
ATOM     22  C   UNL     1     136.565 135.109 146.192  1.00  0.00    -0.020 C 
ATOM     23  C   UNL     1     135.741 136.330 145.797  1.00  0.00     0.015 C 
ATOM     24  C   UNL     1     136.721 134.178 143.766  1.00  0.00     0.005 C 
ATOM     25  C   UNL     1     136.601 133.852 145.271  1.00  0.00     0.004 C 
ATOM     26  C   UNL     1     136.525 134.797 147.704  1.00  0.00     0.010 C 
ATOM     27  C   UNL     1     135.455 132.834 145.629  1.00  0.00    -0.006 C 
ATOM     28  C   UNL     1     135.406 133.803 148.026  1.00  0.00     0.033 C 
ATOM     29  C   UNL     1     135.491 132.530 147.167  1.00  0.00     0.120 C 
ATOM     30  C   UNL     1     134.057 133.376 145.234  1.00  0.00     0.014 C 
ATOM     31  C   UNL     1     135.664 131.498 144.869  1.00  0.00     0.014 C 
BRANCH  29  32
ATOM     32  O   UNL     1     136.671 131.841 147.512  1.00  0.00    -0.393 OA
ATOM     33  H   UNL     1     137.359 132.064 146.831  1.00  0.00     0.210 HD
ENDBRANCH  29  32
ENDBRANCH   8  10
ENDBRANCH   1   8
TORSDOF 6
ENDMDL
