MODEL 1
REMARK VINA RESULT:    -5.878      0.000      0.000
REMARK INTER + INTRA:          -9.427
REMARK INTER:                  -7.940
REMARK INTRA:                  -1.486
REMARK UNBOUND:                -1.486
REMARK SMILES CC(=O)CCC=C(C)CCC=C(C)C
REMARK SMILES IDX 7 1 6 2 8 3 9 4 10 5 11 6 13 7 12 8 14 9 5 10 4 11 2 12 3 13
REMARK SMILES IDX 1 14
REMARK H PARENT
REMARK Flexibility Score: inf
ROOT
ATOM      1  C   UNL     1      27.678  13.675  78.175  1.00  0.00    -0.077 C 
ATOM      2  C   UNL     1      28.854  14.293  78.427  1.00  0.00    -0.028 C 
ATOM      3  C   UNL     1      27.510  12.181  78.337  1.00  0.00     0.039 C 
ENDROOT
BRANCH   1   4
ATOM      4  C   UNL     1      26.501  14.499  77.701  1.00  0.00     0.034 C 
BRANCH   4   5
ATOM      5  C   UNL     1      26.201  15.634  78.687  1.00  0.00     0.032 C 
BRANCH   5   6
ATOM      6  C   UNL     1      25.683  15.085  79.994  1.00  0.00    -0.028 C 
ATOM      7  C   UNL     1      25.647  14.666  82.414  1.00  0.00     0.039 C 
ATOM      8  C   UNL     1      26.253  15.315  81.198  1.00  0.00    -0.080 C 
ATOM      9  C   UNL     1      27.460  16.210  81.354  1.00  0.00     0.039 C 
ENDBRANCH   5   6
ENDBRANCH   4   5
ENDBRANCH   1   4
BRANCH   2  10
ATOM     10  C   UNL     1      30.088  13.601  78.948  1.00  0.00     0.035 C 
BRANCH  10  11
ATOM     11  C   UNL     1      30.271  13.884  80.447  1.00  0.00     0.079 C 
BRANCH  11  12
ATOM     12  C   UNL     1      29.712  12.814  81.358  1.00  0.00     0.130 C 
ATOM     13  O   UNL     1      29.781  11.650  80.995  1.00  0.00    -0.300 OA
ATOM     14  C   UNL     1      29.081  13.118  82.690  1.00  0.00     0.087 C 
ENDBRANCH  11  12
ENDBRANCH  10  11
ENDBRANCH   2  10
TORSDOF 6
ENDMDL
MODEL 2
REMARK VINA RESULT:    -5.857      1.428      3.632
REMARK INTER + INTRA:          -9.398
REMARK INTER:                  -8.280
REMARK INTRA:                  -1.117
REMARK UNBOUND:                -1.486
REMARK SMILES CC(=O)CCC=C(C)CCC=C(C)C
REMARK SMILES IDX 7 1 6 2 8 3 9 4 10 5 11 6 13 7 12 8 14 9 5 10 4 11 2 12 3 13
REMARK SMILES IDX 1 14
REMARK H PARENT
REMARK Flexibility Score: inf
ROOT
ATOM      1  C   UNL     1      26.754  13.612  82.673  1.00  0.00    -0.077 C 
ATOM      2  C   UNL     1      26.929  12.480  81.954  1.00  0.00    -0.028 C 
ATOM      3  C   UNL     1      27.655  13.969  83.832  1.00  0.00     0.039 C 
ENDROOT
BRANCH   1   4
ATOM      4  C   UNL     1      25.611  14.537  82.318  1.00  0.00     0.034 C 
BRANCH   4   5
ATOM      5  C   UNL     1      26.084  15.645  81.370  1.00  0.00     0.032 C 
BRANCH   5   6
ATOM      6  C   UNL     1      25.671  15.347  79.950  1.00  0.00    -0.028 C 
ATOM      7  C   UNL     1      25.969  14.727  77.591  1.00  0.00     0.039 C 
ATOM      8  C   UNL     1      26.519  14.948  78.976  1.00  0.00    -0.080 C 
ATOM      9  C   UNL     1      27.987  14.705  79.242  1.00  0.00     0.039 C 
ENDBRANCH   5   6
ENDBRANCH   4   5
ENDBRANCH   1   4
BRANCH   2  10
ATOM     10  C   UNL     1      28.053  11.497  82.169  1.00  0.00     0.035 C 
BRANCH  10  11
ATOM     11  C   UNL     1      28.831  11.275  80.863  1.00  0.00     0.079 C 
BRANCH  11  12
ATOM     12  C   UNL     1      30.082  12.114  80.731  1.00  0.00     0.130 C 
ATOM     13  O   UNL     1      30.430  12.792  81.687  1.00  0.00    -0.300 OA
ATOM     14  C   UNL     1      30.919  12.149  79.481  1.00  0.00     0.087 C 
ENDBRANCH  11  12
ENDBRANCH  10  11
ENDBRANCH   2  10
TORSDOF 6
ENDMDL
MODEL 3
REMARK VINA RESULT:    -5.802      1.219      2.290
REMARK INTER + INTRA:          -9.323
REMARK INTER:                  -8.350
REMARK INTRA:                  -0.973
REMARK UNBOUND:                -1.486
REMARK SMILES CC(=O)CCC=C(C)CCC=C(C)C
REMARK SMILES IDX 7 1 6 2 8 3 9 4 10 5 11 6 13 7 12 8 14 9 5 10 4 11 2 12 3 13
REMARK SMILES IDX 1 14
REMARK H PARENT
REMARK Flexibility Score: inf
ROOT
ATOM      1  C   UNL     1      26.725  15.146  79.164  1.00  0.00    -0.077 C 
ATOM      2  C   UNL     1      27.961  14.691  79.466  1.00  0.00    -0.028 C 
ATOM      3  C   UNL     1      26.036  14.788  77.867  1.00  0.00     0.039 C 
ENDROOT
BRANCH   1   4
ATOM      4  C   UNL     1      26.016  16.056  80.145  1.00  0.00     0.034 C 
BRANCH   4   5
ATOM      5  C   UNL     1      25.258  15.236  81.194  1.00  0.00     0.032 C 
BRANCH   5   6
ATOM      6  C   UNL     1      26.075  15.093  82.455  1.00  0.00    -0.028 C 
ATOM      7  C   UNL     1      27.437  13.948  84.149  1.00  0.00     0.039 C 
ATOM      8  C   UNL     1      26.688  13.952  82.842  1.00  0.00    -0.080 C 
ATOM      9  C   UNL     1      26.655  12.699  81.998  1.00  0.00     0.039 C 
ENDBRANCH   5   6
ENDBRANCH   4   5
ENDBRANCH   1   4
BRANCH   2  10
ATOM     10  C   UNL     1      28.756  13.744  78.603  1.00  0.00     0.035 C 
BRANCH  10  11
ATOM     11  C   UNL     1      30.204  13.642  79.108  1.00  0.00     0.079 C 
BRANCH  11  12
ATOM     12  C   UNL     1      30.330  13.336  80.584  1.00  0.00     0.130 C 
ATOM     13  O   UNL     1      30.040  12.214  80.970  1.00  0.00    -0.300 OA
ATOM     14  C   UNL     1      30.802  14.346  81.594  1.00  0.00     0.087 C 
ENDBRANCH  11  12
ENDBRANCH  10  11
ENDBRANCH   2  10
TORSDOF 6
ENDMDL
MODEL 4
REMARK VINA RESULT:    -5.799      1.691      3.590
REMARK INTER + INTRA:          -9.320
REMARK INTER:                  -8.029
REMARK INTRA:                  -1.291
REMARK UNBOUND:                -1.486
REMARK SMILES CC(=O)CCC=C(C)CCC=C(C)C
REMARK SMILES IDX 7 1 6 2 8 3 9 4 10 5 11 6 13 7 12 8 14 9 5 10 4 11 2 12 3 13
REMARK SMILES IDX 1 14
REMARK H PARENT
REMARK Flexibility Score: inf
ROOT
ATOM      1  C   UNL     1      28.478  15.132  81.006  1.00  0.00    -0.077 C 
ATOM      2  C   UNL     1      28.028  14.659  79.822  1.00  0.00    -0.028 C 
ATOM      3  C   UNL     1      29.941  15.078  81.383  1.00  0.00     0.039 C 
ENDROOT
BRANCH   1   4
ATOM      4  C   UNL     1      27.487  15.718  81.988  1.00  0.00     0.034 C 
BRANCH   4   5
ATOM      5  C   UNL     1      26.576  14.624  82.556  1.00  0.00     0.032 C 
BRANCH   5   6
ATOM      6  C   UNL     1      27.307  13.801  83.588  1.00  0.00    -0.028 C 
ATOM      7  C   UNL     1      28.330  11.793  84.569  1.00  0.00     0.039 C 
ATOM      8  C   UNL     1      27.635  12.498  83.434  1.00  0.00    -0.080 C 
ATOM      9  C   UNL     1      27.339  11.744  82.158  1.00  0.00     0.039 C 
ENDBRANCH   5   6
ENDBRANCH   4   5
ENDBRANCH   1   4
BRANCH   2  10
ATOM     10  C   UNL     1      28.910  14.095  78.736  1.00  0.00     0.035 C 
BRANCH  10  11
ATOM     11  C   UNL     1      28.911  12.559  78.787  1.00  0.00     0.079 C 
BRANCH  11  12
ATOM     12  C   UNL     1      30.175  11.955  79.357  1.00  0.00     0.130 C 
ATOM     13  O   UNL     1      30.079  10.943  80.035  1.00  0.00    -0.300 OA
ATOM     14  C   UNL     1      31.541  12.538  79.122  1.00  0.00     0.087 C 
ENDBRANCH  11  12
ENDBRANCH  10  11
ENDBRANCH   2  10
TORSDOF 6
ENDMDL
MODEL 5
REMARK VINA RESULT:    -5.754      2.427      4.958
REMARK INTER + INTRA:          -9.259
REMARK INTER:                  -8.114
REMARK INTRA:                  -1.145
REMARK UNBOUND:                -1.486
REMARK SMILES CC(=O)CCC=C(C)CCC=C(C)C
REMARK SMILES IDX 7 1 6 2 8 3 9 4 10 5 11 6 13 7 12 8 14 9 5 10 4 11 2 12 3 13
REMARK SMILES IDX 1 14
REMARK H PARENT
REMARK Flexibility Score: inf
ROOT
ATOM      1  C   UNL     1      27.105  12.904  82.334  1.00  0.00    -0.077 C 
ATOM      2  C   UNL     1      25.990  13.593  82.001  1.00  0.00    -0.028 C 
ATOM      3  C   UNL     1      28.070  13.405  83.383  1.00  0.00     0.039 C 
ENDROOT
BRANCH   1   4
ATOM      4  C   UNL     1      27.403  11.602  81.623  1.00  0.00     0.034 C 
BRANCH   4   5
ATOM      5  C   UNL     1      28.356  11.834  80.444  1.00  0.00     0.032 C 
BRANCH   5   6
ATOM      6  C   UNL     1      27.601  12.332  79.236  1.00  0.00    -0.028 C 
ATOM      7  C   UNL     1      26.810  13.964  77.579  1.00  0.00     0.039 C 
ATOM      8  C   UNL     1      27.651  13.601  78.775  1.00  0.00    -0.080 C 
ATOM      9  C   UNL     1      28.533  14.650  79.412  1.00  0.00     0.039 C 
ENDBRANCH   5   6
ENDBRANCH   4   5
ENDBRANCH   1   4
BRANCH   2  10
ATOM     10  C   UNL     1      25.550  14.875  82.662  1.00  0.00     0.035 C 
BRANCH  10  11
ATOM     11  C   UNL     1      25.001  15.858  81.617  1.00  0.00     0.079 C 
BRANCH  11  12
ATOM     12  C   UNL     1      25.958  16.967  81.239  1.00  0.00     0.130 C 
ATOM     13  O   UNL     1      25.640  17.723  80.334  1.00  0.00    -0.300 OA
ATOM     14  C   UNL     1      27.277  17.182  81.929  1.00  0.00     0.087 C 
ENDBRANCH  11  12
ENDBRANCH  10  11
ENDBRANCH   2  10
TORSDOF 6
ENDMDL
MODEL 6
REMARK VINA RESULT:    -5.631      1.483      2.290
REMARK INTER + INTRA:          -9.093
REMARK INTER:                  -7.909
REMARK INTRA:                  -1.183
REMARK UNBOUND:                -1.486
REMARK SMILES CC(=O)CCC=C(C)CCC=C(C)C
REMARK SMILES IDX 7 1 6 2 8 3 9 4 10 5 11 6 13 7 12 8 14 9 5 10 4 11 2 12 3 13
REMARK SMILES IDX 1 14
REMARK H PARENT
REMARK Flexibility Score: inf
ROOT
ATOM      1  C   UNL     1      28.045  13.401  79.083  1.00  0.00    -0.077 C 
ATOM      2  C   UNL     1      27.521  12.323  79.708  1.00  0.00    -0.028 C 
ATOM      3  C   UNL     1      29.494  13.794  79.250  1.00  0.00     0.039 C 
ENDROOT
BRANCH   1   4
ATOM      4  C   UNL     1      27.149  14.249  78.206  1.00  0.00     0.034 C 
BRANCH   4   5
ATOM      5  C   UNL     1      25.990  14.835  79.020  1.00  0.00     0.032 C 
BRANCH   5   6
ATOM      6  C   UNL     1      26.487  15.894  79.973  1.00  0.00    -0.028 C 
ATOM      7  C   UNL     1      26.906  16.965  82.145  1.00  0.00     0.039 C 
ATOM      8  C   UNL     1      26.404  15.809  81.320  1.00  0.00    -0.080 C 
ATOM      9  C   UNL     1      25.841  14.589  82.012  1.00  0.00     0.039 C 
ENDBRANCH   5   6
ENDBRANCH   4   5
ENDBRANCH   1   4
BRANCH   2  10
ATOM     10  C   UNL     1      28.309  11.368  80.570  1.00  0.00     0.035 C 
BRANCH  10  11
ATOM     11  C   UNL     1      27.696  11.280  81.976  1.00  0.00     0.079 C 
BRANCH  11  12
ATOM     12  C   UNL     1      28.498  11.977  83.052  1.00  0.00     0.130 C 
ATOM     13  O   UNL     1      29.331  12.803  82.711  1.00  0.00    -0.300 OA
ATOM     14  C   UNL     1      28.312  11.704  84.520  1.00  0.00     0.087 C 
ENDBRANCH  11  12
ENDBRANCH  10  11
ENDBRANCH   2  10
TORSDOF 6
ENDMDL
MODEL 7
REMARK VINA RESULT:    -5.631      2.636      5.411
REMARK INTER + INTRA:          -9.092
REMARK INTER:                  -8.114
REMARK INTRA:                  -0.978
REMARK UNBOUND:                -1.486
REMARK SMILES CC(=O)CCC=C(C)CCC=C(C)C
REMARK SMILES IDX 7 1 6 2 8 3 9 4 10 5 11 6 13 7 12 8 14 9 5 10 4 11 2 12 3 13
REMARK SMILES IDX 1 14
REMARK H PARENT
REMARK Flexibility Score: inf
ROOT
ATOM      1  C   UNL     1      27.572  12.839  82.447  1.00  0.00    -0.077 C 
ATOM      2  C   UNL     1      26.947  13.984  82.804  1.00  0.00    -0.028 C 
ATOM      3  C   UNL     1      26.888  11.785  81.607  1.00  0.00     0.039 C 
ENDROOT
BRANCH   1   4
ATOM      4  C   UNL     1      28.990  12.599  82.917  1.00  0.00     0.034 C 
BRANCH   4   5
ATOM      5  C   UNL     1      29.935  13.669  82.359  1.00  0.00     0.032 C 
BRANCH   5   6
ATOM      6  C   UNL     1      30.810  13.096  81.271  1.00  0.00    -0.028 C 
ATOM      7  C   UNL     1      31.511  12.569  78.976  1.00  0.00     0.039 C 
ATOM      8  C   UNL     1      30.569  13.231  79.948  1.00  0.00    -0.080 C 
ATOM      9  C   UNL     1      29.402  14.035  79.424  1.00  0.00     0.039 C 
ENDBRANCH   5   6
ENDBRANCH   4   5
ENDBRANCH   1   4
BRANCH   2  10
ATOM     10  C   UNL     1      25.557  14.370  82.366  1.00  0.00     0.035 C 
BRANCH  10  11
ATOM     11  C   UNL     1      25.612  15.223  81.090  1.00  0.00     0.079 C 
BRANCH  11  12
ATOM     12  C   UNL     1      25.750  16.709  81.337  1.00  0.00     0.130 C 
ATOM     13  O   UNL     1      24.748  17.405  81.264  1.00  0.00    -0.300 OA
ATOM     14  C   UNL     1      27.060  17.366  81.674  1.00  0.00     0.087 C 
ENDBRANCH  11  12
ENDBRANCH  10  11
ENDBRANCH   2  10
TORSDOF 6
ENDMDL
MODEL 8
REMARK VINA RESULT:    -5.628      1.072      3.871
REMARK INTER + INTRA:          -9.089
REMARK INTER:                  -7.774
REMARK INTRA:                  -1.315
REMARK UNBOUND:                -1.486
REMARK SMILES CC(=O)CCC=C(C)CCC=C(C)C
REMARK SMILES IDX 7 1 6 2 8 3 9 4 10 5 11 6 13 7 12 8 14 9 5 10 4 11 2 12 3 13
REMARK SMILES IDX 1 14
REMARK H PARENT
REMARK Flexibility Score: inf
ROOT
ATOM      1  C   UNL     1      26.467  15.815  81.548  1.00  0.00    -0.077 C 
ATOM      2  C   UNL     1      26.313  14.704  82.303  1.00  0.00    -0.028 C 
ATOM      3  C   UNL     1      27.353  16.960  81.984  1.00  0.00     0.039 C 
ENDROOT
BRANCH   1   4
ATOM      4  C   UNL     1      25.717  15.924  80.239  1.00  0.00     0.034 C 
BRANCH   4   5
ATOM      5  C   UNL     1      26.087  14.767  79.304  1.00  0.00     0.032 C 
BRANCH   5   6
ATOM      6  C   UNL     1      27.579  14.710  79.088  1.00  0.00    -0.028 C 
ATOM      7  C   UNL     1      29.779  13.664  78.767  1.00  0.00     0.039 C 
ATOM      8  C   UNL     1      28.286  13.567  78.935  1.00  0.00    -0.080 C 
ATOM      9  C   UNL     1      27.619  12.211  78.912  1.00  0.00     0.039 C 
ENDBRANCH   5   6
ENDBRANCH   4   5
ENDBRANCH   1   4
BRANCH   2  10
ATOM     10  C   UNL     1      27.036  14.447  83.602  1.00  0.00     0.035 C 
BRANCH  10  11
ATOM     11  C   UNL     1      27.751  13.088  83.559  1.00  0.00     0.079 C 
BRANCH  11  12
ATOM     12  C   UNL     1      28.938  13.036  82.623  1.00  0.00     0.130 C 
ATOM     13  O   UNL     1      29.171  11.987  82.040  1.00  0.00    -0.300 OA
ATOM     14  C   UNL     1      29.838  14.215  82.372  1.00  0.00     0.087 C 
ENDBRANCH  11  12
ENDBRANCH  10  11
ENDBRANCH   2  10
TORSDOF 6
ENDMDL
MODEL 9
REMARK VINA RESULT:    -5.600      1.526      4.232
REMARK INTER + INTRA:          -9.051
REMARK INTER:                  -8.402
REMARK INTRA:                  -0.649
REMARK UNBOUND:                -1.486
REMARK SMILES CC(=O)CCC=C(C)CCC=C(C)C
REMARK SMILES IDX 7 1 6 2 8 3 9 4 10 5 11 6 13 7 12 8 14 9 5 10 4 11 2 12 3 13
REMARK SMILES IDX 1 14
REMARK H PARENT
REMARK Flexibility Score: inf
ROOT
ATOM      1  C   UNL     1      25.855  15.529  80.909  1.00  0.00    -0.077 C 
ATOM      2  C   UNL     1      25.979  14.746  79.814  1.00  0.00    -0.028 C 
ATOM      3  C   UNL     1      25.875  17.038  80.818  1.00  0.00     0.039 C 
ENDROOT
BRANCH   1   4
ATOM      4  C   UNL     1      25.710  14.876  82.266  1.00  0.00     0.034 C 
BRANCH   4   5
ATOM      5  C   UNL     1      26.962  15.114  83.118  1.00  0.00     0.032 C 
BRANCH   5   6
ATOM      6  C   UNL     1      27.263  13.909  83.975  1.00  0.00    -0.028 C 
ATOM      7  C   UNL     1      28.304  11.766  84.577  1.00  0.00     0.039 C 
ATOM      8  C   UNL     1      28.135  12.932  83.638  1.00  0.00    -0.080 C 
ATOM      9  C   UNL     1      28.947  12.988  82.365  1.00  0.00     0.039 C 
ENDBRANCH   5   6
ENDBRANCH   4   5
ENDBRANCH   1   4
BRANCH   2  10
ATOM     10  C   UNL     1      26.081  15.264  78.401  1.00  0.00     0.035 C 
BRANCH  10  11
ATOM     11  C   UNL     1      26.769  14.229  77.497  1.00  0.00     0.079 C 
BRANCH  11  12
ATOM     12  C   UNL     1      27.824  13.396  78.191  1.00  0.00     0.130 C 
ATOM     13  O   UNL     1      27.607  12.205  78.357  1.00  0.00    -0.300 OA
ATOM     14  C   UNL     1      29.128  13.966  78.680  1.00  0.00     0.087 C 
ENDBRANCH  11  12
ENDBRANCH  10  11
ENDBRANCH   2  10
TORSDOF 6
ENDMDL
