MODEL 1
REMARK VINA RESULT:    -6.750      0.000      0.000
REMARK INTER + INTRA:         -11.763
REMARK INTER:                  -9.906
REMARK INTRA:                  -1.857
REMARK UNBOUND:                -1.857
REMARK SMILES O=c1c(O[C@@H]2O[C@@H](CO)[C@@H](O)[C@H](O)[C@@H]2O)c(-c2ccc(O)c(O)c2)oc2cc(O)cc(O)c12
REMARK SMILES IDX 4 1 3 2 16 3 25 4 2 5 26 6 1 7 33 8 27 9 31 10 28 11 30 12
REMARK SMILES IDX 17 13 18 14 19 15 20 16 24 17 22 18 21 19 23 21 32 23 29 25
REMARK SMILES IDX 5 27 14 28 6 29 12 30 7 31 10 32 15 33 13 35 8 37 9 38 11 40
REMARK H PARENT 21 20 23 22 32 24 29 26 15 34 13 36 9 39 11 41
REMARK Flexibility Score: inf
ROOT
ATOM      1  O   UNL     1     130.842 125.495 124.364  1.00  0.00    -0.454 OA
ENDROOT
BRANCH   1   2
ATOM      2  C   UNL     1     131.461 126.764 124.331  1.00  0.00     0.214 A 
ATOM      3  C   UNL     1     130.936 127.722 123.443  1.00  0.00     0.180 A 
ATOM      4  O   UNL     1     131.474 128.934 123.360  1.00  0.00    -0.452 OA
ATOM      5  C   UNL     1     132.599 127.120 125.093  1.00  0.00     0.239 A 
ATOM      6  C   UNL     1     132.500 129.326 124.101  1.00  0.00     0.146 A 
ATOM      7  O   UNL     1     133.182 126.267 125.813  1.00  0.00    -0.285 OA
ATOM      8  C   UNL     1     133.107 128.436 125.013  1.00  0.00     0.111 A 
ATOM      9  C   UNL     1     132.982 130.631 123.954  1.00  0.00     0.094 A 
ATOM     10  C   UNL     1     134.201 128.894 125.790  1.00  0.00     0.134 A 
ATOM     11  C   UNL     1     134.057 131.078 124.732  1.00  0.00     0.123 A 
ATOM     12  C   UNL     1     134.663 130.211 125.645  1.00  0.00     0.093 A 
BRANCH   3  13
ATOM     13  C   UNL     1     129.797 127.412 122.560  1.00  0.00     0.025 A 
ATOM     14  C   UNL     1     130.026 126.747 121.348  1.00  0.00     0.016 A 
ATOM     15  C   UNL     1     128.956 126.428 120.507  1.00  0.00     0.051 A 
ATOM     16  C   UNL     1     127.650 126.808 120.854  1.00  0.00     0.157 A 
ATOM     17  C   UNL     1     128.495 127.808 122.900  1.00  0.00     0.062 A 
ATOM     18  C   UNL     1     127.421 127.511 122.050  1.00  0.00     0.158 A 
BRANCH  16  19
ATOM     19  O   UNL     1     126.581 126.481 120.022  1.00  0.00    -0.504 OA
ATOM     20  H   UNL     1     126.438 126.961 119.138  1.00  0.00     0.293 HD
ENDBRANCH  16  19
BRANCH  18  21
ATOM     21  O   UNL     1     126.136 127.919 122.410  1.00  0.00    -0.504 OA
ATOM     22  H   UNL     1     125.351 127.874 121.772  1.00  0.00     0.293 HD
ENDBRANCH  18  21
ENDBRANCH   3  13
BRANCH  10  23
ATOM     23  O   UNL     1     134.829 128.054 126.712  1.00  0.00    -0.507 OA
ATOM     24  H   UNL     1     134.301 127.468 127.347  1.00  0.00     0.293 HD
ENDBRANCH  10  23
BRANCH  11  25
ATOM     25  O   UNL     1     134.539 132.379 124.601  1.00  0.00    -0.508 OA
ATOM     26  H   UNL     1     135.004 132.846 125.368  1.00  0.00     0.293 HD
ENDBRANCH  11  25
ENDBRANCH   1   2
BRANCH   1  27
ATOM     27  C   UNL     1     129.812 125.033 125.248  1.00  0.00     0.339 C 
ATOM     28  C   UNL     1     130.321 123.835 126.103  1.00  0.00     0.214 C 
ATOM     29  O   UNL     1     129.360 126.150 126.013  1.00  0.00    -0.332 OA
ATOM     30  C   UNL     1     129.168 123.335 126.990  1.00  0.00     0.180 C 
ATOM     31  C   UNL     1     129.033 125.872 127.370  1.00  0.00     0.179 C 
ATOM     32  C   UNL     1     128.326 124.503 127.569  1.00  0.00     0.177 C 
BRANCH  28  33
ATOM     33  O   UNL     1     131.419 124.214 126.897  1.00  0.00    -0.384 OA
ATOM     34  H   UNL     1     131.519 125.196 126.806  1.00  0.00     0.211 HD
ENDBRANCH  28  33
BRANCH  30  35
ATOM     35  O   UNL     1     129.679 122.548 128.038  1.00  0.00    -0.387 OA
ATOM     36  H   UNL     1     130.553 122.944 128.303  1.00  0.00     0.211 HD
ENDBRANCH  30  35
BRANCH  31  37
ATOM     37  C   UNL     1     128.187 127.028 127.929  1.00  0.00     0.191 C 
BRANCH  37  38
ATOM     38  O   UNL     1     127.228 127.436 126.989  1.00  0.00    -0.394 OA
ATOM     39  H   UNL     1     127.677 127.400 126.102  1.00  0.00     0.210 HD
ENDBRANCH  37  38
ENDBRANCH  31  37
BRANCH  32  40
ATOM     40  O   UNL     1     127.059 124.520 126.949  1.00  0.00    -0.387 OA
ATOM     41  H   UNL     1     126.436 124.019 127.536  1.00  0.00     0.211 HD
ENDBRANCH  32  40
ENDBRANCH   1  27
TORSDOF 12
ENDMDL
MODEL 2
REMARK VINA RESULT:    -6.715      2.094      6.625
REMARK INTER + INTRA:         -11.712
REMARK INTER:                 -10.464
REMARK INTRA:                  -1.248
REMARK UNBOUND:                -1.857
REMARK SMILES O=c1c(O[C@@H]2O[C@@H](CO)[C@@H](O)[C@H](O)[C@@H]2O)c(-c2ccc(O)c(O)c2)oc2cc(O)cc(O)c12
REMARK SMILES IDX 4 1 3 2 16 3 25 4 2 5 26 6 1 7 33 8 27 9 31 10 28 11 30 12
REMARK SMILES IDX 17 13 18 14 19 15 20 16 24 17 22 18 21 19 23 21 32 23 29 25
REMARK SMILES IDX 5 27 14 28 6 29 12 30 7 31 10 32 15 33 13 35 8 37 9 38 11 40
REMARK H PARENT 21 20 23 22 32 24 29 26 15 34 13 36 9 39 11 41
REMARK Flexibility Score: inf
ROOT
ATOM      1  O   UNL     1     130.818 128.883 125.157  1.00  0.00    -0.454 OA
ENDROOT
BRANCH   1   2
ATOM      2  C   UNL     1     130.243 127.713 125.702  1.00  0.00     0.214 A 
ATOM      3  C   UNL     1     130.005 126.636 124.827  1.00  0.00     0.180 A 
ATOM      4  O   UNL     1     129.464 125.509 125.274  1.00  0.00    -0.452 OA
ATOM      5  C   UNL     1     129.849 127.569 127.053  1.00  0.00     0.239 A 
ATOM      6  C   UNL     1     129.137 125.312 126.543  1.00  0.00     0.146 A 
ATOM      7  O   UNL     1     129.927 128.540 127.852  1.00  0.00    -0.285 OA
ATOM      8  C   UNL     1     129.325 126.335 127.498  1.00  0.00     0.111 A 
ATOM      9  C   UNL     1     128.591 124.080 126.918  1.00  0.00     0.094 A 
ATOM     10  C   UNL     1     128.966 126.084 128.847  1.00  0.00     0.134 A 
ATOM     11  C   UNL     1     128.248 123.839 128.254  1.00  0.00     0.123 A 
ATOM     12  C   UNL     1     128.435 124.838 129.212  1.00  0.00     0.093 A 
BRANCH   3  13
ATOM     13  C   UNL     1     130.319 126.728 123.390  1.00  0.00     0.025 A 
ATOM     14  C   UNL     1     129.527 127.532 122.560  1.00  0.00     0.016 A 
ATOM     15  C   UNL     1     129.822 127.645 121.199  1.00  0.00     0.051 A 
ATOM     16  C   UNL     1     130.891 126.921 120.647  1.00  0.00     0.157 A 
ATOM     17  C   UNL     1     131.377 125.989 122.837  1.00  0.00     0.062 A 
ATOM     18  C   UNL     1     131.663 126.081 121.468  1.00  0.00     0.158 A 
BRANCH  16  19
ATOM     19  O   UNL     1     131.192 127.041 119.292  1.00  0.00    -0.504 OA
ATOM     20  H   UNL     1     131.333 126.220 118.710  1.00  0.00     0.293 HD
ENDBRANCH  16  19
BRANCH  18  21
ATOM     21  O   UNL     1     132.718 125.335 120.943  1.00  0.00    -0.504 OA
ATOM     22  H   UNL     1     132.648 124.831 120.067  1.00  0.00     0.293 HD
ENDBRANCH  18  21
ENDBRANCH   3  13
BRANCH  10  23
ATOM     23  O   UNL     1     129.140 127.061 129.829  1.00  0.00    -0.507 OA
ATOM     24  H   UNL     1     129.534 126.842 130.737  1.00  0.00     0.293 HD
ENDBRANCH  10  23
BRANCH  11  25
ATOM     25  O   UNL     1     127.712 122.611 128.642  1.00  0.00    -0.508 OA
ATOM     26  H   UNL     1     127.672 121.831 128.001  1.00  0.00     0.293 HD
ENDBRANCH  11  25
ENDBRANCH   1   2
BRANCH   1  27
ATOM     27  C   UNL     1     132.131 129.413 125.383  1.00  0.00     0.339 C 
ATOM     28  C   UNL     1     133.122 128.904 124.296  1.00  0.00     0.214 C 
ATOM     29  O   UNL     1     132.021 130.835 125.458  1.00  0.00    -0.332 OA
ATOM     30  C   UNL     1     134.526 129.446 124.612  1.00  0.00     0.180 C 
ATOM     31  C   UNL     1     133.095 131.564 124.875  1.00  0.00     0.179 C 
ATOM     32  C   UNL     1     134.486 130.915 125.113  1.00  0.00     0.177 C 
BRANCH  28  33
ATOM     33  O   UNL     1     132.717 129.315 123.013  1.00  0.00    -0.384 OA
ATOM     34  H   UNL     1     133.513 129.255 122.424  1.00  0.00     0.211 HD
ENDBRANCH  28  33
BRANCH  30  35
ATOM     35  O   UNL     1     135.343 129.353 123.471  1.00  0.00    -0.387 OA
ATOM     36  H   UNL     1     135.050 130.067 122.842  1.00  0.00     0.211 HD
ENDBRANCH  30  35
BRANCH  31  37
ATOM     37  C   UNL     1     133.054 133.013 125.389  1.00  0.00     0.191 C 
BRANCH  37  38
ATOM     38  O   UNL     1     133.452 133.905 124.382  1.00  0.00    -0.394 OA
ATOM     39  H   UNL     1     132.710 133.924 123.720  1.00  0.00     0.210 HD
ENDBRANCH  37  38
ENDBRANCH  31  37
BRANCH  32  40
ATOM     40  O   UNL     1     134.805 130.951 126.488  1.00  0.00    -0.387 OA
ATOM     41  H   UNL     1     134.080 130.476 126.971  1.00  0.00     0.211 HD
ENDBRANCH  32  40
ENDBRANCH   1  27
TORSDOF 12
ENDMDL
MODEL 3
REMARK VINA RESULT:    -6.686      8.167     10.308
REMARK INTER + INTRA:         -11.670
REMARK INTER:                  -9.972
REMARK INTRA:                  -1.698
REMARK UNBOUND:                -1.857
REMARK SMILES O=c1c(O[C@@H]2O[C@@H](CO)[C@@H](O)[C@H](O)[C@@H]2O)c(-c2ccc(O)c(O)c2)oc2cc(O)cc(O)c12
REMARK SMILES IDX 4 1 3 2 16 3 25 4 2 5 26 6 1 7 33 8 27 9 31 10 28 11 30 12
REMARK SMILES IDX 17 13 18 14 19 15 20 16 24 17 22 18 21 19 23 21 32 23 29 25
REMARK SMILES IDX 5 27 14 28 6 29 12 30 7 31 10 32 15 33 13 35 8 37 9 38 11 40
REMARK H PARENT 21 20 23 22 32 24 29 26 15 34 13 36 9 39 11 41
REMARK Flexibility Score: inf
ROOT
ATOM      1  O   UNL     1     130.056 134.585 129.511  1.00  0.00    -0.454 OA
ENDROOT
BRANCH   1   2
ATOM      2  C   UNL     1     131.353 135.100 129.298  1.00  0.00     0.214 A 
ATOM      3  C   UNL     1     131.514 136.498 129.335  1.00  0.00     0.180 A 
ATOM      4  O   UNL     1     132.707 137.047 129.140  1.00  0.00    -0.452 OA
ATOM      5  C   UNL     1     132.490 134.310 129.003  1.00  0.00     0.239 A 
ATOM      6  C   UNL     1     133.806 136.340 128.922  1.00  0.00     0.146 A 
ATOM      7  O   UNL     1     132.382 133.066 128.839  1.00  0.00    -0.285 OA
ATOM      8  C   UNL     1     133.750 134.930 128.853  1.00  0.00     0.111 A 
ATOM      9  C   UNL     1     135.021 137.012 128.747  1.00  0.00     0.094 A 
ATOM     10  C   UNL     1     134.948 134.209 128.622  1.00  0.00     0.134 A 
ATOM     11  C   UNL     1     136.201 136.291 128.529  1.00  0.00     0.123 A 
ATOM     12  C   UNL     1     136.162 134.895 128.466  1.00  0.00     0.093 A 
BRANCH   3  13
ATOM     13  C   UNL     1     130.370 137.399 129.564  1.00  0.00     0.025 A 
ATOM     14  C   UNL     1     130.110 137.868 130.859  1.00  0.00     0.016 A 
ATOM     15  C   UNL     1     129.042 138.738 131.091  1.00  0.00     0.051 A 
ATOM     16  C   UNL     1     128.197 139.114 130.034  1.00  0.00     0.157 A 
ATOM     17  C   UNL     1     129.516 137.759 128.510  1.00  0.00     0.062 A 
ATOM     18  C   UNL     1     128.429 138.612 128.742  1.00  0.00     0.158 A 
BRANCH  16  19
ATOM     19  O   UNL     1     127.137 139.989 130.263  1.00  0.00    -0.504 OA
ATOM     20  H   UNL     1     126.871 140.258 131.206  1.00  0.00     0.293 HD
ENDBRANCH  16  19
BRANCH  18  21
ATOM     21  O   UNL     1     127.593 138.953 127.678  1.00  0.00    -0.504 OA
ATOM     22  H   UNL     1     126.829 138.362 127.373  1.00  0.00     0.293 HD
ENDBRANCH  18  21
ENDBRANCH   3  13
BRANCH  10  23
ATOM     23  O   UNL     1     134.945 132.814 128.554  1.00  0.00    -0.507 OA
ATOM     24  H   UNL     1     134.083 132.284 128.505  1.00  0.00     0.293 HD
ENDBRANCH  10  23
BRANCH  11  25
ATOM     25  O   UNL     1     137.419 136.949 128.364  1.00  0.00    -0.508 OA
ATOM     26  H   UNL     1     137.703 137.690 128.989  1.00  0.00     0.293 HD
ENDBRANCH  11  25
ENDBRANCH   1   2
BRANCH   1  27
ATOM     27  C   UNL     1     129.548 133.914 130.672  1.00  0.00     0.339 C 
ATOM     28  C   UNL     1     128.896 132.556 130.277  1.00  0.00     0.214 C 
ATOM     29  O   UNL     1     130.614 133.802 131.614  1.00  0.00    -0.332 OA
ATOM     30  C   UNL     1     128.311 131.902 131.541  1.00  0.00     0.180 C 
ATOM     31  C   UNL     1     130.646 132.592 132.364  1.00  0.00     0.179 C 
ATOM     32  C   UNL     1     129.237 132.081 132.774  1.00  0.00     0.177 C 
BRANCH  28  33
ATOM     33  O   UNL     1     129.837 131.701 129.676  1.00  0.00    -0.384 OA
ATOM     34  H   UNL     1     129.911 131.974 128.725  1.00  0.00     0.211 HD
ENDBRANCH  28  33
BRANCH  30  35
ATOM     35  O   UNL     1     128.084 130.533 131.309  1.00  0.00    -0.387 OA
ATOM     36  H   UNL     1     128.975 130.103 131.194  1.00  0.00     0.211 HD
ENDBRANCH  30  35
BRANCH  31  37
ATOM     37  C   UNL     1     131.553 132.786 133.589  1.00  0.00     0.191 C 
BRANCH  37  38
ATOM     38  O   UNL     1     131.322 131.778 134.538  1.00  0.00    -0.394 OA
ATOM     39  H   UNL     1     130.364 131.528 134.449  1.00  0.00     0.210 HD
ENDBRANCH  37  38
ENDBRANCH  31  37
BRANCH  32  40
ATOM     40  O   UNL     1     128.642 132.984 133.680  1.00  0.00    -0.387 OA
ATOM     41  H   UNL     1     128.038 133.572 133.157  1.00  0.00     0.211 HD
ENDBRANCH  32  40
ENDBRANCH   1  27
TORSDOF 12
ENDMDL
MODEL 4
REMARK VINA RESULT:    -6.684      1.841      6.284
REMARK INTER + INTRA:         -11.667
REMARK INTER:                 -10.436
REMARK INTRA:                  -1.230
REMARK UNBOUND:                -1.857
REMARK SMILES O=c1c(O[C@@H]2O[C@@H](CO)[C@@H](O)[C@H](O)[C@@H]2O)c(-c2ccc(O)c(O)c2)oc2cc(O)cc(O)c12
REMARK SMILES IDX 4 1 3 2 16 3 25 4 2 5 26 6 1 7 33 8 27 9 31 10 28 11 30 12
REMARK SMILES IDX 17 13 18 14 19 15 20 16 24 17 22 18 21 19 23 21 32 23 29 25
REMARK SMILES IDX 5 27 14 28 6 29 12 30 7 31 10 32 15 33 13 35 8 37 9 38 11 40
REMARK H PARENT 21 20 23 22 32 24 29 26 15 34 13 36 9 39 11 41
REMARK Flexibility Score: inf
ROOT
ATOM      1  O   UNL     1     131.456 127.714 125.031  1.00  0.00    -0.454 OA
ENDROOT
BRANCH   1   2
ATOM      2  C   UNL     1     131.000 126.474 125.530  1.00  0.00     0.214 A 
ATOM      3  C   UNL     1     130.274 125.646 124.652  1.00  0.00     0.180 A 
ATOM      4  O   UNL     1     129.814 124.469 125.059  1.00  0.00    -0.452 OA
ATOM      5  C   UNL     1     131.184 126.029 126.861  1.00  0.00     0.239 A 
ATOM      6  C   UNL     1     130.017 123.990 126.277  1.00  0.00     0.146 A 
ATOM      7  O   UNL     1     131.720 126.779 127.719  1.00  0.00    -0.285 OA
ATOM      8  C   UNL     1     130.723 124.748 127.237  1.00  0.00     0.111 A 
ATOM      9  C   UNL     1     129.508 122.728 126.603  1.00  0.00     0.094 A 
ATOM     10  C   UNL     1     130.923 124.199 128.529  1.00  0.00     0.134 A 
ATOM     11  C   UNL     1     129.718 122.190 127.879  1.00  0.00     0.123 A 
ATOM     12  C   UNL     1     130.422 122.925 128.836  1.00  0.00     0.093 A 
BRANCH   3  13
ATOM     13  C   UNL     1     129.975 126.063 123.270  1.00  0.00     0.025 A 
ATOM     14  C   UNL     1     130.848 125.699 122.237  1.00  0.00     0.016 A 
ATOM     15  C   UNL     1     130.570 126.069 120.918  1.00  0.00     0.051 A 
ATOM     16  C   UNL     1     129.437 126.844 120.627  1.00  0.00     0.157 A 
ATOM     17  C   UNL     1     128.851 126.853 122.985  1.00  0.00     0.062 A 
ATOM     18  C   UNL     1     128.581 127.248 121.668  1.00  0.00     0.158 A 
BRANCH  16  19
ATOM     19  O   UNL     1     129.154 127.206 119.312  1.00  0.00    -0.504 OA
ATOM     20  H   UNL     1     129.719 126.863 118.539  1.00  0.00     0.293 HD
ENDBRANCH  16  19
BRANCH  18  21
ATOM     21  O   UNL     1     127.459 128.035 121.410  1.00  0.00    -0.504 OA
ATOM     22  H   UNL     1     126.564 127.874 121.857  1.00  0.00     0.293 HD
ENDBRANCH  18  21
ENDBRANCH   3  13
BRANCH  10  23
ATOM     23  O   UNL     1     131.622 124.907 129.509  1.00  0.00    -0.507 OA
ATOM     24  H   UNL     1     131.815 125.897 129.418  1.00  0.00     0.293 HD
ENDBRANCH  10  23
BRANCH  11  25
ATOM     25  O   UNL     1     129.225 120.930 128.211  1.00  0.00    -0.508 OA
ATOM     26  H   UNL     1     128.476 120.819 128.882  1.00  0.00     0.293 HD
ENDBRANCH  11  25
ENDBRANCH   1   2
BRANCH   1  27
ATOM     27  C   UNL     1     132.748 128.314 125.194  1.00  0.00     0.339 C 
ATOM     28  C   UNL     1     133.767 127.702 124.189  1.00  0.00     0.214 C 
ATOM     29  O   UNL     1     132.590 129.729 125.082  1.00  0.00    -0.332 OA
ATOM     30  C   UNL     1     135.149 128.329 124.441  1.00  0.00     0.180 C 
ATOM     31  C   UNL     1     133.645 130.413 124.416  1.00  0.00     0.179 C 
ATOM     32  C   UNL     1     135.055 129.849 124.746  1.00  0.00     0.177 C 
BRANCH  28  33
ATOM     33  O   UNL     1     133.362 127.928 122.861  1.00  0.00    -0.384 OA
ATOM     34  H   UNL     1     134.055 128.500 122.440  1.00  0.00     0.211 HD
ENDBRANCH  28  33
BRANCH  30  35
ATOM     35  O   UNL     1     135.980 128.116 123.327  1.00  0.00    -0.387 OA
ATOM     36  H   UNL     1     136.166 129.008 122.924  1.00  0.00     0.211 HD
ENDBRANCH  30  35
BRANCH  31  37
ATOM     37  C   UNL     1     133.551 131.913 124.737  1.00  0.00     0.191 C 
BRANCH  37  38
ATOM     38  O   UNL     1     134.816 132.516 124.654  1.00  0.00    -0.394 OA
ATOM     39  H   UNL     1     135.356 131.942 124.047  1.00  0.00     0.210 HD
ENDBRANCH  37  38
ENDBRANCH  31  37
BRANCH  32  40
ATOM     40  O   UNL     1     135.358 130.074 126.105  1.00  0.00    -0.387 OA
ATOM     41  H   UNL     1     134.926 130.928 126.366  1.00  0.00     0.211 HD
ENDBRANCH  32  40
ENDBRANCH   1  27
TORSDOF 12
ENDMDL
MODEL 5
REMARK VINA RESULT:    -6.670      1.143      2.298
REMARK INTER + INTRA:         -11.646
REMARK INTER:                 -10.445
REMARK INTRA:                  -1.202
REMARK UNBOUND:                -1.857
REMARK SMILES O=c1c(O[C@@H]2O[C@@H](CO)[C@@H](O)[C@H](O)[C@@H]2O)c(-c2ccc(O)c(O)c2)oc2cc(O)cc(O)c12
REMARK SMILES IDX 4 1 3 2 16 3 25 4 2 5 26 6 1 7 33 8 27 9 31 10 28 11 30 12
REMARK SMILES IDX 17 13 18 14 19 15 20 16 24 17 22 18 21 19 23 21 32 23 29 25
REMARK SMILES IDX 5 27 14 28 6 29 12 30 7 31 10 32 15 33 13 35 8 37 9 38 11 40
REMARK H PARENT 21 20 23 22 32 24 29 26 15 34 13 36 9 39 11 41
REMARK Flexibility Score: inf
ROOT
ATOM      1  O   UNL     1     131.362 125.996 124.842  1.00  0.00    -0.454 OA
ENDROOT
BRANCH   1   2
ATOM      2  C   UNL     1     131.985 127.260 124.758  1.00  0.00     0.214 A 
ATOM      3  C   UNL     1     131.641 128.086 123.671  1.00  0.00     0.180 A 
ATOM      4  O   UNL     1     132.193 129.285 123.532  1.00  0.00    -0.452 OA
ATOM      5  C   UNL     1     132.964 127.732 125.665  1.00  0.00     0.239 A 
ATOM      6  C   UNL     1     133.067 129.788 124.391  1.00  0.00     0.146 A 
ATOM      7  O   UNL     1     133.397 126.989 126.585  1.00  0.00    -0.285 OA
ATOM      8  C   UNL     1     133.488 129.035 125.509  1.00  0.00     0.111 A 
ATOM      9  C   UNL     1     133.577 131.072 124.167  1.00  0.00     0.094 A 
ATOM     10  C   UNL     1     134.422 129.609 126.408  1.00  0.00     0.134 A 
ATOM     11  C   UNL     1     134.492 131.634 125.065  1.00  0.00     0.123 A 
ATOM     12  C   UNL     1     134.912 130.904 126.180  1.00  0.00     0.093 A 
BRANCH   3  13
ATOM     13  C   UNL     1     130.684 127.643 122.641  1.00  0.00     0.025 A 
ATOM     14  C   UNL     1     131.144 126.902 121.545  1.00  0.00     0.016 A 
ATOM     15  C   UNL     1     130.248 126.458 120.569  1.00  0.00     0.051 A 
ATOM     16  C   UNL     1     128.887 126.788 120.660  1.00  0.00     0.157 A 
ATOM     17  C   UNL     1     129.327 127.990 122.725  1.00  0.00     0.062 A 
ATOM     18  C   UNL     1     128.427 127.567 121.737  1.00  0.00     0.158 A 
BRANCH  16  19
ATOM     19  O   UNL     1     127.991 126.338 119.693  1.00  0.00    -0.504 OA
ATOM     20  H   UNL     1     128.178 126.467 118.702  1.00  0.00     0.293 HD
ENDBRANCH  16  19
BRANCH  18  21
ATOM     21  O   UNL     1     127.084 127.927 121.842  1.00  0.00    -0.504 OA
ATOM     22  H   UNL     1     126.781 128.779 122.297  1.00  0.00     0.293 HD
ENDBRANCH  18  21
ENDBRANCH   3  13
BRANCH  10  23
ATOM     23  O   UNL     1     134.862 128.906 127.532  1.00  0.00    -0.507 OA
ATOM     24  H   UNL     1     134.681 127.916 127.648  1.00  0.00     0.293 HD
ENDBRANCH  10  23
BRANCH  11  25
ATOM     25  O   UNL     1     134.999 132.916 124.857  1.00  0.00    -0.508 OA
ATOM     26  H   UNL     1     135.815 133.245 125.356  1.00  0.00     0.293 HD
ENDBRANCH  11  25
ENDBRANCH   1   2
BRANCH   1  27
ATOM     27  C   UNL     1     130.942 125.290 126.017  1.00  0.00     0.339 C 
ATOM     28  C   UNL     1     129.772 126.042 126.718  1.00  0.00     0.214 C 
ATOM     29  O   UNL     1     130.633 123.950 125.635  1.00  0.00    -0.332 OA
ATOM     30  C   UNL     1     129.397 125.284 128.003  1.00  0.00     0.180 C 
ATOM     31  C   UNL     1     129.522 123.362 126.302  1.00  0.00     0.179 C 
ATOM     32  C   UNL     1     129.428 123.745 127.805  1.00  0.00     0.177 C 
BRANCH  28  33
ATOM     33  O   UNL     1     128.656 126.143 125.867  1.00  0.00    -0.384 OA
ATOM     34  H   UNL     1     128.870 125.629 125.046  1.00  0.00     0.211 HD
ENDBRANCH  28  33
BRANCH  30  35
ATOM     35  O   UNL     1     128.120 125.684 128.437  1.00  0.00    -0.387 OA
ATOM     36  H   UNL     1     127.915 125.167 129.263  1.00  0.00     0.211 HD
ENDBRANCH  30  35
BRANCH  31  37
ATOM     37  C   UNL     1     129.572 121.837 126.112  1.00  0.00     0.191 C 
BRANCH  37  38
ATOM     38  O   UNL     1     130.900 121.384 126.117  1.00  0.00    -0.394 OA
ATOM     39  H   UNL     1     131.022 120.877 125.270  1.00  0.00     0.210 HD
ENDBRANCH  37  38
ENDBRANCH  31  37
BRANCH  32  40
ATOM     40  O   UNL     1     130.526 123.204 128.509  1.00  0.00    -0.387 OA
ATOM     41  H   UNL     1     131.018 122.615 127.880  1.00  0.00     0.211 HD
ENDBRANCH  32  40
ENDBRANCH   1  27
TORSDOF 12
ENDMDL
MODEL 6
REMARK VINA RESULT:    -6.610      2.338      6.951
REMARK INTER + INTRA:         -11.558
REMARK INTER:                  -9.939
REMARK INTRA:                  -1.619
REMARK UNBOUND:                -1.857
REMARK SMILES O=c1c(O[C@@H]2O[C@@H](CO)[C@@H](O)[C@H](O)[C@@H]2O)c(-c2ccc(O)c(O)c2)oc2cc(O)cc(O)c12
REMARK SMILES IDX 4 1 3 2 16 3 25 4 2 5 26 6 1 7 33 8 27 9 31 10 28 11 30 12
REMARK SMILES IDX 17 13 18 14 19 15 20 16 24 17 22 18 21 19 23 21 32 23 29 25
REMARK SMILES IDX 5 27 14 28 6 29 12 30 7 31 10 32 15 33 13 35 8 37 9 38 11 40
REMARK H PARENT 21 20 23 22 32 24 29 26 15 34 13 36 9 39 11 41
REMARK Flexibility Score: inf
ROOT
ATOM      1  O   UNL     1     128.891 126.132 124.243  1.00  0.00    -0.454 OA
ENDROOT
BRANCH   1   2
ATOM      2  C   UNL     1     128.366 126.891 125.312  1.00  0.00     0.214 A 
ATOM      3  C   UNL     1     128.590 126.418 126.619  1.00  0.00     0.180 A 
ATOM      4  O   UNL     1     128.121 127.082 127.668  1.00  0.00    -0.452 OA
ATOM      5  C   UNL     1     127.592 128.066 125.156  1.00  0.00     0.239 A 
ATOM      6  C   UNL     1     127.445 128.217 127.568  1.00  0.00     0.146 A 
ATOM      7  O   UNL     1     127.260 128.468 124.010  1.00  0.00    -0.285 OA
ATOM      8  C   UNL     1     127.156 128.770 126.301  1.00  0.00     0.111 A 
ATOM      9  C   UNL     1     127.010 128.852 128.736  1.00  0.00     0.094 A 
ATOM     10  C   UNL     1     126.434 129.988 126.235  1.00  0.00     0.134 A 
ATOM     11  C   UNL     1     126.305 130.060 128.662  1.00  0.00     0.123 A 
ATOM     12  C   UNL     1     126.018 130.623 127.415  1.00  0.00     0.093 A 
BRANCH   3  13
ATOM     13  C   UNL     1     129.325 125.164 126.868  1.00  0.00     0.025 A 
ATOM     14  C   UNL     1     130.629 125.219 127.376  1.00  0.00     0.016 A 
ATOM     15  C   UNL     1     131.333 124.040 127.637  1.00  0.00     0.051 A 
ATOM     16  C   UNL     1     130.751 122.794 127.352  1.00  0.00     0.157 A 
ATOM     17  C   UNL     1     128.748 123.921 126.566  1.00  0.00     0.062 A 
ATOM     18  C   UNL     1     129.458 122.736 126.803  1.00  0.00     0.158 A 
BRANCH  16  19
ATOM     19  O   UNL     1     131.448 121.618 127.620  1.00  0.00    -0.504 OA
ATOM     20  H   UNL     1     132.447 121.548 127.446  1.00  0.00     0.293 HD
ENDBRANCH  16  19
BRANCH  18  21
ATOM     21  O   UNL     1     128.863 121.513 126.492  1.00  0.00    -0.504 OA
ATOM     22  H   UNL     1     128.408 121.338 125.604  1.00  0.00     0.293 HD
ENDBRANCH  18  21
ENDBRANCH   3  13
BRANCH  10  23
ATOM     23  O   UNL     1     126.131 130.578 125.006  1.00  0.00    -0.507 OA
ATOM     24  H   UNL     1     126.179 131.580 124.868  1.00  0.00     0.293 HD
ENDBRANCH  10  23
BRANCH  11  25
ATOM     25  O   UNL     1     125.875 130.707 129.819  1.00  0.00    -0.508 OA
ATOM     26  H   UNL     1     125.916 131.714 129.903  1.00  0.00     0.293 HD
ENDBRANCH  11  25
ENDBRANCH   1   2
BRANCH   1  27
ATOM     27  C   UNL     1     130.028 126.427 123.420  1.00  0.00     0.339 C 
ATOM     28  C   UNL     1     129.613 126.505 121.921  1.00  0.00     0.214 C 
ATOM     29  O   UNL     1     130.635 127.616 123.924  1.00  0.00    -0.332 OA
ATOM     30  C   UNL     1     130.871 126.761 121.073  1.00  0.00     0.180 C 
ATOM     31  C   UNL     1     131.159 128.502 122.940  1.00  0.00     0.179 C 
ATOM     32  C   UNL     1     131.836 127.772 121.747  1.00  0.00     0.177 C 
BRANCH  28  33
ATOM     33  O   UNL     1     128.667 127.525 121.713  1.00  0.00    -0.384 OA
ATOM     34  H   UNL     1     128.851 127.913 120.818  1.00  0.00     0.211 HD
ENDBRANCH  28  33
BRANCH  30  35
ATOM     35  O   UNL     1     130.500 127.231 119.800  1.00  0.00    -0.387 OA
ATOM     36  H   UNL     1     130.812 128.174 119.733  1.00  0.00     0.211 HD
ENDBRANCH  30  35
BRANCH  31  37
ATOM     37  C   UNL     1     132.125 129.488 123.617  1.00  0.00     0.191 C 
BRANCH  37  38
ATOM     38  O   UNL     1     132.806 130.250 122.656  1.00  0.00    -0.394 OA
ATOM     39  H   UNL     1     132.631 131.202 122.882  1.00  0.00     0.210 HD
ENDBRANCH  37  38
ENDBRANCH  31  37
BRANCH  32  40
ATOM     40  O   UNL     1     132.991 127.093 122.191  1.00  0.00    -0.387 OA
ATOM     41  H   UNL     1     133.426 126.698 121.391  1.00  0.00     0.211 HD
ENDBRANCH  32  40
ENDBRANCH   1  27
TORSDOF 12
ENDMDL
MODEL 7
REMARK VINA RESULT:    -6.497      2.930      4.397
REMARK INTER + INTRA:         -11.392
REMARK INTER:                 -10.012
REMARK INTRA:                  -1.380
REMARK UNBOUND:                -1.857
REMARK SMILES O=c1c(O[C@@H]2O[C@@H](CO)[C@@H](O)[C@H](O)[C@@H]2O)c(-c2ccc(O)c(O)c2)oc2cc(O)cc(O)c12
REMARK SMILES IDX 4 1 3 2 16 3 25 4 2 5 26 6 1 7 33 8 27 9 31 10 28 11 30 12
REMARK SMILES IDX 17 13 18 14 19 15 20 16 24 17 22 18 21 19 23 21 32 23 29 25
REMARK SMILES IDX 5 27 14 28 6 29 12 30 7 31 10 32 15 33 13 35 8 37 9 38 11 40
REMARK H PARENT 21 20 23 22 32 24 29 26 15 34 13 36 9 39 11 41
REMARK Flexibility Score: inf
ROOT
ATOM      1  O   UNL     1     130.320 128.851 125.336  1.00  0.00    -0.454 OA
ENDROOT
BRANCH   1   2
ATOM      2  C   UNL     1     131.439 129.713 125.347  1.00  0.00     0.214 A 
ATOM      3  C   UNL     1     132.390 129.559 124.320  1.00  0.00     0.180 A 
ATOM      4  O   UNL     1     133.467 130.336 124.274  1.00  0.00    -0.452 OA
ATOM      5  C   UNL     1     131.691 130.686 126.344  1.00  0.00     0.239 A 
ATOM      6  C   UNL     1     133.707 131.298 125.153  1.00  0.00     0.146 A 
ATOM      7  O   UNL     1     130.938 130.785 127.348  1.00  0.00    -0.285 OA
ATOM      8  C   UNL     1     132.821 131.525 126.229  1.00  0.00     0.111 A 
ATOM      9  C   UNL     1     134.861 132.076 125.006  1.00  0.00     0.094 A 
ATOM     10  C   UNL     1     133.112 132.566 127.145  1.00  0.00     0.134 A 
ATOM     11  C   UNL     1     135.135 133.108 125.912  1.00  0.00     0.123 A 
ATOM     12  C   UNL     1     134.264 133.350 126.976  1.00  0.00     0.093 A 
BRANCH   3  13
ATOM     13  C   UNL     1     132.243 128.523 123.283  1.00  0.00     0.025 A 
ATOM     14  C   UNL     1     132.039 128.905 121.950  1.00  0.00     0.016 A 
ATOM     15  C   UNL     1     131.917 127.936 120.951  1.00  0.00     0.051 A 
ATOM     16  C   UNL     1     131.956 126.573 121.283  1.00  0.00     0.157 A 
ATOM     17  C   UNL     1     132.264 127.161 123.619  1.00  0.00     0.062 A 
ATOM     18  C   UNL     1     132.118 126.184 122.624  1.00  0.00     0.158 A 
BRANCH  16  19
ATOM     19  O   UNL     1     131.843 125.606 120.286  1.00  0.00    -0.504 OA
ATOM     20  H   UNL     1     132.524 125.544 119.534  1.00  0.00     0.293 HD
ENDBRANCH  16  19
BRANCH  18  21
ATOM     21  O   UNL     1     132.140 124.837 122.985  1.00  0.00    -0.504 OA
ATOM     22  H   UNL     1     132.945 124.243 122.830  1.00  0.00     0.293 HD
ENDBRANCH  18  21
ENDBRANCH   3  13
BRANCH  10  23
ATOM     23  O   UNL     1     132.262 132.835 128.220  1.00  0.00    -0.507 OA
ATOM     24  H   UNL     1     131.980 133.780 128.455  1.00  0.00     0.293 HD
ENDBRANCH  10  23
BRANCH  11  25
ATOM     25  O   UNL     1     136.277 133.896 125.770  1.00  0.00    -0.508 OA
ATOM     26  H   UNL     1     136.367 134.556 125.008  1.00  0.00     0.293 HD
ENDBRANCH  11  25
ENDBRANCH   1   2
BRANCH   1  27
ATOM     27  C   UNL     1     128.980 129.142 124.919  1.00  0.00     0.339 C 
ATOM     28  C   UNL     1     128.637 128.379 123.606  1.00  0.00     0.214 C 
ATOM     29  O   UNL     1     128.109 128.851 126.012  1.00  0.00    -0.332 OA
ATOM     30  C   UNL     1     127.217 128.769 123.163  1.00  0.00     0.180 C 
ATOM     31  C   UNL     1     126.852 128.283 125.660  1.00  0.00     0.179 C 
ATOM     32  C   UNL     1     126.241 128.886 124.365  1.00  0.00     0.177 C 
BRANCH  28  33
ATOM     33  O   UNL     1     128.726 126.988 123.794  1.00  0.00    -0.384 OA
ATOM     34  H   UNL     1     128.797 126.577 122.894  1.00  0.00     0.211 HD
ENDBRANCH  28  33
BRANCH  30  35
ATOM     35  O   UNL     1     126.728 127.826 122.241  1.00  0.00    -0.387 OA
ATOM     36  H   UNL     1     127.250 127.938 121.401  1.00  0.00     0.211 HD
ENDBRANCH  30  35
BRANCH  31  37
ATOM     37  C   UNL     1     125.891 128.418 126.852  1.00  0.00     0.191 C 
BRANCH  37  38
ATOM     38  O   UNL     1     125.875 129.739 127.326  1.00  0.00    -0.394 OA
ATOM     39  H   UNL     1     125.225 130.230 126.756  1.00  0.00     0.210 HD
ENDBRANCH  37  38
ENDBRANCH  31  37
BRANCH  32  40
ATOM     40  O   UNL     1     125.913 130.243 124.573  1.00  0.00    -0.387 OA
ATOM     41  H   UNL     1     125.031 130.267 125.026  1.00  0.00     0.211 HD
ENDBRANCH  32  40
ENDBRANCH   1  27
TORSDOF 12
ENDMDL
MODEL 8
REMARK VINA RESULT:    -6.493      3.005      7.293
REMARK INTER + INTRA:         -11.387
REMARK INTER:                  -9.989
REMARK INTRA:                  -1.398
REMARK UNBOUND:                -1.857
REMARK SMILES O=c1c(O[C@@H]2O[C@@H](CO)[C@@H](O)[C@H](O)[C@@H]2O)c(-c2ccc(O)c(O)c2)oc2cc(O)cc(O)c12
REMARK SMILES IDX 4 1 3 2 16 3 25 4 2 5 26 6 1 7 33 8 27 9 31 10 28 11 30 12
REMARK SMILES IDX 17 13 18 14 19 15 20 16 24 17 22 18 21 19 23 21 32 23 29 25
REMARK SMILES IDX 5 27 14 28 6 29 12 30 7 31 10 32 15 33 13 35 8 37 9 38 11 40
REMARK H PARENT 21 20 23 22 32 24 29 26 15 34 13 36 9 39 11 41
REMARK Flexibility Score: inf
ROOT
ATOM      1  O   UNL     1     129.933 126.418 125.160  1.00  0.00    -0.454 OA
ENDROOT
BRANCH   1   2
ATOM      2  C   UNL     1     129.595 125.485 126.165  1.00  0.00     0.214 A 
ATOM      3  C   UNL     1     128.965 125.976 127.324  1.00  0.00     0.180 A 
ATOM      4  O   UNL     1     128.623 125.152 128.308  1.00  0.00    -0.452 OA
ATOM      5  C   UNL     1     129.888 124.102 126.105  1.00  0.00     0.239 A 
ATOM      6  C   UNL     1     128.825 123.843 128.264  1.00  0.00     0.146 A 
ATOM      7  O   UNL     1     130.556 123.628 125.148  1.00  0.00    -0.285 OA
ATOM      8  C   UNL     1     129.462 123.253 127.150  1.00  0.00     0.111 A 
ATOM      9  C   UNL     1     128.411 123.057 129.345  1.00  0.00     0.094 A 
ATOM     10  C   UNL     1     129.656 121.849 127.139  1.00  0.00     0.134 A 
ATOM     11  C   UNL     1     128.599 121.670 129.321  1.00  0.00     0.123 A 
ATOM     12  C   UNL     1     129.220 121.071 128.222  1.00  0.00     0.093 A 
BRANCH   3  13
ATOM     13  C   UNL     1     128.687 127.413 127.500  1.00  0.00     0.025 A 
ATOM     14  C   UNL     1     129.702 128.259 127.966  1.00  0.00     0.016 A 
ATOM     15  C   UNL     1     129.461 129.627 128.120  1.00  0.00     0.051 A 
ATOM     16  C   UNL     1     128.189 130.154 127.848  1.00  0.00     0.157 A 
ATOM     17  C   UNL     1     127.410 127.934 127.244  1.00  0.00     0.062 A 
ATOM     18  C   UNL     1     127.156 129.301 127.420  1.00  0.00     0.158 A 
BRANCH  16  19
ATOM     19  O   UNL     1     127.951 131.519 127.992  1.00  0.00    -0.504 OA
ATOM     20  H   UNL     1     128.655 132.206 127.735  1.00  0.00     0.293 HD
ENDBRANCH  16  19
BRANCH  18  21
ATOM     21  O   UNL     1     125.877 129.794 127.162  1.00  0.00    -0.504 OA
ATOM     22  H   UNL     1     125.524 129.930 126.222  1.00  0.00     0.293 HD
ENDBRANCH  18  21
ENDBRANCH   3  13
BRANCH  10  23
ATOM     23  O   UNL     1     130.273 121.218 126.057  1.00  0.00    -0.507 OA
ATOM     24  H   UNL     1     131.080 120.617 126.178  1.00  0.00     0.293 HD
ENDBRANCH  10  23
BRANCH  11  25
ATOM     25  O   UNL     1     128.181 120.875 130.388  1.00  0.00    -0.508 OA
ATOM     26  H   UNL     1     128.785 120.698 131.178  1.00  0.00     0.293 HD
ENDBRANCH  11  25
ENDBRANCH   1   2
BRANCH   1  27
ATOM     27  C   UNL     1     129.564 126.402 123.775  1.00  0.00     0.339 C 
ATOM     28  C   UNL     1     128.372 127.369 123.514  1.00  0.00     0.214 C 
ATOM     29  O   UNL     1     130.733 126.690 123.008  1.00  0.00    -0.332 OA
ATOM     30  C   UNL     1     127.972 127.273 122.032  1.00  0.00     0.180 C 
ATOM     31  C   UNL     1     130.525 127.493 121.851  1.00  0.00     0.179 C 
ATOM     32  C   UNL     1     129.207 127.166 121.098  1.00  0.00     0.177 C 
BRANCH  28  33
ATOM     33  O   UNL     1     128.718 128.693 123.842  1.00  0.00    -0.384 OA
ATOM     34  H   UNL     1     129.400 128.646 124.560  1.00  0.00     0.211 HD
ENDBRANCH  28  33
BRANCH  30  35
ATOM     35  O   UNL     1     127.198 128.392 121.674  1.00  0.00    -0.387 OA
ATOM     36  H   UNL     1     127.036 128.335 120.693  1.00  0.00     0.211 HD
ENDBRANCH  30  35
BRANCH  31  37
ATOM     37  C   UNL     1     131.747 127.367 120.927  1.00  0.00     0.191 C 
BRANCH  37  38
ATOM     38  O   UNL     1     132.209 126.042 120.899  1.00  0.00    -0.394 OA
ATOM     39  H   UNL     1     132.880 125.967 121.629  1.00  0.00     0.210 HD
ENDBRANCH  37  38
ENDBRANCH  31  37
BRANCH  32  40
ATOM     40  O   UNL     1     129.272 125.864 120.556  1.00  0.00    -0.387 OA
ATOM     41  H   UNL     1     129.560 125.255 121.285  1.00  0.00     0.211 HD
ENDBRANCH  32  40
ENDBRANCH   1  27
TORSDOF 12
ENDMDL
MODEL 9
REMARK VINA RESULT:    -6.476      2.234      6.935
REMARK INTER + INTRA:         -11.361
REMARK INTER:                 -10.157
REMARK INTRA:                  -1.203
REMARK UNBOUND:                -1.857
REMARK SMILES O=c1c(O[C@@H]2O[C@@H](CO)[C@@H](O)[C@H](O)[C@@H]2O)c(-c2ccc(O)c(O)c2)oc2cc(O)cc(O)c12
REMARK SMILES IDX 4 1 3 2 16 3 25 4 2 5 26 6 1 7 33 8 27 9 31 10 28 11 30 12
REMARK SMILES IDX 17 13 18 14 19 15 20 16 24 17 22 18 21 19 23 21 32 23 29 25
REMARK SMILES IDX 5 27 14 28 6 29 12 30 7 31 10 32 15 33 13 35 8 37 9 38 11 40
REMARK H PARENT 21 20 23 22 32 24 29 26 15 34 13 36 9 39 11 41
REMARK Flexibility Score: inf
ROOT
ATOM      1  O   UNL     1     129.378 126.003 124.388  1.00  0.00    -0.454 OA
ENDROOT
BRANCH   1   2
ATOM      2  C   UNL     1     129.201 125.236 125.561  1.00  0.00     0.214 A 
ATOM      3  C   UNL     1     128.383 125.773 126.573  1.00  0.00     0.180 A 
ATOM      4  O   UNL     1     128.177 125.105 127.702  1.00  0.00    -0.452 OA
ATOM      5  C   UNL     1     129.826 123.990 125.805  1.00  0.00     0.239 A 
ATOM      6  C   UNL     1     128.694 123.909 127.943  1.00  0.00     0.146 A 
ATOM      7  O   UNL     1     130.660 123.520 124.987  1.00  0.00    -0.285 OA
ATOM      8  C   UNL     1     129.539 123.288 126.997  1.00  0.00     0.111 A 
ATOM      9  C   UNL     1     128.401 123.277 129.157  1.00  0.00     0.094 A 
ATOM     10  C   UNL     1     130.069 122.007 127.290  1.00  0.00     0.134 A 
ATOM     11  C   UNL     1     128.922 122.007 129.434  1.00  0.00     0.123 A 
ATOM     12  C   UNL     1     129.753 121.377 128.504  1.00  0.00     0.093 A 
BRANCH   3  13
ATOM     13  C   UNL     1     127.752 127.098 126.431  1.00  0.00     0.025 A 
ATOM     14  C   UNL     1     126.596 127.231 125.650  1.00  0.00     0.016 A 
ATOM     15  C   UNL     1     125.973 128.475 125.521  1.00  0.00     0.051 A 
ATOM     16  C   UNL     1     126.526 129.607 126.140  1.00  0.00     0.157 A 
ATOM     17  C   UNL     1     128.316 128.231 127.036  1.00  0.00     0.062 A 
ATOM     18  C   UNL     1     127.709 129.486 126.890  1.00  0.00     0.158 A 
BRANCH  16  19
ATOM     19  O   UNL     1     125.900 130.846 126.019  1.00  0.00    -0.504 OA
ATOM     20  H   UNL     1     125.918 131.521 126.779  1.00  0.00     0.293 HD
ENDBRANCH  16  19
BRANCH  18  21
ATOM     21  O   UNL     1     128.290 130.598 127.499  1.00  0.00    -0.504 OA
ATOM     22  H   UNL     1     127.773 131.446 127.696  1.00  0.00     0.293 HD
ENDBRANCH  18  21
ENDBRANCH   3  13
BRANCH  10  23
ATOM     23  O   UNL     1     130.902 121.350 126.383  1.00  0.00    -0.507 OA
ATOM     24  H   UNL     1     131.604 120.685 126.687  1.00  0.00     0.293 HD
ENDBRANCH  10  23
BRANCH  11  25
ATOM     25  O   UNL     1     128.629 121.363 130.635  1.00  0.00    -0.508 OA
ATOM     26  H   UNL     1     128.082 121.817 131.354  1.00  0.00     0.293 HD
ENDBRANCH  11  25
ENDBRANCH   1   2
BRANCH   1  27
ATOM     27  C   UNL     1     130.605 126.469 123.810  1.00  0.00     0.339 C 
ATOM     28  C   UNL     1     130.526 126.433 122.256  1.00  0.00     0.214 C 
ATOM     29  O   UNL     1     130.883 127.759 124.355  1.00  0.00    -0.332 OA
ATOM     30  C   UNL     1     131.881 126.881 121.681  1.00  0.00     0.180 C 
ATOM     31  C   UNL     1     131.460 128.695 123.451  1.00  0.00     0.179 C 
ATOM     32  C   UNL     1     132.494 128.062 122.480  1.00  0.00     0.177 C 
BRANCH  28  33
ATOM     33  O   UNL     1     129.496 127.268 121.785  1.00  0.00    -0.384 OA
ATOM     34  H   UNL     1     129.836 127.716 120.968  1.00  0.00     0.211 HD
ENDBRANCH  28  33
BRANCH  30  35
ATOM     35  O   UNL     1     131.730 127.245 120.331  1.00  0.00    -0.387 OA
ATOM     36  H   UNL     1     131.524 128.218 120.311  1.00  0.00     0.211 HD
ENDBRANCH  30  35
BRANCH  31  37
ATOM     37  C   UNL     1     132.077 129.852 124.254  1.00  0.00     0.191 C 
BRANCH  37  38
ATOM     38  O   UNL     1     133.001 130.558 123.470  1.00  0.00    -0.394 OA
ATOM     39  H   UNL     1     133.164 129.999 122.663  1.00  0.00     0.210 HD
ENDBRANCH  37  38
ENDBRANCH  31  37
BRANCH  32  40
ATOM     40  O   UNL     1     133.617 127.606 123.203  1.00  0.00    -0.387 OA
ATOM     41  H   UNL     1     133.493 126.634 123.359  1.00  0.00     0.211 HD
ENDBRANCH  32  40
ENDBRANCH   1  27
TORSDOF 12
ENDMDL
