MODEL 1
REMARK VINA RESULT:    -3.484      0.000      0.000
REMARK INTER + INTRA:          -8.538
REMARK INTER:                  -6.539
REMARK INTRA:                  -1.999
REMARK UNBOUND:                -1.999
REMARK SMILES O=C([O-])CCCCCCCCCCCCCCC(=O)[O-]
REMARK SMILES IDX 10 1 9 2 8 3 7 4 6 5 5 6 4 7 2 8 1 9 3 10 11 11 12 12 13 13
REMARK SMILES IDX 14 14 15 15 16 16 17 17 18 18 19 19 20 20
REMARK H PARENT
REMARK Flexibility Score: inf
ROOT
ATOM      1  C   UNL     1      64.343  30.521  60.045  1.00  0.00     0.000 C 
ENDROOT
BRANCH   1   2
ATOM      2  C   UNL     1      63.690  30.609  61.437  1.00  0.00     0.000 C 
BRANCH   2   3
ATOM      3  C   UNL     1      62.400  29.787  61.610  1.00  0.00     0.000 C 
BRANCH   3   4
ATOM      4  C   UNL     1      61.165  30.661  61.884  1.00  0.00     0.000 C 
BRANCH   4   5
ATOM      5  C   UNL     1      60.045  30.438  60.854  1.00  0.00     0.000 C 
BRANCH   5   6
ATOM      6  C   UNL     1      59.847  28.952  60.506  1.00  0.00     0.006 C 
BRANCH   6   7
ATOM      7  C   UNL     1      58.390  28.505  60.688  1.00  0.00     0.053 C 
BRANCH   7   8
ATOM      8  C   UNL     1      58.291  27.054  61.043  1.00  0.00     0.041 C 
ATOM      9  O   UNL     1      57.194  26.445  60.923  1.00  0.00    -0.550 OA
ATOM     10  O   UNL     1      59.401  26.378  61.536  1.00  0.00    -0.550 OA
ENDBRANCH   7   8
ENDBRANCH   6   7
ENDBRANCH   5   6
ENDBRANCH   4   5
ENDBRANCH   3   4
ENDBRANCH   2   3
ENDBRANCH   1   2
BRANCH   1  11
ATOM     11  C   UNL     1      63.321  30.604  58.898  1.00  0.00     0.000 C 
BRANCH  11  12
ATOM     12  C   UNL     1      63.170  32.031  58.346  1.00  0.00     0.000 C 
BRANCH  12  13
ATOM     13  C   UNL     1      61.699  32.468  58.239  1.00  0.00     0.000 C 
BRANCH  13  14
ATOM     14  C   UNL     1      61.372  33.694  59.113  1.00  0.00     0.000 C 
BRANCH  14  15
ATOM     15  C   UNL     1      62.072  33.724  60.484  1.00  0.00     0.000 C 
BRANCH  15  16
ATOM     16  C   UNL     1      62.993  34.943  60.661  1.00  0.00     0.006 C 
BRANCH  16  17
ATOM     17  C   UNL     1      64.334  34.568  61.307  1.00  0.00     0.053 C 
BRANCH  17  18
ATOM     18  C   UNL     1      65.187  35.773  61.558  1.00  0.00     0.041 C 
ATOM     19  O   UNL     1      66.306  35.888  60.994  1.00  0.00    -0.550 OA
ATOM     20  O   UNL     1      64.755  36.758  62.438  1.00  0.00    -0.550 OA
ENDBRANCH  17  18
ENDBRANCH  16  17
ENDBRANCH  15  16
ENDBRANCH  14  15
ENDBRANCH  13  14
ENDBRANCH  12  13
ENDBRANCH  11  12
ENDBRANCH   1  11
TORSDOF 15
ENDMDL
MODEL 2
REMARK VINA RESULT:    -3.325     11.048     13.669
REMARK INTER + INTRA:          -8.241
REMARK INTER:                  -6.543
REMARK INTRA:                  -1.697
REMARK UNBOUND:                -1.999
REMARK SMILES O=C([O-])CCCCCCCCCCCCCCC(=O)[O-]
REMARK SMILES IDX 10 1 9 2 8 3 7 4 6 5 5 6 4 7 2 8 1 9 3 10 11 11 12 12 13 13
REMARK SMILES IDX 14 14 15 15 16 16 17 17 18 18 19 19 20 20
REMARK H PARENT
REMARK Flexibility Score: inf
ROOT
ATOM      1  C   UNL     1      53.439  26.359  49.619  1.00  0.00     0.000 C 
ENDROOT
BRANCH   1   2
ATOM      2  C   UNL     1      53.348  27.440  50.711  1.00  0.00     0.000 C 
BRANCH   2   3
ATOM      3  C   UNL     1      53.522  28.888  50.218  1.00  0.00     0.000 C 
BRANCH   3   4
ATOM      4  C   UNL     1      54.758  29.580  50.813  1.00  0.00     0.000 C 
BRANCH   4   5
ATOM      5  C   UNL     1      56.022  28.709  50.726  1.00  0.00     0.000 C 
BRANCH   5   6
ATOM      6  C   UNL     1      57.314  29.512  50.962  1.00  0.00     0.006 C 
BRANCH   6   7
ATOM      7  C   UNL     1      58.402  29.173  49.935  1.00  0.00     0.053 C 
BRANCH   7   8
ATOM      8  C   UNL     1      59.775  29.262  50.525  1.00  0.00     0.041 C 
ATOM      9  O   UNL     1      60.004  30.052  51.480  1.00  0.00    -0.550 OA
ATOM     10  O   UNL     1      60.811  28.498  50.002  1.00  0.00    -0.550 OA
ENDBRANCH   7   8
ENDBRANCH   6   7
ENDBRANCH   5   6
ENDBRANCH   4   5
ENDBRANCH   3   4
ENDBRANCH   2   3
ENDBRANCH   1   2
BRANCH   1  11
ATOM     11  C   UNL     1      54.483  25.274  49.934  1.00  0.00     0.000 C 
BRANCH  11  12
ATOM     12  C   UNL     1      54.616  25.006  51.442  1.00  0.00     0.000 C 
BRANCH  12  13
ATOM     13  C   UNL     1      56.072  25.102  51.930  1.00  0.00     0.000 C 
BRANCH  13  14
ATOM     14  C   UNL     1      57.054  25.499  50.812  1.00  0.00     0.000 C 
BRANCH  14  15
ATOM     15  C   UNL     1      58.530  25.592  51.241  1.00  0.00     0.000 C 
BRANCH  15  16
ATOM     16  C   UNL     1      59.509  25.269  50.100  1.00  0.00     0.006 C 
BRANCH  16  17
ATOM     17  C   UNL     1      60.928  24.992  50.614  1.00  0.00     0.053 C 
BRANCH  17  18
ATOM     18  C   UNL     1      61.341  23.573  50.369  1.00  0.00     0.041 C 
ATOM     19  O   UNL     1      60.488  22.714  50.022  1.00  0.00    -0.550 OA
ATOM     20  O   UNL     1      62.666  23.195  50.546  1.00  0.00    -0.550 OA
ENDBRANCH  17  18
ENDBRANCH  16  17
ENDBRANCH  15  16
ENDBRANCH  14  15
ENDBRANCH  13  14
ENDBRANCH  12  13
ENDBRANCH  11  12
ENDBRANCH   1  11
TORSDOF 15
ENDMDL
MODEL 3
REMARK VINA RESULT:    -3.316     11.316     13.760
REMARK INTER + INTRA:          -8.223
REMARK INTER:                  -6.524
REMARK INTRA:                  -1.699
REMARK UNBOUND:                -1.999
REMARK SMILES O=C([O-])CCCCCCCCCCCCCCC(=O)[O-]
REMARK SMILES IDX 10 1 9 2 8 3 7 4 6 5 5 6 4 7 2 8 1 9 3 10 11 11 12 12 13 13
REMARK SMILES IDX 14 14 15 15 16 16 17 17 18 18 19 19 20 20
REMARK H PARENT
REMARK Flexibility Score: inf
ROOT
ATOM      1  C   UNL     1      55.185  28.102  51.320  1.00  0.00     0.000 C 
ENDROOT
BRANCH   1   2
ATOM      2  C   UNL     1      55.929  29.316  50.732  1.00  0.00     0.000 C 
BRANCH   2   3
ATOM      3  C   UNL     1      57.393  29.469  51.182  1.00  0.00     0.000 C 
BRANCH   3   4
ATOM      4  C   UNL     1      58.399  29.178  50.057  1.00  0.00     0.000 C 
BRANCH   4   5
ATOM      5  C   UNL     1      59.714  28.579  50.582  1.00  0.00     0.000 C 
BRANCH   5   6
ATOM      6  C   UNL     1      60.492  27.812  49.496  1.00  0.00     0.006 C 
BRANCH   6   7
ATOM      7  C   UNL     1      61.833  27.277  50.015  1.00  0.00     0.053 C 
BRANCH   7   8
ATOM      8  C   UNL     1      62.988  28.095  49.526  1.00  0.00     0.041 C 
ATOM      9  O   UNL     1      63.595  27.767  48.472  1.00  0.00    -0.550 OA
ATOM     10  O   UNL     1      63.415  29.201  50.250  1.00  0.00    -0.550 OA
ENDBRANCH   7   8
ENDBRANCH   6   7
ENDBRANCH   5   6
ENDBRANCH   4   5
ENDBRANCH   3   4
ENDBRANCH   2   3
ENDBRANCH   1   2
BRANCH   1  11
ATOM     11  C   UNL     1      54.379  27.324  50.265  1.00  0.00     0.000 C 
BRANCH  11  12
ATOM     12  C   UNL     1      55.029  25.979  49.904  1.00  0.00     0.000 C 
BRANCH  12  13
ATOM     13  C   UNL     1      56.118  25.563  50.908  1.00  0.00     0.000 C 
BRANCH  13  14
ATOM     14  C   UNL     1      57.539  25.641  50.318  1.00  0.00     0.000 C 
BRANCH  14  15
ATOM     15  C   UNL     1      58.639  24.991  51.177  1.00  0.00     0.000 C 
BRANCH  15  16
ATOM     16  C   UNL     1      59.724  24.296  50.337  1.00  0.00     0.006 C 
BRANCH  16  17
ATOM     17  C   UNL     1      60.816  23.664  51.210  1.00  0.00     0.053 C 
BRANCH  17  18
ATOM     18  C   UNL     1      61.372  22.418  50.590  1.00  0.00     0.041 C 
ATOM     19  O   UNL     1      62.461  21.938  50.999  1.00  0.00    -0.550 OA
ATOM     20  O   UNL     1      60.698  21.802  49.543  1.00  0.00    -0.550 OA
ENDBRANCH  17  18
ENDBRANCH  16  17
ENDBRANCH  15  16
ENDBRANCH  14  15
ENDBRANCH  13  14
ENDBRANCH  12  13
ENDBRANCH  11  12
ENDBRANCH   1  11
TORSDOF 15
ENDMDL
MODEL 4
REMARK VINA RESULT:    -3.287     10.488     12.659
REMARK INTER + INTRA:          -8.170
REMARK INTER:                  -6.087
REMARK INTRA:                  -2.082
REMARK UNBOUND:                -1.999
REMARK SMILES O=C([O-])CCCCCCCCCCCCCCC(=O)[O-]
REMARK SMILES IDX 10 1 9 2 8 3 7 4 6 5 5 6 4 7 2 8 1 9 3 10 11 11 12 12 13 13
REMARK SMILES IDX 14 14 15 15 16 16 17 17 18 18 19 19 20 20
REMARK H PARENT
REMARK Flexibility Score: inf
ROOT
ATOM      1  C   UNL     1      55.657  25.875  51.506  1.00  0.00     0.000 C 
ENDROOT
BRANCH   1   2
ATOM      2  C   UNL     1      56.763  26.932  51.679  1.00  0.00     0.000 C 
BRANCH   2   3
ATOM      3  C   UNL     1      57.093  27.749  50.417  1.00  0.00     0.000 C 
BRANCH   3   4
ATOM      4  C   UNL     1      57.819  29.068  50.729  1.00  0.00     0.000 C 
BRANCH   4   5
ATOM      5  C   UNL     1      59.059  29.283  49.846  1.00  0.00     0.000 C 
BRANCH   5   6
ATOM      6  C   UNL     1      59.588  27.971  49.238  1.00  0.00     0.006 C 
BRANCH   6   7
ATOM      7  C   UNL     1      60.769  27.400  50.034  1.00  0.00     0.053 C 
BRANCH   7   8
ATOM      8  C   UNL     1      60.469  26.039  50.579  1.00  0.00     0.041 C 
ATOM      9  O   UNL     1      59.615  25.304  50.015  1.00  0.00    -0.550 OA
ATOM     10  O   UNL     1      61.109  25.591  51.728  1.00  0.00    -0.550 OA
ENDBRANCH   7   8
ENDBRANCH   6   7
ENDBRANCH   5   6
ENDBRANCH   4   5
ENDBRANCH   3   4
ENDBRANCH   2   3
ENDBRANCH   1   2
BRANCH   1  11
ATOM     11  C   UNL     1      55.407  25.505  50.034  1.00  0.00     0.000 C 
BRANCH  11  12
ATOM     12  C   UNL     1      53.946  25.732  49.611  1.00  0.00     0.000 C 
BRANCH  12  13
ATOM     13  C   UNL     1      53.187  26.646  50.588  1.00  0.00     0.000 C 
BRANCH  13  14
ATOM     14  C   UNL     1      52.876  28.033  49.993  1.00  0.00     0.000 C 
BRANCH  14  15
ATOM     15  C   UNL     1      53.858  29.150  50.389  1.00  0.00     0.000 C 
BRANCH  15  16
ATOM     16  C   UNL     1      53.863  29.436  51.901  1.00  0.00     0.006 C 
BRANCH  16  17
ATOM     17  C   UNL     1      54.508  30.788  52.232  1.00  0.00     0.053 C 
BRANCH  17  18
ATOM     18  C   UNL     1      55.240  30.750  53.539  1.00  0.00     0.041 C 
ATOM     19  O   UNL     1      54.975  31.589  54.439  1.00  0.00    -0.550 OA
ATOM     20  O   UNL     1      56.233  29.802  53.751  1.00  0.00    -0.550 OA
ENDBRANCH  17  18
ENDBRANCH  16  17
ENDBRANCH  15  16
ENDBRANCH  14  15
ENDBRANCH  13  14
ENDBRANCH  12  13
ENDBRANCH  11  12
ENDBRANCH   1  11
TORSDOF 15
ENDMDL
MODEL 5
REMARK VINA RESULT:    -3.246     10.717     12.656
REMARK INTER + INTRA:          -8.092
REMARK INTER:                  -6.202
REMARK INTRA:                  -1.890
REMARK UNBOUND:                -1.999
REMARK SMILES O=C([O-])CCCCCCCCCCCCCCC(=O)[O-]
REMARK SMILES IDX 10 1 9 2 8 3 7 4 6 5 5 6 4 7 2 8 1 9 3 10 11 11 12 12 13 13
REMARK SMILES IDX 14 14 15 15 16 16 17 17 18 18 19 19 20 20
REMARK H PARENT
REMARK Flexibility Score: inf
ROOT
ATOM      1  C   UNL     1      54.756  25.550  49.761  1.00  0.00     0.000 C 
ENDROOT
BRANCH   1   2
ATOM      2  C   UNL     1      53.344  26.150  49.633  1.00  0.00     0.000 C 
BRANCH   2   3
ATOM      3  C   UNL     1      53.097  27.428  50.456  1.00  0.00     0.000 C 
BRANCH   3   4
ATOM      4  C   UNL     1      54.248  28.441  50.349  1.00  0.00     0.000 C 
BRANCH   4   5
ATOM      5  C   UNL     1      54.683  28.988  51.719  1.00  0.00     0.000 C 
BRANCH   5   6
ATOM      6  C   UNL     1      56.206  29.187  51.822  1.00  0.00     0.006 C 
BRANCH   6   7
ATOM      7  C   UNL     1      56.892  29.114  50.451  1.00  0.00     0.053 C 
BRANCH   7   8
ATOM      8  C   UNL     1      58.357  29.408  50.544  1.00  0.00     0.041 C 
ATOM      9  O   UNL     1      58.909  29.531  51.669  1.00  0.00    -0.550 OA
ATOM     10  O   UNL     1      59.109  29.578  49.388  1.00  0.00    -0.550 OA
ENDBRANCH   7   8
ENDBRANCH   6   7
ENDBRANCH   5   6
ENDBRANCH   4   5
ENDBRANCH   3   4
ENDBRANCH   2   3
ENDBRANCH   1   2
BRANCH   1  11
ATOM     11  C   UNL     1      55.113  25.156  51.205  1.00  0.00     0.000 C 
BRANCH  11  12
ATOM     12  C   UNL     1      56.583  25.447  51.547  1.00  0.00     0.000 C 
BRANCH  12  13
ATOM     13  C   UNL     1      57.470  25.543  50.294  1.00  0.00     0.000 C 
BRANCH  13  14
ATOM     14  C   UNL     1      58.964  25.324  50.599  1.00  0.00     0.000 C 
BRANCH  14  15
ATOM     15  C   UNL     1      59.929  26.259  49.848  1.00  0.00     0.000 C 
BRANCH  15  16
ATOM     16  C   UNL     1      61.097  26.745  50.722  1.00  0.00     0.006 C 
BRANCH  16  17
ATOM     17  C   UNL     1      62.207  27.404  49.893  1.00  0.00     0.053 C 
BRANCH  17  18
ATOM     18  C   UNL     1      62.752  28.627  50.564  1.00  0.00     0.041 C 
ATOM     19  O   UNL     1      62.367  29.771  50.209  1.00  0.00    -0.550 OA
ATOM     20  O   UNL     1      63.706  28.502  51.567  1.00  0.00    -0.550 OA
ENDBRANCH  17  18
ENDBRANCH  16  17
ENDBRANCH  15  16
ENDBRANCH  14  15
ENDBRANCH  13  14
ENDBRANCH  12  13
ENDBRANCH  11  12
ENDBRANCH   1  11
TORSDOF 15
ENDMDL
MODEL 6
REMARK VINA RESULT:    -3.233      1.281      7.832
REMARK INTER + INTRA:          -8.067
REMARK INTER:                  -6.084
REMARK INTRA:                  -1.984
REMARK UNBOUND:                -1.999
REMARK SMILES O=C([O-])CCCCCCCCCCCCCCC(=O)[O-]
REMARK SMILES IDX 10 1 9 2 8 3 7 4 6 5 5 6 4 7 2 8 1 9 3 10 11 11 12 12 13 13
REMARK SMILES IDX 14 14 15 15 16 16 17 17 18 18 19 19 20 20
REMARK H PARENT
REMARK Flexibility Score: inf
ROOT
ATOM      1  C   UNL     1      64.180  30.597  61.198  1.00  0.00     0.000 C 
ENDROOT
BRANCH   1   2
ATOM      2  C   UNL     1      64.859  31.078  59.902  1.00  0.00     0.000 C 
BRANCH   2   3
ATOM      3  C   UNL     1      63.899  31.456  58.760  1.00  0.00     0.000 C 
BRANCH   3   4
ATOM      4  C   UNL     1      63.860  32.968  58.484  1.00  0.00     0.000 C 
BRANCH   4   5
ATOM      5  C   UNL     1      62.464  33.573  58.704  1.00  0.00     0.000 C 
BRANCH   5   6
ATOM      6  C   UNL     1      62.146  33.804  60.192  1.00  0.00     0.006 C 
BRANCH   6   7
ATOM      7  C   UNL     1      63.294  34.510  60.926  1.00  0.00     0.053 C 
BRANCH   7   8
ATOM      8  C   UNL     1      63.130  35.998  60.919  1.00  0.00     0.041 C 
ATOM      9  O   UNL     1      64.091  36.740  60.582  1.00  0.00    -0.550 OA
ATOM     10  O   UNL     1      61.927  36.569  61.314  1.00  0.00    -0.550 OA
ENDBRANCH   7   8
ENDBRANCH   6   7
ENDBRANCH   5   6
ENDBRANCH   4   5
ENDBRANCH   3   4
ENDBRANCH   2   3
ENDBRANCH   1   2
BRANCH   1  11
ATOM     11  C   UNL     1      62.754  30.068  60.967  1.00  0.00     0.000 C 
BRANCH  11  12
ATOM     12  C   UNL     1      61.758  30.587  62.016  1.00  0.00     0.000 C 
BRANCH  12  13
ATOM     13  C   UNL     1      60.376  30.892  61.413  1.00  0.00     0.000 C 
BRANCH  13  14
ATOM     14  C   UNL     1      60.281  30.531  59.918  1.00  0.00     0.000 C 
BRANCH  14  15
ATOM     15  C   UNL     1      59.243  29.448  59.572  1.00  0.00     0.000 C 
BRANCH  15  16
ATOM     16  C   UNL     1      58.883  28.555  60.771  1.00  0.00     0.006 C 
BRANCH  16  17
ATOM     17  C   UNL     1      57.381  28.252  60.838  1.00  0.00     0.053 C 
BRANCH  17  18
ATOM     18  C   UNL     1      57.082  27.119  61.772  1.00  0.00     0.041 C 
ATOM     19  O   UNL     1      56.022  27.117  62.450  1.00  0.00    -0.550 OA
ATOM     20  O   UNL     1      57.990  26.077  61.911  1.00  0.00    -0.550 OA
ENDBRANCH  17  18
ENDBRANCH  16  17
ENDBRANCH  15  16
ENDBRANCH  14  15
ENDBRANCH  13  14
ENDBRANCH  12  13
ENDBRANCH  11  12
ENDBRANCH   1  11
TORSDOF 15
ENDMDL
MODEL 7
REMARK VINA RESULT:    -3.196      1.787      3.070
REMARK INTER + INTRA:          -7.998
REMARK INTER:                  -6.064
REMARK INTRA:                  -1.934
REMARK UNBOUND:                -1.999
REMARK SMILES O=C([O-])CCCCCCCCCCCCCCC(=O)[O-]
REMARK SMILES IDX 10 1 9 2 8 3 7 4 6 5 5 6 4 7 2 8 1 9 3 10 11 11 12 12 13 13
REMARK SMILES IDX 14 14 15 15 16 16 17 17 18 18 19 19 20 20
REMARK H PARENT
REMARK Flexibility Score: inf
ROOT
ATOM      1  C   UNL     1      62.597  29.361  58.549  1.00  0.00     0.000 C 
ENDROOT
BRANCH   1   2
ATOM      2  C   UNL     1      61.460  28.518  57.943  1.00  0.00     0.000 C 
BRANCH   2   3
ATOM      3  C   UNL     1      60.205  29.308  57.532  1.00  0.00     0.000 C 
BRANCH   3   4
ATOM      4  C   UNL     1      59.176  29.432  58.668  1.00  0.00     0.000 C 
BRANCH   4   5
ATOM      5  C   UNL     1      58.928  28.096  59.388  1.00  0.00     0.000 C 
BRANCH   5   6
ATOM      6  C   UNL     1      58.551  28.282  60.869  1.00  0.00     0.006 C 
BRANCH   6   7
ATOM      7  C   UNL     1      57.921  27.017  61.468  1.00  0.00     0.053 C 
BRANCH   7   8
ATOM      8  C   UNL     1      56.492  27.236  61.859  1.00  0.00     0.041 C 
ATOM      9  O   UNL     1      56.103  28.378  62.224  1.00  0.00    -0.550 OA
ATOM     10  O   UNL     1      55.596  26.175  61.851  1.00  0.00    -0.550 OA
ENDBRANCH   7   8
ENDBRANCH   6   7
ENDBRANCH   5   6
ENDBRANCH   4   5
ENDBRANCH   3   4
ENDBRANCH   2   3
ENDBRANCH   1   2
BRANCH   1  11
ATOM     11  C   UNL     1      63.265  28.685  59.760  1.00  0.00     0.000 C 
BRANCH  11  12
ATOM     12  C   UNL     1      62.360  28.678  61.003  1.00  0.00     0.000 C 
BRANCH  12  13
ATOM     13  C   UNL     1      62.310  30.049  61.700  1.00  0.00     0.000 C 
BRANCH  13  14
ATOM     14  C   UNL     1      60.970  30.780  61.491  1.00  0.00     0.000 C 
BRANCH  14  15
ATOM     15  C   UNL     1      61.080  32.174  60.848  1.00  0.00     0.000 C 
BRANCH  15  16
ATOM     16  C   UNL     1      62.519  32.538  60.444  1.00  0.00     0.006 C 
BRANCH  16  17
ATOM     17  C   UNL     1      62.776  34.049  60.513  1.00  0.00     0.053 C 
BRANCH  17  18
ATOM     18  C   UNL     1      64.239  34.361  60.592  1.00  0.00     0.041 C 
ATOM     19  O   UNL     1      64.975  34.216  59.581  1.00  0.00    -0.550 OA
ATOM     20  O   UNL     1      64.794  34.791  61.791  1.00  0.00    -0.550 OA
ENDBRANCH  17  18
ENDBRANCH  16  17
ENDBRANCH  15  16
ENDBRANCH  14  15
ENDBRANCH  13  14
ENDBRANCH  12  13
ENDBRANCH  11  12
ENDBRANCH   1  11
TORSDOF 15
ENDMDL
MODEL 8
REMARK VINA RESULT:    -3.154     10.828     12.142
REMARK INTER + INTRA:          -7.920
REMARK INTER:                  -5.693
REMARK INTRA:                  -2.227
REMARK UNBOUND:                -1.999
REMARK SMILES O=C([O-])CCCCCCCCCCCCCCC(=O)[O-]
REMARK SMILES IDX 10 1 9 2 8 3 7 4 6 5 5 6 4 7 2 8 1 9 3 10 11 11 12 12 13 13
REMARK SMILES IDX 14 14 15 15 16 16 17 17 18 18 19 19 20 20
REMARK H PARENT
REMARK Flexibility Score: inf
ROOT
ATOM      1  C   UNL     1      54.768  27.890  51.928  1.00  0.00     0.000 C 
ENDROOT
BRANCH   1   2
ATOM      2  C   UNL     1      54.373  27.601  50.468  1.00  0.00     0.000 C 
BRANCH   2   3
ATOM      3  C   UNL     1      54.857  26.249  49.912  1.00  0.00     0.000 C 
BRANCH   3   4
ATOM      4  C   UNL     1      55.829  25.526  50.859  1.00  0.00     0.000 C 
BRANCH   4   5
ATOM      5  C   UNL     1      57.286  25.595  50.375  1.00  0.00     0.000 C 
BRANCH   5   6
ATOM      6  C   UNL     1      58.299  25.497  51.530  1.00  0.00     0.006 C 
BRANCH   6   7
ATOM      7  C   UNL     1      59.592  24.787  51.107  1.00  0.00     0.053 C 
BRANCH   7   8
ATOM      8  C   UNL     1      60.457  24.453  52.282  1.00  0.00     0.041 C 
ATOM      9  O   UNL     1      61.134  25.353  52.847  1.00  0.00    -0.550 OA
ATOM     10  O   UNL     1      60.541  23.142  52.736  1.00  0.00    -0.550 OA
ENDBRANCH   7   8
ENDBRANCH   6   7
ENDBRANCH   5   6
ENDBRANCH   4   5
ENDBRANCH   3   4
ENDBRANCH   2   3
ENDBRANCH   1   2
BRANCH   1  11
ATOM     11  C   UNL     1      55.787  29.035  52.057  1.00  0.00     0.000 C 
BRANCH  11  12
ATOM     12  C   UNL     1      56.492  29.348  50.728  1.00  0.00     0.000 C 
BRANCH  12  13
ATOM     13  C   UNL     1      58.019  29.190  50.821  1.00  0.00     0.000 C 
BRANCH  13  14
ATOM     14  C   UNL     1      58.680  28.927  49.454  1.00  0.00     0.000 C 
BRANCH  14  15
ATOM     15  C   UNL     1      59.993  28.125  49.506  1.00  0.00     0.000 C 
BRANCH  15  16
ATOM     16  C   UNL     1      60.754  28.303  50.831  1.00  0.00     0.006 C 
BRANCH  16  17
ATOM     17  C   UNL     1      62.254  28.539  50.610  1.00  0.00     0.053 C 
BRANCH  17  18
ATOM     18  C   UNL     1      62.863  27.478  49.746  1.00  0.00     0.041 C 
ATOM     19  O   UNL     1      63.371  27.779  48.635  1.00  0.00    -0.550 OA
ATOM     20  O   UNL     1      62.847  26.152  50.160  1.00  0.00    -0.550 OA
ENDBRANCH  17  18
ENDBRANCH  16  17
ENDBRANCH  15  16
ENDBRANCH  14  15
ENDBRANCH  13  14
ENDBRANCH  12  13
ENDBRANCH  11  12
ENDBRANCH   1  11
TORSDOF 15
ENDMDL
MODEL 9
REMARK VINA RESULT:    -3.151      9.902     12.250
REMARK INTER + INTRA:          -7.913
REMARK INTER:                  -5.999
REMARK INTRA:                  -1.914
REMARK UNBOUND:                -1.999
REMARK SMILES O=C([O-])CCCCCCCCCCCCCCC(=O)[O-]
REMARK SMILES IDX 10 1 9 2 8 3 7 4 6 5 5 6 4 7 2 8 1 9 3 10 11 11 12 12 13 13
REMARK SMILES IDX 14 14 15 15 16 16 17 17 18 18 19 19 20 20
REMARK H PARENT
REMARK Flexibility Score: inf
ROOT
ATOM      1  C   UNL     1      57.381  25.683  51.635  1.00  0.00     0.000 C 
ENDROOT
BRANCH   1   2
ATOM      2  C   UNL     1      58.688  25.271  50.933  1.00  0.00     0.000 C 
BRANCH   2   3
ATOM      3  C   UNL     1      58.997  26.025  49.627  1.00  0.00     0.000 C 
BRANCH   3   4
ATOM      4  C   UNL     1      59.774  27.331  49.858  1.00  0.00     0.000 C 
BRANCH   4   5
ATOM      5  C   UNL     1      59.031  28.564  49.319  1.00  0.00     0.000 C 
BRANCH   5   6
ATOM      6  C   UNL     1      58.179  29.261  50.396  1.00  0.00     0.006 C 
BRANCH   6   7
ATOM      7  C   UNL     1      58.775  29.095  51.800  1.00  0.00     0.053 C 
BRANCH   7   8
ATOM      8  C   UNL     1      59.652  30.250  52.175  1.00  0.00     0.041 C 
ATOM      9  O   UNL     1      60.804  30.358  51.678  1.00  0.00    -0.550 OA
ATOM     10  O   UNL     1      59.209  31.191  53.096  1.00  0.00    -0.550 OA
ENDBRANCH   7   8
ENDBRANCH   6   7
ENDBRANCH   5   6
ENDBRANCH   4   5
ENDBRANCH   3   4
ENDBRANCH   2   3
ENDBRANCH   1   2
BRANCH   1  11
ATOM     11  C   UNL     1      56.142  25.525  50.736  1.00  0.00     0.000 C 
BRANCH  11  12
ATOM     12  C   UNL     1      55.510  26.876  50.364  1.00  0.00     0.000 C 
BRANCH  12  13
ATOM     13  C   UNL     1      54.006  26.759  50.066  1.00  0.00     0.000 C 
BRANCH  13  14
ATOM     14  C   UNL     1      53.294  28.125  50.029  1.00  0.00     0.000 C 
BRANCH  14  15
ATOM     15  C   UNL     1      54.143  29.318  50.502  1.00  0.00     0.000 C 
BRANCH  15  16
ATOM     16  C   UNL     1      53.881  29.698  51.969  1.00  0.00     0.006 C 
BRANCH  16  17
ATOM     17  C   UNL     1      54.291  31.144  52.276  1.00  0.00     0.053 C 
BRANCH  17  18
ATOM     18  C   UNL     1      55.527  31.205  53.120  1.00  0.00     0.041 C 
ATOM     19  O   UNL     1      55.985  30.161  53.652  1.00  0.00    -0.550 OA
ATOM     20  O   UNL     1      56.160  32.423  53.338  1.00  0.00    -0.550 OA
ENDBRANCH  17  18
ENDBRANCH  16  17
ENDBRANCH  15  16
ENDBRANCH  14  15
ENDBRANCH  13  14
ENDBRANCH  12  13
ENDBRANCH  11  12
ENDBRANCH   1  11
TORSDOF 15
ENDMDL
