MODEL 1
REMARK VINA RESULT:    -4.274      0.000      0.000
REMARK INTER + INTRA:          -7.317
REMARK INTER:                  -6.772
REMARK INTRA:                  -0.545
REMARK UNBOUND:                -0.545
REMARK SMILES CCCCCCCCCCCC(=O)[O-]
REMARK SMILES IDX 7 1 8 2 9 3 10 4 11 5 12 6 13 7 14 8 6 9 5 10 4 11 3 12 2 13
REMARK SMILES IDX 1 14
REMARK H PARENT
REMARK Flexibility Score: inf
ROOT
ATOM      1  C   UNL     1     -29.640  22.436  28.275  1.00  0.00     0.000 C 
ENDROOT
BRANCH   1   2
ATOM      2  C   UNL     1     -29.311  22.709  26.800  1.00  0.00     0.000 C 
BRANCH   2   3
ATOM      3  C   UNL     1     -28.751  21.449  26.122  1.00  0.00     0.000 C 
BRANCH   3   4
ATOM      4  C   UNL     1     -29.595  20.992  24.918  1.00  0.00     0.006 C 
BRANCH   4   5
ATOM      5  C   UNL     1     -29.217  21.665  23.589  1.00  0.00     0.053 C 
BRANCH   5   6
ATOM      6  C   UNL     1     -27.744  21.600  23.325  1.00  0.00     0.041 C 
ATOM      7  O   UNL     1     -27.072  22.660  23.226  1.00  0.00    -0.550 OA
ATOM      8  O   UNL     1     -27.121  20.370  23.154  1.00  0.00    -0.550 OA
ENDBRANCH   5   6
ENDBRANCH   4   5
ENDBRANCH   3   4
ENDBRANCH   2   3
ENDBRANCH   1   2
BRANCH   1   9
ATOM      9  C   UNL     1     -31.095  21.984  28.488  1.00  0.00     0.000 C 
BRANCH   9  10
ATOM     10  C   UNL     1     -31.914  22.869  29.448  1.00  0.00    -0.000 C 
BRANCH  10  11
ATOM     11  C   UNL     1     -31.407  24.324  29.541  1.00  0.00    -0.000 C 
BRANCH  11  12
ATOM     12  C   UNL     1     -31.948  25.053  30.780  1.00  0.00    -0.000 C 
BRANCH  12  13
ATOM     13  C   UNL     1     -33.410  25.470  30.579  1.00  0.00    -0.003 C 
ATOM     14  C   UNL     1     -34.313  24.838  31.634  1.00  0.00     0.004 C 
ENDBRANCH  12  13
ENDBRANCH  11  12
ENDBRANCH  10  11
ENDBRANCH   9  10
ENDBRANCH   1   9
TORSDOF 10
ENDMDL
MODEL 2
REMARK VINA RESULT:    -4.163      1.578      2.702
REMARK INTER + INTRA:          -7.141
REMARK INTER:                  -6.679
REMARK INTRA:                  -0.463
REMARK UNBOUND:                -0.545
REMARK SMILES CCCCCCCCCCCC(=O)[O-]
REMARK SMILES IDX 7 1 8 2 9 3 10 4 11 5 12 6 13 7 14 8 6 9 5 10 4 11 3 12 2 13
REMARK SMILES IDX 1 14
REMARK H PARENT
REMARK Flexibility Score: inf
ROOT
ATOM      1  C   UNL     1     -31.795  22.810  29.499  1.00  0.00     0.000 C 
ENDROOT
BRANCH   1   2
ATOM      2  C   UNL     1     -30.956  21.898  28.592  1.00  0.00     0.000 C 
BRANCH   2   3
ATOM      3  C   UNL     1     -29.463  22.242  28.700  1.00  0.00     0.000 C 
BRANCH   3   4
ATOM      4  C   UNL     1     -28.637  21.697  27.521  1.00  0.00     0.006 C 
BRANCH   4   5
ATOM      5  C   UNL     1     -28.910  22.397  26.180  1.00  0.00     0.053 C 
BRANCH   5   6
ATOM      6  C   UNL     1     -28.782  21.459  25.020  1.00  0.00     0.041 C 
ATOM      7  O   UNL     1     -27.912  20.550  25.033  1.00  0.00    -0.550 OA
ATOM      8  O   UNL     1     -29.603  21.611  23.909  1.00  0.00    -0.550 OA
ENDBRANCH   5   6
ENDBRANCH   4   5
ENDBRANCH   3   4
ENDBRANCH   2   3
ENDBRANCH   1   2
BRANCH   1   9
ATOM      9  C   UNL     1     -31.326  24.275  29.469  1.00  0.00     0.000 C 
BRANCH   9  10
ATOM     10  C   UNL     1     -31.928  25.171  30.569  1.00  0.00    -0.000 C 
BRANCH  10  11
ATOM     11  C   UNL     1     -33.427  24.913  30.832  1.00  0.00    -0.000 C 
BRANCH  11  12
ATOM     12  C   UNL     1     -34.276  26.182  30.658  1.00  0.00    -0.000 C 
BRANCH  12  13
ATOM     13  C   UNL     1     -35.549  25.886  29.857  1.00  0.00    -0.003 C 
ATOM     14  C   UNL     1     -36.074  27.144  29.171  1.00  0.00     0.004 C 
ENDBRANCH  12  13
ENDBRANCH  11  12
ENDBRANCH  10  11
ENDBRANCH   9  10
ENDBRANCH   1   9
TORSDOF 10
ENDMDL
MODEL 3
REMARK VINA RESULT:    -4.095      4.317      7.813
REMARK INTER + INTRA:          -7.034
REMARK INTER:                  -6.542
REMARK INTRA:                  -0.491
REMARK UNBOUND:                -0.545
REMARK SMILES CCCCCCCCCCCC(=O)[O-]
REMARK SMILES IDX 7 1 8 2 9 3 10 4 11 5 12 6 13 7 14 8 6 9 5 10 4 11 3 12 2 13
REMARK SMILES IDX 1 14
REMARK H PARENT
REMARK Flexibility Score: inf
ROOT
ATOM      1  C   UNL     1     -30.111  21.293  28.835  1.00  0.00     0.000 C 
ENDROOT
BRANCH   1   2
ATOM      2  C   UNL     1     -31.228  21.917  29.684  1.00  0.00     0.000 C 
BRANCH   2   3
ATOM      3  C   UNL     1     -30.849  23.339  30.126  1.00  0.00     0.000 C 
BRANCH   3   4
ATOM      4  C   UNL     1     -31.910  24.387  29.742  1.00  0.00     0.006 C 
BRANCH   4   5
ATOM      5  C   UNL     1     -32.249  25.384  30.862  1.00  0.00     0.053 C 
BRANCH   5   6
ATOM      6  C   UNL     1     -33.725  25.477  31.104  1.00  0.00     0.041 C 
ATOM      7  O   UNL     1     -34.180  25.403  32.275  1.00  0.00    -0.550 OA
ATOM      8  O   UNL     1     -34.598  25.611  30.032  1.00  0.00    -0.550 OA
ENDBRANCH   5   6
ENDBRANCH   4   5
ENDBRANCH   3   4
ENDBRANCH   2   3
ENDBRANCH   1   2
BRANCH   1   9
ATOM      9  C   UNL     1     -30.118  21.792  27.380  1.00  0.00     0.000 C 
BRANCH   9  10
ATOM     10  C   UNL     1     -28.819  22.484  26.926  1.00  0.00    -0.000 C 
BRANCH  10  11
ATOM     11  C   UNL     1     -28.446  22.207  25.454  1.00  0.00    -0.000 C 
BRANCH  11  12
ATOM     12  C   UNL     1     -29.536  21.415  24.715  1.00  0.00    -0.000 C 
BRANCH  12  13
ATOM     13  C   UNL     1     -29.246  21.351  23.211  1.00  0.00    -0.003 C 
ATOM     14  C   UNL     1     -27.925  22.035  22.874  1.00  0.00     0.004 C 
ENDBRANCH  12  13
ENDBRANCH  11  12
ENDBRANCH  10  11
ENDBRANCH   9  10
ENDBRANCH   1   9
TORSDOF 10
ENDMDL
MODEL 4
REMARK VINA RESULT:    -4.079      4.743      8.062
REMARK INTER + INTRA:          -7.008
REMARK INTER:                  -6.574
REMARK INTRA:                  -0.434
REMARK UNBOUND:                -0.545
REMARK SMILES CCCCCCCCCCCC(=O)[O-]
REMARK SMILES IDX 7 1 8 2 9 3 10 4 11 5 12 6 13 7 14 8 6 9 5 10 4 11 3 12 2 13
REMARK SMILES IDX 1 14
REMARK H PARENT
REMARK Flexibility Score: inf
ROOT
ATOM      1  C   UNL     1     -30.679  22.190  29.837  1.00  0.00     0.000 C 
ENDROOT
BRANCH   1   2
ATOM      2  C   UNL     1     -31.930  23.039  29.567  1.00  0.00     0.000 C 
BRANCH   2   3
ATOM      3  C   UNL     1     -31.602  24.538  29.644  1.00  0.00     0.000 C 
BRANCH   3   4
ATOM      4  C   UNL     1     -32.237  25.227  30.865  1.00  0.00     0.006 C 
BRANCH   4   5
ATOM      5  C   UNL     1     -33.758  25.426  30.760  1.00  0.00     0.053 C 
BRANCH   5   6
ATOM      6  C   UNL     1     -34.467  25.009  32.011  1.00  0.00     0.041 C 
ATOM      7  O   UNL     1     -34.151  25.518  33.118  1.00  0.00    -0.550 OA
ATOM      8  O   UNL     1     -35.454  24.032  31.959  1.00  0.00    -0.550 OA
ENDBRANCH   5   6
ENDBRANCH   4   5
ENDBRANCH   3   4
ENDBRANCH   2   3
ENDBRANCH   1   2
BRANCH   1   9
ATOM      9  C   UNL     1     -30.182  21.446  28.587  1.00  0.00     0.000 C 
BRANCH   9  10
ATOM     10  C   UNL     1     -28.868  21.987  27.990  1.00  0.00    -0.000 C 
BRANCH  10  11
ATOM     11  C   UNL     1     -29.042  22.668  26.616  1.00  0.00    -0.000 C 
BRANCH  11  12
ATOM     12  C   UNL     1     -29.328  21.658  25.495  1.00  0.00    -0.000 C 
BRANCH  12  13
ATOM     13  C   UNL     1     -28.371  21.860  24.314  1.00  0.00    -0.003 C 
ATOM     14  C   UNL     1     -29.085  21.650  22.983  1.00  0.00     0.004 C 
ENDBRANCH  12  13
ENDBRANCH  11  12
ENDBRANCH  10  11
ENDBRANCH   9  10
ENDBRANCH   1   9
TORSDOF 10
ENDMDL
MODEL 5
REMARK VINA RESULT:    -4.018      2.413      4.337
REMARK INTER + INTRA:          -6.912
REMARK INTER:                  -5.657
REMARK INTRA:                  -1.255
REMARK UNBOUND:                -0.545
REMARK SMILES CCCCCCCCCCCC(=O)[O-]
REMARK SMILES IDX 7 1 8 2 9 3 10 4 11 5 12 6 13 7 14 8 6 9 5 10 4 11 3 12 2 13
REMARK SMILES IDX 1 14
REMARK H PARENT
REMARK Flexibility Score: inf
ROOT
ATOM      1  C   UNL     1     -32.158  25.349  30.809  1.00  0.00     0.000 C 
ENDROOT
BRANCH   1   2
ATOM      2  C   UNL     1     -31.220  24.304  30.186  1.00  0.00     0.000 C 
BRANCH   2   3
ATOM      3  C   UNL     1     -32.008  23.311  29.319  1.00  0.00     0.000 C 
BRANCH   3   4
ATOM      4  C   UNL     1     -31.180  22.075  28.923  1.00  0.00     0.006 C 
BRANCH   4   5
ATOM      5  C   UNL     1     -29.665  22.327  28.844  1.00  0.00     0.053 C 
BRANCH   5   6
ATOM      6  C   UNL     1     -29.144  22.183  27.447  1.00  0.00     0.041 C 
ATOM      7  O   UNL     1     -29.305  23.112  26.613  1.00  0.00    -0.550 OA
ATOM      8  O   UNL     1     -28.511  21.009  27.058  1.00  0.00    -0.550 OA
ENDBRANCH   5   6
ENDBRANCH   4   5
ENDBRANCH   3   4
ENDBRANCH   2   3
ENDBRANCH   1   2
BRANCH   1   9
ATOM      9  C   UNL     1     -33.623  25.169  30.378  1.00  0.00     0.000 C 
BRANCH   9  10
ATOM     10  C   UNL     1     -34.620  24.973  31.536  1.00  0.00    -0.000 C 
BRANCH  10  11
ATOM     11  C   UNL     1     -33.961  24.964  32.932  1.00  0.00    -0.000 C 
BRANCH  11  12
ATOM     12  C   UNL     1     -34.018  23.580  33.596  1.00  0.00    -0.000 C 
BRANCH  12  13
ATOM     13  C   UNL     1     -32.645  22.899  33.570  1.00  0.00    -0.003 C 
ATOM     14  C   UNL     1     -32.633  21.719  32.602  1.00  0.00     0.004 C 
ENDBRANCH  12  13
ENDBRANCH  11  12
ENDBRANCH  10  11
ENDBRANCH   9  10
ENDBRANCH   1   9
TORSDOF 10
ENDMDL
MODEL 6
REMARK VINA RESULT:    -4.013      5.407      7.162
REMARK INTER + INTRA:          -6.904
REMARK INTER:                  -5.459
REMARK INTRA:                  -1.446
REMARK UNBOUND:                -0.545
REMARK SMILES CCCCCCCCCCCC(=O)[O-]
REMARK SMILES IDX 7 1 8 2 9 3 10 4 11 5 12 6 13 7 14 8 6 9 5 10 4 11 3 12 2 13
REMARK SMILES IDX 1 14
REMARK H PARENT
REMARK Flexibility Score: inf
ROOT
ATOM      1  C   UNL     1     -31.127  21.976  28.870  1.00  0.00     0.000 C 
ENDROOT
BRANCH   1   2
ATOM      2  C   UNL     1     -32.066  23.089  29.358  1.00  0.00     0.000 C 
BRANCH   2   3
ATOM      3  C   UNL     1     -31.271  24.350  29.733  1.00  0.00     0.000 C 
BRANCH   3   4
ATOM      4  C   UNL     1     -32.020  25.255  30.727  1.00  0.00     0.006 C 
BRANCH   4   5
ATOM      5  C   UNL     1     -33.552  25.163  30.637  1.00  0.00     0.053 C 
BRANCH   5   6
ATOM      6  C   UNL     1     -34.174  24.829  31.958  1.00  0.00     0.041 C 
ATOM      7  O   UNL     1     -35.335  24.346  32.007  1.00  0.00    -0.550 OA
ATOM      8  O   UNL     1     -33.483  25.085  33.136  1.00  0.00    -0.550 OA
ENDBRANCH   5   6
ENDBRANCH   4   5
ENDBRANCH   3   4
ENDBRANCH   2   3
ENDBRANCH   1   2
BRANCH   1   9
ATOM      9  C   UNL     1     -29.641  22.332  29.039  1.00  0.00     0.000 C 
BRANCH   9  10
ATOM     10  C   UNL     1     -28.821  21.319  29.862  1.00  0.00    -0.000 C 
BRANCH  10  11
ATOM     11  C   UNL     1     -28.069  21.948  31.055  1.00  0.00    -0.000 C 
BRANCH  11  12
ATOM     12  C   UNL     1     -29.018  22.649  32.039  1.00  0.00    -0.000 C 
BRANCH  12  13
ATOM     13  C   UNL     1     -29.955  21.640  32.714  1.00  0.00    -0.003 C 
ATOM     14  C   UNL     1     -31.367  22.203  32.846  1.00  0.00     0.004 C 
ENDBRANCH  12  13
ENDBRANCH  11  12
ENDBRANCH  10  11
ENDBRANCH   9  10
ENDBRANCH   1   9
TORSDOF 10
ENDMDL
MODEL 7
REMARK VINA RESULT:    -4.007      3.063      4.064
REMARK INTER + INTRA:          -6.894
REMARK INTER:                  -6.386
REMARK INTRA:                  -0.509
REMARK UNBOUND:                -0.545
REMARK SMILES CCCCCCCCCCCC(=O)[O-]
REMARK SMILES IDX 7 1 8 2 9 3 10 4 11 5 12 6 13 7 14 8 6 9 5 10 4 11 3 12 2 13
REMARK SMILES IDX 1 14
REMARK H PARENT
REMARK Flexibility Score: inf
ROOT
ATOM      1  C   UNL     1     -28.700  21.999  25.274  1.00  0.00     0.000 C 
ENDROOT
BRANCH   1   2
ATOM      2  C   UNL     1     -29.627  20.798  25.034  1.00  0.00     0.000 C 
BRANCH   2   3
ATOM      3  C   UNL     1     -29.930  20.632  23.537  1.00  0.00     0.000 C 
BRANCH   3   4
ATOM      4  C   UNL     1     -31.204  19.810  23.273  1.00  0.00     0.006 C 
BRANCH   4   5
ATOM      5  C   UNL     1     -32.269  19.920  24.376  1.00  0.00     0.053 C 
BRANCH   5   6
ATOM      6  C   UNL     1     -32.906  18.598  24.677  1.00  0.00     0.041 C 
ATOM      7  O   UNL     1     -32.525  17.560  24.075  1.00  0.00    -0.550 OA
ATOM      8  O   UNL     1     -33.944  18.519  25.597  1.00  0.00    -0.550 OA
ENDBRANCH   5   6
ENDBRANCH   4   5
ENDBRANCH   3   4
ENDBRANCH   2   3
ENDBRANCH   1   2
BRANCH   1   9
ATOM      9  C   UNL     1     -29.003  22.732  26.592  1.00  0.00     0.000 C 
BRANCH   9  10
ATOM     10  C   UNL     1     -30.032  22.031  27.502  1.00  0.00    -0.000 C 
BRANCH  10  11
ATOM     11  C   UNL     1     -30.141  22.650  28.912  1.00  0.00    -0.000 C 
BRANCH  11  12
ATOM     12  C   UNL     1     -31.575  23.085  29.249  1.00  0.00    -0.000 C 
BRANCH  12  13
ATOM     13  C   UNL     1     -31.584  24.434  29.977  1.00  0.00    -0.003 C 
ATOM     14  C   UNL     1     -33.008  24.880  30.295  1.00  0.00     0.004 C 
ENDBRANCH  12  13
ENDBRANCH  11  12
ENDBRANCH  10  11
ENDBRANCH   9  10
ENDBRANCH   1   9
TORSDOF 10
ENDMDL
MODEL 8
REMARK VINA RESULT:    -4.002      4.105      7.178
REMARK INTER + INTRA:          -6.887
REMARK INTER:                  -6.275
REMARK INTRA:                  -0.612
REMARK UNBOUND:                -0.545
REMARK SMILES CCCCCCCCCCCC(=O)[O-]
REMARK SMILES IDX 7 1 8 2 9 3 10 4 11 5 12 6 13 7 14 8 6 9 5 10 4 11 3 12 2 13
REMARK SMILES IDX 1 14
REMARK H PARENT
REMARK Flexibility Score: inf
ROOT
ATOM      1  C   UNL     1     -28.890  22.034  27.273  1.00  0.00     0.000 C 
ENDROOT
BRANCH   1   2
ATOM      2  C   UNL     1     -30.022  22.854  27.909  1.00  0.00     0.000 C 
BRANCH   2   3
ATOM      3  C   UNL     1     -30.919  21.964  28.782  1.00  0.00     0.000 C 
BRANCH   3   4
ATOM      4  C   UNL     1     -31.923  22.771  29.625  1.00  0.00     0.006 C 
BRANCH   4   5
ATOM      5  C   UNL     1     -31.556  24.254  29.798  1.00  0.00     0.053 C 
BRANCH   5   6
ATOM      6  C   UNL     1     -32.399  24.923  30.840  1.00  0.00     0.041 C 
ATOM      7  O   UNL     1     -33.442  25.544  30.508  1.00  0.00    -0.550 OA
ATOM      8  O   UNL     1     -32.013  24.889  32.174  1.00  0.00    -0.550 OA
ENDBRANCH   5   6
ENDBRANCH   4   5
ENDBRANCH   3   4
ENDBRANCH   2   3
ENDBRANCH   1   2
BRANCH   1   9
ATOM      9  C   UNL     1     -28.547  22.498  25.847  1.00  0.00     0.000 C 
BRANCH   9  10
ATOM     10  C   UNL     1     -28.462  21.369  24.801  1.00  0.00    -0.000 C 
BRANCH  10  11
ATOM     11  C   UNL     1     -29.609  21.388  23.769  1.00  0.00    -0.000 C 
BRANCH  11  12
ATOM     12  C   UNL     1     -30.483  20.127  23.844  1.00  0.00    -0.000 C 
BRANCH  12  13
ATOM     13  C   UNL     1     -31.486  20.220  25.000  1.00  0.00    -0.003 C 
ATOM     14  C   UNL     1     -32.915  20.014  24.509  1.00  0.00     0.004 C 
ENDBRANCH  12  13
ENDBRANCH  11  12
ENDBRANCH  10  11
ENDBRANCH   9  10
ENDBRANCH   1   9
TORSDOF 10
ENDMDL
MODEL 9
REMARK VINA RESULT:    -3.948      2.899      3.380
REMARK INTER + INTRA:          -6.801
REMARK INTER:                  -6.177
REMARK INTRA:                  -0.624
REMARK UNBOUND:                -0.545
REMARK SMILES CCCCCCCCCCCC(=O)[O-]
REMARK SMILES IDX 7 1 8 2 9 3 10 4 11 5 12 6 13 7 14 8 6 9 5 10 4 11 3 12 2 13
REMARK SMILES IDX 1 14
REMARK H PARENT
REMARK Flexibility Score: inf
ROOT
ATOM      1  C   UNL     1     -30.595  21.705  28.847  1.00  0.00     0.000 C 
ENDROOT
BRANCH   1   2
ATOM      2  C   UNL     1     -29.815  22.328  27.680  1.00  0.00     0.000 C 
BRANCH   2   3
ATOM      3  C   UNL     1     -29.847  21.410  26.449  1.00  0.00     0.000 C 
BRANCH   3   4
ATOM      4  C   UNL     1     -30.931  20.321  26.543  1.00  0.00     0.006 C 
BRANCH   4   5
ATOM      5  C   UNL     1     -31.286  19.663  25.200  1.00  0.00     0.053 C 
BRANCH   5   6
ATOM      6  C   UNL     1     -32.766  19.530  25.013  1.00  0.00     0.041 C 
ATOM      7  O   UNL     1     -33.393  20.366  24.311  1.00  0.00    -0.550 OA
ATOM      8  O   UNL     1     -33.457  18.502  25.642  1.00  0.00    -0.550 OA
ENDBRANCH   5   6
ENDBRANCH   4   5
ENDBRANCH   3   4
ENDBRANCH   2   3
ENDBRANCH   1   2
BRANCH   1   9
ATOM      9  C   UNL     1     -31.655  22.655  29.430  1.00  0.00     0.000 C 
BRANCH   9  10
ATOM     10  C   UNL     1     -31.301  24.153  29.345  1.00  0.00    -0.000 C 
BRANCH  10  11
ATOM     11  C   UNL     1     -31.847  24.990  30.521  1.00  0.00    -0.000 C 
BRANCH  11  12
ATOM     12  C   UNL     1     -32.709  24.156  31.481  1.00  0.00    -0.000 C 
BRANCH  12  13
ATOM     13  C   UNL     1     -34.153  24.668  31.509  1.00  0.00    -0.003 C 
ATOM     14  C   UNL     1     -34.330  25.874  30.592  1.00  0.00     0.004 C 
ENDBRANCH  12  13
ENDBRANCH  11  12
ENDBRANCH  10  11
ENDBRANCH   9  10
ENDBRANCH   1   9
TORSDOF 10
ENDMDL
