MODEL 1
REMARK VINA RESULT:    -1.317      0.000      0.000
REMARK INTER + INTRA:          -1.490
REMARK INTER:                  -1.433
REMARK INTRA:                  -0.057
REMARK UNBOUND:                -0.057
REMARK SMILES COc1cc2ccc(=O)oc2cc1O
REMARK SMILES IDX 3 1 13 2 12 3 11 4 5 5 4 6 6 7 7 8 8 9 9 10 10 11 2 12 1 13
REMARK SMILES IDX 14 14
REMARK H PARENT 14 15
REMARK Flexibility Score: inf
ROOT
ATOM      1  C   UNL     1     -26.400 139.737  54.841  1.00  0.00     0.161 A 
ATOM      2  C   UNL     1     -25.944 139.639  53.511  1.00  0.00     0.161 A 
ATOM      3  C   UNL     1     -26.404 138.610  52.682  1.00  0.00     0.098 A 
ATOM      4  C   UNL     1     -27.319 137.670  53.162  1.00  0.00     0.142 A 
ATOM      5  C   UNL     1     -27.782 137.760  54.492  1.00  0.00     0.022 A 
ATOM      6  C   UNL     1     -27.323 138.789  55.325  1.00  0.00     0.062 A 
ATOM      7  C   UNL     1     -28.698 136.804  54.943  1.00  0.00     0.019 A 
ATOM      8  C   UNL     1     -29.125 135.799  54.075  1.00  0.00     0.094 A 
ATOM      9  C   UNL     1     -28.622 135.774  52.770  1.00  0.00     0.336 A 
ATOM     10  O   UNL     1     -28.994 134.875  51.972  1.00  0.00    -0.246 OA
ATOM     11  O   UNL     1     -27.752 136.695  52.365  1.00  0.00    -0.423 OA
ENDROOT
BRANCH   1  12
ATOM     12  O   UNL     1     -25.918 140.782  55.645  1.00  0.00    -0.493 OA
ATOM     13  C   UNL     1     -25.213 140.601  56.869  1.00  0.00     0.278 C 
ENDBRANCH   1  12
BRANCH   2  14
ATOM     14  O   UNL     1     -25.031 140.558  52.995  1.00  0.00    -0.504 OA
ATOM     15  H   UNL     1     -24.560 141.239  53.579  1.00  0.00     0.293 HD
ENDBRANCH   2  14
TORSDOF 2
ENDMDL
MODEL 2
REMARK VINA RESULT:    -0.446      2.123      5.390
REMARK INTER + INTRA:          -0.543
REMARK INTER:                  -0.499
REMARK INTRA:                  -0.044
REMARK UNBOUND:                -0.057
REMARK SMILES COc1cc2ccc(=O)oc2cc1O
REMARK SMILES IDX 3 1 13 2 12 3 11 4 5 5 4 6 6 7 7 8 8 9 9 10 10 11 2 12 1 13
REMARK SMILES IDX 14 14
REMARK H PARENT 14 15
REMARK Flexibility Score: inf
ROOT
ATOM      1  C   UNL     1     -28.076 138.857  54.624  1.00  0.00     0.161 A 
ATOM      2  C   UNL     1     -28.133 140.266  54.626  1.00  0.00     0.161 A 
ATOM      3  C   UNL     1     -27.197 141.008  55.354  1.00  0.00     0.098 A 
ATOM      4  C   UNL     1     -26.197 140.364  56.086  1.00  0.00     0.142 A 
ATOM      5  C   UNL     1     -26.131 138.955  56.091  1.00  0.00     0.022 A 
ATOM      6  C   UNL     1     -27.067 138.207  55.363  1.00  0.00     0.062 A 
ATOM      7  C   UNL     1     -25.118 138.338  56.832  1.00  0.00     0.019 A 
ATOM      8  C   UNL     1     -24.211 139.126  57.540  1.00  0.00     0.094 A 
ATOM      9  C   UNL     1     -24.338 140.518  57.489  1.00  0.00     0.336 A 
ATOM     10  O   UNL     1     -23.530 141.246  58.121  1.00  0.00    -0.246 OA
ATOM     11  O   UNL     1     -25.311 141.079  56.774  1.00  0.00    -0.423 OA
ENDROOT
BRANCH   1  12
ATOM     12  O   UNL     1     -29.031 138.143  53.883  1.00  0.00    -0.493 OA
ATOM     13  C   UNL     1     -28.955 136.750  53.597  1.00  0.00     0.278 C 
ENDBRANCH   1  12
BRANCH   2  14
ATOM     14  O   UNL     1     -29.116 140.946  53.907  1.00  0.00    -0.504 OA
ATOM     15  H   UNL     1     -30.041 140.560  53.758  1.00  0.00     0.293 HD
ENDBRANCH   2  14
TORSDOF 2
ENDMDL
MODEL 3
REMARK VINA RESULT:     0.436      1.340      5.383
REMARK INTER + INTRA:           0.417
REMARK INTER:                   0.467
REMARK INTRA:                  -0.050
REMARK UNBOUND:                -0.057
REMARK SMILES COc1cc2ccc(=O)oc2cc1O
REMARK SMILES IDX 3 1 13 2 12 3 11 4 5 5 4 6 6 7 7 8 8 9 9 10 10 11 2 12 1 13
REMARK SMILES IDX 14 14
REMARK H PARENT 14 15
REMARK Flexibility Score: inf
ROOT
ATOM      1  C   UNL     1     -28.177 136.291  52.991  1.00  0.00     0.161 A 
ATOM      2  C   UNL     1     -28.418 136.041  54.357  1.00  0.00     0.161 A 
ATOM      3  C   UNL     1     -27.949 136.931  55.329  1.00  0.00     0.098 A 
ATOM      4  C   UNL     1     -27.239 138.075  54.959  1.00  0.00     0.142 A 
ATOM      5  C   UNL     1     -26.993 138.335  53.594  1.00  0.00     0.022 A 
ATOM      6  C   UNL     1     -27.461 137.445  52.616  1.00  0.00     0.062 A 
ATOM      7  C   UNL     1     -26.280 139.489  53.254  1.00  0.00     0.019 A 
ATOM      8  C   UNL     1     -25.836 140.342  54.263  1.00  0.00     0.094 A 
ATOM      9  C   UNL     1     -26.117 140.020  55.595  1.00  0.00     0.336 A 
ATOM     10  O   UNL     1     -25.725 140.777  56.520  1.00  0.00    -0.246 OA
ATOM     11  O   UNL     1     -26.798 138.916  55.891  1.00  0.00    -0.423 OA
ENDROOT
BRANCH   1  12
ATOM     12  O   UNL     1     -28.662 135.378  52.042  1.00  0.00    -0.493 OA
ATOM     13  C   UNL     1     -27.907 134.877  50.943  1.00  0.00     0.278 C 
ENDBRANCH   1  12
BRANCH   2  14
ATOM     14  O   UNL     1     -29.124 134.910  54.767  1.00  0.00    -0.504 OA
ATOM     15  H   UNL     1     -28.914 133.984  54.413  1.00  0.00     0.293 HD
ENDBRANCH   2  14
TORSDOF 2
ENDMDL
MODEL 4
REMARK VINA RESULT:     1.098      1.543      2.725
REMARK INTER + INTRA:           1.137
REMARK INTER:                   1.184
REMARK INTRA:                  -0.047
REMARK UNBOUND:                -0.057
REMARK SMILES COc1cc2ccc(=O)oc2cc1O
REMARK SMILES IDX 3 1 13 2 12 3 11 4 5 5 4 6 6 7 7 8 8 9 9 10 10 11 2 12 1 13
REMARK SMILES IDX 14 14
REMARK H PARENT 14 15
REMARK Flexibility Score: inf
ROOT
ATOM      1  C   UNL     1     -26.075 139.835  53.119  1.00  0.00     0.161 A 
ATOM      2  C   UNL     1     -26.150 139.922  54.524  1.00  0.00     0.161 A 
ATOM      3  C   UNL     1     -26.799 138.923  55.258  1.00  0.00     0.098 A 
ATOM      4  C   UNL     1     -27.377 137.830  54.609  1.00  0.00     0.142 A 
ATOM      5  C   UNL     1     -27.306 137.732  53.203  1.00  0.00     0.022 A 
ATOM      6  C   UNL     1     -26.658 138.732  52.464  1.00  0.00     0.062 A 
ATOM      7  C   UNL     1     -27.893 136.626  52.582  1.00  0.00     0.019 A 
ATOM      8  C   UNL     1     -28.527 135.658  53.362  1.00  0.00     0.094 A 
ATOM      9  C   UNL     1     -28.558 135.822  54.751  1.00  0.00     0.336 A 
ATOM     10  O   UNL     1     -29.125 134.960  55.471  1.00  0.00    -0.246 OA
ATOM     11  O   UNL     1     -27.990 136.884  55.317  1.00  0.00    -0.423 OA
ENDROOT
BRANCH   1  12
ATOM     12  O   UNL     1     -25.417 140.854  52.414  1.00  0.00    -0.493 OA
ATOM     13  C   UNL     1     -24.620 140.648  51.251  1.00  0.00     0.278 C 
ENDBRANCH   1  12
BRANCH   2  14
ATOM     14  O   UNL     1     -25.586 140.998  55.208  1.00  0.00    -0.504 OA
ATOM     15  H   UNL     1     -24.702 140.924  55.697  1.00  0.00     0.293 HD
ENDBRANCH   2  14
TORSDOF 2
ENDMDL
MODEL 5
REMARK VINA RESULT:     1.153      2.450      4.734
REMARK INTER + INTRA:           1.197
REMARK INTER:                   1.241
REMARK INTRA:                  -0.044
REMARK UNBOUND:                -0.057
REMARK SMILES COc1cc2ccc(=O)oc2cc1O
REMARK SMILES IDX 3 1 13 2 12 3 11 4 5 5 4 6 6 7 7 8 8 9 9 10 10 11 2 12 1 13
REMARK SMILES IDX 14 14
REMARK H PARENT 14 15
REMARK Flexibility Score: inf
ROOT
ATOM      1  C   UNL     1     -28.047 139.010  54.883  1.00  0.00     0.161 A 
ATOM      2  C   UNL     1     -28.177 140.412  54.948  1.00  0.00     0.161 A 
ATOM      3  C   UNL     1     -27.395 141.231  54.126  1.00  0.00     0.098 A 
ATOM      4  C   UNL     1     -26.481 140.671  53.233  1.00  0.00     0.142 A 
ATOM      5  C   UNL     1     -26.344 139.269  53.158  1.00  0.00     0.022 A 
ATOM      6  C   UNL     1     -27.124 138.444  53.980  1.00  0.00     0.062 A 
ATOM      7  C   UNL     1     -25.419 138.738  52.252  1.00  0.00     0.019 A 
ATOM      8  C   UNL     1     -24.666 139.600  51.456  1.00  0.00     0.094 A 
ATOM      9  C   UNL     1     -24.856 140.980  51.585  1.00  0.00     0.336 A 
ATOM     10  O   UNL     1     -24.186 141.775  50.876  1.00  0.00    -0.246 OA
ATOM     11  O   UNL     1     -25.743 141.459  52.454  1.00  0.00    -0.423 OA
ENDROOT
BRANCH   1  12
ATOM     12  O   UNL     1     -28.847 138.217  55.721  1.00  0.00    -0.493 OA
ATOM     13  C   UNL     1     -29.099 136.830  55.521  1.00  0.00     0.278 C 
ENDBRANCH   1  12
BRANCH   2  14
ATOM     14  O   UNL     1     -29.079 141.009  55.828  1.00  0.00    -0.504 OA
ATOM     15  H   UNL     1     -29.982 140.600  56.038  1.00  0.00     0.293 HD
ENDBRANCH   2  14
TORSDOF 2
ENDMDL
