MODEL 1
REMARK VINA RESULT:    -6.226      0.000      0.000
REMARK INTER + INTRA:          -7.426
REMARK INTER:                  -7.682
REMARK INTRA:                   0.256
REMARK UNBOUND:                 0.256
REMARK SMILES O=c1c(O)c(-c2cc(O)c(O)c(O)c2)oc2cc(O)cc(O)c12
REMARK SMILES IDX 5 1 3 2 2 3 1 4 23 5 21 6 20 7 18 8 17 9 16 10 15 11 6 12
REMARK SMILES IDX 7 13 8 14 14 15 10 16 12 17 9 18 11 20 13 22 4 24 22 26
REMARK SMILES IDX 19 28
REMARK H PARENT 9 19 11 21 13 23 4 25 22 27 19 29
REMARK Flexibility Score: inf
ROOT
ATOM      1  C   UNL     1       9.550  27.119  -0.504  1.00  0.00     0.180 A 
ATOM      2  C   UNL     1      10.141  26.741  -1.726  1.00  0.00     0.208 A 
ATOM      3  C   UNL     1      10.255  25.375  -2.030  1.00  0.00     0.238 A 
ATOM      4  O   UNL     1      10.772  25.025  -3.125  1.00  0.00    -0.285 OA
ATOM      5  C   UNL     1       9.799  24.415  -1.103  1.00  0.00     0.111 A 
ATOM      6  C   UNL     1       9.882  23.020  -1.331  1.00  0.00     0.134 A 
ATOM      7  C   UNL     1       9.413  22.128  -0.356  1.00  0.00     0.093 A 
ATOM      8  C   UNL     1       8.866  22.602   0.842  1.00  0.00     0.123 A 
ATOM      9  C   UNL     1       8.782  23.977   1.070  1.00  0.00     0.094 A 
ATOM     10  C   UNL     1       9.241  24.883   0.110  1.00  0.00     0.146 A 
ATOM     11  O   UNL     1       9.145  26.186   0.351  1.00  0.00    -0.452 OA
ENDROOT
BRANCH   1  12
ATOM     12  C   UNL     1       9.378  28.539  -0.121  1.00  0.00     0.029 A 
ATOM     13  C   UNL     1       8.284  28.911   0.674  1.00  0.00     0.062 A 
ATOM     14  C   UNL     1       8.086  30.252   1.033  1.00  0.00     0.162 A 
ATOM     15  C   UNL     1      10.256  29.534  -0.585  1.00  0.00     0.062 A 
ATOM     16  C   UNL     1       8.977  31.236   0.585  1.00  0.00     0.200 A 
ATOM     17  C   UNL     1      10.063  30.876  -0.231  1.00  0.00     0.162 A 
BRANCH  14  18
ATOM     18  O   UNL     1       7.006  30.614   1.836  1.00  0.00    -0.504 OA
ATOM     19  H   UNL     1       6.719  31.580   1.937  1.00  0.00     0.293 HD
ENDBRANCH  14  18
BRANCH  16  20
ATOM     20  O   UNL     1       8.766  32.564   0.954  1.00  0.00    -0.502 OA
ATOM     21  H   UNL     1       7.880  33.031   0.806  1.00  0.00     0.293 HD
ENDBRANCH  16  20
BRANCH  17  22
ATOM     22  O   UNL     1      10.943  31.854  -0.692  1.00  0.00    -0.504 OA
ATOM     23  H   UNL     1      11.438  31.752  -1.570  1.00  0.00     0.293 HD
ENDBRANCH  17  22
ENDBRANCH   1  12
BRANCH   2  24
ATOM     24  O   UNL     1      10.630  27.711  -2.604  1.00  0.00    -0.502 OA
ATOM     25  H   UNL     1      10.253  27.840  -3.535  1.00  0.00     0.293 HD
ENDBRANCH   2  24
BRANCH   6  26
ATOM     26  O   UNL     1      10.423  22.516  -2.515  1.00  0.00    -0.507 OA
ATOM     27  H   UNL     1      11.161  23.000  -3.013  1.00  0.00     0.293 HD
ENDBRANCH   6  26
BRANCH   8  28
ATOM     28  O   UNL     1       8.400  21.716   1.811  1.00  0.00    -0.508 OA
ATOM     29  H   UNL     1       9.004  21.378   2.552  1.00  0.00     0.293 HD
ENDBRANCH   8  28
TORSDOF 7
ENDMDL
MODEL 2
REMARK VINA RESULT:    -6.073      0.054      1.750
REMARK INTER + INTRA:          -7.237
REMARK INTER:                  -7.503
REMARK INTRA:                   0.267
REMARK UNBOUND:                 0.256
REMARK SMILES O=c1c(O)c(-c2cc(O)c(O)c(O)c2)oc2cc(O)cc(O)c12
REMARK SMILES IDX 5 1 3 2 2 3 1 4 23 5 21 6 20 7 18 8 17 9 16 10 15 11 6 12
REMARK SMILES IDX 7 13 8 14 14 15 10 16 12 17 9 18 11 20 13 22 4 24 22 26
REMARK SMILES IDX 19 28
REMARK H PARENT 9 19 11 21 13 23 4 25 22 27 19 29
REMARK Flexibility Score: inf
ROOT
ATOM      1  C   UNL     1       9.495  27.104  -0.513  1.00  0.00     0.180 A 
ATOM      2  C   UNL     1      10.099  26.735  -1.731  1.00  0.00     0.208 A 
ATOM      3  C   UNL     1      10.241  25.372  -2.032  1.00  0.00     0.238 A 
ATOM      4  O   UNL     1      10.768  25.029  -3.125  1.00  0.00    -0.285 OA
ATOM      5  C   UNL     1       9.799  24.405  -1.106  1.00  0.00     0.111 A 
ATOM      6  C   UNL     1       9.910  23.011  -1.331  1.00  0.00     0.134 A 
ATOM      7  C   UNL     1       9.454  22.111  -0.356  1.00  0.00     0.093 A 
ATOM      8  C   UNL     1       8.894  22.578   0.838  1.00  0.00     0.123 A 
ATOM      9  C   UNL     1       8.782  23.951   1.064  1.00  0.00     0.094 A 
ATOM     10  C   UNL     1       9.227  24.864   0.104  1.00  0.00     0.146 A 
ATOM     11  O   UNL     1       9.105  26.165   0.343  1.00  0.00    -0.452 OA
ENDROOT
BRANCH   1  12
ATOM     12  C   UNL     1       9.294  28.521  -0.132  1.00  0.00     0.029 A 
ATOM     13  C   UNL     1      10.226  29.485  -0.543  1.00  0.00     0.062 A 
ATOM     14  C   UNL     1      10.069  30.830  -0.178  1.00  0.00     0.162 A 
ATOM     15  C   UNL     1       8.217  28.913   0.683  1.00  0.00     0.062 A 
ATOM     16  C   UNL     1       8.983  31.218   0.617  1.00  0.00     0.200 A 
ATOM     17  C   UNL     1       8.056  30.255   1.052  1.00  0.00     0.162 A 
BRANCH  14  18
ATOM     18  O   UNL     1      10.990  31.786  -0.601  1.00  0.00    -0.504 OA
ATOM     19  H   UNL     1      11.054  32.068  -1.572  1.00  0.00     0.293 HD
ENDBRANCH  14  18
BRANCH  16  20
ATOM     20  O   UNL     1       8.841  32.560   0.969  1.00  0.00    -0.502 OA
ATOM     21  H   UNL     1       8.698  33.287   0.278  1.00  0.00     0.293 HD
ENDBRANCH  16  20
BRANCH  17  22
ATOM     22  O   UNL     1       6.982  30.635   1.856  1.00  0.00    -0.504 OA
ATOM     23  H   UNL     1       6.742  30.124   2.697  1.00  0.00     0.293 HD
ENDBRANCH  17  22
ENDBRANCH   1  12
BRANCH   2  24
ATOM     24  O   UNL     1      10.572  27.714  -2.609  1.00  0.00    -0.502 OA
ATOM     25  H   UNL     1      10.027  28.533  -2.853  1.00  0.00     0.293 HD
ENDBRANCH   2  24
BRANCH   6  26
ATOM     26  O   UNL     1      10.466  22.515  -2.512  1.00  0.00    -0.507 OA
ATOM     27  H   UNL     1      10.442  21.528  -2.738  1.00  0.00     0.293 HD
ENDBRANCH   6  26
BRANCH   8  28
ATOM     28  O   UNL     1       8.441  21.684   1.808  1.00  0.00    -0.508 OA
ATOM     29  H   UNL     1       7.464  21.427   1.875  1.00  0.00     0.293 HD
ENDBRANCH   8  28
TORSDOF 7
ENDMDL
MODEL 3
REMARK VINA RESULT:    -5.515      1.629      6.682
REMARK INTER + INTRA:          -6.548
REMARK INTER:                  -6.213
REMARK INTRA:                  -0.335
REMARK UNBOUND:                 0.256
REMARK SMILES O=c1c(O)c(-c2cc(O)c(O)c(O)c2)oc2cc(O)cc(O)c12
REMARK SMILES IDX 5 1 3 2 2 3 1 4 23 5 21 6 20 7 18 8 17 9 16 10 15 11 6 12
REMARK SMILES IDX 7 13 8 14 14 15 10 16 12 17 9 18 11 20 13 22 4 24 22 26
REMARK SMILES IDX 19 28
REMARK H PARENT 9 19 11 21 13 23 4 25 22 27 19 29
REMARK Flexibility Score: inf
ROOT
ATOM      1  C   UNL     1       9.227  26.465  -0.580  1.00  0.00     0.180 A 
ATOM      2  C   UNL     1      10.329  26.545  -1.454  1.00  0.00     0.208 A 
ATOM      3  C   UNL     1      10.946  27.790  -1.655  1.00  0.00     0.238 A 
ATOM      4  O   UNL     1      11.940  27.872  -2.425  1.00  0.00    -0.285 OA
ATOM      5  C   UNL     1      10.441  28.931  -0.999  1.00  0.00     0.111 A 
ATOM      6  C   UNL     1      11.001  30.223  -1.152  1.00  0.00     0.134 A 
ATOM      7  C   UNL     1      10.435  31.311  -0.471  1.00  0.00     0.093 A 
ATOM      8  C   UNL     1       9.320  31.133   0.355  1.00  0.00     0.123 A 
ATOM      9  C   UNL     1       8.764  29.862   0.509  1.00  0.00     0.094 A 
ATOM     10  C   UNL     1       9.315  28.764  -0.159  1.00  0.00     0.146 A 
ATOM     11  O   UNL     1       8.769  27.565   0.009  1.00  0.00    -0.452 OA
ENDROOT
BRANCH   1  12
ATOM     12  C   UNL     1       8.535  25.185  -0.302  1.00  0.00     0.029 A 
ATOM     13  C   UNL     1       7.284  24.936  -0.886  1.00  0.00     0.062 A 
ATOM     14  C   UNL     1       6.599  23.742  -0.622  1.00  0.00     0.162 A 
ATOM     15  C   UNL     1       9.079  24.236   0.582  1.00  0.00     0.062 A 
ATOM     16  C   UNL     1       7.156  22.791   0.243  1.00  0.00     0.200 A 
ATOM     17  C   UNL     1       8.398  23.041   0.850  1.00  0.00     0.162 A 
BRANCH  14  18
ATOM     18  O   UNL     1       5.363  23.494  -1.216  1.00  0.00    -0.504 OA
ATOM     19  H   UNL     1       4.505  23.497  -0.678  1.00  0.00     0.293 HD
ENDBRANCH  14  18
BRANCH  16  20
ATOM     20  O   UNL     1       6.461  21.608   0.492  1.00  0.00    -0.502 OA
ATOM     21  H   UNL     1       5.782  21.233  -0.159  1.00  0.00     0.293 HD
ENDBRANCH  16  20
BRANCH  17  22
ATOM     22  O   UNL     1       8.949  22.104   1.724  1.00  0.00    -0.504 OA
ATOM     23  H   UNL     1       8.542  21.184   1.841  1.00  0.00     0.293 HD
ENDBRANCH  17  22
ENDBRANCH   1  12
BRANCH   2  24
ATOM     24  O   UNL     1      10.779  25.407  -2.128  1.00  0.00    -0.502 OA
ATOM     25  H   UNL     1      11.193  25.452  -3.052  1.00  0.00     0.293 HD
ENDBRANCH   2  24
BRANCH   6  26
ATOM     26  O   UNL     1      12.113  30.432  -1.969  1.00  0.00    -0.507 OA
ATOM     27  H   UNL     1      12.264  29.890  -2.812  1.00  0.00     0.293 HD
ENDBRANCH   6  26
BRANCH   8  28
ATOM     28  O   UNL     1       8.756  32.214   1.030  1.00  0.00    -0.508 OA
ATOM     29  H   UNL     1       8.465  32.140   1.998  1.00  0.00     0.293 HD
ENDBRANCH   8  28
TORSDOF 7
ENDMDL
MODEL 4
REMARK VINA RESULT:    -5.031      2.141      2.490
REMARK INTER + INTRA:          -5.951
REMARK INTER:                  -5.666
REMARK INTRA:                  -0.285
REMARK UNBOUND:                 0.256
REMARK SMILES O=c1c(O)c(-c2cc(O)c(O)c(O)c2)oc2cc(O)cc(O)c12
REMARK SMILES IDX 5 1 3 2 2 3 1 4 23 5 21 6 20 7 18 8 17 9 16 10 15 11 6 12
REMARK SMILES IDX 7 13 8 14 14 15 10 16 12 17 9 18 11 20 13 22 4 24 22 26
REMARK SMILES IDX 19 28
REMARK H PARENT 9 19 11 21 13 23 4 25 22 27 19 29
REMARK Flexibility Score: inf
ROOT
ATOM      1  C   UNL     1       8.231  27.059  -0.491  1.00  0.00     0.180 A 
ATOM      2  C   UNL     1       7.195  26.866  -1.426  1.00  0.00     0.208 A 
ATOM      3  C   UNL     1       6.574  25.609  -1.500  1.00  0.00     0.238 A 
ATOM      4  O   UNL     1       5.637  25.428  -2.324  1.00  0.00    -0.285 OA
ATOM      5  C   UNL     1       7.010  24.566  -0.657  1.00  0.00     0.111 A 
ATOM      6  C   UNL     1       6.440  23.270  -0.672  1.00  0.00     0.134 A 
ATOM      7  C   UNL     1       6.935  22.283   0.192  1.00  0.00     0.093 A 
ATOM      8  C   UNL     1       7.990  22.565   1.068  1.00  0.00     0.123 A 
ATOM      9  C   UNL     1       8.554  23.842   1.087  1.00  0.00     0.094 A 
ATOM     10  C   UNL     1       8.073  24.840   0.235  1.00  0.00     0.146 A 
ATOM     11  O   UNL     1       8.626  26.048   0.277  1.00  0.00    -0.452 OA
ENDROOT
BRANCH   1  12
ATOM     12  C   UNL     1       8.922  28.360  -0.340  1.00  0.00     0.029 A 
ATOM     13  C   UNL     1       8.256  29.428   0.278  1.00  0.00     0.062 A 
ATOM     14  C   UNL     1       8.881  30.676   0.414  1.00  0.00     0.162 A 
ATOM     15  C   UNL     1      10.213  28.566  -0.858  1.00  0.00     0.062 A 
ATOM     16  C   UNL     1      10.175  30.869  -0.085  1.00  0.00     0.200 A 
ATOM     17  C   UNL     1      10.842  29.811  -0.727  1.00  0.00     0.162 A 
BRANCH  14  18
ATOM     18  O   UNL     1       8.220  31.729   1.043  1.00  0.00    -0.504 OA
ATOM     19  H   UNL     1       8.366  31.937   2.024  1.00  0.00     0.293 HD
ENDBRANCH  14  18
BRANCH  16  20
ATOM     20  O   UNL     1      10.782  32.116   0.060  1.00  0.00    -0.502 OA
ATOM     21  H   UNL     1      10.896  32.559   0.964  1.00  0.00     0.293 HD
ENDBRANCH  16  20
BRANCH  17  22
ATOM     22  O   UNL     1      12.125  30.004  -1.239  1.00  0.00    -0.504 OA
ATOM     23  H   UNL     1      12.930  29.530  -0.846  1.00  0.00     0.293 HD
ENDBRANCH  17  22
ENDBRANCH   1  12
BRANCH   2  24
ATOM     24  O   UNL     1       6.816  27.902  -2.282  1.00  0.00    -0.502 OA
ATOM     25  H   UNL     1       6.815  28.873  -1.993  1.00  0.00     0.293 HD
ENDBRANCH   2  24
BRANCH   6  26
ATOM     26  O   UNL     1       5.388  22.957  -1.535  1.00  0.00    -0.507 OA
ATOM     27  H   UNL     1       4.486  23.415  -1.465  1.00  0.00     0.293 HD
ENDBRANCH   6  26
BRANCH   8  28
ATOM     28  O   UNL     1       8.483  21.584   1.926  1.00  0.00    -0.508 OA
ATOM     29  H   UNL     1       8.264  20.604   1.791  1.00  0.00     0.293 HD
ENDBRANCH   8  28
TORSDOF 7
ENDMDL
MODEL 5
REMARK VINA RESULT:    -4.962      2.443      3.667
REMARK INTER + INTRA:          -5.866
REMARK INTER:                  -5.508
REMARK INTRA:                  -0.358
REMARK UNBOUND:                 0.256
REMARK SMILES O=c1c(O)c(-c2cc(O)c(O)c(O)c2)oc2cc(O)cc(O)c12
REMARK SMILES IDX 5 1 3 2 2 3 1 4 23 5 21 6 20 7 18 8 17 9 16 10 15 11 6 12
REMARK SMILES IDX 7 13 8 14 14 15 10 16 12 17 9 18 11 20 13 22 4 24 22 26
REMARK SMILES IDX 19 28
REMARK H PARENT 9 19 11 21 13 23 4 25 22 27 19 29
REMARK Flexibility Score: inf
ROOT
ATOM      1  C   UNL     1       8.598  27.090  -0.212  1.00  0.00     0.180 A 
ATOM      2  C   UNL     1       9.011  26.163   0.766  1.00  0.00     0.208 A 
ATOM      3  C   UNL     1       8.390  24.905   0.812  1.00  0.00     0.238 A 
ATOM      4  O   UNL     1       8.759  24.063   1.675  1.00  0.00    -0.285 OA
ATOM      5  C   UNL     1       7.359  24.603  -0.100  1.00  0.00     0.111 A 
ATOM      6  C   UNL     1       6.680  23.361  -0.117  1.00  0.00     0.134 A 
ATOM      7  C   UNL     1       5.658  23.139  -1.052  1.00  0.00     0.093 A 
ATOM      8  C   UNL     1       5.301  24.136  -1.967  1.00  0.00     0.123 A 
ATOM      9  C   UNL     1       5.968  25.362  -1.955  1.00  0.00     0.094 A 
ATOM     10  C   UNL     1       6.991  25.601  -1.033  1.00  0.00     0.146 A 
ATOM     11  O   UNL     1       7.612  26.776  -1.046  1.00  0.00    -0.452 OA
ENDROOT
BRANCH   1  12
ATOM     12  C   UNL     1       9.216  28.430  -0.336  1.00  0.00     0.029 A 
ATOM     13  C   UNL     1      10.367  28.589  -1.122  1.00  0.00     0.062 A 
ATOM     14  C   UNL     1      10.984  29.843  -1.238  1.00  0.00     0.162 A 
ATOM     15  C   UNL     1       8.708  29.537   0.365  1.00  0.00     0.062 A 
ATOM     16  C   UNL     1      10.460  30.947  -0.554  1.00  0.00     0.200 A 
ATOM     17  C   UNL     1       9.320  30.793   0.254  1.00  0.00     0.162 A 
BRANCH  14  18
ATOM     18  O   UNL     1      12.118  29.998  -2.033  1.00  0.00    -0.504 OA
ATOM     19  H   UNL     1      12.700  30.825  -1.971  1.00  0.00     0.293 HD
ENDBRANCH  14  18
BRANCH  16  20
ATOM     20  O   UNL     1      11.085  32.188  -0.683  1.00  0.00    -0.502 OA
ATOM     21  H   UNL     1      11.601  32.447  -1.515  1.00  0.00     0.293 HD
ENDBRANCH  16  20
BRANCH  17  22
ATOM     22  O   UNL     1       8.805  31.887   0.949  1.00  0.00    -0.504 OA
ATOM     23  H   UNL     1       8.776  31.907   1.961  1.00  0.00     0.293 HD
ENDBRANCH  17  22
ENDBRANCH   1  12
BRANCH   2  24
ATOM     24  O   UNL     1      10.001  26.506   1.689  1.00  0.00    -0.502 OA
ATOM     25  H   UNL     1      10.224  27.469   1.913  1.00  0.00     0.293 HD
ENDBRANCH   2  24
BRANCH   6  26
ATOM     26  O   UNL     1       7.013  22.347   0.784  1.00  0.00    -0.507 OA
ATOM     27  H   UNL     1       6.769  22.405   1.765  1.00  0.00     0.293 HD
ENDBRANCH   6  26
BRANCH   8  28
ATOM     28  O   UNL     1       4.285  23.917  -2.896  1.00  0.00    -0.508 OA
ATOM     29  H   UNL     1       4.477  23.510  -3.804  1.00  0.00     0.293 HD
ENDBRANCH   8  28
TORSDOF 7
ENDMDL
MODEL 6
REMARK VINA RESULT:    -4.888      1.541      7.194
REMARK INTER + INTRA:          -5.774
REMARK INTER:                  -5.875
REMARK INTRA:                   0.101
REMARK UNBOUND:                 0.256
REMARK SMILES O=c1c(O)c(-c2cc(O)c(O)c(O)c2)oc2cc(O)cc(O)c12
REMARK SMILES IDX 5 1 3 2 2 3 1 4 23 5 21 6 20 7 18 8 17 9 16 10 15 11 6 12
REMARK SMILES IDX 7 13 8 14 14 15 10 16 12 17 9 18 11 20 13 22 4 24 22 26
REMARK SMILES IDX 19 28
REMARK H PARENT 9 19 11 21 13 23 4 25 22 27 19 29
REMARK Flexibility Score: inf
ROOT
ATOM      1  C   UNL     1       9.358  26.823  -0.034  1.00  0.00     0.180 A 
ATOM      2  C   UNL     1       8.706  27.601   0.943  1.00  0.00     0.208 A 
ATOM      3  C   UNL     1       8.849  28.997   0.905  1.00  0.00     0.238 A 
ATOM      4  O   UNL     1       8.260  29.704   1.767  1.00  0.00    -0.285 OA
ATOM      5  C   UNL     1       9.654  29.587  -0.090  1.00  0.00     0.111 A 
ATOM      6  C   UNL     1       9.853  30.985  -0.196  1.00  0.00     0.134 A 
ATOM      7  C   UNL     1      10.677  31.496  -1.210  1.00  0.00     0.093 A 
ATOM      8  C   UNL     1      11.306  30.636  -2.117  1.00  0.00     0.123 A 
ATOM      9  C   UNL     1      11.111  29.258  -2.018  1.00  0.00     0.094 A 
ATOM     10  C   UNL     1      10.293  28.729  -1.016  1.00  0.00     0.146 A 
ATOM     11  O   UNL     1      10.122  27.414  -0.948  1.00  0.00    -0.452 OA
ENDROOT
BRANCH   1  12
ATOM     12  C   UNL     1       9.241  25.347  -0.071  1.00  0.00     0.029 A 
ATOM     13  C   UNL     1       7.994  24.748   0.157  1.00  0.00     0.062 A 
ATOM     14  C   UNL     1       7.861  23.352   0.148  1.00  0.00     0.162 A 
ATOM     15  C   UNL     1      10.368  24.529  -0.271  1.00  0.00     0.062 A 
ATOM     16  C   UNL     1       8.983  22.543  -0.073  1.00  0.00     0.200 A 
ATOM     17  C   UNL     1      10.241  23.134  -0.279  1.00  0.00     0.162 A 
BRANCH  14  18
ATOM     18  O   UNL     1       6.616  22.762   0.360  1.00  0.00    -0.504 OA
ATOM     19  H   UNL     1       6.224  22.669   1.289  1.00  0.00     0.293 HD
ENDBRANCH  14  18
BRANCH  16  20
ATOM     20  O   UNL     1       8.832  21.156  -0.080  1.00  0.00    -0.502 OA
ATOM     21  H   UNL     1       9.164  20.574   0.679  1.00  0.00     0.293 HD
ENDBRANCH  16  20
BRANCH  17  22
ATOM     22  O   UNL     1      11.363  22.331  -0.485  1.00  0.00    -0.504 OA
ATOM     23  H   UNL     1      12.293  22.645  -0.233  1.00  0.00     0.293 HD
ENDBRANCH  17  22
ENDBRANCH   1  12
BRANCH   2  24
ATOM     24  O   UNL     1       7.954  26.987   1.947  1.00  0.00    -0.502 OA
ATOM     25  H   UNL     1       7.693  27.467   2.801  1.00  0.00     0.293 HD
ENDBRANCH   2  24
BRANCH   6  26
ATOM     26  O   UNL     1       9.241  31.868   0.696  1.00  0.00    -0.507 OA
ATOM     27  H   UNL     1       8.248  31.819   0.897  1.00  0.00     0.293 HD
ENDBRANCH   6  26
BRANCH   8  28
ATOM     28  O   UNL     1      12.125  31.143  -3.125  1.00  0.00    -0.508 OA
ATOM     29  H   UNL     1      12.735  30.540  -3.664  1.00  0.00     0.293 HD
ENDBRANCH   8  28
TORSDOF 7
ENDMDL
MODEL 7
REMARK VINA RESULT:    -4.749      1.297      2.783
REMARK INTER + INTRA:          -5.604
REMARK INTER:                  -6.003
REMARK INTRA:                   0.399
REMARK UNBOUND:                 0.256
REMARK SMILES O=c1c(O)c(-c2cc(O)c(O)c(O)c2)oc2cc(O)cc(O)c12
REMARK SMILES IDX 5 1 3 2 2 3 1 4 23 5 21 6 20 7 18 8 17 9 16 10 15 11 6 12
REMARK SMILES IDX 7 13 8 14 14 15 10 16 12 17 9 18 11 20 13 22 4 24 22 26
REMARK SMILES IDX 19 28
REMARK H PARENT 9 19 11 21 13 23 4 25 22 27 19 29
REMARK Flexibility Score: inf
ROOT
ATOM      1  C   UNL     1       9.397  26.535   0.132  1.00  0.00     0.180 A 
ATOM      2  C   UNL     1       8.517  25.732   0.885  1.00  0.00     0.208 A 
ATOM      3  C   UNL     1       8.543  24.341   0.702  1.00  0.00     0.238 A 
ATOM      4  O   UNL     1       7.769  23.611   1.378  1.00  0.00    -0.285 OA
ATOM      5  C   UNL     1       9.429  23.779  -0.241  1.00  0.00     0.111 A 
ATOM      6  C   UNL     1       9.514  22.388  -0.489  1.00  0.00     0.134 A 
ATOM      7  C   UNL     1      10.415  21.907  -1.450  1.00  0.00     0.093 A 
ATOM      8  C   UNL     1      11.230  22.790  -2.169  1.00  0.00     0.123 A 
ATOM      9  C   UNL     1      11.149  24.162  -1.927  1.00  0.00     0.094 A 
ATOM     10  C   UNL     1      10.259  24.661  -0.972  1.00  0.00     0.146 A 
ATOM     11  O   UNL     1      10.207  25.971  -0.759  1.00  0.00    -0.452 OA
ENDROOT
BRANCH   1  12
ATOM     12  C   UNL     1       9.441  28.008   0.282  1.00  0.00     0.029 A 
ATOM     13  C   UNL     1       8.332  28.681   0.813  1.00  0.00     0.062 A 
ATOM     14  C   UNL     1       8.340  30.077   0.945  1.00  0.00     0.162 A 
ATOM     15  C   UNL     1      10.551  28.754  -0.153  1.00  0.00     0.062 A 
ATOM     16  C   UNL     1       9.457  30.812   0.531  1.00  0.00     0.200 A 
ATOM     17  C   UNL     1      10.565  30.149  -0.025  1.00  0.00     0.162 A 
BRANCH  14  18
ATOM     18  O   UNL     1       7.241  30.739   1.489  1.00  0.00    -0.504 OA
ATOM     19  H   UNL     1       6.302  30.582   1.142  1.00  0.00     0.293 HD
ENDBRANCH  14  18
BRANCH  16  20
ATOM     20  O   UNL     1       9.449  32.200   0.671  1.00  0.00    -0.502 OA
ATOM     21  H   UNL     1       9.951  32.670   1.416  1.00  0.00     0.293 HD
ENDBRANCH  16  20
BRANCH  17  22
ATOM     22  O   UNL     1      11.672  30.879  -0.454  1.00  0.00    -0.504 OA
ATOM     23  H   UNL     1      12.374  31.212   0.197  1.00  0.00     0.293 HD
ENDBRANCH  17  22
ENDBRANCH   1  12
BRANCH   2  24
ATOM     24  O   UNL     1       7.616  26.319   1.776  1.00  0.00    -0.502 OA
ATOM     25  H   UNL     1       6.771  25.849   2.081  1.00  0.00     0.293 HD
ENDBRANCH   2  24
BRANCH   6  26
ATOM     26  O   UNL     1       8.715  21.483   0.210  1.00  0.00    -0.507 OA
ATOM     27  H   UNL     1       7.711  21.442   0.074  1.00  0.00     0.293 HD
ENDBRANCH   6  26
BRANCH   8  28
ATOM     28  O   UNL     1      12.125  22.313  -3.125  1.00  0.00    -0.508 OA
ATOM     29  H   UNL     1      13.021  21.921  -2.861  1.00  0.00     0.293 HD
ENDBRANCH   8  28
TORSDOF 7
ENDMDL
