MODEL 1
REMARK VINA RESULT:    -6.305      0.000      0.000
REMARK INTER + INTRA:          -7.201
REMARK INTER:                  -6.858
REMARK INTRA:                  -0.343
REMARK UNBOUND:                -0.343
REMARK SMILES C=C1C[C@@]2(O)O[C@@]3(C[C@H]2C(C)C)[C@@H](C)CC[C@@H]13
REMARK SMILES IDX 14 1 13 2 15 3 16 4 17 5 7 6 8 7 9 8 4 9 6 10 3 11 2 12 1 13
REMARK SMILES IDX 10 14 11 15 12 16 5 17
REMARK H PARENT 5 18
REMARK Flexibility Score: inf
ROOT
ATOM      1  C   UNL     1      32.790  -5.459  -2.705  1.00  0.00     0.011 C 
ATOM      2  C   UNL     1      33.846  -4.524  -2.098  1.00  0.00     0.019 C 
ATOM      3  C   UNL     1      34.992  -5.295  -1.426  1.00  0.00     0.007 C 
ATOM      4  C   UNL     1      36.289  -4.553  -1.758  1.00  0.00     0.011 C 
ATOM      5  C   UNL     1      35.884  -3.269  -2.480  1.00  0.00     0.047 C 
ATOM      6  C   UNL     1      34.522  -3.600  -3.122  1.00  0.00     0.081 C 
ATOM      7  C   UNL     1      33.721  -2.334  -3.448  1.00  0.00     0.046 C 
ATOM      8  C   UNL     1      34.111  -2.067  -4.899  1.00  0.00     0.054 C 
ATOM      9  C   UNL     1      35.098  -3.220  -5.233  1.00  0.00     0.173 C 
ATOM     10  O   UNL     1      34.740  -4.261  -4.353  1.00  0.00    -0.342 OA
ATOM     11  C   UNL     1      36.600  -2.932  -4.993  1.00  0.00     0.096 C 
ATOM     12  C   UNL     1      36.911  -2.826  -3.513  1.00  0.00    -0.066 C 
ATOM     13  C   UNL     1      38.106  -2.366  -3.117  1.00  0.00     0.008 C 
ENDROOT
BRANCH   8  14
ATOM     14  C   UNL     1      34.456  -0.579  -5.232  1.00  0.00    -0.009 C 
ATOM     15  C   UNL     1      33.906  -0.006  -6.557  1.00  0.00     0.008 C 
ATOM     16  C   UNL     1      34.126   0.352  -4.059  1.00  0.00     0.008 C 
ENDBRANCH   8  14
BRANCH   9  17
ATOM     17  O   UNL     1      34.901  -3.626  -6.564  1.00  0.00    -0.365 OA
ATOM     18  H   UNL     1      34.370  -2.920  -7.017  1.00  0.00     0.214 HD
ENDBRANCH   9  17
TORSDOF 2
ENDMDL
MODEL 2
REMARK VINA RESULT:    -6.024      4.600      7.313
REMARK INTER + INTRA:          -6.895
REMARK INTER:                  -6.542
REMARK INTRA:                  -0.353
REMARK UNBOUND:                -0.343
REMARK SMILES C=C1C[C@@]2(O)O[C@@]3(C[C@H]2C(C)C)[C@@H](C)CC[C@@H]13
REMARK SMILES IDX 14 1 13 2 15 3 16 4 17 5 7 6 8 7 9 8 4 9 6 10 3 11 2 12 1 13
REMARK SMILES IDX 10 14 11 15 12 16 5 17
REMARK H PARENT 5 18
REMARK Flexibility Score: inf
ROOT
ATOM      1  C   UNL     1      38.713   3.758  -2.954  1.00  0.00     0.011 C 
ATOM      2  C   UNL     1      37.425   3.598  -2.133  1.00  0.00     0.019 C 
ATOM      3  C   UNL     1      37.091   4.856  -1.318  1.00  0.00     0.007 C 
ATOM      4  C   UNL     1      35.574   5.049  -1.391  1.00  0.00     0.011 C 
ATOM      5  C   UNL     1      35.013   3.821  -2.105  1.00  0.00     0.047 C 
ATOM      6  C   UNL     1      36.176   3.318  -2.982  1.00  0.00     0.081 C 
ATOM      7  C   UNL     1      36.002   1.846  -3.373  1.00  0.00     0.046 C 
ATOM      8  C   UNL     1      35.298   1.949  -4.723  1.00  0.00     0.054 C 
ATOM      9  C   UNL     1      35.150   3.480  -4.944  1.00  0.00     0.173 C 
ATOM     10  O   UNL     1      36.196   4.051  -4.190  1.00  0.00    -0.342 OA
ATOM     11  C   UNL     1      33.835   4.126  -4.442  1.00  0.00     0.096 C 
ATOM     12  C   UNL     1      33.771   4.137  -2.928  1.00  0.00    -0.066 C 
ATOM     13  C   UNL     1      32.622   4.452  -2.315  1.00  0.00     0.008 C 
ENDROOT
BRANCH   8  14
ATOM     14  C   UNL     1      34.087   0.979  -4.919  1.00  0.00    -0.009 C 
ATOM     15  C   UNL     1      34.018   0.195  -6.247  1.00  0.00     0.008 C 
ATOM     16  C   UNL     1      33.923   0.035  -3.721  1.00  0.00     0.008 C 
ENDBRANCH   8  14
BRANCH   9  17
ATOM     17  O   UNL     1      35.328   3.770  -6.309  1.00  0.00    -0.365 OA
ATOM     18  H   UNL     1      34.580   4.360  -6.589  1.00  0.00     0.214 HD
ENDBRANCH   9  17
TORSDOF 2
ENDMDL
MODEL 3
REMARK VINA RESULT:    -5.915      1.362      4.148
REMARK INTER + INTRA:          -6.776
REMARK INTER:                  -6.421
REMARK INTRA:                  -0.355
REMARK UNBOUND:                -0.343
REMARK SMILES C=C1C[C@@]2(O)O[C@@]3(C[C@H]2C(C)C)[C@@H](C)CC[C@@H]13
REMARK SMILES IDX 14 1 13 2 15 3 16 4 17 5 7 6 8 7 9 8 4 9 6 10 3 11 2 12 1 13
REMARK SMILES IDX 10 14 11 15 12 16 5 17
REMARK H PARENT 5 18
REMARK Flexibility Score: inf
ROOT
ATOM      1  C   UNL     1      38.656  -2.904  -3.920  1.00  0.00     0.011 C 
ATOM      2  C   UNL     1      37.492  -2.148  -3.263  1.00  0.00     0.019 C 
ATOM      3  C   UNL     1      37.596  -0.629  -3.461  1.00  0.00     0.007 C 
ATOM      4  C   UNL     1      36.180  -0.111  -3.729  1.00  0.00     0.011 C 
ATOM      5  C   UNL     1      35.238  -1.297  -3.526  1.00  0.00     0.047 C 
ATOM      6  C   UNL     1      36.109  -2.537  -3.809  1.00  0.00     0.081 C 
ATOM      7  C   UNL     1      35.521  -3.805  -3.180  1.00  0.00     0.046 C 
ATOM      8  C   UNL     1      34.690  -4.380  -4.322  1.00  0.00     0.054 C 
ATOM      9  C   UNL     1      34.901  -3.363  -5.479  1.00  0.00     0.173 C 
ATOM     10  O   UNL     1      36.148  -2.765  -5.204  1.00  0.00    -0.342 OA
ATOM     11  C   UNL     1      33.870  -2.213  -5.583  1.00  0.00     0.096 C 
ATOM     12  C   UNL     1      34.015  -1.238  -4.431  1.00  0.00    -0.066 C 
ATOM     13  C   UNL     1      33.075  -0.305  -4.230  1.00  0.00     0.008 C 
ENDROOT
BRANCH   8  14
ATOM     14  C   UNL     1      33.260  -4.872  -3.924  1.00  0.00    -0.009 C 
ATOM     15  C   UNL     1      32.823  -6.262  -4.436  1.00  0.00     0.008 C 
ATOM     16  C   UNL     1      33.023  -4.749  -2.414  1.00  0.00     0.008 C 
ENDBRANCH   8  14
BRANCH   9  17
ATOM     17  O   UNL     1      34.960  -4.057  -6.700  1.00  0.00    -0.365 OA
ATOM     18  H   UNL     1      35.147  -3.392  -7.414  1.00  0.00     0.214 HD
ENDBRANCH   9  17
TORSDOF 2
ENDMDL
MODEL 4
REMARK VINA RESULT:    -5.779      5.288      7.809
REMARK INTER + INTRA:          -6.628
REMARK INTER:                  -6.358
REMARK INTRA:                  -0.270
REMARK UNBOUND:                -0.343
REMARK SMILES C=C1C[C@@]2(O)O[C@@]3(C[C@H]2C(C)C)[C@@H](C)CC[C@@H]13
REMARK SMILES IDX 14 1 13 2 15 3 16 4 17 5 7 6 8 7 9 8 4 9 6 10 3 11 2 12 1 13
REMARK SMILES IDX 10 14 11 15 12 16 5 17
REMARK H PARENT 5 18
REMARK Flexibility Score: inf
ROOT
ATOM      1  C   UNL     1      34.761   0.346  -3.375  1.00  0.00     0.011 C 
ATOM      2  C   UNL     1      35.356   1.347  -4.377  1.00  0.00     0.019 C 
ATOM      3  C   UNL     1      34.376   1.696  -5.506  1.00  0.00     0.007 C 
ATOM      4  C   UNL     1      34.523   3.195  -5.782  1.00  0.00     0.011 C 
ATOM      5  C   UNL     1      35.697   3.680  -4.933  1.00  0.00     0.047 C 
ATOM      6  C   UNL     1      35.755   2.692  -3.752  1.00  0.00     0.081 C 
ATOM      7  C   UNL     1      37.132   2.686  -3.078  1.00  0.00     0.046 C 
ATOM      8  C   UNL     1      36.949   3.702  -1.955  1.00  0.00     0.054 C 
ATOM      9  C   UNL     1      35.478   4.174  -2.121  1.00  0.00     0.173 C 
ATOM     10  O   UNL     1      34.830   3.098  -2.763  1.00  0.00    -0.342 OA
ATOM     11  C   UNL     1      35.251   5.423  -3.008  1.00  0.00     0.096 C 
ATOM     12  C   UNL     1      35.529   5.120  -4.467  1.00  0.00    -0.066 C 
ATOM     13  C   UNL     1      35.600   6.125  -5.351  1.00  0.00     0.008 C 
ENDROOT
BRANCH   8  14
ATOM     14  C   UNL     1      38.118   4.728  -1.788  1.00  0.00    -0.009 C 
ATOM     15  C   UNL     1      38.216   5.473  -0.438  1.00  0.00     0.008 C 
ATOM     16  C   UNL     1      39.469   4.108  -2.166  1.00  0.00     0.008 C 
ENDBRANCH   8  14
BRANCH   9  17
ATOM     17  O   UNL     1      34.914   4.386  -0.851  1.00  0.00    -0.365 OA
ATOM     18  H   UNL     1      34.881   3.508  -0.388  1.00  0.00     0.214 HD
ENDBRANCH   9  17
TORSDOF 2
ENDMDL
MODEL 5
REMARK VINA RESULT:    -5.750      1.637      4.503
REMARK INTER + INTRA:          -6.597
REMARK INTER:                  -6.214
REMARK INTRA:                  -0.383
REMARK UNBOUND:                -0.343
REMARK SMILES C=C1C[C@@]2(O)O[C@@]3(C[C@H]2C(C)C)[C@@H](C)CC[C@@H]13
REMARK SMILES IDX 14 1 13 2 15 3 16 4 17 5 7 6 8 7 9 8 4 9 6 10 3 11 2 12 1 13
REMARK SMILES IDX 10 14 11 15 12 16 5 17
REMARK H PARENT 5 18
REMARK Flexibility Score: inf
ROOT
ATOM      1  C   UNL     1      33.621  -1.286  -5.479  1.00  0.00     0.011 C 
ATOM      2  C   UNL     1      34.768  -2.306  -5.445  1.00  0.00     0.019 C 
ATOM      3  C   UNL     1      36.126  -1.649  -5.157  1.00  0.00     0.007 C 
ATOM      4  C   UNL     1      36.889  -2.586  -4.217  1.00  0.00     0.011 C 
ATOM      5  C   UNL     1      36.048  -3.854  -4.090  1.00  0.00     0.047 C 
ATOM      6  C   UNL     1      34.605  -3.392  -4.371  1.00  0.00     0.081 C 
ATOM      7  C   UNL     1      33.702  -4.557  -4.790  1.00  0.00     0.046 C 
ATOM      8  C   UNL     1      33.088  -4.988  -3.462  1.00  0.00     0.054 C 
ATOM      9  C   UNL     1      33.720  -4.012  -2.431  1.00  0.00     0.173 C 
ATOM     10  O   UNL     1      34.048  -2.865  -3.182  1.00  0.00    -0.342 OA
ATOM     11  C   UNL     1      35.025  -4.483  -1.744  1.00  0.00     0.096 C 
ATOM     12  C   UNL     1      36.182  -4.514  -2.724  1.00  0.00    -0.066 C 
ATOM     13  C   UNL     1      37.334  -5.101  -2.371  1.00  0.00     0.008 C 
ENDROOT
BRANCH   8  14
ATOM     14  C   UNL     1      33.063  -6.532  -3.209  1.00  0.00    -0.009 C 
ATOM     15  C   UNL     1      31.695  -7.241  -3.310  1.00  0.00     0.008 C 
ATOM     16  C   UNL     1      34.116  -7.258  -4.057  1.00  0.00     0.008 C 
ENDBRANCH   8  14
BRANCH   9  17
ATOM     17  O   UNL     1      32.762  -3.688  -1.454  1.00  0.00    -0.365 OA
ATOM     18  H   UNL     1      33.142  -2.962  -0.891  1.00  0.00     0.214 HD
ENDBRANCH   9  17
TORSDOF 2
ENDMDL
MODEL 6
REMARK VINA RESULT:    -5.591      6.946      9.083
REMARK INTER + INTRA:          -6.424
REMARK INTER:                  -6.276
REMARK INTRA:                  -0.148
REMARK UNBOUND:                -0.343
REMARK SMILES C=C1C[C@@]2(O)O[C@@]3(C[C@H]2C(C)C)[C@@H](C)CC[C@@H]13
REMARK SMILES IDX 14 1 13 2 15 3 16 4 17 5 7 6 8 7 9 8 4 9 6 10 3 11 2 12 1 13
REMARK SMILES IDX 10 14 11 15 12 16 5 17
REMARK H PARENT 5 18
REMARK Flexibility Score: inf
ROOT
ATOM      1  C   UNL     1      38.761   0.560  -2.556  1.00  0.00     0.011 C 
ATOM      2  C   UNL     1      38.254   1.917  -3.066  1.00  0.00     0.019 C 
ATOM      3  C   UNL     1      36.744   1.910  -3.341  1.00  0.00     0.007 C 
ATOM      4  C   UNL     1      36.193   3.257  -2.865  1.00  0.00     0.011 C 
ATOM      5  C   UNL     1      37.400   4.104  -2.466  1.00  0.00     0.047 C 
ATOM      6  C   UNL     1      38.485   3.077  -2.086  1.00  0.00     0.081 C 
ATOM      7  C   UNL     1      39.892   3.681  -2.150  1.00  0.00     0.046 C 
ATOM      8  C   UNL     1      40.114   4.144  -0.714  1.00  0.00     0.054 C 
ATOM      9  C   UNL     1      38.796   3.748   0.008  1.00  0.00     0.173 C 
ATOM     10  O   UNL     1      38.287   2.670  -0.746  1.00  0.00    -0.342 OA
ATOM     11  C   UNL     1      37.684   4.824   0.052  1.00  0.00     0.096 C 
ATOM     12  C   UNL     1      37.094   5.063  -1.324  1.00  0.00    -0.066 C 
ATOM     13  C   UNL     1      36.278   6.107  -1.524  1.00  0.00     0.008 C 
ENDROOT
BRANCH   8  14
ATOM     14  C   UNL     1      40.725   5.575  -0.561  1.00  0.00    -0.009 C 
ATOM     15  C   UNL     1      40.889   6.124   0.873  1.00  0.00     0.008 C 
ATOM     16  C   UNL     1      42.033   5.715  -1.350  1.00  0.00     0.008 C 
ENDBRANCH   8  14
BRANCH   9  17
ATOM     17  O   UNL     1      39.093   3.321   1.315  1.00  0.00    -0.365 OA
ATOM     18  H   UNL     1      39.078   4.123   1.901  1.00  0.00     0.214 HD
ENDBRANCH   9  17
TORSDOF 2
ENDMDL
MODEL 7
REMARK VINA RESULT:    -5.525      9.368     11.703
REMARK INTER + INTRA:          -6.352
REMARK INTER:                  -5.995
REMARK INTRA:                  -0.357
REMARK UNBOUND:                -0.343
REMARK SMILES C=C1C[C@@]2(O)O[C@@]3(C[C@H]2C(C)C)[C@@H](C)CC[C@@H]13
REMARK SMILES IDX 14 1 13 2 15 3 16 4 17 5 7 6 8 7 9 8 4 9 6 10 3 11 2 12 1 13
REMARK SMILES IDX 10 14 11 15 12 16 5 17
REMARK H PARENT 5 18
REMARK Flexibility Score: inf
ROOT
ATOM      1  C   UNL     1      41.626  -0.049   5.782  1.00  0.00     0.011 C 
ATOM      2  C   UNL     1      40.513  -1.075   6.037  1.00  0.00     0.019 C 
ATOM      3  C   UNL     1      39.179  -0.662   5.399  1.00  0.00     0.007 C 
ATOM      4  C   UNL     1      38.542  -1.930   4.824  1.00  0.00     0.011 C 
ATOM      5  C   UNL     1      39.421  -3.098   5.269  1.00  0.00     0.047 C 
ATOM      6  C   UNL     1      40.815  -2.475   5.480  1.00  0.00     0.081 C 
ATOM      7  C   UNL     1      41.695  -3.336   6.394  1.00  0.00     0.046 C 
ATOM      8  C   UNL     1      42.456  -4.199   5.393  1.00  0.00     0.054 C 
ATOM      9  C   UNL     1      41.916  -3.727   4.014  1.00  0.00     0.173 C 
ATOM     10  O   UNL     1      41.483  -2.404   4.236  1.00  0.00    -0.342 OA
ATOM     11  C   UNL     1      40.703  -4.503   3.446  1.00  0.00     0.096 C 
ATOM     12  C   UNL     1      39.449  -4.232   4.254  1.00  0.00    -0.066 C 
ATOM     13  C   UNL     1      38.355  -4.979   4.051  1.00  0.00     0.008 C 
ENDROOT
BRANCH   8  14
ATOM     14  C   UNL     1      42.543  -5.718   5.754  1.00  0.00    -0.009 C 
ATOM     15  C   UNL     1      43.887  -6.235   6.313  1.00  0.00     0.008 C 
ATOM     16  C   UNL     1      41.378  -6.151   6.652  1.00  0.00     0.008 C 
ENDBRANCH   8  14
BRANCH   9  17
ATOM     17  O   UNL     1      42.966  -3.738   3.078  1.00  0.00    -0.365 OA
ATOM     18  H   UNL     1      43.360  -4.650   3.081  1.00  0.00     0.214 HD
ENDBRANCH   9  17
TORSDOF 2
ENDMDL
MODEL 8
REMARK VINA RESULT:    -5.337      1.888      5.247
REMARK INTER + INTRA:          -6.147
REMARK INTER:                  -5.760
REMARK INTRA:                  -0.387
REMARK UNBOUND:                -0.343
REMARK SMILES C=C1C[C@@]2(O)O[C@@]3(C[C@H]2C(C)C)[C@@H](C)CC[C@@H]13
REMARK SMILES IDX 14 1 13 2 15 3 16 4 17 5 7 6 8 7 9 8 4 9 6 10 3 11 2 12 1 13
REMARK SMILES IDX 10 14 11 15 12 16 5 17
REMARK H PARENT 5 18
REMARK Flexibility Score: inf
ROOT
ATOM      1  C   UNL     1      36.662  -1.983  -4.229  1.00  0.00     0.011 C 
ATOM      2  C   UNL     1      35.299  -2.553  -3.807  1.00  0.00     0.019 C 
ATOM      3  C   UNL     1      34.282  -2.546  -4.956  1.00  0.00     0.007 C 
ATOM      4  C   UNL     1      33.489  -3.853  -4.864  1.00  0.00     0.011 C 
ATOM      5  C   UNL     1      33.931  -4.539  -3.573  1.00  0.00     0.047 C 
ATOM      6  C   UNL     1      35.357  -4.009  -3.321  1.00  0.00     0.081 C 
ATOM      7  C   UNL     1      35.774  -4.164  -1.854  1.00  0.00     0.046 C 
ATOM      8  C   UNL     1      36.494  -5.509  -1.862  1.00  0.00     0.054 C 
ATOM      9  C   UNL     1      36.401  -5.968  -3.343  1.00  0.00     0.173 C 
ATOM     10  O   UNL     1      36.274  -4.772  -4.079  1.00  0.00    -0.342 OA
ATOM     11  C   UNL     1      35.186  -6.852  -3.716  1.00  0.00     0.096 C 
ATOM     12  C   UNL     1      33.894  -6.058  -3.672  1.00  0.00    -0.066 C 
ATOM     13  C   UNL     1      32.720  -6.698  -3.749  1.00  0.00     0.008 C 
ENDROOT
BRANCH   8  14
ATOM     14  C   UNL     1      36.120  -6.472  -0.687  1.00  0.00    -0.009 C 
ATOM     15  C   UNL     1      37.177  -6.679   0.420  1.00  0.00     0.008 C 
ATOM     16  C   UNL     1      34.758  -6.113  -0.079  1.00  0.00     0.008 C 
ENDBRANCH   8  14
BRANCH   9  17
ATOM     17  O   UNL     1      37.592  -6.627  -3.699  1.00  0.00    -0.365 OA
ATOM     18  H   UNL     1      38.276  -5.931  -3.881  1.00  0.00     0.214 HD
ENDBRANCH   9  17
TORSDOF 2
ENDMDL
MODEL 9
REMARK VINA RESULT:    -5.256      1.970      3.823
REMARK INTER + INTRA:          -6.059
REMARK INTER:                  -5.664
REMARK INTRA:                  -0.395
REMARK UNBOUND:                -0.343
REMARK SMILES C=C1C[C@@]2(O)O[C@@]3(C[C@H]2C(C)C)[C@@H](C)CC[C@@H]13
REMARK SMILES IDX 14 1 13 2 15 3 16 4 17 5 7 6 8 7 9 8 4 9 6 10 3 11 2 12 1 13
REMARK SMILES IDX 10 14 11 15 12 16 5 17
REMARK H PARENT 5 18
REMARK Flexibility Score: inf
ROOT
ATOM      1  C   UNL     1      37.622  -3.998  -0.379  1.00  0.00     0.011 C 
ATOM      2  C   UNL     1      37.494  -4.952  -1.575  1.00  0.00     0.019 C 
ATOM      3  C   UNL     1      37.589  -6.427  -1.159  1.00  0.00     0.007 C 
ATOM      4  C   UNL     1      36.561  -7.198  -1.991  1.00  0.00     0.011 C 
ATOM      5  C   UNL     1      35.987  -6.205  -3.000  1.00  0.00     0.047 C 
ATOM      6  C   UNL     1      36.162  -4.827  -2.331  1.00  0.00     0.081 C 
ATOM      7  C   UNL     1      36.128  -3.686  -3.354  1.00  0.00     0.046 C 
ATOM      8  C   UNL     1      34.658  -3.280  -3.338  1.00  0.00     0.054 C 
ATOM      9  C   UNL     1      34.020  -4.245  -2.301  1.00  0.00     0.173 C 
ATOM     10  O   UNL     1      35.083  -4.602  -1.447  1.00  0.00    -0.342 OA
ATOM     11  C   UNL     1      33.435  -5.566  -2.858  1.00  0.00     0.096 C 
ATOM     12  C   UNL     1      34.532  -6.493  -3.345  1.00  0.00    -0.066 C 
ATOM     13  C   UNL     1      34.213  -7.582  -4.057  1.00  0.00     0.008 C 
ENDROOT
BRANCH   8  14
ATOM     14  C   UNL     1      34.013  -3.057  -4.746  1.00  0.00    -0.009 C 
ATOM     15  C   UNL     1      33.568  -1.621  -5.100  1.00  0.00     0.008 C 
ATOM     16  C   UNL     1      34.882  -3.648  -5.863  1.00  0.00     0.008 C 
ENDBRANCH   8  14
BRANCH   9  17
ATOM     17  O   UNL     1      33.030  -3.558  -1.576  1.00  0.00    -0.365 OA
ATOM     18  H   UNL     1      33.343  -3.487  -0.636  1.00  0.00     0.214 HD
ENDBRANCH   9  17
TORSDOF 2
ENDMDL
