MODEL 1
REMARK VINA RESULT:    -6.563      0.000      0.000
REMARK INTER + INTRA:         -11.083
REMARK INTER:                  -9.057
REMARK INTRA:                  -2.026
REMARK UNBOUND:                -2.026
REMARK SMILES CC[C@H](CC[C@H](C)[C@H]1CC[C@H]2[C@H]3CC=C4C[C@H](O)CC[C@@]4(C)[C@H]3CC[C@@]12C)C(C)C
REMARK SMILES IDX 5 1 4 2 3 3 2 4 1 5 28 6 29 7 30 8 6 9 7 10 8 11 9 12 26 13
REMARK SMILES IDX 10 14 11 15 25 16 27 17 12 18 24 19 23 20 13 21 21 22 14 23
REMARK SMILES IDX 15 24 20 25 22 26 16 27 19 28 17 29 18 30
REMARK H PARENT 18 31
REMARK Flexibility Score: inf
ROOT
ATOM      1  C   UNL     1     162.169 174.486 184.868  1.00  0.00     0.004 C 
ENDROOT
BRANCH   1   2
ATOM      2  C   UNL     1     161.259 175.726 185.011  1.00  0.00     0.004 C 
BRANCH   2   3
ATOM      3  C   UNL     1     160.827 176.018 186.478  1.00  0.00    -0.009 C 
BRANCH   3   4
ATOM      4  C   UNL     1     161.113 174.786 187.382  1.00  0.00     0.000 C 
ATOM      5  C   UNL     1     159.883 173.905 187.610  1.00  0.00     0.004 C 
ENDBRANCH   3   4
BRANCH   3   6
ATOM      6  C   UNL     1     161.459 177.334 187.047  1.00  0.00    -0.014 C 
ATOM      7  C   UNL     1     160.394 178.333 187.534  1.00  0.00     0.007 C 
ATOM      8  C   UNL     1     162.500 177.090 188.152  1.00  0.00     0.007 C 
ENDBRANCH   3   6
ENDBRANCH   2   3
ENDBRANCH   1   2
BRANCH   1   9
ATOM      9  C   UNL     1     163.598 174.820 184.356  1.00  0.00    -0.011 C 
ATOM     10  C   UNL     1     164.199 173.611 183.615  1.00  0.00     0.008 C 
BRANCH   9  11
ATOM     11  C   UNL     1     164.462 175.396 185.536  1.00  0.00    -0.002 C 
ATOM     12  C   UNL     1     165.321 174.400 186.323  1.00  0.00     0.005 C 
ATOM     13  C   UNL     1     165.384 176.635 185.330  1.00  0.00    -0.026 C 
ATOM     14  C   UNL     1     166.322 175.261 187.111  1.00  0.00     0.005 C 
ATOM     15  C   UNL     1     166.019 176.728 186.734  1.00  0.00    -0.001 C 
ATOM     16  C   UNL     1     166.493 176.413 184.237  1.00  0.00     0.007 C 
ATOM     17  C   UNL     1     164.539 177.892 185.011  1.00  0.00     0.012 C 
ATOM     18  C   UNL     1     167.179 177.764 186.874  1.00  0.00     0.000 C 
ATOM     19  C   UNL     1     167.932 176.806 184.627  1.00  0.00     0.005 C 
ATOM     20  C   UNL     1     168.001 178.014 185.574  1.00  0.00     0.003 C 
ATOM     21  C   UNL     1     168.071 177.483 188.080  1.00  0.00     0.031 C 
ATOM     22  C   UNL     1     169.480 178.593 185.790  1.00  0.00    -0.008 C 
ATOM     23  C   UNL     1     169.039 178.604 188.261  1.00  0.00    -0.027 C 
ATOM     24  C   UNL     1     169.705 179.126 187.213  1.00  0.00    -0.065 C 
ATOM     25  C   UNL     1     170.608 177.531 185.572  1.00  0.00     0.014 C 
ATOM     26  C   UNL     1     169.660 179.746 184.761  1.00  0.00     0.016 C 
ATOM     27  C   UNL     1     171.036 179.782 187.501  1.00  0.00     0.063 C 
ATOM     28  C   UNL     1     172.033 178.056 185.888  1.00  0.00     0.033 C 
ATOM     29  C   UNL     1     172.136 178.727 187.278  1.00  0.00     0.118 C 
BRANCH  29  30
ATOM     30  O   UNL     1     173.410 179.293 187.462  1.00  0.00    -0.393 OA
ATOM     31  H   UNL     1     174.076 178.560 187.389  1.00  0.00     0.210 HD
ENDBRANCH  29  30
ENDBRANCH   9  11
ENDBRANCH   1   9
TORSDOF 7
ENDMDL
MODEL 2
REMARK VINA RESULT:    -6.552      5.236      8.341
REMARK INTER + INTRA:         -11.067
REMARK INTER:                  -8.764
REMARK INTRA:                  -2.303
REMARK UNBOUND:                -2.026
REMARK SMILES CC[C@H](CC[C@H](C)[C@H]1CC[C@H]2[C@H]3CC=C4C[C@H](O)CC[C@@]4(C)[C@H]3CC[C@@]12C)C(C)C
REMARK SMILES IDX 5 1 4 2 3 3 2 4 1 5 28 6 29 7 30 8 6 9 7 10 8 11 9 12 26 13
REMARK SMILES IDX 10 14 11 15 25 16 27 17 12 18 24 19 23 20 13 21 21 22 14 23
REMARK SMILES IDX 15 24 20 25 22 26 16 27 19 28 17 29 18 30
REMARK H PARENT 18 31
REMARK Flexibility Score: inf
ROOT
ATOM      1  C   UNL     1     162.782 174.872 186.916  1.00  0.00     0.004 C 
ENDROOT
BRANCH   1   2
ATOM      2  C   UNL     1     161.505 175.739 186.953  1.00  0.00     0.004 C 
BRANCH   2   3
ATOM      3  C   UNL     1     161.691 177.096 187.694  1.00  0.00    -0.009 C 
BRANCH   3   4
ATOM      4  C   UNL     1     163.203 177.393 187.904  1.00  0.00     0.000 C 
ATOM      5  C   UNL     1     163.689 178.621 187.130  1.00  0.00     0.004 C 
ENDBRANCH   3   4
BRANCH   3   6
ATOM      6  C   UNL     1     160.943 178.279 186.991  1.00  0.00    -0.014 C 
ATOM      7  C   UNL     1     160.323 177.864 185.645  1.00  0.00     0.007 C 
ATOM      8  C   UNL     1     159.881 178.950 187.878  1.00  0.00     0.007 C 
ENDBRANCH   3   6
ENDBRANCH   2   3
ENDBRANCH   1   2
BRANCH   1   9
ATOM      9  C   UNL     1     163.272 174.550 185.476  1.00  0.00    -0.011 C 
ATOM     10  C   UNL     1     164.770 174.193 185.485  1.00  0.00     0.008 C 
BRANCH   9  11
ATOM     11  C   UNL     1     162.852 175.710 184.502  1.00  0.00    -0.002 C 
ATOM     12  C   UNL     1     163.937 176.720 184.111  1.00  0.00     0.005 C 
ATOM     13  C   UNL     1     162.092 175.415 183.174  1.00  0.00    -0.026 C 
ATOM     14  C   UNL     1     163.377 177.467 182.889  1.00  0.00     0.005 C 
ATOM     15  C   UNL     1     161.991 176.846 182.603  1.00  0.00    -0.001 C 
ATOM     16  C   UNL     1     162.893 174.484 182.191  1.00  0.00     0.007 C 
ATOM     17  C   UNL     1     160.691 174.828 183.472  1.00  0.00     0.012 C 
ATOM     18  C   UNL     1     161.443 176.944 181.145  1.00  0.00     0.000 C 
ATOM     19  C   UNL     1     162.990 174.953 180.726  1.00  0.00     0.005 C 
ATOM     20  C   UNL     1     161.744 175.710 180.242  1.00  0.00     0.003 C 
ATOM     21  C   UNL     1     161.813 178.262 180.469  1.00  0.00     0.031 C 
ATOM     22  C   UNL     1     161.716 175.984 178.663  1.00  0.00    -0.008 C 
ATOM     23  C   UNL     1     161.109 178.369 179.158  1.00  0.00    -0.027 C 
ATOM     24  C   UNL     1     161.060 177.326 178.306  1.00  0.00    -0.065 C 
ATOM     25  C   UNL     1     163.137 176.041 178.010  1.00  0.00     0.014 C 
ATOM     26  C   UNL     1     160.910 174.817 178.024  1.00  0.00     0.016 C 
ATOM     27  C   UNL     1     160.896 177.644 176.838  1.00  0.00     0.063 C 
ATOM     28  C   UNL     1     163.121 176.415 176.506  1.00  0.00     0.033 C 
ATOM     29  C   UNL     1     162.301 177.693 176.208  1.00  0.00     0.118 C 
BRANCH  29  30
ATOM     30  O   UNL     1     162.216 177.917 174.823  1.00  0.00    -0.393 OA
ATOM     31  H   UNL     1     162.416 178.875 174.662  1.00  0.00     0.210 HD
ENDBRANCH  29  30
ENDBRANCH   9  11
ENDBRANCH   1   9
TORSDOF 7
ENDMDL
MODEL 3
REMARK VINA RESULT:    -6.337      3.004      8.862
REMARK INTER + INTRA:         -10.771
REMARK INTER:                  -9.118
REMARK INTRA:                  -1.653
REMARK UNBOUND:                -2.026
REMARK SMILES CC[C@H](CC[C@H](C)[C@H]1CC[C@H]2[C@H]3CC=C4C[C@H](O)CC[C@@]4(C)[C@H]3CC[C@@]12C)C(C)C
REMARK SMILES IDX 5 1 4 2 3 3 2 4 1 5 28 6 29 7 30 8 6 9 7 10 8 11 9 12 26 13
REMARK SMILES IDX 10 14 11 15 25 16 27 17 12 18 24 19 23 20 13 21 21 22 14 23
REMARK SMILES IDX 15 24 20 25 22 26 16 27 19 28 17 29 18 30
REMARK H PARENT 18 31
REMARK Flexibility Score: inf
ROOT
ATOM      1  C   UNL     1     172.026 176.587 187.897  1.00  0.00     0.004 C 
ENDROOT
BRANCH   1   2
ATOM      2  C   UNL     1     173.321 177.226 187.351  1.00  0.00     0.004 C 
BRANCH   2   3
ATOM      3  C   UNL     1     173.590 178.659 187.897  1.00  0.00    -0.009 C 
BRANCH   3   4
ATOM      4  C   UNL     1     175.119 178.920 187.999  1.00  0.00     0.000 C 
ATOM      5  C   UNL     1     175.904 178.383 186.799  1.00  0.00     0.004 C 
ENDBRANCH   3   4
BRANCH   3   6
ATOM      6  C   UNL     1     172.849 179.770 187.077  1.00  0.00    -0.014 C 
ATOM      7  C   UNL     1     172.746 179.424 185.581  1.00  0.00     0.007 C 
ATOM      8  C   UNL     1     171.461 180.125 187.635  1.00  0.00     0.007 C 
ENDBRANCH   3   6
ENDBRANCH   2   3
ENDBRANCH   1   2
BRANCH   1   9
ATOM      9  C   UNL     1     171.071 176.069 186.784  1.00  0.00    -0.011 C 
ATOM     10  C   UNL     1     171.848 175.841 185.475  1.00  0.00     0.008 C 
BRANCH   9  11
ATOM     11  C   UNL     1     169.819 177.013 186.680  1.00  0.00    -0.002 C 
ATOM     12  C   UNL     1     169.497 177.596 185.300  1.00  0.00     0.005 C 
ATOM     13  C   UNL     1     168.436 176.585 187.259  1.00  0.00    -0.026 C 
ATOM     14  C   UNL     1     168.056 178.123 185.406  1.00  0.00     0.005 C 
ATOM     15  C   UNL     1     167.587 177.806 186.844  1.00  0.00    -0.001 C 
ATOM     16  C   UNL     1     167.867 175.271 186.609  1.00  0.00     0.007 C 
ATOM     17  C   UNL     1     168.513 176.452 188.799  1.00  0.00     0.012 C 
ATOM     18  C   UNL     1     166.052 177.663 187.088  1.00  0.00     0.000 C 
ATOM     19  C   UNL     1     166.400 175.317 186.137  1.00  0.00     0.005 C 
ATOM     20  C   UNL     1     165.503 176.207 187.010  1.00  0.00     0.003 C 
ATOM     21  C   UNL     1     165.233 178.637 186.244  1.00  0.00     0.031 C 
ATOM     22  C   UNL     1     163.938 176.072 186.692  1.00  0.00    -0.008 C 
ATOM     23  C   UNL     1     163.801 178.578 186.656  1.00  0.00    -0.027 C 
ATOM     24  C   UNL     1     163.183 177.399 186.862  1.00  0.00    -0.065 C 
ATOM     25  C   UNL     1     163.632 175.615 185.227  1.00  0.00     0.014 C 
ATOM     26  C   UNL     1     163.374 175.014 187.683  1.00  0.00     0.016 C 
ATOM     27  C   UNL     1     161.683 177.367 186.678  1.00  0.00     0.063 C 
ATOM     28  C   UNL     1     162.121 175.590 184.881  1.00  0.00     0.033 C 
ATOM     29  C   UNL     1     161.397 176.912 185.234  1.00  0.00     0.118 C 
BRANCH  29  30
ATOM     30  O   UNL     1     160.013 176.793 185.017  1.00  0.00    -0.393 OA
ATOM     31  H   UNL     1     159.751 177.496 184.368  1.00  0.00     0.210 HD
ENDBRANCH  29  30
ENDBRANCH   9  11
ENDBRANCH   1   9
TORSDOF 7
ENDMDL
MODEL 4
REMARK VINA RESULT:    -6.303      6.895      9.797
REMARK INTER + INTRA:         -10.724
REMARK INTER:                  -9.391
REMARK INTRA:                  -1.333
REMARK UNBOUND:                -2.026
REMARK SMILES CC[C@H](CC[C@H](C)[C@H]1CC[C@H]2[C@H]3CC=C4C[C@H](O)CC[C@@]4(C)[C@H]3CC[C@@]12C)C(C)C
REMARK SMILES IDX 5 1 4 2 3 3 2 4 1 5 28 6 29 7 30 8 6 9 7 10 8 11 9 12 26 13
REMARK SMILES IDX 10 14 11 15 25 16 27 17 12 18 24 19 23 20 13 21 21 22 14 23
REMARK SMILES IDX 15 24 20 25 22 26 16 27 19 28 17 29 18 30
REMARK H PARENT 18 31
REMARK Flexibility Score: inf
ROOT
ATOM      1  C   UNL     1     161.499 175.002 184.257  1.00  0.00     0.004 C 
ENDROOT
BRANCH   1   2
ATOM      2  C   UNL     1     160.690 176.173 184.859  1.00  0.00     0.004 C 
BRANCH   2   3
ATOM      3  C   UNL     1     160.672 176.186 186.416  1.00  0.00    -0.009 C 
BRANCH   3   4
ATOM      4  C   UNL     1     161.109 174.801 186.972  1.00  0.00     0.000 C 
ATOM      5  C   UNL     1     159.934 173.944 187.450  1.00  0.00     0.004 C 
ENDBRANCH   3   4
BRANCH   3   6
ATOM      6  C   UNL     1     161.510 177.363 187.023  1.00  0.00    -0.014 C 
ATOM      7  C   UNL     1     160.654 178.303 187.890  1.00  0.00     0.007 C 
ATOM      8  C   UNL     1     162.747 176.898 187.809  1.00  0.00     0.007 C 
ENDBRANCH   3   6
ENDBRANCH   2   3
ENDBRANCH   1   2
BRANCH   1   9
ATOM      9  C   UNL     1     162.541 175.450 183.194  1.00  0.00    -0.011 C 
ATOM     10  C   UNL     1     163.808 175.992 183.880  1.00  0.00     0.008 C 
BRANCH   9  11
ATOM     11  C   UNL     1     161.858 176.416 182.158  1.00  0.00    -0.002 C 
ATOM     12  C   UNL     1     162.551 177.757 181.892  1.00  0.00     0.005 C 
ATOM     13  C   UNL     1     161.424 175.911 180.749  1.00  0.00    -0.026 C 
ATOM     14  C   UNL     1     161.918 178.293 180.598  1.00  0.00     0.005 C 
ATOM     15  C   UNL     1     160.891 177.229 180.149  1.00  0.00    -0.001 C 
ATOM     16  C   UNL     1     162.619 175.356 179.889  1.00  0.00     0.007 C 
ATOM     17  C   UNL     1     160.299 174.856 180.876  1.00  0.00     0.012 C 
ATOM     18  C   UNL     1     160.528 177.171 178.631  1.00  0.00     0.000 C 
ATOM     19  C   UNL     1     162.723 175.874 178.441  1.00  0.00     0.005 C 
ATOM     20  C   UNL     1     161.358 176.154 177.792  1.00  0.00     0.003 C 
ATOM     21  C   UNL     1     160.485 178.555 177.988  1.00  0.00     0.031 C 
ATOM     22  C   UNL     1     161.430 176.450 176.218  1.00  0.00    -0.008 C 
ATOM     23  C   UNL     1     159.957 178.446 176.597  1.00  0.00    -0.027 C 
ATOM     24  C   UNL     1     160.388 177.481 175.762  1.00  0.00    -0.065 C 
ATOM     25  C   UNL     1     162.806 177.028 175.750  1.00  0.00     0.014 C 
ATOM     26  C   UNL     1     161.179 175.092 175.500  1.00  0.00     0.016 C 
ATOM     27  C   UNL     1     160.304 177.766 174.280  1.00  0.00     0.063 C 
ATOM     28  C   UNL     1     162.844 177.419 174.250  1.00  0.00     0.033 C 
ATOM     29  C   UNL     1     161.665 178.330 173.832  1.00  0.00     0.118 C 
BRANCH  29  30
ATOM     30  O   UNL     1     161.678 178.553 172.444  1.00  0.00    -0.393 OA
ATOM     31  H   UNL     1     160.887 178.094 172.060  1.00  0.00     0.210 HD
ENDBRANCH  29  30
ENDBRANCH   9  11
ENDBRANCH   1   9
TORSDOF 7
ENDMDL
MODEL 5
REMARK VINA RESULT:    -6.300      1.980      4.047
REMARK INTER + INTRA:         -10.720
REMARK INTER:                  -9.594
REMARK INTRA:                  -1.127
REMARK UNBOUND:                -2.026
REMARK SMILES CC[C@H](CC[C@H](C)[C@H]1CC[C@H]2[C@H]3CC=C4C[C@H](O)CC[C@@]4(C)[C@H]3CC[C@@]12C)C(C)C
REMARK SMILES IDX 5 1 4 2 3 3 2 4 1 5 28 6 29 7 30 8 6 9 7 10 8 11 9 12 26 13
REMARK SMILES IDX 10 14 11 15 25 16 27 17 12 18 24 19 23 20 13 21 21 22 14 23
REMARK SMILES IDX 15 24 20 25 22 26 16 27 19 28 17 29 18 30
REMARK H PARENT 18 31
REMARK Flexibility Score: inf
ROOT
ATOM      1  C   UNL     1     165.037 178.036 186.747  1.00  0.00     0.004 C 
ENDROOT
BRANCH   1   2
ATOM      2  C   UNL     1     164.015 178.112 185.591  1.00  0.00     0.004 C 
BRANCH   2   3
ATOM      3  C   UNL     1     162.552 177.809 186.028  1.00  0.00    -0.009 C 
BRANCH   3   4
ATOM      4  C   UNL     1     161.828 176.964 184.943  1.00  0.00     0.000 C 
ATOM      5  C   UNL     1     160.500 177.574 184.488  1.00  0.00     0.004 C 
ENDBRANCH   3   4
BRANCH   3   6
ATOM      6  C   UNL     1     162.466 177.155 187.449  1.00  0.00    -0.014 C 
ATOM      7  C   UNL     1     161.312 177.729 188.290  1.00  0.00     0.007 C 
ATOM      8  C   UNL     1     162.383 175.620 187.416  1.00  0.00     0.007 C 
ENDBRANCH   3   6
ENDBRANCH   2   3
ENDBRANCH   1   2
BRANCH   1   9
ATOM      9  C   UNL     1     166.317 177.229 186.392  1.00  0.00    -0.011 C 
ATOM     10  C   UNL     1     166.220 175.796 186.949  1.00  0.00     0.008 C 
BRANCH   9  11
ATOM     11  C   UNL     1     167.592 178.043 186.820  1.00  0.00    -0.002 C 
ATOM     12  C   UNL     1     168.091 177.855 188.257  1.00  0.00     0.005 C 
ATOM     13  C   UNL     1     168.884 178.034 185.950  1.00  0.00    -0.026 C 
ATOM     14  C   UNL     1     169.518 178.428 188.271  1.00  0.00     0.005 C 
ATOM     15  C   UNL     1     169.802 178.910 186.830  1.00  0.00    -0.001 C 
ATOM     16  C   UNL     1     169.503 176.600 185.765  1.00  0.00     0.007 C 
ATOM     17  C   UNL     1     168.618 178.701 184.579  1.00  0.00     0.012 C 
ATOM     18  C   UNL     1     171.293 178.982 186.374  1.00  0.00     0.000 C 
ATOM     19  C   UNL     1     171.017 176.465 186.023  1.00  0.00     0.005 C 
ATOM     20  C   UNL     1     171.818 177.716 185.632  1.00  0.00     0.003 C 
ATOM     21  C   UNL     1     172.227 179.425 187.497  1.00  0.00     0.031 C 
ATOM     22  C   UNL     1     173.407 177.509 185.654  1.00  0.00    -0.008 C 
ATOM     23  C   UNL     1     173.597 179.649 186.951  1.00  0.00    -0.027 C 
ATOM     24  C   UNL     1     174.162 178.770 186.102  1.00  0.00    -0.065 C 
ATOM     25  C   UNL     1     173.880 176.384 186.633  1.00  0.00     0.014 C 
ATOM     26  C   UNL     1     173.826 177.131 184.204  1.00  0.00     0.016 C 
ATOM     27  C   UNL     1     175.672 178.716 186.070  1.00  0.00     0.063 C 
ATOM     28  C   UNL     1     175.422 176.254 186.741  1.00  0.00     0.033 C 
ATOM     29  C   UNL     1     176.123 177.602 187.034  1.00  0.00     0.118 C 
BRANCH  29  30
ATOM     30  O   UNL     1     177.520 177.452 186.999  1.00  0.00    -0.393 OA
ATOM     31  H   UNL     1     177.716 176.479 186.989  1.00  0.00     0.210 HD
ENDBRANCH  29  30
ENDBRANCH   9  11
ENDBRANCH   1   9
TORSDOF 7
ENDMDL
MODEL 6
REMARK VINA RESULT:    -6.002      1.874      3.431
REMARK INTER + INTRA:         -10.309
REMARK INTER:                  -9.289
REMARK INTRA:                  -1.020
REMARK UNBOUND:                -2.026
REMARK SMILES CC[C@H](CC[C@H](C)[C@H]1CC[C@H]2[C@H]3CC=C4C[C@H](O)CC[C@@]4(C)[C@H]3CC[C@@]12C)C(C)C
REMARK SMILES IDX 5 1 4 2 3 3 2 4 1 5 28 6 29 7 30 8 6 9 7 10 8 11 9 12 26 13
REMARK SMILES IDX 10 14 11 15 25 16 27 17 12 18 24 19 23 20 13 21 21 22 14 23
REMARK SMILES IDX 15 24 20 25 22 26 16 27 19 28 17 29 18 30
REMARK H PARENT 18 31
REMARK Flexibility Score: inf
ROOT
ATOM      1  C   UNL     1     164.526 176.332 187.118  1.00  0.00     0.004 C 
ENDROOT
BRANCH   1   2
ATOM      2  C   UNL     1     163.546 176.072 185.953  1.00  0.00     0.004 C 
BRANCH   2   3
ATOM      3  C   UNL     1     162.047 176.209 186.353  1.00  0.00    -0.009 C 
BRANCH   3   4
ATOM      4  C   UNL     1     161.686 175.170 187.453  1.00  0.00     0.000 C 
ATOM      5  C   UNL     1     160.366 174.442 187.185  1.00  0.00     0.004 C 
ENDBRANCH   3   4
BRANCH   3   6
ATOM      6  C   UNL     1     161.659 177.670 186.763  1.00  0.00    -0.014 C 
ATOM      7  C   UNL     1     160.527 178.242 185.891  1.00  0.00     0.007 C 
ATOM      8  C   UNL     1     161.305 177.819 188.253  1.00  0.00     0.007 C 
ENDBRANCH   3   6
ENDBRANCH   2   3
ENDBRANCH   1   2
BRANCH   1   9
ATOM      9  C   UNL     1     165.667 177.326 186.760  1.00  0.00    -0.011 C 
ATOM     10  C   UNL     1     165.437 177.924 185.360  1.00  0.00     0.008 C 
BRANCH   9  11
ATOM     11  C   UNL     1     167.060 176.635 186.987  1.00  0.00    -0.002 C 
ATOM     12  C   UNL     1     167.538 175.656 185.909  1.00  0.00     0.005 C 
ATOM     13  C   UNL     1     168.325 177.470 187.349  1.00  0.00    -0.026 C 
ATOM     14  C   UNL     1     169.039 175.455 186.178  1.00  0.00     0.005 C 
ATOM     15  C   UNL     1     169.381 176.345 187.394  1.00  0.00    -0.001 C 
ATOM     16  C   UNL     1     168.702 178.537 186.256  1.00  0.00     0.007 C 
ATOM     17  C   UNL     1     168.155 178.137 188.735  1.00  0.00     0.012 C 
ATOM     18  C   UNL     1     170.859 176.824 187.545  1.00  0.00     0.000 C 
ATOM     19  C   UNL     1     170.177 178.572 185.810  1.00  0.00     0.005 C 
ATOM     20  C   UNL     1     171.165 178.224 186.934  1.00  0.00     0.003 C 
ATOM     21  C   UNL     1     171.865 175.764 187.101  1.00  0.00     0.031 C 
ATOM     22  C   UNL     1     172.701 178.498 186.563  1.00  0.00    -0.008 C 
ATOM     23  C   UNL     1     173.247 176.211 187.441  1.00  0.00    -0.027 C 
ATOM     24  C   UNL     1     173.653 177.471 187.193  1.00  0.00    -0.065 C 
ATOM     25  C   UNL     1     172.997 178.439 185.029  1.00  0.00     0.014 C 
ATOM     26  C   UNL     1     173.037 179.922 187.092  1.00  0.00     0.016 C 
ATOM     27  C   UNL     1     175.135 177.688 186.987  1.00  0.00     0.063 C 
ATOM     28  C   UNL     1     174.499 178.592 184.674  1.00  0.00     0.033 C 
ATOM     29  C   UNL     1     175.411 177.631 185.472  1.00  0.00     0.118 C 
BRANCH  29  30
ATOM     30  O   UNL     1     176.765 177.896 185.205  1.00  0.00    -0.393 OA
ATOM     31  H   UNL     1     176.810 178.388 184.344  1.00  0.00     0.210 HD
ENDBRANCH  29  30
ENDBRANCH   9  11
ENDBRANCH   1   9
TORSDOF 7
ENDMDL
MODEL 7
REMARK VINA RESULT:    -5.871      5.205      8.318
REMARK INTER + INTRA:         -10.128
REMARK INTER:                  -8.463
REMARK INTRA:                  -1.665
REMARK UNBOUND:                -2.026
REMARK SMILES CC[C@H](CC[C@H](C)[C@H]1CC[C@H]2[C@H]3CC=C4C[C@H](O)CC[C@@]4(C)[C@H]3CC[C@@]12C)C(C)C
REMARK SMILES IDX 5 1 4 2 3 3 2 4 1 5 28 6 29 7 30 8 6 9 7 10 8 11 9 12 26 13
REMARK SMILES IDX 10 14 11 15 25 16 27 17 12 18 24 19 23 20 13 21 21 22 14 23
REMARK SMILES IDX 15 24 20 25 22 26 16 27 19 28 17 29 18 30
REMARK H PARENT 18 31
REMARK Flexibility Score: inf
ROOT
ATOM      1  C   UNL     1     162.321 174.729 187.465  1.00  0.00     0.004 C 
ENDROOT
BRANCH   1   2
ATOM      2  C   UNL     1     161.229 173.639 187.522  1.00  0.00     0.004 C 
BRANCH   2   3
ATOM      3  C   UNL     1     161.775 172.196 187.312  1.00  0.00    -0.009 C 
BRANCH   3   4
ATOM      4  C   UNL     1     161.790 171.423 188.661  1.00  0.00     0.000 C 
ATOM      5  C   UNL     1     163.193 171.265 189.251  1.00  0.00     0.004 C 
ENDBRANCH   3   4
BRANCH   3   6
ATOM      6  C   UNL     1     161.014 171.415 186.187  1.00  0.00    -0.014 C 
ATOM      7  C   UNL     1     161.742 171.483 184.832  1.00  0.00     0.007 C 
ATOM      8  C   UNL     1     160.707 169.953 186.550  1.00  0.00     0.007 C 
ENDBRANCH   3   6
ENDBRANCH   2   3
ENDBRANCH   1   2
BRANCH   1   9
ATOM      9  C   UNL     1     163.248 174.616 186.222  1.00  0.00    -0.011 C 
ATOM     10  C   UNL     1     164.712 174.427 186.661  1.00  0.00     0.008 C 
BRANCH   9  11
ATOM     11  C   UNL     1     162.976 175.818 185.248  1.00  0.00    -0.002 C 
ATOM     12  C   UNL     1     164.196 176.596 184.741  1.00  0.00     0.005 C 
ATOM     13  C   UNL     1     162.068 175.650 183.992  1.00  0.00    -0.026 C 
ATOM     14  C   UNL     1     163.688 177.415 183.543  1.00  0.00     0.005 C 
ATOM     15  C   UNL     1     162.192 177.064 183.385  1.00  0.00    -0.001 C 
ATOM     16  C   UNL     1     162.596 174.567 182.981  1.00  0.00     0.007 C 
ATOM     17  C   UNL     1     160.611 175.347 184.416  1.00  0.00     0.012 C 
ATOM     18  C   UNL     1     161.554 177.240 181.971  1.00  0.00     0.000 C 
ATOM     19  C   UNL     1     162.658 174.984 181.498  1.00  0.00     0.005 C 
ATOM     20  C   UNL     1     161.542 175.957 181.088  1.00  0.00     0.003 C 
ATOM     21  C   UNL     1     162.109 178.452 181.227  1.00  0.00     0.031 C 
ATOM     22  C   UNL     1     161.437 176.204 179.507  1.00  0.00    -0.008 C 
ATOM     23  C   UNL     1     161.333 178.668 179.971  1.00  0.00    -0.027 C 
ATOM     24  C   UNL     1     161.018 177.640 179.160  1.00  0.00    -0.065 C 
ATOM     25  C   UNL     1     162.784 175.978 178.746  1.00  0.00     0.014 C 
ATOM     26  C   UNL     1     160.375 175.201 178.971  1.00  0.00     0.016 C 
ATOM     27  C   UNL     1     160.797 177.959 177.699  1.00  0.00     0.063 C 
ATOM     28  C   UNL     1     162.716 176.323 177.235  1.00  0.00     0.033 C 
ATOM     29  C   UNL     1     162.130 177.728 176.961  1.00  0.00     0.118 C 
BRANCH  29  30
ATOM     30  O   UNL     1     161.975 177.941 175.580  1.00  0.00    -0.393 OA
ATOM     31  H   UNL     1     162.499 177.241 175.110  1.00  0.00     0.210 HD
ENDBRANCH  29  30
ENDBRANCH   9  11
ENDBRANCH   1   9
TORSDOF 7
ENDMDL
MODEL 8
REMARK VINA RESULT:    -5.796      3.634      9.931
REMARK INTER + INTRA:         -10.025
REMARK INTER:                  -8.615
REMARK INTRA:                  -1.410
REMARK UNBOUND:                -2.026
REMARK SMILES CC[C@H](CC[C@H](C)[C@H]1CC[C@H]2[C@H]3CC=C4C[C@H](O)CC[C@@]4(C)[C@H]3CC[C@@]12C)C(C)C
REMARK SMILES IDX 5 1 4 2 3 3 2 4 1 5 28 6 29 7 30 8 6 9 7 10 8 11 9 12 26 13
REMARK SMILES IDX 10 14 11 15 25 16 27 17 12 18 24 19 23 20 13 21 21 22 14 23
REMARK SMILES IDX 15 24 20 25 22 26 16 27 19 28 17 29 18 30
REMARK H PARENT 18 31
REMARK Flexibility Score: inf
ROOT
ATOM      1  C   UNL     1     176.371 177.455 185.760  1.00  0.00     0.004 C 
ENDROOT
BRANCH   1   2
ATOM      2  C   UNL     1     176.752 176.444 186.863  1.00  0.00     0.004 C 
BRANCH   2   3
ATOM      3  C   UNL     1     176.396 174.970 186.511  1.00  0.00    -0.009 C 
BRANCH   3   4
ATOM      4  C   UNL     1     176.823 174.020 187.666  1.00  0.00     0.000 C 
ATOM      5  C   UNL     1     177.825 172.950 187.228  1.00  0.00     0.004 C 
ENDBRANCH   3   4
BRANCH   3   6
ATOM      6  C   UNL     1     174.891 174.787 186.115  1.00  0.00    -0.014 C 
ATOM      7  C   UNL     1     174.725 174.161 184.719  1.00  0.00     0.007 C 
ATOM      8  C   UNL     1     174.073 173.996 187.150  1.00  0.00     0.007 C 
ENDBRANCH   3   6
ENDBRANCH   2   3
ENDBRANCH   1   2
BRANCH   1   9
ATOM      9  C   UNL     1     175.655 178.725 186.303  1.00  0.00    -0.011 C 
ATOM     10  C   UNL     1     175.756 178.783 187.838  1.00  0.00     0.008 C 
BRANCH   9  11
ATOM     11  C   UNL     1     174.202 178.807 185.709  1.00  0.00    -0.002 C 
ATOM     12  C   UNL     1     173.849 177.822 184.590  1.00  0.00     0.005 C 
ATOM     13  C   UNL     1     172.951 178.814 186.638  1.00  0.00    -0.026 C 
ATOM     14  C   UNL     1     172.314 177.852 184.490  1.00  0.00     0.005 C 
ATOM     15  C   UNL     1     171.832 178.843 185.574  1.00  0.00    -0.001 C 
ATOM     16  C   UNL     1     172.829 177.525 187.531  1.00  0.00     0.007 C 
ATOM     17  C   UNL     1     172.930 180.093 187.509  1.00  0.00     0.012 C 
ATOM     18  C   UNL     1     170.383 178.661 186.125  1.00  0.00     0.000 C 
ATOM     19  C   UNL     1     171.454 176.829 187.550  1.00  0.00     0.005 C 
ATOM     20  C   UNL     1     170.273 177.803 187.421  1.00  0.00     0.003 C 
ATOM     21  C   UNL     1     169.400 178.213 185.047  1.00  0.00     0.031 C 
ATOM     22  C   UNL     1     168.841 177.134 187.690  1.00  0.00    -0.008 C 
ATOM     23  C   UNL     1     168.011 178.236 185.593  1.00  0.00    -0.027 C 
ATOM     24  C   UNL     1     167.733 177.735 186.812  1.00  0.00    -0.065 C 
ATOM     25  C   UNL     1     168.800 175.598 187.399  1.00  0.00     0.014 C 
ATOM     26  C   UNL     1     168.513 177.377 189.191  1.00  0.00     0.016 C 
ATOM     27  C   UNL     1     166.323 177.244 187.049  1.00  0.00     0.063 C 
ATOM     28  C   UNL     1     167.392 174.968 187.550  1.00  0.00     0.033 C 
ATOM     29  C   UNL     1     166.299 175.731 186.763  1.00  0.00     0.118 C 
BRANCH  29  30
ATOM     30  O   UNL     1     165.028 175.195 187.032  1.00  0.00    -0.393 OA
ATOM     31  H   UNL     1     164.630 174.920 186.166  1.00  0.00     0.210 HD
ENDBRANCH  29  30
ENDBRANCH   9  11
ENDBRANCH   1   9
TORSDOF 7
ENDMDL
MODEL 9
REMARK VINA RESULT:    -5.720      9.018     13.470
REMARK INTER + INTRA:          -9.920
REMARK INTER:                  -8.604
REMARK INTRA:                  -1.316
REMARK UNBOUND:                -2.026
REMARK SMILES CC[C@H](CC[C@H](C)[C@H]1CC[C@H]2[C@H]3CC=C4C[C@H](O)CC[C@@]4(C)[C@H]3CC[C@@]12C)C(C)C
REMARK SMILES IDX 5 1 4 2 3 3 2 4 1 5 28 6 29 7 30 8 6 9 7 10 8 11 9 12 26 13
REMARK SMILES IDX 10 14 11 15 25 16 27 17 12 18 24 19 23 20 13 21 21 22 14 23
REMARK SMILES IDX 15 24 20 25 22 26 16 27 19 28 17 29 18 30
REMARK H PARENT 18 31
REMARK Flexibility Score: inf
ROOT
ATOM      1  C   UNL     1     176.279 176.442 185.474  1.00  0.00     0.004 C 
ENDROOT
BRANCH   1   2
ATOM      2  C   UNL     1     176.182 177.553 186.543  1.00  0.00     0.004 C 
BRANCH   2   3
ATOM      3  C   UNL     1     175.381 178.803 186.075  1.00  0.00    -0.009 C 
BRANCH   3   4
ATOM      4  C   UNL     1     174.613 178.491 184.759  1.00  0.00     0.000 C 
ATOM      5  C   UNL     1     174.863 179.522 183.656  1.00  0.00     0.004 C 
ENDBRANCH   3   4
BRANCH   3   6
ATOM      6  C   UNL     1     174.443 179.376 187.191  1.00  0.00    -0.014 C 
ATOM      7  C   UNL     1     172.976 178.951 186.999  1.00  0.00     0.007 C 
ATOM      8  C   UNL     1     174.907 179.042 188.618  1.00  0.00     0.007 C 
ENDBRANCH   3   6
ENDBRANCH   2   3
ENDBRANCH   1   2
BRANCH   1   9
ATOM      9  C   UNL     1     175.656 175.091 185.924  1.00  0.00    -0.011 C 
ATOM     10  C   UNL     1     174.471 175.337 186.877  1.00  0.00     0.008 C 
BRANCH   9  11
ATOM     11  C   UNL     1     176.785 174.143 186.469  1.00  0.00    -0.002 C 
ATOM     12  C   UNL     1     176.652 173.659 187.918  1.00  0.00     0.005 C 
ATOM     13  C   UNL     1     177.233 172.881 185.672  1.00  0.00    -0.026 C 
ATOM     14  C   UNL     1     177.629 172.478 188.044  1.00  0.00     0.005 C 
ATOM     15  C   UNL     1     178.279 172.307 186.653  1.00  0.00    -0.001 C 
ATOM     16  C   UNL     1     176.072 171.847 185.436  1.00  0.00     0.007 C 
ATOM     17  C   UNL     1     177.887 173.292 184.331  1.00  0.00     0.012 C 
ATOM     18  C   UNL     1     178.833 170.895 186.283  1.00  0.00     0.000 C 
ATOM     19  C   UNL     1     176.385 170.374 185.768  1.00  0.00     0.005 C 
ATOM     20  C   UNL     1     177.845 169.982 185.497  1.00  0.00     0.003 C 
ATOM     21  C   UNL     1     179.455 170.180 187.480  1.00  0.00     0.031 C 
ATOM     22  C   UNL     1     178.129 168.407 185.594  1.00  0.00    -0.008 C 
ATOM     23  C   UNL     1     180.125 168.927 187.025  1.00  0.00    -0.027 C 
ATOM     24  C   UNL     1     179.523 168.092 186.157  1.00  0.00    -0.065 C 
ATOM     25  C   UNL     1     177.132 167.646 186.528  1.00  0.00     0.014 C 
ATOM     26  C   UNL     1     178.004 167.844 184.149  1.00  0.00     0.016 C 
ATOM     27  C   UNL     1     179.933 166.638 186.204  1.00  0.00     0.063 C 
ATOM     28  C   UNL     1     177.469 166.144 186.713  1.00  0.00     0.033 C 
ATOM     29  C   UNL     1     178.941 165.900 187.123  1.00  0.00     0.118 C 
BRANCH  29  30
ATOM     30  O   UNL     1     179.225 164.523 187.156  1.00  0.00    -0.393 OA
ATOM     31  H   UNL     1     179.717 164.299 186.324  1.00  0.00     0.210 HD
ENDBRANCH  29  30
ENDBRANCH   9  11
ENDBRANCH   1   9
TORSDOF 7
ENDMDL
