MODEL 1
REMARK VINA RESULT:    -5.385      0.000      0.000
REMARK INTER + INTRA:          -7.330
REMARK INTER:                  -7.589
REMARK INTRA:                   0.259
REMARK UNBOUND:                 0.259
REMARK SMILES CC1=CCC(=C(C)C)C(=O)CC(C)=CCC1
REMARK SMILES IDX 12 1 14 2 13 3 15 4 16 5 2 6 1 7 3 8 11 10 9 11 10 12 5 13
REMARK SMILES IDX 6 14 7 15 8 16 4 17
REMARK H PARENT
REMARK Flexibility Score: 60.00
ROOT
ATOM      1  C   UNL     1      -7.595  33.643  21.715  1.00  0.00    -0.070 C 
ATOM      2  C   UNL     1      -7.604  34.814  22.405  1.00  0.00    -0.027 C 
ATOM      3  C   UNL     1      -7.612  33.729  20.209  1.00  0.00     0.039 C 
ENDROOT
BRANCH   2   4
ATOM      4  C   UNL     1      -7.691  34.964  23.905  1.00  0.00     0.032 C 
BRANCH   4   5
ATOM      5  C   UNL     1      -9.004  34.431  24.494  1.00  0.00     0.034 C 
BRANCH   5   6
ATOM      6  C   UNL     1      -8.718  33.517  25.670  1.00  0.00    -0.077 C 
ATOM      7  C   UNL     1      -7.899  34.057  26.812  1.00  0.00     0.039 C 
ATOM      8  C   UNL     1      -9.226  32.266  25.781  1.00  0.00    -0.023 CG0
ATOM      9  G   UNL     1     -10.052  31.553  24.737  1.00  0.00     0.000 G0
ENDBRANCH   5   6
ENDBRANCH   4   5
ENDBRANCH   2   4
BRANCH   1  10
ATOM     10  C   UNL     1      -7.486  32.265  22.359  1.00  0.00     0.111 C 
BRANCH  10  11
ATOM     11  C   UNL     1      -8.803  31.539  22.479  1.00  0.00     0.163 C 
ATOM     12  O   UNL     1      -9.550  31.514  21.462  1.00  0.00    -0.294 OA
BRANCH  11  13
ATOM     13  C   UNL     1      -9.218  30.808  23.722  1.00  0.00    -0.002 C 
ATOM     14  C   UNL     1      -8.885  29.493  23.905  1.00  0.00    -0.069 C 
ATOM     15  C   UNL     1      -7.969  28.762  22.947  1.00  0.00     0.039 C 
ATOM     16  C   UNL     1      -9.372  28.708  25.103  1.00  0.00     0.039 C 
BRANCH  13  17
ATOM     17  C   UNL     1     -10.067  31.545  24.756  1.00  0.00     0.066 CG0
ATOM     18  G   UNL     1      -9.223  32.285  25.767  1.00  0.00     0.000 G0
ENDBRANCH  13  17
ENDBRANCH  11  13
ENDBRANCH  10  11
ENDBRANCH   1  10
TORSDOF 0
ENDMDL
MODEL 2
REMARK VINA RESULT:    -5.227      1.696      3.634
REMARK INTER + INTRA:          -7.107
REMARK INTER:                  -7.699
REMARK INTRA:                   0.591
REMARK UNBOUND:                 0.259
REMARK SMILES CC1=CCC(=C(C)C)C(=O)CC(C)=CCC1
REMARK SMILES IDX 12 1 14 2 13 3 15 4 16 5 2 6 1 7 3 8 11 10 9 11 10 12 5 13
REMARK SMILES IDX 6 14 7 15 8 16 4 17
REMARK H PARENT
REMARK Flexibility Score: 60.00
ROOT
ATOM      1  C   UNL     1      -8.359  35.054  25.239  1.00  0.00    -0.070 C 
ATOM      2  C   UNL     1      -8.635  34.440  26.419  1.00  0.00    -0.027 C 
ATOM      3  C   UNL     1      -8.988  36.404  25.000  1.00  0.00     0.039 C 
ENDROOT
BRANCH   2   4
ATOM      4  C   UNL     1      -8.200  33.052  26.826  1.00  0.00     0.032 C 
BRANCH   4   5
ATOM      5  C   UNL     1      -9.222  31.965  26.464  1.00  0.00     0.034 C 
BRANCH   5   6
ATOM      6  C   UNL     1      -8.633  31.014  25.440  1.00  0.00    -0.077 C 
ATOM      7  C   UNL     1      -7.869  29.815  25.934  1.00  0.00     0.039 C 
ATOM      8  C   UNL     1      -8.824  31.146  24.105  1.00  0.00    -0.023 CG0
ATOM      9  G   UNL     1      -9.547  32.285  23.426  1.00  0.00     0.000 G0
ENDBRANCH   5   6
ENDBRANCH   4   5
ENDBRANCH   2   4
BRANCH   1  10
ATOM     10  C   UNL     1      -7.398  34.508  24.188  1.00  0.00     0.111 C 
BRANCH  10  11
ATOM     11  C   UNL     1      -8.022  34.315  22.828  1.00  0.00     0.163 C 
ATOM     12  O   UNL     1      -7.946  35.273  22.010  1.00  0.00    -0.294 OA
BRANCH  11  13
ATOM     13  C   UNL     1      -8.663  33.026  22.405  1.00  0.00    -0.002 C 
ATOM     14  C   UNL     1      -8.495  32.546  21.134  1.00  0.00    -0.069 C 
ATOM     15  C   UNL     1      -7.547  33.202  20.153  1.00  0.00     0.039 C 
ATOM     16  C   UNL     1      -9.208  31.301  20.652  1.00  0.00     0.039 C 
BRANCH  13  17
ATOM     17  C   UNL     1      -9.555  32.288  23.402  1.00  0.00     0.066 CG0
ATOM     18  G   UNL     1      -8.824  31.165  24.098  1.00  0.00     0.000 G0
ENDBRANCH  13  17
ENDBRANCH  11  13
ENDBRANCH  10  11
ENDBRANCH   1  10
TORSDOF 0
ENDMDL
MODEL 3
REMARK VINA RESULT:    -5.065      1.854      3.325
REMARK INTER + INTRA:          -6.879
REMARK INTER:                  -7.158
REMARK INTRA:                   0.279
REMARK UNBOUND:                 0.259
REMARK SMILES CC1=CCC(=C(C)C)C(=O)CC(C)=CCC1
REMARK SMILES IDX 12 1 14 2 13 3 15 4 16 5 2 6 1 7 3 8 11 10 9 11 10 12 5 13
REMARK SMILES IDX 6 14 7 15 8 16 4 17
REMARK H PARENT
REMARK Flexibility Score: 60.00
ROOT
ATOM      1  C   UNL     1      -8.737  33.965  25.000  1.00  0.00    -0.070 C 
ATOM      2  C   UNL     1      -8.523  33.706  26.316  1.00  0.00    -0.027 C 
ATOM      3  C   UNL     1      -8.303  35.314  24.482  1.00  0.00     0.039 C 
ENDROOT
BRANCH   2   4
ATOM      4  C   UNL     1      -8.965  32.472  27.065  1.00  0.00     0.032 C 
BRANCH   4   5
ATOM      5  C   UNL     1      -7.911  31.356  27.072  1.00  0.00     0.034 C 
BRANCH   5   6
ATOM      6  C   UNL     1      -8.525  30.053  26.600  1.00  0.00    -0.077 C 
ATOM      7  C   UNL     1      -9.493  29.346  27.512  1.00  0.00     0.039 C 
ATOM      8  C   UNL     1      -8.309  29.530  25.369  1.00  0.00    -0.023 CG0
ATOM      9  G   UNL     1      -7.366  30.086  24.328  1.00  0.00     0.000 G0
ENDBRANCH   5   6
ENDBRANCH   4   5
ENDBRANCH   2   4
BRANCH   1  10
ATOM     10  C   UNL     1      -9.307  32.959  24.005  1.00  0.00     0.111 C 
BRANCH  10  11
ATOM     11  C   UNL     1      -8.262  32.251  23.180  1.00  0.00     0.163 C 
ATOM     12  O   UNL     1      -7.459  32.965  22.517  1.00  0.00    -0.294 OA
BRANCH  11  13
ATOM     13  C   UNL     1      -8.109  30.758  23.170  1.00  0.00    -0.002 C 
ATOM     14  C   UNL     1      -8.667  30.005  22.173  1.00  0.00    -0.069 C 
ATOM     15  C   UNL     1      -9.330  30.640  20.969  1.00  0.00     0.039 C 
ATOM     16  C   UNL     1      -8.610  28.493  22.191  1.00  0.00     0.039 C 
BRANCH  13  17
ATOM     17  C   UNL     1      -7.364  30.089  24.325  1.00  0.00     0.066 CG0
ATOM     18  G   UNL     1      -8.308  29.516  25.355  1.00  0.00     0.000 G0
ENDBRANCH  13  17
ENDBRANCH  11  13
ENDBRANCH  10  11
ENDBRANCH   1  10
TORSDOF 0
ENDMDL
MODEL 4
REMARK VINA RESULT:    -4.934      1.909      3.800
REMARK INTER + INTRA:          -6.694
REMARK INTER:                  -7.126
REMARK INTRA:                   0.432
REMARK UNBOUND:                 0.259
REMARK SMILES CC1=CCC(=C(C)C)C(=O)CC(C)=CCC1
REMARK SMILES IDX 12 1 14 2 13 3 15 4 16 5 2 6 1 7 3 8 11 10 9 11 10 12 5 13
REMARK SMILES IDX 6 14 7 15 8 16 4 17
REMARK H PARENT
REMARK Flexibility Score: 60.00
ROOT
ATOM      1  C   UNL     1      -8.568  33.098  26.362  1.00  0.00    -0.070 C 
ATOM      2  C   UNL     1      -8.197  34.227  25.703  1.00  0.00    -0.027 C 
ATOM      3  C   UNL     1      -8.062  32.925  27.773  1.00  0.00     0.039 C 
ENDROOT
BRANCH   2   4
ATOM      4  C   UNL     1      -8.500  34.558  24.261  1.00  0.00     0.032 C 
BRANCH   4   5
ATOM      5  C   UNL     1      -7.473  33.981  23.277  1.00  0.00     0.034 C 
BRANCH   5   6
ATOM      6  C   UNL     1      -8.153  33.034  22.307  1.00  0.00    -0.077 C 
ATOM      7  C   UNL     1      -8.851  33.619  21.108  1.00  0.00     0.039 C 
ATOM      8  C   UNL     1      -8.099  31.685  22.421  1.00  0.00    -0.023 CG0
ATOM      9  G   UNL     1      -7.459  30.921  23.556  1.00  0.00     0.000 G0
ENDBRANCH   5   6
ENDBRANCH   4   5
ENDBRANCH   2   4
BRANCH   1  10
ATOM     10  C   UNL     1      -9.519  32.046  25.802  1.00  0.00     0.111 C 
BRANCH  10  11
ATOM     11  C   UNL     1      -8.910  30.671  25.681  1.00  0.00     0.163 C 
ATOM     12  O   UNL     1      -8.847  29.967  26.727  1.00  0.00    -0.294 OA
BRANCH  11  13
ATOM     13  C   UNL     1      -8.441  30.102  24.374  1.00  0.00    -0.002 C 
ATOM     14  C   UNL     1      -8.861  28.867  23.958  1.00  0.00    -0.069 C 
ATOM     15  C   UNL     1      -9.920  28.089  24.711  1.00  0.00     0.039 C 
ATOM     16  C   UNL     1      -8.329  28.230  22.692  1.00  0.00     0.039 C 
BRANCH  13  17
ATOM     17  C   UNL     1      -7.441  30.903  23.542  1.00  0.00     0.066 CG0
ATOM     18  G   UNL     1      -8.112  31.676  22.431  1.00  0.00     0.000 G0
ENDBRANCH  13  17
ENDBRANCH  11  13
ENDBRANCH  10  11
ENDBRANCH   1  10
TORSDOF 0
ENDMDL
MODEL 5
REMARK VINA RESULT:    -4.861      1.660      3.912
REMARK INTER + INTRA:          -6.591
REMARK INTER:                  -7.149
REMARK INTRA:                   0.557
REMARK UNBOUND:                 0.259
REMARK SMILES CC1=CCC(=C(C)C)C(=O)CC(C)=CCC1
REMARK SMILES IDX 12 1 14 2 13 3 15 4 16 5 2 6 1 7 3 8 11 10 9 11 10 12 5 13
REMARK SMILES IDX 6 14 7 15 8 16 4 17
REMARK H PARENT
REMARK Flexibility Score: 60.00
ROOT
ATOM      1  C   UNL     1      -8.662  30.846  25.735  1.00  0.00    -0.070 C 
ATOM      2  C   UNL     1      -8.489  31.779  26.707  1.00  0.00    -0.027 C 
ATOM      3  C   UNL     1      -7.987  29.511  25.931  1.00  0.00     0.039 C 
ENDROOT
BRANCH   2   4
ATOM      4  C   UNL     1      -8.985  33.204  26.672  1.00  0.00     0.032 C 
BRANCH   4   5
ATOM      5  C   UNL     1      -7.947  34.195  26.126  1.00  0.00     0.034 C 
BRANCH   5   6
ATOM      6  C   UNL     1      -8.472  34.862  24.869  1.00  0.00    -0.077 C 
ATOM      7  C   UNL     1      -9.262  36.136  25.012  1.00  0.00     0.039 C 
ATOM      8  C   UNL     1      -8.202  34.414  23.620  1.00  0.00    -0.023 CG0
ATOM      9  G   UNL     1      -7.442  33.153  23.280  1.00  0.00     0.000 G0
ENDBRANCH   5   6
ENDBRANCH   4   5
ENDBRANCH   2   4
BRANCH   1  10
ATOM     10  C   UNL     1      -9.553  31.031  24.510  1.00  0.00     0.111 C 
BRANCH  10  11
ATOM     11  C   UNL     1      -8.816  30.939  23.197  1.00  0.00     0.163 C 
ATOM     12  O   UNL     1      -8.709  29.798  22.667  1.00  0.00    -0.294 OA
BRANCH  11  13
ATOM     13  C   UNL     1      -8.271  32.142  22.484  1.00  0.00    -0.002 C 
ATOM     14  C   UNL     1      -8.478  32.313  21.142  1.00  0.00    -0.069 C 
ATOM     15  C   UNL     1      -9.379  31.390  20.350  1.00  0.00     0.039 C 
ATOM     16  C   UNL     1      -7.859  33.466  20.382  1.00  0.00     0.039 C 
BRANCH  13  17
ATOM     17  C   UNL     1      -7.432  33.144  23.275  1.00  0.00     0.066 CG0
ATOM     18  G   UNL     1      -8.204  34.401  23.603  1.00  0.00     0.000 G0
ENDBRANCH  13  17
ENDBRANCH  11  13
ENDBRANCH  10  11
ENDBRANCH   1  10
TORSDOF 0
ENDMDL
MODEL 6
REMARK VINA RESULT:    -4.744      1.963      3.742
REMARK INTER + INTRA:          -6.426
REMARK INTER:                  -6.807
REMARK INTRA:                   0.381
REMARK UNBOUND:                 0.259
REMARK SMILES CC1=CCC(=C(C)C)C(=O)CC(C)=CCC1
REMARK SMILES IDX 12 1 14 2 13 3 15 4 16 5 2 6 1 7 3 8 11 10 9 11 10 12 5 13
REMARK SMILES IDX 6 14 7 15 8 16 4 17
REMARK H PARENT
REMARK Flexibility Score: 60.00
ROOT
ATOM      1  C   UNL     1      -8.269  34.442  23.834  1.00  0.00    -0.070 C 
ATOM      2  C   UNL     1      -8.036  34.509  22.497  1.00  0.00    -0.027 C 
ATOM      3  C   UNL     1      -7.534  35.423  24.713  1.00  0.00     0.039 C 
ENDROOT
BRANCH   2   4
ATOM      4  C   UNL     1      -8.579  33.568  21.449  1.00  0.00     0.032 C 
BRANCH   4   5
ATOM      5  C   UNL     1      -7.825  32.232  21.383  1.00  0.00     0.034 C 
BRANCH   5   6
ATOM      6  C   UNL     1      -8.781  31.080  21.624  1.00  0.00    -0.077 C 
ATOM      7  C   UNL     1      -9.755  30.719  20.534  1.00  0.00     0.039 C 
ATOM      8  C   UNL     1      -8.753  30.309  22.737  1.00  0.00    -0.023 CG0
ATOM      9  G   UNL     1      -7.860  30.525  23.936  1.00  0.00     0.000 G0
ENDBRANCH   5   6
ENDBRANCH   4   5
ENDBRANCH   2   4
BRANCH   1  10
ATOM     10  C   UNL     1      -9.276  33.500  24.487  1.00  0.00     0.111 C 
BRANCH  10  11
ATOM     11  C   UNL     1      -8.658  32.506  25.438  1.00  0.00     0.163 C 
ATOM     12  O   UNL     1      -8.195  32.948  26.525  1.00  0.00    -0.294 OA
BRANCH  11  13
ATOM     13  C   UNL     1      -8.632  31.030  25.166  1.00  0.00    -0.002 C 
ATOM     14  C   UNL     1      -9.239  30.150  26.021  1.00  0.00    -0.069 C 
ATOM     15  C   UNL     1     -10.082  30.624  27.186  1.00  0.00     0.039 C 
ATOM     16  C   UNL     1      -9.144  28.653  25.822  1.00  0.00     0.039 C 
BRANCH  13  17
ATOM     17  C   UNL     1      -7.865  30.523  23.946  1.00  0.00     0.066 CG0
ATOM     18  G   UNL     1      -8.766  30.321  22.750  1.00  0.00     0.000 G0
ENDBRANCH  13  17
ENDBRANCH  11  13
ENDBRANCH  10  11
ENDBRANCH   1  10
TORSDOF 0
ENDMDL
MODEL 7
REMARK VINA RESULT:    -4.503      1.539      3.984
REMARK INTER + INTRA:          -6.087
REMARK INTER:                  -6.711
REMARK INTRA:                   0.624
REMARK UNBOUND:                 0.259
REMARK SMILES CC1=CCC(=C(C)C)C(=O)CC(C)=CCC1
REMARK SMILES IDX 12 1 14 2 13 3 15 4 16 5 2 6 1 7 3 8 11 10 9 11 10 12 5 13
REMARK SMILES IDX 6 14 7 15 8 16 4 17
REMARK H PARENT
REMARK Flexibility Score: 60.00
ROOT
ATOM      1  C   UNL     1      -7.857  32.094  21.813  1.00  0.00    -0.070 C 
ATOM      2  C   UNL     1      -7.267  30.870  21.808  1.00  0.00    -0.027 C 
ATOM      3  C   UNL     1      -8.604  32.505  20.568  1.00  0.00     0.039 C 
ENDROOT
BRANCH   2   4
ATOM      4  C   UNL     1      -6.391  30.299  22.897  1.00  0.00     0.032 C 
BRANCH   4   5
ATOM      5  C   UNL     1      -6.956  29.015  23.520  1.00  0.00     0.034 C 
BRANCH   5   6
ATOM      6  C   UNL     1      -8.462  29.123  23.665  1.00  0.00    -0.077 C 
ATOM      7  C   UNL     1      -9.330  28.325  22.727  1.00  0.00     0.039 C 
ATOM      8  C   UNL     1      -9.067  29.839  24.642  1.00  0.00    -0.023 CG0
ATOM      9  G   UNL     1      -8.367  30.709  25.660  1.00  0.00     0.000 G0
ENDBRANCH   5   6
ENDBRANCH   4   5
ENDBRANCH   2   4
BRANCH   1  10
ATOM     10  C   UNL     1      -7.882  33.034  23.014  1.00  0.00     0.111 C 
BRANCH  10  11
ATOM     11  C   UNL     1      -8.909  32.670  24.057  1.00  0.00     0.163 C 
ATOM     12  O   UNL     1     -10.125  32.722  23.721  1.00  0.00    -0.294 OA
BRANCH  11  13
ATOM     13  C   UNL     1      -8.539  32.201  25.433  1.00  0.00    -0.002 C 
ATOM     14  C   UNL     1      -8.326  33.099  26.445  1.00  0.00    -0.069 C 
ATOM     15  C   UNL     1      -8.595  34.578  26.267  1.00  0.00     0.039 C 
ATOM     16  C   UNL     1      -7.858  32.658  27.815  1.00  0.00     0.039 C 
BRANCH  13  17
ATOM     17  C   UNL     1      -8.348  30.704  25.671  1.00  0.00     0.066 CG0
ATOM     18  G   UNL     1      -9.063  29.866  24.637  1.00  0.00     0.000 G0
ENDBRANCH  13  17
ENDBRANCH  11  13
ENDBRANCH  10  11
ENDBRANCH   1  10
TORSDOF 0
ENDMDL
MODEL 8
REMARK VINA RESULT:    -4.358      1.757      4.011
REMARK INTER + INTRA:          -5.882
REMARK INTER:                  -7.009
REMARK INTRA:                   1.127
REMARK UNBOUND:                 0.259
REMARK SMILES CC1=CCC(=C(C)C)C(=O)CC(C)=CCC1
REMARK SMILES IDX 12 1 14 2 13 3 15 4 16 5 2 6 1 7 3 8 11 10 9 11 10 12 5 13
REMARK SMILES IDX 6 14 7 15 8 16 4 17
REMARK H PARENT
REMARK Flexibility Score: 60.00
ROOT
ATOM      1  C   UNL     1      -8.095  32.912  20.715  1.00  0.00    -0.070 C 
ATOM      2  C   UNL     1      -8.465  31.611  20.588  1.00  0.00    -0.027 C 
ATOM      3  C   UNL     1      -7.054  33.430  19.753  1.00  0.00     0.039 C 
ENDROOT
BRANCH   2   4
ATOM      4  C   UNL     1      -9.407  30.859  21.497  1.00  0.00     0.032 C 
BRANCH   4   5
ATOM      5  C   UNL     1      -8.798  29.574  22.073  1.00  0.00     0.034 C 
BRANCH   5   6
ATOM      6  C   UNL     1      -7.656  29.911  23.012  1.00  0.00    -0.077 C 
ATOM      7  C   UNL     1      -6.374  29.130  22.889  1.00  0.00     0.039 C 
ATOM      8  C   UNL     1      -7.700  30.930  23.904  1.00  0.00    -0.023 CG0
ATOM      9  G   UNL     1      -8.897  31.810  24.178  1.00  0.00     0.000 G0
ENDBRANCH   5   6
ENDBRANCH   4   5
ENDBRANCH   2   4
BRANCH   1  10
ATOM     10  C   UNL     1      -8.716  33.892  21.705  1.00  0.00     0.111 C 
BRANCH  10  11
ATOM     11  C   UNL     1      -7.987  33.977  23.023  1.00  0.00     0.163 C 
ATOM     12  O   UNL     1      -6.952  34.697  23.072  1.00  0.00    -0.294 OA
BRANCH  11  13
ATOM     13  C   UNL     1      -8.477  33.295  24.267  1.00  0.00    -0.002 C 
ATOM     14  C   UNL     1      -8.514  33.962  25.462  1.00  0.00    -0.069 C 
ATOM     15  C   UNL     1      -8.208  35.442  25.559  1.00  0.00     0.039 C 
ATOM     16  C   UNL     1      -8.911  33.271  26.748  1.00  0.00     0.039 C 
BRANCH  13  17
ATOM     17  C   UNL     1      -8.881  31.824  24.187  1.00  0.00     0.066 CG0
ATOM     18  G   UNL     1      -7.702  30.923  23.902  1.00  0.00     0.000 G0
ENDBRANCH  13  17
ENDBRANCH  11  13
ENDBRANCH  10  11
ENDBRANCH   1  10
TORSDOF 0
ENDMDL
MODEL 9
REMARK VINA RESULT:    -3.814     16.917     19.307
REMARK INTER + INTRA:          -5.115
REMARK INTER:                  -5.862
REMARK INTRA:                   0.747
REMARK UNBOUND:                 0.259
REMARK SMILES CC1=CCC(=C(C)C)C(=O)CC(C)=CCC1
REMARK SMILES IDX 12 1 14 2 13 3 15 4 16 5 2 6 1 7 3 8 11 10 9 11 10 12 5 13
REMARK SMILES IDX 6 14 7 15 8 16 4 17
REMARK H PARENT
REMARK Flexibility Score: 60.00
ROOT
ATOM      1  C   UNL     1       1.909  44.776  20.162  1.00  0.00    -0.070 C 
ATOM      2  C   UNL     1       0.822  45.591  20.136  1.00  0.00    -0.027 C 
ATOM      3  C   UNL     1       1.789  43.443  19.465  1.00  0.00     0.039 C 
ENDROOT
BRANCH   2   4
ATOM      4  C   UNL     1       0.684  46.915  20.848  1.00  0.00     0.032 C 
BRANCH   4   5
ATOM      5  C   UNL     1       0.887  48.124  19.925  1.00  0.00     0.034 C 
BRANCH   5   6
ATOM      6  C   UNL     1       0.866  47.685  18.474  1.00  0.00    -0.077 C 
ATOM      7  C   UNL     1      -0.462  47.354  17.845  1.00  0.00     0.039 C 
ATOM      8  C   UNL     1       1.971  47.647  17.691  1.00  0.00    -0.023 CG0
ATOM      9  G   UNL     1       3.384  47.930  18.145  1.00  0.00     0.000 G0
ENDBRANCH   5   6
ENDBRANCH   4   5
ENDBRANCH   2   4
BRANCH   1  10
ATOM     10  C   UNL     1       3.254  45.153  20.774  1.00  0.00     0.111 C 
BRANCH  10  11
ATOM     11  C   UNL     1       3.827  46.446  20.247  1.00  0.00     0.163 C 
ATOM     12  O   UNL     1       4.179  47.314  21.092  1.00  0.00    -0.294 OA
BRANCH  11  13
ATOM     13  C   UNL     1       4.042  46.703  18.784  1.00  0.00    -0.002 C 
ATOM     14  C   UNL     1       4.857  45.889  18.043  1.00  0.00    -0.069 C 
ATOM     15  C   UNL     1       5.454  44.622  18.618  1.00  0.00     0.039 C 
ATOM     16  C   UNL     1       5.166  46.182  16.592  1.00  0.00     0.039 C 
BRANCH  13  17
ATOM     17  C   UNL     1       3.379  47.924  18.149  1.00  0.00     0.066 CG0
ATOM     18  G   UNL     1       1.974  47.630  17.680  1.00  0.00     0.000 G0
ENDBRANCH  13  17
ENDBRANCH  11  13
ENDBRANCH  10  11
ENDBRANCH   1  10
TORSDOF 0
ENDMDL
