MODEL 1
REMARK VINA RESULT:    -3.775      0.000      0.000
REMARK INTER + INTRA:          -5.540
REMARK INTER:                  -5.098
REMARK INTRA:                  -0.442
REMARK UNBOUND:                -0.442
REMARK SMILES O=C[C@H](O)[C@H](O)[C@H](O)CO
REMARK SMILES IDX 7 1 9 2 10 3 5 5 3 6 2 7 1 8 4 9 6 11 8 13
REMARK H PARENT 10 4 4 10 6 12 8 14
REMARK Flexibility Score: inf
ROOT
ATOM      1  C   UNL     1     118.278 114.893  98.755  1.00  0.00     0.171 C 
ENDROOT
BRANCH   1   2
ATOM      2  C   UNL     1     119.424 115.473  97.911  1.00  0.00     0.190 C 
BRANCH   2   3
ATOM      3  O   UNL     1     119.611 116.830  98.208  1.00  0.00    -0.394 OA
ATOM      4  H   UNL     1     120.522 116.918  98.592  1.00  0.00     0.210 HD
ENDBRANCH   2   3
ENDBRANCH   1   2
BRANCH   1   5
ATOM      5  C   UNL     1     116.908 115.468  98.300  1.00  0.00     0.181 C 
BRANCH   5   6
ATOM      6  C   UNL     1     115.703 114.578  98.705  1.00  0.00     0.209 C 
BRANCH   6   7
ATOM      7  C   UNL     1     115.707 113.242  98.014  1.00  0.00     0.258 C 
ATOM      8  O   UNL     1     115.238 113.113  96.894  1.00  0.00    -0.300 OA
ENDBRANCH   6   7
BRANCH   6   9
ATOM      9  O   UNL     1     114.496 115.237  98.418  1.00  0.00    -0.383 OA
ATOM     10  H   UNL     1     114.163 115.614  99.274  1.00  0.00     0.211 HD
ENDBRANCH   6   9
ENDBRANCH   5   6
BRANCH   5  11
ATOM     11  O   UNL     1     116.888 115.733  96.917  1.00  0.00    -0.387 OA
ATOM     12  H   UNL     1     116.580 116.667  96.788  1.00  0.00     0.211 HD
ENDBRANCH   5  11
ENDBRANCH   1   5
BRANCH   1  13
ATOM     13  O   UNL     1     118.507 115.214 100.104  1.00  0.00    -0.388 OA
ATOM     14  H   UNL     1     118.961 114.435 100.519  1.00  0.00     0.211 HD
ENDBRANCH   1  13
TORSDOF 8
ENDMDL
MODEL 2
REMARK VINA RESULT:    -3.612     13.626     15.174
REMARK INTER + INTRA:          -5.321
REMARK INTER:                  -4.581
REMARK INTRA:                  -0.740
REMARK UNBOUND:                -0.442
REMARK SMILES O=C[C@H](O)[C@H](O)[C@H](O)CO
REMARK SMILES IDX 7 1 9 2 10 3 5 5 3 6 2 7 1 8 4 9 6 11 8 13
REMARK H PARENT 10 4 4 10 6 12 8 14
REMARK Flexibility Score: inf
ROOT
ATOM      1  C   UNL     1     130.481 117.404 100.580  1.00  0.00     0.171 C 
ENDROOT
BRANCH   1   2
ATOM      2  C   UNL     1     130.273 115.920 100.240  1.00  0.00     0.190 C 
BRANCH   2   3
ATOM      3  O   UNL     1     131.508 115.289 100.032  1.00  0.00    -0.394 OA
ATOM      4  H   UNL     1     131.578 115.106  99.059  1.00  0.00     0.210 HD
ENDBRANCH   2   3
ENDBRANCH   1   2
BRANCH   1   5
ATOM      5  C   UNL     1     130.723 118.241  99.292  1.00  0.00     0.181 C 
BRANCH   5   6
ATOM      6  C   UNL     1     132.208 118.643  99.091  1.00  0.00     0.209 C 
BRANCH   6   7
ATOM      7  C   UNL     1     132.378 119.779  98.118  1.00  0.00     0.258 C 
ATOM      8  O   UNL     1     132.218 120.936  98.471  1.00  0.00    -0.300 OA
ENDBRANCH   6   7
BRANCH   6   9
ATOM      9  O   UNL     1     132.952 117.540  98.640  1.00  0.00    -0.383 OA
ATOM     10  H   UNL     1     132.348 117.000  98.066  1.00  0.00     0.211 HD
ENDBRANCH   6   9
ENDBRANCH   5   6
BRANCH   5  11
ATOM     11  O   UNL     1     129.890 119.376  99.245  1.00  0.00    -0.387 OA
ATOM     12  H   UNL     1     129.136 119.229  99.873  1.00  0.00     0.211 HD
ENDBRANCH   5  11
ENDBRANCH   1   5
BRANCH   1  13
ATOM     13  O   UNL     1     131.590 117.518 101.437  1.00  0.00    -0.388 OA
ATOM     14  H   UNL     1     132.166 116.725 101.279  1.00  0.00     0.211 HD
ENDBRANCH   1  13
TORSDOF 8
ENDMDL
MODEL 3
REMARK VINA RESULT:    -3.458     13.768     15.956
REMARK INTER + INTRA:          -5.113
REMARK INTER:                  -4.326
REMARK INTRA:                  -0.787
REMARK UNBOUND:                -0.442
REMARK SMILES O=C[C@H](O)[C@H](O)[C@H](O)CO
REMARK SMILES IDX 7 1 9 2 10 3 5 5 3 6 2 7 1 8 4 9 6 11 8 13
REMARK H PARENT 10 4 4 10 6 12 8 14
REMARK Flexibility Score: inf
ROOT
ATOM      1  C   UNL     1     131.636 116.932 100.439  1.00  0.00     0.171 C 
ENDROOT
BRANCH   1   2
ATOM      2  C   UNL     1     130.379 117.747 100.098  1.00  0.00     0.190 C 
BRANCH   2   3
ATOM      3  O   UNL     1     130.235 117.864  98.708  1.00  0.00    -0.394 OA
ATOM      4  H   UNL     1     130.630 118.738  98.450  1.00  0.00     0.210 HD
ENDBRANCH   2   3
ENDBRANCH   1   2
BRANCH   1   5
ATOM      5  C   UNL     1     132.910 117.609  99.860  1.00  0.00     0.181 C 
BRANCH   5   6
ATOM      6  C   UNL     1     133.001 119.124 100.183  1.00  0.00     0.209 C 
BRANCH   6   7
ATOM      7  C   UNL     1     133.137 119.976  98.950  1.00  0.00     0.258 C 
ATOM      8  O   UNL     1     132.205 120.110  98.174  1.00  0.00    -0.300 OA
ENDBRANCH   6   7
BRANCH   6   9
ATOM      9  O   UNL     1     134.091 119.373 101.033  1.00  0.00    -0.383 OA
ATOM     10  H   UNL     1     133.828 120.125 101.626  1.00  0.00     0.211 HD
ENDBRANCH   6   9
ENDBRANCH   5   6
BRANCH   5  11
ATOM     11  O   UNL     1     133.033 117.388  98.474  1.00  0.00    -0.387 OA
ATOM     12  H   UNL     1     133.920 116.978  98.306  1.00  0.00     0.211 HD
ENDBRANCH   5  11
ENDBRANCH   1   5
BRANCH   1  13
ATOM     13  O   UNL     1     131.496 115.641  99.900  1.00  0.00    -0.388 OA
ATOM     14  H   UNL     1     132.391 115.214  99.922  1.00  0.00     0.211 HD
ENDBRANCH   1  13
TORSDOF 8
ENDMDL
MODEL 4
REMARK VINA RESULT:    -3.437     13.621     15.095
REMARK INTER + INTRA:          -5.085
REMARK INTER:                  -4.599
REMARK INTRA:                  -0.486
REMARK UNBOUND:                -0.442
REMARK SMILES O=C[C@H](O)[C@H](O)[C@H](O)CO
REMARK SMILES IDX 7 1 9 2 10 3 5 5 3 6 2 7 1 8 4 9 6 11 8 13
REMARK H PARENT 10 4 4 10 6 12 8 14
REMARK Flexibility Score: inf
ROOT
ATOM      1  C   UNL     1     132.500 118.243  99.367  1.00  0.00     0.171 C 
ENDROOT
BRANCH   1   2
ATOM      2  C   UNL     1     131.813 117.229 100.295  1.00  0.00     0.190 C 
BRANCH   2   3
ATOM      3  O   UNL     1     131.773 115.964  99.691  1.00  0.00    -0.394 OA
ATOM      4  H   UNL     1     132.534 115.924  99.055  1.00  0.00     0.210 HD
ENDBRANCH   2   3
ENDBRANCH   1   2
BRANCH   1   5
ATOM      5  C   UNL     1     131.454 118.996  98.497  1.00  0.00     0.181 C 
BRANCH   5   6
ATOM      6  C   UNL     1     131.116 120.412  99.032  1.00  0.00     0.209 C 
BRANCH   6   7
ATOM      7  C   UNL     1     129.678 120.793  98.807  1.00  0.00     0.258 C 
ATOM      8  O   UNL     1     128.797 120.378  99.544  1.00  0.00    -0.300 OA
ENDBRANCH   6   7
BRANCH   6   9
ATOM      9  O   UNL     1     131.942 121.371  98.422  1.00  0.00    -0.383 OA
ATOM     10  H   UNL     1     131.726 122.245  98.839  1.00  0.00     0.211 HD
ENDBRANCH   6   9
ENDBRANCH   5   6
BRANCH   5  11
ATOM     11  O   UNL     1     130.280 118.237  98.321  1.00  0.00    -0.387 OA
ATOM     12  H   UNL     1     129.758 118.280  99.163  1.00  0.00     0.211 HD
ENDBRANCH   5  11
ENDBRANCH   1   5
BRANCH   1  13
ATOM     13  O   UNL     1     133.402 117.554  98.538  1.00  0.00    -0.388 OA
ATOM     14  H   UNL     1     132.897 116.820  98.100  1.00  0.00     0.211 HD
ENDBRANCH   1  13
TORSDOF 8
ENDMDL
MODEL 5
REMARK VINA RESULT:    -3.433     14.455     15.573
REMARK INTER + INTRA:          -5.079
REMARK INTER:                  -4.599
REMARK INTRA:                  -0.480
REMARK UNBOUND:                -0.442
REMARK SMILES O=C[C@H](O)[C@H](O)[C@H](O)CO
REMARK SMILES IDX 7 1 9 2 10 3 5 5 3 6 2 7 1 8 4 9 6 11 8 13
REMARK H PARENT 10 4 4 10 6 12 8 14
REMARK Flexibility Score: inf
ROOT
ATOM      1  C   UNL     1     118.421 125.126 109.860  1.00  0.00     0.171 C 
ENDROOT
BRANCH   1   2
ATOM      2  C   UNL     1     119.853 125.080 110.416  1.00  0.00     0.190 C 
BRANCH   2   3
ATOM      3  O   UNL     1     119.966 125.910 111.540  1.00  0.00    -0.394 OA
ATOM      4  H   UNL     1     120.369 125.361 112.263  1.00  0.00     0.210 HD
ENDBRANCH   2   3
ENDBRANCH   1   2
BRANCH   1   5
ATOM      5  C   UNL     1     118.303 126.172 108.715  1.00  0.00     0.181 C 
BRANCH   5   6
ATOM      6  C   UNL     1     118.583 125.578 107.310  1.00  0.00     0.209 C 
BRANCH   6   7
ATOM      7  C   UNL     1     119.989 125.834 106.837  1.00  0.00     0.258 C 
ATOM      8  O   UNL     1     120.316 126.927 106.404  1.00  0.00    -0.300 OA
ENDBRANCH   6   7
BRANCH   6   9
ATOM      9  O   UNL     1     117.682 126.109 106.371  1.00  0.00    -0.383 OA
ATOM     10  H   UNL     1     118.041 126.993 106.096  1.00  0.00     0.211 HD
ENDBRANCH   6   9
ENDBRANCH   5   6
BRANCH   5  11
ATOM     11  O   UNL     1     119.119 127.296 108.952  1.00  0.00    -0.387 OA
ATOM     12  H   UNL     1     120.019 126.972 109.214  1.00  0.00     0.211 HD
ENDBRANCH   5  11
ENDBRANCH   1   5
BRANCH   1  13
ATOM     13  O   UNL     1     117.543 125.463 110.905  1.00  0.00    -0.388 OA
ATOM     14  H   UNL     1     117.760 126.390 111.184  1.00  0.00     0.211 HD
ENDBRANCH   1  13
TORSDOF 8
ENDMDL
MODEL 6
REMARK VINA RESULT:    -3.433     13.129     14.759
REMARK INTER + INTRA:          -5.078
REMARK INTER:                  -4.231
REMARK INTRA:                  -0.848
REMARK UNBOUND:                -0.442
REMARK SMILES O=C[C@H](O)[C@H](O)[C@H](O)CO
REMARK SMILES IDX 7 1 9 2 10 3 5 5 3 6 2 7 1 8 4 9 6 11 8 13
REMARK H PARENT 10 4 4 10 6 12 8 14
REMARK Flexibility Score: inf
ROOT
ATOM      1  C   UNL     1     129.796 118.935 100.646  1.00  0.00     0.171 C 
ENDROOT
BRANCH   1   2
ATOM      2  C   UNL     1     129.666 120.292  99.935  1.00  0.00     0.190 C 
BRANCH   2   3
ATOM      3  O   UNL     1     130.933 120.852  99.719  1.00  0.00    -0.394 OA
ATOM      4  H   UNL     1     131.032 120.971  98.738  1.00  0.00     0.210 HD
ENDBRANCH   2   3
ENDBRANCH   1   2
BRANCH   1   5
ATOM      5  C   UNL     1     130.393 117.863  99.691  1.00  0.00     0.181 C 
BRANCH   5   6
ATOM      6  C   UNL     1     131.803 117.376 100.119  1.00  0.00     0.209 C 
BRANCH   6   7
ATOM      7  C   UNL     1     132.892 117.866  99.203  1.00  0.00     0.258 C 
ATOM      8  O   UNL     1     133.178 119.051  99.147  1.00  0.00    -0.300 OA
ENDBRANCH   6   7
BRANCH   6   9
ATOM      9  O   UNL     1     131.838 115.973 100.161  1.00  0.00    -0.383 OA
ATOM     10  H   UNL     1     132.304 115.672  99.337  1.00  0.00     0.211 HD
ENDBRANCH   6   9
ENDBRANCH   5   6
BRANCH   5  11
ATOM     11  O   UNL     1     130.405 118.307  98.354  1.00  0.00    -0.387 OA
ATOM     12  H   UNL     1     129.925 119.174  98.314  1.00  0.00     0.211 HD
ENDBRANCH   5  11
ENDBRANCH   1   5
BRANCH   1  13
ATOM     13  O   UNL     1     128.521 118.531 101.079  1.00  0.00    -0.388 OA
ATOM     14  H   UNL     1     128.243 119.156 101.797  1.00  0.00     0.211 HD
ENDBRANCH   1  13
TORSDOF 8
ENDMDL
MODEL 7
REMARK VINA RESULT:    -3.419      6.179      7.539
REMARK INTER + INTRA:          -5.060
REMARK INTER:                  -4.379
REMARK INTRA:                  -0.681
REMARK UNBOUND:                -0.442
REMARK SMILES O=C[C@H](O)[C@H](O)[C@H](O)CO
REMARK SMILES IDX 7 1 9 2 10 3 5 5 3 6 2 7 1 8 4 9 6 11 8 13
REMARK H PARENT 10 4 4 10 6 12 8 14
REMARK Flexibility Score: inf
ROOT
ATOM      1  C   UNL     1     120.154 120.489 101.900  1.00  0.00     0.171 C 
ENDROOT
BRANCH   1   2
ATOM      2  C   UNL     1     120.714 121.895 102.166  1.00  0.00     0.190 C 
BRANCH   2   3
ATOM      3  O   UNL     1     119.708 122.859 102.014  1.00  0.00    -0.394 OA
ATOM      4  H   UNL     1     119.743 123.442 102.818  1.00  0.00     0.210 HD
ENDBRANCH   2   3
ENDBRANCH   1   2
BRANCH   1   5
ATOM      5  C   UNL     1     119.621 119.846 103.211  1.00  0.00     0.181 C 
BRANCH   5   6
ATOM      6  C   UNL     1     118.639 118.671 102.965  1.00  0.00     0.209 C 
BRANCH   6   7
ATOM      7  C   UNL     1     118.568 117.717 104.126  1.00  0.00     0.258 C 
ATOM      8  O   UNL     1     118.160 118.085 105.216  1.00  0.00    -0.300 OA
ENDBRANCH   6   7
BRANCH   6   9
ATOM      9  O   UNL     1     119.014 117.960 101.813  1.00  0.00    -0.383 OA
ATOM     10  H   UNL     1     119.925 118.269 101.567  1.00  0.00     0.211 HD
ENDBRANCH   6   9
ENDBRANCH   5   6
BRANCH   5  11
ATOM     11  O   UNL     1     119.042 120.807 104.064  1.00  0.00    -0.387 OA
ATOM     12  H   UNL     1     119.631 120.910 104.855  1.00  0.00     0.211 HD
ENDBRANCH   5  11
ENDBRANCH   1   5
BRANCH   1  13
ATOM     13  O   UNL     1     121.177 119.692 101.360  1.00  0.00    -0.388 OA
ATOM     14  H   UNL     1     122.030 119.991 101.770  1.00  0.00     0.211 HD
ENDBRANCH   1  13
TORSDOF 8
ENDMDL
MODEL 8
REMARK VINA RESULT:    -3.402     12.925     14.570
REMARK INTER + INTRA:          -5.036
REMARK INTER:                  -4.201
REMARK INTRA:                  -0.835
REMARK UNBOUND:                -0.442
REMARK SMILES O=C[C@H](O)[C@H](O)[C@H](O)CO
REMARK SMILES IDX 7 1 9 2 10 3 5 5 3 6 2 7 1 8 4 9 6 11 8 13
REMARK H PARENT 10 4 4 10 6 12 8 14
REMARK Flexibility Score: inf
ROOT
ATOM      1  C   UNL     1     131.686 117.269  99.697  1.00  0.00     0.171 C 
ENDROOT
BRANCH   1   2
ATOM      2  C   UNL     1     132.942 117.955  99.135  1.00  0.00     0.190 C 
BRANCH   2   3
ATOM      3  O   UNL     1     132.590 118.871  98.135  1.00  0.00    -0.394 OA
ATOM      4  H   UNL     1     133.251 119.612  98.177  1.00  0.00     0.210 HD
ENDBRANCH   2   3
ENDBRANCH   1   2
BRANCH   1   5
ATOM      5  C   UNL     1     130.914 118.222 100.652  1.00  0.00     0.181 C 
BRANCH   5   6
ATOM      6  C   UNL     1     129.495 118.586 100.141  1.00  0.00     0.209 C 
BRANCH   6   7
ATOM      7  C   UNL     1     129.433 119.953  99.514  1.00  0.00     0.258 C 
ATOM      8  O   UNL     1     130.016 120.190  98.468  1.00  0.00    -0.300 OA
ENDBRANCH   6   7
BRANCH   6   9
ATOM      9  O   UNL     1     128.569 118.526 101.195  1.00  0.00    -0.383 OA
ATOM     10  H   UNL     1     128.155 117.624 101.164  1.00  0.00     0.211 HD
ENDBRANCH   6   9
ENDBRANCH   5   6
BRANCH   5  11
ATOM     11  O   UNL     1     131.654 119.387 100.935  1.00  0.00    -0.387 OA
ATOM     12  H   UNL     1     132.110 119.671 100.102  1.00  0.00     0.211 HD
ENDBRANCH   5  11
ENDBRANCH   1   5
BRANCH   1  13
ATOM     13  O   UNL     1     132.079 116.113 100.393  1.00  0.00    -0.388 OA
ATOM     14  H   UNL     1     132.265 116.383 101.330  1.00  0.00     0.211 HD
ENDBRANCH   1  13
TORSDOF 8
ENDMDL
MODEL 9
REMARK VINA RESULT:    -3.349     12.956     14.749
REMARK INTER + INTRA:          -4.965
REMARK INTER:                  -4.186
REMARK INTRA:                  -0.779
REMARK UNBOUND:                -0.442
REMARK SMILES O=C[C@H](O)[C@H](O)[C@H](O)CO
REMARK SMILES IDX 7 1 9 2 10 3 5 5 3 6 2 7 1 8 4 9 6 11 8 13
REMARK H PARENT 10 4 4 10 6 12 8 14
REMARK Flexibility Score: inf
ROOT
ATOM      1  C   UNL     1     130.887 118.271 101.513  1.00  0.00     0.171 C 
ENDROOT
BRANCH   1   2
ATOM      2  C   UNL     1     129.365 118.090 101.630  1.00  0.00     0.190 C 
BRANCH   2   3
ATOM      3  O   UNL     1     128.719 118.663 100.526  1.00  0.00    -0.394 OA
ATOM      4  H   UNL     1     129.427 118.915  99.877  1.00  0.00     0.210 HD
ENDBRANCH   2   3
ENDBRANCH   1   2
BRANCH   1   5
ATOM      5  C   UNL     1     131.471 117.354 100.402  1.00  0.00     0.181 C 
BRANCH   5   6
ATOM      6  C   UNL     1     132.362 118.114  99.384  1.00  0.00     0.209 C 
BRANCH   6   7
ATOM      7  C   UNL     1     131.594 119.131  98.583  1.00  0.00     0.258 C 
ATOM      8  O   UNL     1     130.483 118.877  98.145  1.00  0.00    -0.300 OA
ENDBRANCH   6   7
BRANCH   6   9
ATOM      9  O   UNL     1     132.973 117.207  98.504  1.00  0.00    -0.383 OA
ATOM     10  H   UNL     1     133.020 116.334  98.975  1.00  0.00     0.211 HD
ENDBRANCH   6   9
ENDBRANCH   5   6
BRANCH   5  11
ATOM     11  O   UNL     1     130.460 116.633  99.738  1.00  0.00    -0.387 OA
ATOM     12  H   UNL     1     130.850 115.778  99.422  1.00  0.00     0.211 HD
ENDBRANCH   5  11
ENDBRANCH   1   5
BRANCH   1  13
ATOM     13  O   UNL     1     131.474 117.955 102.751  1.00  0.00    -0.388 OA
ATOM     14  H   UNL     1     130.879 118.315 103.459  1.00  0.00     0.211 HD
ENDBRANCH   1  13
TORSDOF 8
ENDMDL
