MODEL 1
REMARK VINA RESULT:    -5.920      0.000      0.000
REMARK INTER + INTRA:          -9.547
REMARK INTER:                  -8.516
REMARK INTRA:                  -1.031
REMARK UNBOUND:                -1.031
REMARK SMILES O=c1cc(-c2ccc(O)c(O)c2)oc2cc(O[C@H]3O[C@@H](CO)[C@H](O)[C@H](O)[C@H]3O)cc(O)c12
REMARK SMILES IDX 17 1 16 2 4 3 3 4 13 5 2 6 14 7 1 8 32 9 15 10 30 11 29 12
REMARK SMILES IDX 5 13 6 14 7 15 8 16 12 17 10 18 9 19 11 21 31 23 18 25 27 26
REMARK SMILES IDX 19 27 25 28 20 29 23 30 28 31 26 33 21 35 22 36 24 38
REMARK H PARENT 9 20 11 22 31 24 28 32 26 34 22 37 24 39
REMARK Flexibility Score: inf
ROOT
ATOM      1  O   UNL     1       2.923  13.010  26.535  1.00  0.00    -0.462 OA
ENDROOT
BRANCH   1   2
ATOM      2  C   UNL     1       2.307  14.212  26.153  1.00  0.00     0.130 A 
ATOM      3  C   UNL     1       0.313  18.264  27.665  1.00  0.00     0.138 A 
ATOM      4  C   UNL     1       0.067  18.718  26.362  1.00  0.00     0.100 A 
ATOM      5  O   UNL     1       0.910  17.091  27.843  1.00  0.00    -0.456 OA
ATOM      6  C   UNL     1       0.439  17.928  25.273  1.00  0.00     0.197 A 
ATOM      7  C   UNL     1       1.284  16.300  26.844  1.00  0.00     0.146 A 
ATOM      8  O   UNL     1       0.198  18.366  24.120  1.00  0.00    -0.289 OA
ATOM      9  C   UNL     1       1.068  16.676  25.491  1.00  0.00     0.107 A 
ATOM     10  C   UNL     1       1.897  15.085  27.156  1.00  0.00     0.094 A 
ATOM     11  C   UNL     1       1.495  15.779  24.462  1.00  0.00     0.134 A 
ATOM     12  C   UNL     1       2.101  14.565  24.811  1.00  0.00     0.093 A 
BRANCH   3  13
ATOM     13  C   UNL     1      -0.061  19.064  28.859  1.00  0.00     0.021 A 
ATOM     14  C   UNL     1      -0.700  20.313  28.743  1.00  0.00     0.016 A 
ATOM     15  C   UNL     1      -1.051  21.038  29.886  1.00  0.00     0.051 A 
ATOM     16  C   UNL     1      -0.776  20.526  31.160  1.00  0.00     0.157 A 
ATOM     17  C   UNL     1       0.199  18.551  30.143  1.00  0.00     0.062 A 
ATOM     18  C   UNL     1      -0.154  19.279  31.289  1.00  0.00     0.158 A 
BRANCH  16  19
ATOM     19  O   UNL     1      -1.124  21.246  32.302  1.00  0.00    -0.504 OA
ATOM     20  H   UNL     1      -0.742  22.168  32.483  1.00  0.00     0.293 HD
ENDBRANCH  16  19
BRANCH  18  21
ATOM     21  O   UNL     1       0.113  18.769  32.559  1.00  0.00    -0.504 OA
ATOM     22  H   UNL     1       1.008  18.915  33.011  1.00  0.00     0.293 HD
ENDBRANCH  18  21
ENDBRANCH   3  13
BRANCH  11  23
ATOM     23  O   UNL     1       1.356  16.020  23.090  1.00  0.00    -0.507 OA
ATOM     24  H   UNL     1       0.999  15.376  22.404  1.00  0.00     0.293 HD
ENDBRANCH  11  23
ENDBRANCH   1   2
BRANCH   1  25
ATOM     25  C   UNL     1       4.310  12.856  26.845  1.00  0.00     0.339 C 
ATOM     26  C   UNL     1       5.044  12.081  25.735  1.00  0.00     0.214 C 
ATOM     27  O   UNL     1       4.494  12.270  28.129  1.00  0.00    -0.332 OA
ATOM     28  C   UNL     1       4.616  10.604  25.731  1.00  0.00     0.180 C 
ATOM     29  C   UNL     1       4.127  10.895  28.209  1.00  0.00     0.179 C 
ATOM     30  C   UNL     1       4.815  10.016  27.135  1.00  0.00     0.177 C 
BRANCH  26  31
ATOM     31  O   UNL     1       4.834  12.681  24.479  1.00  0.00    -0.384 OA
ATOM     32  H   UNL     1       4.010  13.231  24.535  1.00  0.00     0.211 HD
ENDBRANCH  26  31
BRANCH  28  33
ATOM     33  O   UNL     1       5.382   9.878  24.804  1.00  0.00    -0.387 OA
ATOM     34  H   UNL     1       6.203   9.582  25.275  1.00  0.00     0.211 HD
ENDBRANCH  28  33
BRANCH  29  35
ATOM     35  C   UNL     1       2.597  10.693  28.287  1.00  0.00     0.191 C 
BRANCH  35  36
ATOM     36  O   UNL     1       1.998  11.732  29.015  1.00  0.00    -0.394 OA
ATOM     37  H   UNL     1       2.058  12.548  28.452  1.00  0.00     0.210 HD
ENDBRANCH  35  36
ENDBRANCH  29  35
BRANCH  30  38
ATOM     38  O   UNL     1       6.187   9.930  27.436  1.00  0.00    -0.387 OA
ATOM     39  H   UNL     1       6.289  10.138  28.402  1.00  0.00     0.211 HD
ENDBRANCH  30  38
ENDBRANCH   1  25
TORSDOF 11
ENDMDL
MODEL 2
REMARK VINA RESULT:    -4.833      1.682      2.997
REMARK INTER + INTRA:          -7.984
REMARK INTER:                  -7.475
REMARK INTRA:                  -0.509
REMARK UNBOUND:                -1.031
REMARK SMILES O=c1cc(-c2ccc(O)c(O)c2)oc2cc(O[C@H]3O[C@@H](CO)[C@H](O)[C@H](O)[C@H]3O)cc(O)c12
REMARK SMILES IDX 17 1 16 2 4 3 3 4 13 5 2 6 14 7 1 8 32 9 15 10 30 11 29 12
REMARK SMILES IDX 5 13 6 14 7 15 8 16 12 17 10 18 9 19 11 21 31 23 18 25 27 26
REMARK SMILES IDX 19 27 25 28 20 29 23 30 28 31 26 33 21 35 22 36 24 38
REMARK H PARENT 9 20 11 22 31 24 28 32 26 34 22 37 24 39
REMARK Flexibility Score: inf
ROOT
ATOM      1  O   UNL     1       1.908  13.674  27.724  1.00  0.00    -0.462 OA
ENDROOT
BRANCH   1   2
ATOM      2  C   UNL     1       1.473  14.771  26.963  1.00  0.00     0.130 A 
ATOM      3  C   UNL     1      -0.002  19.298  27.075  1.00  0.00     0.138 A 
ATOM      4  C   UNL     1      -0.141  19.366  25.682  1.00  0.00     0.100 A 
ATOM      5  O   UNL     1       0.424  18.170  27.631  1.00  0.00    -0.456 OA
ATOM      6  C   UNL     1       0.156  18.247  24.902  1.00  0.00     0.197 A 
ATOM      7  C   UNL     1       0.721  17.076  26.937  1.00  0.00     0.146 A 
ATOM      8  O   UNL     1       0.016  18.345  23.657  1.00  0.00    -0.289 OA
ATOM      9  C   UNL     1       0.602  17.053  25.521  1.00  0.00     0.107 A 
ATOM     10  C   UNL     1       1.152  15.947  27.635  1.00  0.00     0.094 A 
ATOM     11  C   UNL     1       0.938  15.845  24.834  1.00  0.00     0.134 A 
ATOM     12  C   UNL     1       1.362  14.728  25.565  1.00  0.00     0.093 A 
BRANCH   3  13
ATOM     13  C   UNL     1      -0.304  20.457  27.952  1.00  0.00     0.021 A 
ATOM     14  C   UNL     1      -0.862  20.290  29.234  1.00  0.00     0.016 A 
ATOM     15  C   UNL     1      -1.124  21.400  30.043  1.00  0.00     0.051 A 
ATOM     16  C   UNL     1      -0.828  22.691  29.589  1.00  0.00     0.157 A 
ATOM     17  C   UNL     1       0.002  21.757  27.510  1.00  0.00     0.062 A 
ATOM     18  C   UNL     1      -0.261  22.869  28.322  1.00  0.00     0.158 A 
BRANCH  16  19
ATOM     19  O   UNL     1      -1.090  23.800  30.392  1.00  0.00    -0.504 OA
ATOM     20  H   UNL     1      -0.935  24.744  30.058  1.00  0.00     0.293 HD
ENDBRANCH  16  19
BRANCH  18  21
ATOM     21  O   UNL     1       0.038  24.156  27.875  1.00  0.00    -0.504 OA
ATOM     22  H   UNL     1       0.868  24.646  28.187  1.00  0.00     0.293 HD
ENDBRANCH  18  21
ENDBRANCH   3  13
BRANCH  11  23
ATOM     23  O   UNL     1       0.879  15.678  23.445  1.00  0.00    -0.507 OA
ATOM     24  H   UNL     1       1.443  15.052  22.895  1.00  0.00     0.293 HD
ENDBRANCH  11  23
ENDBRANCH   1   2
BRANCH   1  25
ATOM     25  C   UNL     1       1.891  12.311  27.291  1.00  0.00     0.339 C 
ATOM     26  C   UNL     1       2.118  11.351  28.474  1.00  0.00     0.214 C 
ATOM     27  O   UNL     1       2.812  12.092  26.229  1.00  0.00    -0.332 OA
ATOM     28  C   UNL     1       3.567  11.443  28.977  1.00  0.00     0.180 C 
ATOM     29  C   UNL     1       4.183  12.152  26.614  1.00  0.00     0.179 C 
ATOM     30  C   UNL     1       4.527  11.217  27.799  1.00  0.00     0.177 C 
BRANCH  26  31
ATOM     31  O   UNL     1       1.197  11.601  29.508  1.00  0.00    -0.384 OA
ATOM     32  H   UNL     1       0.443  12.124  29.130  1.00  0.00     0.211 HD
ENDBRANCH  26  31
BRANCH  28  33
ATOM     33  O   UNL     1       3.801  10.475  29.967  1.00  0.00    -0.387 OA
ATOM     34  H   UNL     1       4.642  10.008  29.724  1.00  0.00     0.211 HD
ENDBRANCH  28  33
BRANCH  29  35
ATOM     35  C   UNL     1       4.682  13.602  26.806  1.00  0.00     0.191 C 
BRANCH  35  36
ATOM     36  O   UNL     1       5.365  14.045  25.663  1.00  0.00    -0.394 OA
ATOM     37  H   UNL     1       5.961  13.303  25.381  1.00  0.00     0.210 HD
ENDBRANCH  35  36
ENDBRANCH  29  35
BRANCH  30  38
ATOM     38  O   UNL     1       4.447   9.883  27.357  1.00  0.00    -0.387 OA
ATOM     39  H   UNL     1       5.289   9.685  26.870  1.00  0.00     0.211 HD
ENDBRANCH  30  38
ENDBRANCH   1  25
TORSDOF 11
ENDMDL
MODEL 3
REMARK VINA RESULT:    -3.770      1.708      2.357
REMARK INTER + INTRA:          -6.455
REMARK INTER:                  -5.711
REMARK INTRA:                  -0.744
REMARK UNBOUND:                -1.031
REMARK SMILES O=c1cc(-c2ccc(O)c(O)c2)oc2cc(O[C@H]3O[C@@H](CO)[C@H](O)[C@H](O)[C@H]3O)cc(O)c12
REMARK SMILES IDX 17 1 16 2 4 3 3 4 13 5 2 6 14 7 1 8 32 9 15 10 30 11 29 12
REMARK SMILES IDX 5 13 6 14 7 15 8 16 12 17 10 18 9 19 11 21 31 23 18 25 27 26
REMARK SMILES IDX 19 27 25 28 20 29 23 30 28 31 26 33 21 35 22 36 24 38
REMARK H PARENT 9 20 11 22 31 24 28 32 26 34 22 37 24 39
REMARK Flexibility Score: inf
ROOT
ATOM      1  O   UNL     1       1.585  13.377  27.472  1.00  0.00    -0.462 OA
ENDROOT
BRANCH   1   2
ATOM      2  C   UNL     1       1.291  14.548  26.755  1.00  0.00     0.130 A 
ATOM      3  C   UNL     1       0.060  19.139  27.055  1.00  0.00     0.138 A 
ATOM      4  C   UNL     1       0.068  19.310  25.664  1.00  0.00     0.100 A 
ATOM      5  O   UNL     1       0.365  17.952  27.565  1.00  0.00    -0.456 OA
ATOM      6  C   UNL     1       0.383  18.231  24.837  1.00  0.00     0.197 A 
ATOM      7  C   UNL     1       0.671  16.892  26.825  1.00  0.00     0.146 A 
ATOM      8  O   UNL     1       0.376  18.422  23.594  1.00  0.00    -0.289 OA
ATOM      9  C   UNL     1       0.697  16.972  25.407  1.00  0.00     0.107 A 
ATOM     10  C   UNL     1       0.966  15.693  27.476  1.00  0.00     0.094 A 
ATOM     11  C   UNL     1       1.035  15.795  24.668  1.00  0.00     0.134 A 
ATOM     12  C   UNL     1       1.321  14.608  25.354  1.00  0.00     0.093 A 
BRANCH   3  13
ATOM     13  C   UNL     1      -0.267  20.253  27.981  1.00  0.00     0.021 A 
ATOM     14  C   UNL     1      -0.820  20.019  29.255  1.00  0.00     0.016 A 
ATOM     15  C   UNL     1      -1.106  21.087  30.111  1.00  0.00     0.051 A 
ATOM     16  C   UNL     1      -0.839  22.402  29.713  1.00  0.00     0.157 A 
ATOM     17  C   UNL     1       0.010  21.577  27.596  1.00  0.00     0.062 A 
ATOM     18  C   UNL     1      -0.276  22.647  28.455  1.00  0.00     0.158 A 
BRANCH  16  19
ATOM     19  O   UNL     1      -1.124  23.469  30.563  1.00  0.00    -0.504 OA
ATOM     20  H   UNL     1      -1.690  23.348  31.394  1.00  0.00     0.293 HD
ENDBRANCH  16  19
BRANCH  18  21
ATOM     21  O   UNL     1      -0.006  23.958  28.064  1.00  0.00    -0.504 OA
ATOM     22  H   UNL     1      -0.638  24.471  27.460  1.00  0.00     0.293 HD
ENDBRANCH  18  21
ENDBRANCH   3  13
BRANCH  11  23
ATOM     23  O   UNL     1       1.110  15.727  23.272  1.00  0.00    -0.507 OA
ATOM     24  H   UNL     1       0.871  14.935  22.699  1.00  0.00     0.293 HD
ENDBRANCH  11  23
ENDBRANCH   1   2
BRANCH   1  25
ATOM     25  C   UNL     1       2.754  13.170  28.268  1.00  0.00     0.339 C 
ATOM     26  C   UNL     1       3.762  12.257  27.544  1.00  0.00     0.214 C 
ATOM     27  O   UNL     1       2.421  12.689  29.566  1.00  0.00    -0.332 OA
ATOM     28  C   UNL     1       3.237  10.814  27.477  1.00  0.00     0.180 C 
ATOM     29  C   UNL     1       1.931  11.351  29.592  1.00  0.00     0.179 C 
ATOM     30  C   UNL     1       2.874  10.341  28.893  1.00  0.00     0.177 C 
BRANCH  26  31
ATOM     31  O   UNL     1       4.062  12.755  26.263  1.00  0.00    -0.384 OA
ATOM     32  H   UNL     1       4.666  12.108  25.815  1.00  0.00     0.211 HD
ENDBRANCH  26  31
BRANCH  28  33
ATOM     33  O   UNL     1       4.214   9.965  26.933  1.00  0.00    -0.387 OA
ATOM     34  H   UNL     1       4.478  10.351  26.058  1.00  0.00     0.211 HD
ENDBRANCH  28  33
BRANCH  29  35
ATOM     35  C   UNL     1       0.461  11.248  29.128  1.00  0.00     0.191 C 
BRANCH  35  36
ATOM     36  O   UNL     1      -0.380  10.955  30.213  1.00  0.00    -0.394 OA
ATOM     37  H   UNL     1      -0.234  11.668  30.888  1.00  0.00     0.210 HD
ENDBRANCH  35  36
ENDBRANCH  29  35
BRANCH  30  38
ATOM     38  O   UNL     1       4.039  10.200  29.671  1.00  0.00    -0.387 OA
ATOM     39  H   UNL     1       4.104  11.006  30.247  1.00  0.00     0.211 HD
ENDBRANCH  30  38
ENDBRANCH   1  25
TORSDOF 11
ENDMDL
MODEL 4
REMARK VINA RESULT:    -3.093      1.698      3.063
REMARK INTER + INTRA:          -5.480
REMARK INTER:                  -4.764
REMARK INTRA:                  -0.716
REMARK UNBOUND:                -1.031
REMARK SMILES O=c1cc(-c2ccc(O)c(O)c2)oc2cc(O[C@H]3O[C@@H](CO)[C@H](O)[C@H](O)[C@H]3O)cc(O)c12
REMARK SMILES IDX 17 1 16 2 4 3 3 4 13 5 2 6 14 7 1 8 32 9 15 10 30 11 29 12
REMARK SMILES IDX 5 13 6 14 7 15 8 16 12 17 10 18 9 19 11 21 31 23 18 25 27 26
REMARK SMILES IDX 19 27 25 28 20 29 23 30 28 31 26 33 21 35 22 36 24 38
REMARK H PARENT 9 20 11 22 31 24 28 32 26 34 22 37 24 39
REMARK Flexibility Score: inf
ROOT
ATOM      1  O   UNL     1       2.179  14.934  26.815  1.00  0.00    -0.462 OA
ENDROOT
BRANCH   1   2
ATOM      2  C   UNL     1       1.476  16.030  26.292  1.00  0.00     0.130 A 
ATOM      3  C   UNL     1      -0.343  20.336  27.205  1.00  0.00     0.138 A 
ATOM      4  C   UNL     1      -0.817  20.497  25.896  1.00  0.00     0.100 A 
ATOM      5  O   UNL     1       0.306  19.224  27.530  1.00  0.00    -0.456 OA
ATOM      6  C   UNL     1      -0.612  19.484  24.958  1.00  0.00     0.197 A 
ATOM      7  C   UNL     1       0.528  18.229  26.677  1.00  0.00     0.146 A 
ATOM      8  O   UNL     1      -1.054  19.663  23.795  1.00  0.00    -0.289 OA
ATOM      9  C   UNL     1       0.077  18.304  25.332  1.00  0.00     0.107 A 
ATOM     10  C   UNL     1       1.216  17.105  27.137  1.00  0.00     0.094 A 
ATOM     11  C   UNL     1       0.350  17.200  24.464  1.00  0.00     0.134 A 
ATOM     12  C   UNL     1       1.038  16.085  24.960  1.00  0.00     0.093 A 
BRANCH   3  13
ATOM     13  C   UNL     1      -0.533  21.381  28.243  1.00  0.00     0.021 A 
ATOM     14  C   UNL     1      -0.552  22.751  27.920  1.00  0.00     0.016 A 
ATOM     15  C   UNL     1      -0.745  23.712  28.918  1.00  0.00     0.051 A 
ATOM     16  C   UNL     1      -0.928  23.321  30.249  1.00  0.00     0.157 A 
ATOM     17  C   UNL     1      -0.731  20.997  29.583  1.00  0.00     0.062 A 
ATOM     18  C   UNL     1      -0.925  21.961  30.582  1.00  0.00     0.158 A 
BRANCH  16  19
ATOM     19  O   UNL     1      -1.118  24.276  31.247  1.00  0.00    -0.504 OA
ATOM     20  H   UNL     1      -2.046  24.581  31.518  1.00  0.00     0.293 HD
ENDBRANCH  16  19
BRANCH  18  21
ATOM     21  O   UNL     1      -1.113  21.575  31.908  1.00  0.00    -0.504 OA
ATOM     22  H   UNL     1      -1.828  20.905  32.169  1.00  0.00     0.293 HD
ENDBRANCH  18  21
ENDBRANCH   3  13
BRANCH  11  23
ATOM     23  O   UNL     1      -0.024  17.137  23.117  1.00  0.00    -0.507 OA
ATOM     24  H   UNL     1      -0.502  16.376  22.665  1.00  0.00     0.293 HD
ENDBRANCH  11  23
ENDBRANCH   1   2
BRANCH   1  25
ATOM     25  C   UNL     1       2.108  13.595  26.318  1.00  0.00     0.339 C 
ATOM     26  C   UNL     1       2.457  12.576  27.419  1.00  0.00     0.214 C 
ATOM     27  O   UNL     1       2.908  13.430  25.152  1.00  0.00    -0.332 OA
ATOM     28  C   UNL     1       3.953  12.643  27.766  1.00  0.00     0.180 C 
ATOM     29  C   UNL     1       4.313  13.472  25.389  1.00  0.00     0.179 C 
ATOM     30  C   UNL     1       4.778  12.477  26.481  1.00  0.00     0.177 C 
BRANCH  26  31
ATOM     31  O   UNL     1       1.655  12.772  28.559  1.00  0.00    -0.384 OA
ATOM     32  H   UNL     1       0.839  12.217  28.460  1.00  0.00     0.211 HD
ENDBRANCH  26  31
BRANCH  28  33
ATOM     33  O   UNL     1       4.288  11.626  28.674  1.00  0.00    -0.387 OA
ATOM     34  H   UNL     1       4.655  12.070  29.483  1.00  0.00     0.211 HD
ENDBRANCH  28  33
BRANCH  29  35
ATOM     35  C   UNL     1       4.836  14.911  25.599  1.00  0.00     0.191 C 
BRANCH  35  36
ATOM     36  O   UNL     1       6.153  15.030  25.129  1.00  0.00    -0.394 OA
ATOM     37  H   UNL     1       6.558  14.125  25.180  1.00  0.00     0.210 HD
ENDBRANCH  35  36
ENDBRANCH  29  35
BRANCH  30  38
ATOM     38  O   UNL     1       4.644  11.168  25.983  1.00  0.00    -0.387 OA
ATOM     39  H   UNL     1       4.775  10.549  26.748  1.00  0.00     0.211 HD
ENDBRANCH  30  38
ENDBRANCH   1  25
TORSDOF 11
ENDMDL
