MODEL 1
REMARK VINA RESULT:    10.587      0.000      0.000
REMARK INTER + INTRA:          20.011
REMARK INTER:                  19.871
REMARK INTRA:                   0.140
REMARK UNBOUND:                 0.140
REMARK SMILES CCCCCCCCC=CCCCCCCCC(=O)[O-]
REMARK SMILES IDX 10 1 9 2 11 3 12 4 13 5 14 6 15 7 16 8 17 9 18 10 19 11
REMARK SMILES IDX 20 12 8 13 7 14 6 15 5 16 4 17 3 18 2 19 1 20
REMARK H PARENT
REMARK Flexibility Score: inf
ROOT
ATOM      1  C   UNL     1     -25.254  28.605  -8.227  1.00  0.00    -0.031 C 
ATOM      2  C   UNL     1     -26.365  28.847  -7.516  1.00  0.00    -0.031 C 
ENDROOT
BRANCH   1   3
ATOM      3  C   UNL     1     -24.333  27.461  -7.895  1.00  0.00     0.027 C 
BRANCH   3   4
ATOM      4  C   UNL     1     -22.992  27.959  -7.344  1.00  0.00     0.004 C 
BRANCH   4   5
ATOM      5  C   UNL     1     -22.438  27.034  -6.246  1.00  0.00     0.000 C 
BRANCH   5   6
ATOM      6  C   UNL     1     -20.938  26.731  -6.415  1.00  0.00     0.000 C 
BRANCH   6   7
ATOM      7  C   UNL     1     -20.215  26.283  -5.132  1.00  0.00     0.000 C 
BRANCH   7   8
ATOM      8  C   UNL     1     -18.876  25.579  -5.413  1.00  0.00     0.006 C 
BRANCH   8   9
ATOM      9  C   UNL     1     -18.889  24.819  -6.745  1.00  0.00     0.053 C 
BRANCH   9  10
ATOM     10  C   UNL     1     -19.070  23.346  -6.541  1.00  0.00     0.041 C 
ATOM     11  O   UNL     1     -19.403  22.898  -5.413  1.00  0.00    -0.550 OA
ATOM     12  O   UNL     1     -18.904  22.470  -7.607  1.00  0.00    -0.550 OA
ENDBRANCH   9  10
ENDBRANCH   8   9
ENDBRANCH   7   8
ENDBRANCH   6   7
ENDBRANCH   5   6
ENDBRANCH   4   5
ENDBRANCH   3   4
ENDBRANCH   1   3
BRANCH   2  13
ATOM     13  C   UNL     1     -27.260  30.017  -7.826  1.00  0.00     0.027 C 
BRANCH  13  14
ATOM     14  C   UNL     1     -26.514  31.358  -7.760  1.00  0.00     0.004 C 
BRANCH  14  15
ATOM     15  C   UNL     1     -25.004  31.191  -8.002  1.00  0.00     0.000 C 
BRANCH  15  16
ATOM     16  C   UNL     1     -24.542  31.823  -9.325  1.00  0.00     0.000 C 
BRANCH  16  17
ATOM     17  C   UNL     1     -23.021  32.055  -9.373  1.00  0.00    -0.000 C 
BRANCH  17  18
ATOM     18  C   UNL     1     -22.642  33.503  -8.995  1.00  0.00    -0.000 C 
BRANCH  18  19
ATOM     19  C   UNL     1     -23.751  34.525  -9.291  1.00  0.00    -0.003 C 
ATOM     20  C   UNL     1     -23.248  35.967  -9.306  1.00  0.00     0.004 C 
ENDBRANCH  18  19
ENDBRANCH  17  18
ENDBRANCH  16  17
ENDBRANCH  15  16
ENDBRANCH  14  15
ENDBRANCH  13  14
ENDBRANCH   2  13
TORSDOF 15
ENDMDL
MODEL 2
REMARK VINA RESULT:    10.902      0.934      1.686
REMARK INTER + INTRA:          20.602
REMARK INTER:                  20.860
REMARK INTRA:                  -0.258
REMARK UNBOUND:                 0.140
REMARK SMILES CCCCCCCCC=CCCCCCCCC(=O)[O-]
REMARK SMILES IDX 10 1 9 2 11 3 12 4 13 5 14 6 15 7 16 8 17 9 18 10 19 11
REMARK SMILES IDX 20 12 8 13 7 14 6 15 5 16 4 17 3 18 2 19 1 20
REMARK H PARENT
REMARK Flexibility Score: inf
ROOT
ATOM      1  C   UNL     1     -25.161  27.808  -8.264  1.00  0.00    -0.031 C 
ATOM      2  C   UNL     1     -25.982  27.402  -7.283  1.00  0.00    -0.031 C 
ENDROOT
BRANCH   1   3
ATOM      3  C   UNL     1     -23.676  27.565  -8.206  1.00  0.00     0.027 C 
BRANCH   3   4
ATOM      4  C   UNL     1     -23.189  27.395  -6.762  1.00  0.00     0.004 C 
BRANCH   4   5
ATOM      5  C   UNL     1     -21.692  27.046  -6.693  1.00  0.00     0.000 C 
BRANCH   5   6
ATOM      6  C   UNL     1     -21.329  26.197  -5.461  1.00  0.00     0.000 C 
BRANCH   6   7
ATOM      7  C   UNL     1     -19.930  26.462  -4.876  1.00  0.00     0.000 C 
BRANCH   7   8
ATOM      8  C   UNL     1     -18.875  25.456  -5.366  1.00  0.00     0.006 C 
BRANCH   8   9
ATOM      9  C   UNL     1     -19.265  24.811  -6.702  1.00  0.00     0.053 C 
BRANCH   9  10
ATOM     10  C   UNL     1     -19.381  23.322  -6.586  1.00  0.00     0.041 C 
ATOM     11  O   UNL     1     -19.300  22.766  -5.460  1.00  0.00    -0.550 OA
ATOM     12  O   UNL     1     -19.615  22.552  -7.719  1.00  0.00    -0.550 OA
ENDBRANCH   9  10
ENDBRANCH   8   9
ENDBRANCH   7   8
ENDBRANCH   6   7
ENDBRANCH   5   6
ENDBRANCH   4   5
ENDBRANCH   3   4
ENDBRANCH   1   3
BRANCH   2  13
ATOM     13  C   UNL     1     -27.460  27.683  -7.327  1.00  0.00     0.027 C 
BRANCH  13  14
ATOM     14  C   UNL     1     -27.771  29.187  -7.305  1.00  0.00     0.004 C 
BRANCH  14  15
ATOM     15  C   UNL     1     -26.623  30.004  -6.687  1.00  0.00     0.000 C 
BRANCH  15  16
ATOM     16  C   UNL     1     -26.244  31.229  -7.535  1.00  0.00     0.000 C 
BRANCH  16  17
ATOM     17  C   UNL     1     -25.303  30.875  -8.701  1.00  0.00    -0.000 C 
BRANCH  17  18
ATOM     18  C   UNL     1     -24.604  32.123  -9.283  1.00  0.00    -0.000 C 
BRANCH  18  19
ATOM     19  C   UNL     1     -23.099  32.182  -8.979  1.00  0.00    -0.003 C 
ATOM     20  C   UNL     1     -22.523  33.593  -9.082  1.00  0.00     0.004 C 
ENDBRANCH  18  19
ENDBRANCH  17  18
ENDBRANCH  16  17
ENDBRANCH  15  16
ENDBRANCH  14  15
ENDBRANCH  13  14
ENDBRANCH   2  13
TORSDOF 15
ENDMDL
MODEL 3
REMARK VINA RESULT:    10.959      1.638      4.473
REMARK INTER + INTRA:          20.709
REMARK INTER:                  21.436
REMARK INTRA:                  -0.726
REMARK UNBOUND:                 0.140
REMARK SMILES CCCCCCCCC=CCCCCCCCC(=O)[O-]
REMARK SMILES IDX 10 1 9 2 11 3 12 4 13 5 14 6 15 7 16 8 17 9 18 10 19 11
REMARK SMILES IDX 20 12 8 13 7 14 6 15 5 16 4 17 3 18 2 19 1 20
REMARK H PARENT
REMARK Flexibility Score: inf
ROOT
ATOM      1  C   UNL     1     -23.700  30.073  -8.149  1.00  0.00    -0.031 C 
ATOM      2  C   UNL     1     -23.786  31.241  -8.803  1.00  0.00    -0.031 C 
ENDROOT
BRANCH   1   3
ATOM      3  C   UNL     1     -22.374  29.416  -7.871  1.00  0.00     0.027 C 
BRANCH   3   4
ATOM      4  C   UNL     1     -22.553  28.018  -7.268  1.00  0.00     0.004 C 
BRANCH   4   5
ATOM      5  C   UNL     1     -21.207  27.309  -7.039  1.00  0.00     0.000 C 
BRANCH   5   6
ATOM      6  C   UNL     1     -21.299  26.157  -6.022  1.00  0.00     0.000 C 
BRANCH   6   7
ATOM      7  C   UNL     1     -20.293  26.232  -4.860  1.00  0.00     0.000 C 
BRANCH   7   8
ATOM      8  C   UNL     1     -18.942  25.575  -5.192  1.00  0.00     0.006 C 
BRANCH   8   9
ATOM      9  C   UNL     1     -18.949  24.902  -6.571  1.00  0.00     0.053 C 
BRANCH   9  10
ATOM     10  C   UNL     1     -19.235  23.435  -6.470  1.00  0.00     0.041 C 
ATOM     11  O   UNL     1     -19.393  22.896  -5.344  1.00  0.00    -0.550 OA
ATOM     12  O   UNL     1     -19.362  22.670  -7.623  1.00  0.00    -0.550 OA
ENDBRANCH   9  10
ENDBRANCH   8   9
ENDBRANCH   7   8
ENDBRANCH   6   7
ENDBRANCH   5   6
ENDBRANCH   4   5
ENDBRANCH   3   4
ENDBRANCH   1   3
BRANCH   2  13
ATOM     13  C   UNL     1     -25.116  31.873  -9.114  1.00  0.00     0.027 C 
BRANCH  13  14
ATOM     14  C   UNL     1     -26.287  30.898  -8.920  1.00  0.00     0.004 C 
BRANCH  14  15
ATOM     15  C   UNL     1     -27.120  31.238  -7.672  1.00  0.00     0.000 C 
BRANCH  15  16
ATOM     16  C   UNL     1     -27.178  30.079  -6.664  1.00  0.00     0.000 C 
BRANCH  16  17
ATOM     17  C   UNL     1     -27.254  28.701  -7.347  1.00  0.00    -0.000 C 
BRANCH  17  18
ATOM     18  C   UNL     1     -27.954  27.651  -6.458  1.00  0.00    -0.000 C 
BRANCH  18  19
ATOM     19  C   UNL     1     -29.485  27.783  -6.439  1.00  0.00    -0.003 C 
ATOM     20  C   UNL     1     -30.192  26.496  -6.019  1.00  0.00     0.004 C 
ENDBRANCH  18  19
ENDBRANCH  17  18
ENDBRANCH  16  17
ENDBRANCH  15  16
ENDBRANCH  14  15
ENDBRANCH  13  14
ENDBRANCH   2  13
TORSDOF 15
ENDMDL
MODEL 4
REMARK VINA RESULT:    11.283      7.856     10.934
REMARK INTER + INTRA:          21.317
REMARK INTER:                  21.445
REMARK INTRA:                  -0.128
REMARK UNBOUND:                 0.140
REMARK SMILES CCCCCCCCC=CCCCCCCCC(=O)[O-]
REMARK SMILES IDX 10 1 9 2 11 3 12 4 13 5 14 6 15 7 16 8 17 9 18 10 19 11
REMARK SMILES IDX 20 12 8 13 7 14 6 15 5 16 4 17 3 18 2 19 1 20
REMARK H PARENT
REMARK Flexibility Score: inf
ROOT
ATOM      1  C   UNL     1     -28.270  32.235  -3.791  1.00  0.00    -0.031 C 
ATOM      2  C   UNL     1     -27.003  32.129  -3.363  1.00  0.00    -0.031 C 
ENDROOT
BRANCH   1   3
ATOM      3  C   UNL     1     -29.368  32.752  -2.900  1.00  0.00     0.027 C 
BRANCH   3   4
ATOM      4  C   UNL     1     -30.010  31.623  -2.085  1.00  0.00     0.004 C 
BRANCH   4   5
ATOM      5  C   UNL     1     -31.455  31.337  -2.531  1.00  0.00     0.000 C 
BRANCH   5   6
ATOM      6  C   UNL     1     -32.132  30.232  -1.700  1.00  0.00     0.000 C 
BRANCH   6   7
ATOM      7  C   UNL     1     -33.332  29.549  -2.380  1.00  0.00     0.000 C 
BRANCH   7   8
ATOM      8  C   UNL     1     -33.494  29.951  -3.856  1.00  0.00     0.006 C 
BRANCH   8   9
ATOM      9  C   UNL     1     -34.888  30.519  -4.152  1.00  0.00     0.053 C 
BRANCH   9  10
ATOM     10  C   UNL     1     -35.834  30.291  -3.012  1.00  0.00     0.041 C 
ATOM     11  O   UNL     1     -35.683  30.914  -1.929  1.00  0.00    -0.550 OA
ATOM     12  O   UNL     1     -36.903  29.415  -3.160  1.00  0.00    -0.550 OA
ENDBRANCH   9  10
ENDBRANCH   8   9
ENDBRANCH   7   8
ENDBRANCH   6   7
ENDBRANCH   5   6
ENDBRANCH   4   5
ENDBRANCH   3   4
ENDBRANCH   1   3
BRANCH   2  13
ATOM     13  C   UNL     1     -25.917  31.573  -4.244  1.00  0.00     0.027 C 
BRANCH  13  14
ATOM     14  C   UNL     1     -26.468  30.640  -5.333  1.00  0.00     0.004 C 
BRANCH  14  15
ATOM     15  C   UNL     1     -26.770  31.392  -6.640  1.00  0.00     0.000 C 
BRANCH  15  16
ATOM     16  C   UNL     1     -27.196  30.454  -7.780  1.00  0.00     0.000 C 
BRANCH  16  17
ATOM     17  C   UNL     1     -26.074  30.218  -8.807  1.00  0.00    -0.000 C 
BRANCH  17  18
ATOM     18  C   UNL     1     -24.755  30.904  -8.393  1.00  0.00    -0.000 C 
BRANCH  18  19
ATOM     19  C   UNL     1     -24.332  32.042  -9.336  1.00  0.00    -0.003 C 
ATOM     20  C   UNL     1     -22.904  32.524  -9.091  1.00  0.00     0.004 C 
ENDBRANCH  18  19
ENDBRANCH  17  18
ENDBRANCH  16  17
ENDBRANCH  15  16
ENDBRANCH  14  15
ENDBRANCH  13  14
ENDBRANCH   2  13
TORSDOF 15
ENDMDL
MODEL 5
REMARK VINA RESULT:    11.288      6.328      9.548
REMARK INTER + INTRA:          21.326
REMARK INTER:                  22.155
REMARK INTRA:                  -0.830
REMARK UNBOUND:                 0.140
REMARK SMILES CCCCCCCCC=CCCCCCCCC(=O)[O-]
REMARK SMILES IDX 10 1 9 2 11 3 12 4 13 5 14 6 15 7 16 8 17 9 18 10 19 11
REMARK SMILES IDX 20 12 8 13 7 14 6 15 5 16 4 17 3 18 2 19 1 20
REMARK H PARENT
REMARK Flexibility Score: inf
ROOT
ATOM      1  C   UNL     1     -27.580  31.769  -3.451  1.00  0.00    -0.031 C 
ATOM      2  C   UNL     1     -28.329  32.868  -3.624  1.00  0.00    -0.031 C 
ENDROOT
BRANCH   1   3
ATOM      3  C   UNL     1     -26.227  31.622  -4.096  1.00  0.00     0.027 C 
BRANCH   3   4
ATOM      4  C   UNL     1     -26.281  30.686  -5.310  1.00  0.00     0.004 C 
BRANCH   4   5
ATOM      5  C   UNL     1     -26.950  31.351  -6.525  1.00  0.00     0.000 C 
BRANCH   5   6
ATOM      6  C   UNL     1     -27.189  30.374  -7.689  1.00  0.00     0.000 C 
BRANCH   6   7
ATOM      7  C   UNL     1     -26.200  30.502  -8.862  1.00  0.00     0.000 C 
BRANCH   7   8
ATOM      8  C   UNL     1     -24.829  31.053  -8.432  1.00  0.00     0.006 C 
BRANCH   8   9
ATOM      9  C   UNL     1     -24.427  32.297  -9.234  1.00  0.00     0.053 C 
BRANCH   9  10
ATOM     10  C   UNL     1     -22.955  32.564  -9.143  1.00  0.00     0.041 C 
ATOM     11  O   UNL     1     -22.130  31.627  -9.305  1.00  0.00    -0.550 OA
ATOM     12  O   UNL     1     -22.496  33.855  -8.914  1.00  0.00    -0.550 OA
ENDBRANCH   9  10
ENDBRANCH   8   9
ENDBRANCH   7   8
ENDBRANCH   6   7
ENDBRANCH   5   6
ENDBRANCH   4   5
ENDBRANCH   3   4
ENDBRANCH   1   3
BRANCH   2  13
ATOM     13  C   UNL     1     -29.698  32.993  -3.010  1.00  0.00     0.027 C 
BRANCH  13  14
ATOM     14  C   UNL     1     -30.095  31.745  -2.206  1.00  0.00     0.004 C 
BRANCH  14  15
ATOM     15  C   UNL     1     -31.390  31.106  -2.735  1.00  0.00     0.000 C 
BRANCH  15  16
ATOM     16  C   UNL     1     -32.083  30.219  -1.688  1.00  0.00     0.000 C 
BRANCH  16  17
ATOM     17  C   UNL     1     -33.436  29.671  -2.176  1.00  0.00    -0.000 C 
BRANCH  17  18
ATOM     18  C   UNL     1     -33.715  30.041  -3.649  1.00  0.00    -0.000 C 
BRANCH  18  19
ATOM     19  C   UNL     1     -35.171  30.458  -3.912  1.00  0.00    -0.003 C 
ATOM     20  C   UNL     1     -36.091  30.206  -2.720  1.00  0.00     0.004 C 
ENDBRANCH  18  19
ENDBRANCH  17  18
ENDBRANCH  16  17
ENDBRANCH  15  16
ENDBRANCH  14  15
ENDBRANCH  13  14
ENDBRANCH   2  13
TORSDOF 15
ENDMDL
MODEL 6
REMARK VINA RESULT:    11.471      3.723      8.732
REMARK INTER + INTRA:          21.670
REMARK INTER:                  22.022
REMARK INTRA:                  -0.352
REMARK UNBOUND:                 0.140
REMARK SMILES CCCCCCCCC=CCCCCCCCC(=O)[O-]
REMARK SMILES IDX 10 1 9 2 11 3 12 4 13 5 14 6 15 7 16 8 17 9 18 10 19 11
REMARK SMILES IDX 20 12 8 13 7 14 6 15 5 16 4 17 3 18 2 19 1 20
REMARK H PARENT
REMARK Flexibility Score: inf
ROOT
ATOM      1  C   UNL     1     -23.609  27.415  -7.972  1.00  0.00    -0.031 C 
ATOM      2  C   UNL     1     -23.018  27.509  -6.771  1.00  0.00    -0.031 C 
ENDROOT
BRANCH   1   3
ATOM      3  C   UNL     1     -25.091  27.613  -8.144  1.00  0.00     0.027 C 
BRANCH   3   4
ATOM      4  C   UNL     1     -25.894  26.569  -7.358  1.00  0.00     0.004 C 
BRANCH   4   5
ATOM      5  C   UNL     1     -27.031  27.208  -6.542  1.00  0.00     0.000 C 
BRANCH   5   6
ATOM      6  C   UNL     1     -27.782  28.308  -7.314  1.00  0.00     0.000 C 
BRANCH   6   7
ATOM      7  C   UNL     1     -27.398  29.749  -6.933  1.00  0.00     0.000 C 
BRANCH   7   8
ATOM      8  C   UNL     1     -26.746  30.523  -8.092  1.00  0.00     0.006 C 
BRANCH   8   9
ATOM      9  C   UNL     1     -25.245  30.746  -7.867  1.00  0.00     0.053 C 
BRANCH   9  10
ATOM     10  C   UNL     1     -24.665  31.679  -8.886  1.00  0.00     0.041 C 
ATOM     11  O   UNL     1     -25.419  32.297  -9.682  1.00  0.00    -0.550 OA
ATOM     12  O   UNL     1     -23.292  31.891  -8.933  1.00  0.00    -0.550 OA
ENDBRANCH   9  10
ENDBRANCH   8   9
ENDBRANCH   7   8
ENDBRANCH   6   7
ENDBRANCH   5   6
ENDBRANCH   4   5
ENDBRANCH   3   4
ENDBRANCH   1   3
BRANCH   2  13
ATOM     13  C   UNL     1     -21.542  27.270  -6.598  1.00  0.00     0.027 C 
BRANCH  13  14
ATOM     14  C   UNL     1     -21.219  26.531  -5.290  1.00  0.00     0.004 C 
BRANCH  14  15
ATOM     15  C   UNL     1     -19.704  26.406  -5.057  1.00  0.00     0.000 C 
BRANCH  15  16
ATOM     16  C   UNL     1     -19.298  25.020  -4.532  1.00  0.00     0.000 C 
BRANCH  16  17
ATOM     17  C   UNL     1     -19.094  23.994  -5.661  1.00  0.00    -0.000 C 
BRANCH  17  18
ATOM     18  C   UNL     1     -20.416  23.649  -6.379  1.00  0.00    -0.000 C 
BRANCH  18  19
ATOM     19  C   UNL     1     -20.297  22.466  -7.353  1.00  0.00    -0.003 C 
ATOM     20  C   UNL     1     -18.876  22.261  -7.875  1.00  0.00     0.004 C 
ENDBRANCH  18  19
ENDBRANCH  17  18
ENDBRANCH  16  17
ENDBRANCH  15  16
ENDBRANCH  14  15
ENDBRANCH  13  14
ENDBRANCH   2  13
TORSDOF 15
ENDMDL
MODEL 7
REMARK VINA RESULT:    11.476      3.609      8.281
REMARK INTER + INTRA:          21.679
REMARK INTER:                  22.846
REMARK INTRA:                  -1.166
REMARK UNBOUND:                 0.140
REMARK SMILES CCCCCCCCC=CCCCCCCCC(=O)[O-]
REMARK SMILES IDX 10 1 9 2 11 3 12 4 13 5 14 6 15 7 16 8 17 9 18 10 19 11
REMARK SMILES IDX 20 12 8 13 7 14 6 15 5 16 4 17 3 18 2 19 1 20
REMARK H PARENT
REMARK Flexibility Score: inf
ROOT
ATOM      1  C   UNL     1     -25.998  26.807  -7.218  1.00  0.00    -0.031 C 
ATOM      2  C   UNL     1     -25.069  27.556  -7.831  1.00  0.00    -0.031 C 
ENDROOT
BRANCH   1   3
ATOM      3  C   UNL     1     -27.447  27.215  -7.178  1.00  0.00     0.027 C 
BRANCH   3   4
ATOM      4  C   UNL     1     -27.648  28.502  -6.368  1.00  0.00     0.004 C 
BRANCH   4   5
ATOM      5  C   UNL     1     -27.986  29.704  -7.267  1.00  0.00     0.000 C 
BRANCH   5   6
ATOM      6  C   UNL     1     -26.833  30.718  -7.373  1.00  0.00     0.000 C 
BRANCH   6   7
ATOM      7  C   UNL     1     -26.278  30.928  -8.793  1.00  0.00     0.000 C 
BRANCH   7   8
ATOM      8  C   UNL     1     -24.748  31.081  -8.824  1.00  0.00     0.006 C 
BRANCH   8   9
ATOM      9  C   UNL     1     -24.316  32.534  -9.055  1.00  0.00     0.053 C 
BRANCH   9  10
ATOM     10  C   UNL     1     -22.824  32.673  -9.073  1.00  0.00     0.041 C 
ATOM     11  O   UNL     1     -22.093  31.650  -9.129  1.00  0.00    -0.550 OA
ATOM     12  O   UNL     1     -22.242  33.935  -9.064  1.00  0.00    -0.550 OA
ENDBRANCH   9  10
ENDBRANCH   8   9
ENDBRANCH   7   8
ENDBRANCH   6   7
ENDBRANCH   5   6
ENDBRANCH   4   5
ENDBRANCH   3   4
ENDBRANCH   1   3
BRANCH   2  13
ATOM     13  C   UNL     1     -23.616  27.164  -7.832  1.00  0.00     0.027 C 
BRANCH  13  14
ATOM     14  C   UNL     1     -23.038  27.059  -6.413  1.00  0.00     0.004 C 
BRANCH  14  15
ATOM     15  C   UNL     1     -21.514  26.851  -6.425  1.00  0.00     0.000 C 
BRANCH  15  16
ATOM     16  C   UNL     1     -20.980  26.303  -5.092  1.00  0.00     0.000 C 
BRANCH  16  17
ATOM     17  C   UNL     1     -19.528  25.803  -5.194  1.00  0.00    -0.000 C 
BRANCH  17  18
ATOM     18  C   UNL     1     -19.243  25.121  -6.549  1.00  0.00    -0.000 C 
BRANCH  18  19
ATOM     19  C   UNL     1     -18.891  23.630  -6.425  1.00  0.00    -0.003 C 
ATOM     20  C   UNL     1     -18.999  22.877  -7.749  1.00  0.00     0.004 C 
ENDBRANCH  18  19
ENDBRANCH  17  18
ENDBRANCH  16  17
ENDBRANCH  15  16
ENDBRANCH  14  15
ENDBRANCH  13  14
ENDBRANCH   2  13
TORSDOF 15
ENDMDL
MODEL 8
REMARK VINA RESULT:    11.535     15.704     18.123
REMARK INTER + INTRA:          21.790
REMARK INTER:                  22.103
REMARK INTRA:                  -0.313
REMARK UNBOUND:                 0.140
REMARK SMILES CCCCCCCCC=CCCCCCCCC(=O)[O-]
REMARK SMILES IDX 10 1 9 2 11 3 12 4 13 5 14 6 15 7 16 8 17 9 18 10 19 11
REMARK SMILES IDX 20 12 8 13 7 14 6 15 5 16 4 17 3 18 2 19 1 20
REMARK H PARENT
REMARK Flexibility Score: inf
ROOT
ATOM      1  C   UNL     1     -38.082  25.933   1.184  1.00  0.00    -0.031 C 
ATOM      2  C   UNL     1     -36.801  25.936   0.789  1.00  0.00    -0.031 C 
ENDROOT
BRANCH   1   3
ATOM      3  C   UNL     1     -38.472  25.641   2.609  1.00  0.00     0.027 C 
BRANCH   3   4
ATOM      4  C   UNL     1     -38.687  24.140   2.839  1.00  0.00     0.004 C 
BRANCH   4   5
ATOM      5  C   UNL     1     -37.496  23.489   3.563  1.00  0.00     0.000 C 
BRANCH   5   6
ATOM      6  C   UNL     1     -37.891  22.833   4.899  1.00  0.00     0.000 C 
BRANCH   6   7
ATOM      7  C   UNL     1     -39.125  23.445   5.586  1.00  0.00     0.000 C 
BRANCH   7   8
ATOM      8  C   UNL     1     -38.845  23.896   7.030  1.00  0.00     0.006 C 
BRANCH   8   9
ATOM      9  C   UNL     1     -39.104  22.778   8.046  1.00  0.00     0.053 C 
BRANCH   9  10
ATOM     10  C   UNL     1     -37.990  21.776   8.066  1.00  0.00     0.041 C 
ATOM     11  O   UNL     1     -38.244  20.545   8.032  1.00  0.00    -0.550 OA
ATOM     12  O   UNL     1     -36.668  22.207   8.086  1.00  0.00    -0.550 OA
ENDBRANCH   9  10
ENDBRANCH   8   9
ENDBRANCH   7   8
ENDBRANCH   6   7
ENDBRANCH   5   6
ENDBRANCH   4   5
ENDBRANCH   3   4
ENDBRANCH   1   3
BRANCH   2  13
ATOM     13  C   UNL     1     -36.419  26.187  -0.646  1.00  0.00     0.027 C 
BRANCH  13  14
ATOM     14  C   UNL     1     -35.467  27.383  -0.797  1.00  0.00     0.004 C 
BRANCH  14  15
ATOM     15  C   UNL     1     -35.650  28.100  -2.145  1.00  0.00     0.000 C 
BRANCH  15  16
ATOM     16  C   UNL     1     -35.769  29.625  -1.995  1.00  0.00     0.000 C 
BRANCH  16  17
ATOM     17  C   UNL     1     -35.286  30.384  -3.243  1.00  0.00    -0.000 C 
BRANCH  17  18
ATOM     18  C   UNL     1     -33.849  29.990  -3.644  1.00  0.00    -0.000 C 
BRANCH  18  19
ATOM     19  C   UNL     1     -32.819  30.199  -2.522  1.00  0.00    -0.003 C 
ATOM     20  C   UNL     1     -32.488  28.914  -1.766  1.00  0.00     0.004 C 
ENDBRANCH  18  19
ENDBRANCH  17  18
ENDBRANCH  16  17
ENDBRANCH  15  16
ENDBRANCH  14  15
ENDBRANCH  13  14
ENDBRANCH   2  13
TORSDOF 15
ENDMDL
MODEL 9
REMARK VINA RESULT:    11.721      3.274      8.567
REMARK INTER + INTRA:          22.140
REMARK INTER:                  22.913
REMARK INTRA:                  -0.773
REMARK UNBOUND:                 0.140
REMARK SMILES CCCCCCCCC=CCCCCCCCC(=O)[O-]
REMARK SMILES IDX 10 1 9 2 11 3 12 4 13 5 14 6 15 7 16 8 17 9 18 10 19 11
REMARK SMILES IDX 20 12 8 13 7 14 6 15 5 16 4 17 3 18 2 19 1 20
REMARK H PARENT
REMARK Flexibility Score: inf
ROOT
ATOM      1  C   UNL     1     -23.725  28.178  -8.072  1.00  0.00    -0.031 C 
ATOM      2  C   UNL     1     -22.586  28.492  -7.437  1.00  0.00    -0.031 C 
ENDROOT
BRANCH   1   3
ATOM      3  C   UNL     1     -24.723  29.230  -8.478  1.00  0.00     0.027 C 
BRANCH   3   4
ATOM      4  C   UNL     1     -24.029  30.494  -8.998  1.00  0.00     0.004 C 
BRANCH   4   5
ATOM      5  C   UNL     1     -24.882  31.755  -8.779  1.00  0.00     0.000 C 
BRANCH   5   6
ATOM      6  C   UNL     1     -26.352  31.437  -8.451  1.00  0.00     0.000 C 
BRANCH   6   7
ATOM      7  C   UNL     1     -26.728  31.558  -6.964  1.00  0.00     0.000 C 
BRANCH   7   8
ATOM      8  C   UNL     1     -27.133  30.214  -6.335  1.00  0.00     0.006 C 
BRANCH   8   9
ATOM      9  C   UNL     1     -27.866  29.306  -7.331  1.00  0.00     0.053 C 
BRANCH   9  10
ATOM     10  C   UNL     1     -27.888  27.881  -6.869  1.00  0.00     0.041 C 
ATOM     11  O   UNL     1     -28.847  27.455  -6.174  1.00  0.00    -0.550 OA
ATOM     12  O   UNL     1     -26.866  27.014  -7.237  1.00  0.00    -0.550 OA
ENDBRANCH   9  10
ENDBRANCH   8   9
ENDBRANCH   7   8
ENDBRANCH   6   7
ENDBRANCH   5   6
ENDBRANCH   4   5
ENDBRANCH   3   4
ENDBRANCH   1   3
BRANCH   2  13
ATOM     13  C   UNL     1     -21.612  27.433  -6.996  1.00  0.00     0.027 C 
BRANCH  13  14
ATOM     14  C   UNL     1     -21.703  27.144  -5.490  1.00  0.00     0.004 C 
BRANCH  14  15
ATOM     15  C   UNL     1     -21.172  25.744  -5.138  1.00  0.00     0.000 C 
BRANCH  15  16
ATOM     16  C   UNL     1     -19.659  25.736  -4.864  1.00  0.00     0.000 C 
BRANCH  16  17
ATOM     17  C   UNL     1     -18.879  24.871  -5.870  1.00  0.00    -0.000 C 
BRANCH  17  18
ATOM     18  C   UNL     1     -19.531  23.487  -6.075  1.00  0.00    -0.000 C 
BRANCH  18  19
ATOM     19  C   UNL     1     -18.897  22.672  -7.214  1.00  0.00    -0.003 C 
ATOM     20  C   UNL     1     -19.913  22.203  -8.253  1.00  0.00     0.004 C 
ENDBRANCH  18  19
ENDBRANCH  17  18
ENDBRANCH  16  17
ENDBRANCH  15  16
ENDBRANCH  14  15
ENDBRANCH  13  14
ENDBRANCH   2  13
TORSDOF 15
ENDMDL
