MODEL 1
REMARK VINA RESULT:    -4.824      0.000      0.000
REMARK INTER + INTRA:         -15.036
REMARK INTER:                 -11.028
REMARK INTRA:                  -4.008
REMARK UNBOUND:                -4.008
REMARK SMILES CCCCCCCCCCCCCCCCCCCCCCCC(=O)[O-]
REMARK SMILES IDX 13 1 14 2 15 3 16 4 17 5 18 6 19 7 20 8 21 9 22 10 23 11
REMARK SMILES IDX 24 12 25 13 26 14 12 15 11 16 10 17 9 18 8 19 7 20 6 21 5 22
REMARK SMILES IDX 4 23 3 24 2 25 1 26
REMARK H PARENT
REMARK Flexibility Score: inf
ROOT
ATOM      1  C   UNL     1      13.442 -30.376  23.622  1.00  0.00     0.000 C 
ENDROOT
BRANCH   1   2
ATOM      2  C   UNL     1      14.392 -29.264  23.151  1.00  0.00     0.000 C 
BRANCH   2   3
ATOM      3  C   UNL     1      15.058 -29.638  21.821  1.00  0.00     0.000 C 
BRANCH   3   4
ATOM      4  C   UNL     1      16.595 -29.597  21.892  1.00  0.00     0.000 C 
BRANCH   4   5
ATOM      5  C   UNL     1      17.211 -30.310  23.112  1.00  0.00     0.000 C 
BRANCH   5   6
ATOM      6  C   UNL     1      18.121 -31.506  22.777  1.00  0.00     0.000 C 
BRANCH   6   7
ATOM      7  C   UNL     1      18.404 -31.637  21.272  1.00  0.00     0.000 C 
BRANCH   7   8
ATOM      8  C   UNL     1      19.911 -31.707  21.001  1.00  0.00     0.000 C 
BRANCH   8   9
ATOM      9  C   UNL     1      20.651 -30.568  21.712  1.00  0.00     0.000 C 
BRANCH   9  10
ATOM     10  C   UNL     1      20.441 -29.234  20.987  1.00  0.00     0.006 C 
BRANCH  10  11
ATOM     11  C   UNL     1      21.502 -28.211  21.404  1.00  0.00     0.053 C 
BRANCH  11  12
ATOM     12  C   UNL     1      21.334 -26.932  20.644  1.00  0.00     0.041 C 
ATOM     13  O   UNL     1      20.203 -26.382  20.566  1.00  0.00    -0.550 OA
ATOM     14  O   UNL     1      22.430 -26.337  20.033  1.00  0.00    -0.550 OA
ENDBRANCH  11  12
ENDBRANCH  10  11
ENDBRANCH   9  10
ENDBRANCH   8   9
ENDBRANCH   7   8
ENDBRANCH   6   7
ENDBRANCH   5   6
ENDBRANCH   4   5
ENDBRANCH   3   4
ENDBRANCH   2   3
ENDBRANCH   1   2
BRANCH   1  15
ATOM     15  C   UNL     1      13.707 -31.727  22.932  1.00  0.00     0.000 C 
BRANCH  15  16
ATOM     16  C   UNL     1      14.518 -32.737  23.763  1.00  0.00     0.000 C 
BRANCH  16  17
ATOM     17  C   UNL     1      15.145 -33.853  22.909  1.00  0.00     0.000 C 
BRANCH  17  18
ATOM     18  C   UNL     1      15.299 -33.447  21.427  1.00  0.00    -0.000 C 
BRANCH  18  19
ATOM     19  C   UNL     1      15.291 -34.641  20.453  1.00  0.00    -0.000 C 
BRANCH  19  20
ATOM     20  C   UNL     1      16.461 -34.670  19.452  1.00  0.00    -0.000 C 
BRANCH  20  21
ATOM     21  C   UNL     1      17.787 -35.234  20.007  1.00  0.00    -0.000 C 
BRANCH  21  22
ATOM     22  C   UNL     1      17.664 -36.550  20.795  1.00  0.00    -0.000 C 
BRANCH  22  23
ATOM     23  C   UNL     1      18.672 -36.653  21.952  1.00  0.00    -0.000 C 
BRANCH  23  24
ATOM     24  C   UNL     1      19.212 -35.281  22.398  1.00  0.00    -0.000 C 
BRANCH  24  25
ATOM     25  C   UNL     1      18.796 -34.847  23.815  1.00  0.00    -0.003 C 
ATOM     26  C   UNL     1      17.764 -35.781  24.447  1.00  0.00     0.004 C 
ENDBRANCH  24  25
ENDBRANCH  23  24
ENDBRANCH  22  23
ENDBRANCH  21  22
ENDBRANCH  20  21
ENDBRANCH  19  20
ENDBRANCH  18  19
ENDBRANCH  17  18
ENDBRANCH  16  17
ENDBRANCH  15  16
ENDBRANCH   1  15
TORSDOF 22
ENDMDL
MODEL 2
REMARK VINA RESULT:    -4.805      3.766      6.937
REMARK INTER + INTRA:         -14.993
REMARK INTER:                 -10.805
REMARK INTRA:                  -4.188
REMARK UNBOUND:                -4.008
REMARK SMILES CCCCCCCCCCCCCCCCCCCCCCCC(=O)[O-]
REMARK SMILES IDX 13 1 14 2 15 3 16 4 17 5 18 6 19 7 20 8 21 9 22 10 23 11
REMARK SMILES IDX 24 12 25 13 26 14 12 15 11 16 10 17 9 18 8 19 7 20 6 21 5 22
REMARK SMILES IDX 4 23 3 24 2 25 1 26
REMARK H PARENT
REMARK Flexibility Score: inf
ROOT
ATOM      1  C   UNL     1      18.181 -30.724  21.835  1.00  0.00     0.000 C 
ENDROOT
BRANCH   1   2
ATOM      2  C   UNL     1      17.528 -31.747  20.893  1.00  0.00     0.000 C 
BRANCH   2   3
ATOM      3  C   UNL     1      18.398 -33.003  20.759  1.00  0.00     0.000 C 
BRANCH   3   4
ATOM      4  C   UNL     1      18.052 -33.837  19.511  1.00  0.00     0.000 C 
BRANCH   4   5
ATOM      5  C   UNL     1      16.586 -34.305  19.426  1.00  0.00     0.000 C 
BRANCH   5   6
ATOM      6  C   UNL     1      16.358 -35.796  19.736  1.00  0.00     0.000 C 
BRANCH   6   7
ATOM      7  C   UNL     1      17.595 -36.660  19.450  1.00  0.00     0.000 C 
BRANCH   7   8
ATOM      8  C   UNL     1      17.967 -37.508  20.672  1.00  0.00     0.000 C 
BRANCH   8   9
ATOM      9  C   UNL     1      18.085 -36.639  21.929  1.00  0.00     0.000 C 
BRANCH   9  10
ATOM     10  C   UNL     1      19.515 -36.655  22.482  1.00  0.00     0.006 C 
BRANCH  10  11
ATOM     11  C   UNL     1      19.686 -37.762  23.526  1.00  0.00     0.053 C 
BRANCH  11  12
ATOM     12  C   UNL     1      19.492 -37.222  24.909  1.00  0.00     0.041 C 
ATOM     13  O   UNL     1      20.477 -36.799  25.571  1.00  0.00    -0.550 OA
ATOM     14  O   UNL     1      18.220 -37.172  25.464  1.00  0.00    -0.550 OA
ENDBRANCH  11  12
ENDBRANCH  10  11
ENDBRANCH   9  10
ENDBRANCH   8   9
ENDBRANCH   7   8
ENDBRANCH   6   7
ENDBRANCH   5   6
ENDBRANCH   4   5
ENDBRANCH   3   4
ENDBRANCH   2   3
ENDBRANCH   1   2
BRANCH   1  15
ATOM     15  C   UNL     1      17.643 -30.800  23.276  1.00  0.00     0.000 C 
BRANCH  15  16
ATOM     16  C   UNL     1      18.606 -31.427  24.300  1.00  0.00     0.000 C 
BRANCH  16  17
ATOM     17  C   UNL     1      17.961 -32.560  25.116  1.00  0.00     0.000 C 
BRANCH  17  18
ATOM     18  C   UNL     1      17.780 -33.854  24.293  1.00  0.00    -0.000 C 
BRANCH  18  19
ATOM     19  C   UNL     1      16.337 -34.391  24.291  1.00  0.00    -0.000 C 
BRANCH  19  20
ATOM     20  C   UNL     1      15.545 -34.121  22.998  1.00  0.00    -0.000 C 
BRANCH  20  21
ATOM     21  C   UNL     1      14.643 -32.868  23.030  1.00  0.00    -0.000 C 
BRANCH  21  22
ATOM     22  C   UNL     1      14.111 -32.404  21.662  1.00  0.00    -0.000 C 
BRANCH  22  23
ATOM     23  C   UNL     1      13.391 -31.046  21.728  1.00  0.00    -0.000 C 
BRANCH  23  24
ATOM     24  C   UNL     1      14.245 -29.948  22.388  1.00  0.00    -0.000 C 
BRANCH  24  25
ATOM     25  C   UNL     1      13.514 -29.101  23.446  1.00  0.00    -0.003 C 
ATOM     26  C   UNL     1      11.993 -29.154  23.305  1.00  0.00     0.004 C 
ENDBRANCH  24  25
ENDBRANCH  23  24
ENDBRANCH  22  23
ENDBRANCH  21  22
ENDBRANCH  20  21
ENDBRANCH  19  20
ENDBRANCH  18  19
ENDBRANCH  17  18
ENDBRANCH  16  17
ENDBRANCH  15  16
ENDBRANCH   1  15
TORSDOF 22
ENDMDL
MODEL 3
REMARK VINA RESULT:    -4.790      2.509      5.836
REMARK INTER + INTRA:         -14.958
REMARK INTER:                 -11.099
REMARK INTRA:                  -3.859
REMARK UNBOUND:                -4.008
REMARK SMILES CCCCCCCCCCCCCCCCCCCCCCCC(=O)[O-]
REMARK SMILES IDX 13 1 14 2 15 3 16 4 17 5 18 6 19 7 20 8 21 9 22 10 23 11
REMARK SMILES IDX 24 12 25 13 26 14 12 15 11 16 10 17 9 18 8 19 7 20 6 21 5 22
REMARK SMILES IDX 4 23 3 24 2 25 1 26
REMARK H PARENT
REMARK Flexibility Score: inf
ROOT
ATOM      1  C   UNL     1      15.415 -35.113  20.246  1.00  0.00     0.000 C 
ENDROOT
BRANCH   1   2
ATOM      2  C   UNL     1      16.807 -35.307  19.626  1.00  0.00     0.000 C 
BRANCH   2   3
ATOM      3  C   UNL     1      17.299 -36.747  19.823  1.00  0.00     0.000 C 
BRANCH   3   4
ATOM      4  C   UNL     1      17.983 -36.962  21.185  1.00  0.00     0.000 C 
BRANCH   4   5
ATOM      5  C   UNL     1      18.644 -35.706  21.788  1.00  0.00     0.000 C 
BRANCH   5   6
ATOM      6  C   UNL     1      18.163 -35.331  23.202  1.00  0.00     0.000 C 
BRANCH   6   7
ATOM      7  C   UNL     1      16.815 -34.595  23.198  1.00  0.00     0.000 C 
BRANCH   7   8
ATOM      8  C   UNL     1      16.813 -33.447  24.214  1.00  0.00     0.000 C 
BRANCH   8   9
ATOM      9  C   UNL     1      17.458 -33.881  25.535  1.00  0.00     0.000 C 
BRANCH   9  10
ATOM     10  C   UNL     1      18.565 -32.908  25.957  1.00  0.00     0.006 C 
BRANCH  10  11
ATOM     11  C   UNL     1      18.630 -31.708  25.008  1.00  0.00     0.053 C 
BRANCH  11  12
ATOM     12  C   UNL     1      20.052 -31.321  24.738  1.00  0.00     0.041 C 
ATOM     13  O   UNL     1      20.607 -31.653  23.657  1.00  0.00    -0.550 OA
ATOM     14  O   UNL     1      20.761 -30.581  25.675  1.00  0.00    -0.550 OA
ENDBRANCH  11  12
ENDBRANCH  10  11
ENDBRANCH   9  10
ENDBRANCH   8   9
ENDBRANCH   7   8
ENDBRANCH   6   7
ENDBRANCH   5   6
ENDBRANCH   4   5
ENDBRANCH   3   4
ENDBRANCH   2   3
ENDBRANCH   1   2
BRANCH   1  15
ATOM     15  C   UNL     1      14.769 -33.767  19.866  1.00  0.00     0.000 C 
BRANCH  15  16
ATOM     16  C   UNL     1      14.270 -32.925  21.054  1.00  0.00     0.000 C 
BRANCH  16  17
ATOM     17  C   UNL     1      13.406 -31.728  20.621  1.00  0.00     0.000 C 
BRANCH  17  18
ATOM     18  C   UNL     1      12.608 -31.119  21.794  1.00  0.00    -0.000 C 
BRANCH  18  19
ATOM     19  C   UNL     1      13.209 -31.425  23.179  1.00  0.00    -0.000 C 
BRANCH  19  20
ATOM     20  C   UNL     1      14.105 -30.313  23.758  1.00  0.00    -0.000 C 
BRANCH  20  21
ATOM     21  C   UNL     1      14.332 -29.102  22.829  1.00  0.00    -0.000 C 
BRANCH  21  22
ATOM     22  C   UNL     1      15.598 -29.169  21.956  1.00  0.00    -0.000 C 
BRANCH  22  23
ATOM     23  C   UNL     1      16.711 -30.030  22.580  1.00  0.00    -0.000 C 
BRANCH  23  24
ATOM     24  C   UNL     1      17.838 -30.362  21.584  1.00  0.00    -0.000 C 
BRANCH  24  25
ATOM     25  C   UNL     1      17.728 -31.743  20.913  1.00  0.00    -0.003 C 
ATOM     26  C   UNL     1      19.089 -32.380  20.632  1.00  0.00     0.004 C 
ENDBRANCH  24  25
ENDBRANCH  23  24
ENDBRANCH  22  23
ENDBRANCH  21  22
ENDBRANCH  20  21
ENDBRANCH  19  20
ENDBRANCH  18  19
ENDBRANCH  17  18
ENDBRANCH  16  17
ENDBRANCH  15  16
ENDBRANCH   1  15
TORSDOF 22
ENDMDL
MODEL 4
REMARK VINA RESULT:    -4.774      4.541      7.747
REMARK INTER + INTRA:         -14.921
REMARK INTER:                 -11.199
REMARK INTRA:                  -3.722
REMARK UNBOUND:                -4.008
REMARK SMILES CCCCCCCCCCCCCCCCCCCCCCCC(=O)[O-]
REMARK SMILES IDX 13 1 14 2 15 3 16 4 17 5 18 6 19 7 20 8 21 9 22 10 23 11
REMARK SMILES IDX 24 12 25 13 26 14 12 15 11 16 10 17 9 18 8 19 7 20 6 21 5 22
REMARK SMILES IDX 4 23 3 24 2 25 1 26
REMARK H PARENT
REMARK Flexibility Score: inf
ROOT
ATOM      1  C   UNL     1      17.938 -32.701  20.650  1.00  0.00     0.000 C 
ENDROOT
BRANCH   1   2
ATOM      2  C   UNL     1      17.812 -33.835  19.621  1.00  0.00     0.000 C 
BRANCH   2   3
ATOM      3  C   UNL     1      16.378 -34.380  19.578  1.00  0.00     0.000 C 
BRANCH   3   4
ATOM      4  C   UNL     1      16.322 -35.916  19.670  1.00  0.00     0.000 C 
BRANCH   4   5
ATOM      5  C   UNL     1      17.695 -36.617  19.714  1.00  0.00     0.000 C 
BRANCH   5   6
ATOM      6  C   UNL     1      17.993 -37.385  21.015  1.00  0.00     0.000 C 
BRANCH   6   7
ATOM      7  C   UNL     1      18.684 -36.516  22.076  1.00  0.00     0.000 C 
BRANCH   7   8
ATOM      8  C   UNL     1      19.277 -37.381  23.194  1.00  0.00     0.000 C 
BRANCH   8   9
ATOM      9  C   UNL     1      18.936 -36.807  24.573  1.00  0.00     0.000 C 
BRANCH   9  10
ATOM     10  C   UNL     1      18.602 -37.922  25.571  1.00  0.00     0.006 C 
BRANCH  10  11
ATOM     11  C   UNL     1      18.590 -37.387  27.006  1.00  0.00     0.053 C 
BRANCH  11  12
ATOM     12  C   UNL     1      17.316 -37.757  27.700  1.00  0.00     0.041 C 
ATOM     13  O   UNL     1      17.259 -37.774  28.959  1.00  0.00    -0.550 OA
ATOM     14  O   UNL     1      16.185 -38.070  26.957  1.00  0.00    -0.550 OA
ENDBRANCH  11  12
ENDBRANCH  10  11
ENDBRANCH   9  10
ENDBRANCH   8   9
ENDBRANCH   7   8
ENDBRANCH   6   7
ENDBRANCH   5   6
ENDBRANCH   4   5
ENDBRANCH   3   4
ENDBRANCH   2   3
ENDBRANCH   1   2
BRANCH   1  15
ATOM     15  C   UNL     1      19.351 -32.588  21.253  1.00  0.00     0.000 C 
BRANCH  15  16
ATOM     16  C   UNL     1      19.414 -32.683  22.788  1.00  0.00     0.000 C 
BRANCH  16  17
ATOM     17  C   UNL     1      18.864 -31.429  23.490  1.00  0.00     0.000 C 
BRANCH  17  18
ATOM     18  C   UNL     1      17.910 -31.772  24.654  1.00  0.00    -0.000 C 
BRANCH  18  19
ATOM     19  C   UNL     1      18.012 -33.234  25.130  1.00  0.00    -0.000 C 
BRANCH  19  20
ATOM     20  C   UNL     1      16.696 -34.031  25.068  1.00  0.00    -0.000 C 
BRANCH  20  21
ATOM     21  C   UNL     1      16.297 -34.531  23.663  1.00  0.00    -0.000 C 
BRANCH  21  22
ATOM     22  C   UNL     1      15.137 -33.769  22.997  1.00  0.00    -0.000 C 
BRANCH  22  23
ATOM     23  C   UNL     1      14.470 -32.751  23.939  1.00  0.00    -0.000 C 
BRANCH  23  24
ATOM     24  C   UNL     1      13.796 -31.591  23.184  1.00  0.00    -0.000 C 
BRANCH  24  25
ATOM     25  C   UNL     1      14.366 -31.307  21.783  1.00  0.00    -0.003 C 
ATOM     26  C   UNL     1      13.429 -31.746  20.657  1.00  0.00     0.004 C 
ENDBRANCH  24  25
ENDBRANCH  23  24
ENDBRANCH  22  23
ENDBRANCH  21  22
ENDBRANCH  20  21
ENDBRANCH  19  20
ENDBRANCH  18  19
ENDBRANCH  17  18
ENDBRANCH  16  17
ENDBRANCH  15  16
ENDBRANCH   1  15
TORSDOF 22
ENDMDL
MODEL 5
REMARK VINA RESULT:    -4.767      2.988      7.366
REMARK INTER + INTRA:         -14.905
REMARK INTER:                 -11.710
REMARK INTRA:                  -3.195
REMARK UNBOUND:                -4.008
REMARK SMILES CCCCCCCCCCCCCCCCCCCCCCCC(=O)[O-]
REMARK SMILES IDX 13 1 14 2 15 3 16 4 17 5 18 6 19 7 20 8 21 9 22 10 23 11
REMARK SMILES IDX 24 12 25 13 26 14 12 15 11 16 10 17 9 18 8 19 7 20 6 21 5 22
REMARK SMILES IDX 4 23 3 24 2 25 1 26
REMARK H PARENT
REMARK Flexibility Score: inf
ROOT
ATOM      1  C   UNL     1      16.794 -30.451  22.175  1.00  0.00     0.000 C 
ENDROOT
BRANCH   1   2
ATOM      2  C   UNL     1      15.353 -30.431  21.644  1.00  0.00     0.000 C 
BRANCH   2   3
ATOM      3  C   UNL     1      14.467 -29.512  22.496  1.00  0.00     0.000 C 
BRANCH   3   4
ATOM      4  C   UNL     1      13.734 -30.266  23.620  1.00  0.00     0.000 C 
BRANCH   4   5
ATOM      5  C   UNL     1      13.442 -31.752  23.326  1.00  0.00     0.000 C 
BRANCH   5   6
ATOM      6  C   UNL     1      13.922 -32.737  24.408  1.00  0.00     0.000 C 
BRANCH   6   7
ATOM      7  C   UNL     1      15.425 -33.040  24.313  1.00  0.00     0.000 C 
BRANCH   7   8
ATOM      8  C   UNL     1      15.674 -34.359  23.572  1.00  0.00     0.000 C 
BRANCH   8   9
ATOM      9  C   UNL     1      16.285 -34.105  22.189  1.00  0.00     0.000 C 
BRANCH   9  10
ATOM     10  C   UNL     1      15.267 -34.377  21.075  1.00  0.00     0.006 C 
BRANCH  10  11
ATOM     11  C   UNL     1      15.932 -34.306  19.697  1.00  0.00     0.053 C 
BRANCH  11  12
ATOM     12  C   UNL     1      16.963 -35.382  19.548  1.00  0.00     0.041 C 
ATOM     13  O   UNL     1      16.642 -36.593  19.686  1.00  0.00    -0.550 OA
ATOM     14  O   UNL     1      18.276 -35.050  19.244  1.00  0.00    -0.550 OA
ENDBRANCH  11  12
ENDBRANCH  10  11
ENDBRANCH   9  10
ENDBRANCH   8   9
ENDBRANCH   7   8
ENDBRANCH   6   7
ENDBRANCH   5   6
ENDBRANCH   4   5
ENDBRANCH   3   4
ENDBRANCH   2   3
ENDBRANCH   1   2
BRANCH   1  15
ATOM     15  C   UNL     1      17.850 -30.423  21.054  1.00  0.00     0.000 C 
BRANCH  15  16
ATOM     16  C   UNL     1      18.546 -31.768  20.779  1.00  0.00     0.000 C 
BRANCH  16  17
ATOM     17  C   UNL     1      19.497 -32.194  21.911  1.00  0.00     0.000 C 
BRANCH  17  18
ATOM     18  C   UNL     1      20.959 -31.774  21.644  1.00  0.00    -0.000 C 
BRANCH  18  19
ATOM     19  C   UNL     1      21.537 -30.827  22.712  1.00  0.00    -0.000 C 
BRANCH  19  20
ATOM     20  C   UNL     1      21.563 -29.339  22.315  1.00  0.00    -0.000 C 
BRANCH  20  21
ATOM     21  C   UNL     1      21.212 -29.046  20.841  1.00  0.00    -0.000 C 
BRANCH  21  22
ATOM     22  C   UNL     1      20.152 -27.951  20.621  1.00  0.00    -0.000 C 
BRANCH  22  23
ATOM     23  C   UNL     1      20.574 -26.586  21.192  1.00  0.00    -0.000 C 
BRANCH  23  24
ATOM     24  C   UNL     1      20.982 -25.581  20.100  1.00  0.00    -0.000 C 
BRANCH  24  25
ATOM     25  C   UNL     1      22.474 -25.203  20.086  1.00  0.00    -0.003 C 
ATOM     26  C   UNL     1      23.369 -26.326  19.561  1.00  0.00     0.004 C 
ENDBRANCH  24  25
ENDBRANCH  23  24
ENDBRANCH  22  23
ENDBRANCH  21  22
ENDBRANCH  20  21
ENDBRANCH  19  20
ENDBRANCH  18  19
ENDBRANCH  17  18
ENDBRANCH  16  17
ENDBRANCH  15  16
ENDBRANCH   1  15
TORSDOF 22
ENDMDL
MODEL 6
REMARK VINA RESULT:    -4.729      3.025      4.596
REMARK INTER + INTRA:         -14.818
REMARK INTER:                 -10.721
REMARK INTRA:                  -4.098
REMARK UNBOUND:                -4.008
REMARK SMILES CCCCCCCCCCCCCCCCCCCCCCCC(=O)[O-]
REMARK SMILES IDX 13 1 14 2 15 3 16 4 17 5 18 6 19 7 20 8 21 9 22 10 23 11
REMARK SMILES IDX 24 12 25 13 26 14 12 15 11 16 10 17 9 18 8 19 7 20 6 21 5 22
REMARK SMILES IDX 4 23 3 24 2 25 1 26
REMARK H PARENT
REMARK Flexibility Score: inf
ROOT
ATOM      1  C   UNL     1      14.641 -33.222  22.021  1.00  0.00     0.000 C 
ENDROOT
BRANCH   1   2
ATOM      2  C   UNL     1      15.392 -34.213  22.923  1.00  0.00     0.000 C 
BRANCH   2   3
ATOM      3  C   UNL     1      15.862 -33.532  24.215  1.00  0.00     0.000 C 
BRANCH   3   4
ATOM      4  C   UNL     1      17.396 -33.430  24.310  1.00  0.00     0.000 C 
BRANCH   4   5
ATOM      5  C   UNL     1      17.942 -32.007  24.542  1.00  0.00     0.000 C 
BRANCH   5   6
ATOM      6  C   UNL     1      18.748 -31.419  23.369  1.00  0.00     0.000 C 
BRANCH   6   7
ATOM      7  C   UNL     1      18.416 -32.084  22.025  1.00  0.00     0.000 C 
BRANCH   7   8
ATOM      8  C   UNL     1      17.463 -31.211  21.201  1.00  0.00     0.000 C 
BRANCH   8   9
ATOM      9  C   UNL     1      17.407 -29.783  21.757  1.00  0.00     0.000 C 
BRANCH   9  10
ATOM     10  C   UNL     1      15.958 -29.326  21.964  1.00  0.00     0.006 C 
BRANCH  10  11
ATOM     11  C   UNL     1      15.365 -29.943  23.234  1.00  0.00     0.053 C 
BRANCH  11  12
ATOM     12  C   UNL     1      13.925 -29.564  23.386  1.00  0.00     0.041 C 
ATOM     13  O   UNL     1      13.052 -30.449  23.592  1.00  0.00    -0.550 OA
ATOM     14  O   UNL     1      13.545 -28.230  23.315  1.00  0.00    -0.550 OA
ENDBRANCH  11  12
ENDBRANCH  10  11
ENDBRANCH   9  10
ENDBRANCH   8   9
ENDBRANCH   7   8
ENDBRANCH   6   7
ENDBRANCH   5   6
ENDBRANCH   4   5
ENDBRANCH   3   4
ENDBRANCH   2   3
ENDBRANCH   1   2
BRANCH   1  15
ATOM     15  C   UNL     1      14.662 -33.624  20.535  1.00  0.00     0.000 C 
BRANCH  15  16
ATOM     16  C   UNL     1      15.571 -34.818  20.195  1.00  0.00     0.000 C 
BRANCH  16  17
ATOM     17  C   UNL     1      16.832 -34.410  19.414  1.00  0.00     0.000 C 
BRANCH  17  18
ATOM     18  C   UNL     1      17.928 -35.497  19.449  1.00  0.00    -0.000 C 
BRANCH  18  19
ATOM     19  C   UNL     1      17.475 -36.816  20.104  1.00  0.00    -0.000 C 
BRANCH  19  20
ATOM     20  C   UNL     1      18.313 -37.261  21.317  1.00  0.00    -0.000 C 
BRANCH  20  21
ATOM     21  C   UNL     1      18.362 -36.255  22.486  1.00  0.00    -0.000 C 
BRANCH  21  22
ATOM     22  C   UNL     1      19.732 -36.110  23.173  1.00  0.00    -0.000 C 
BRANCH  22  23
ATOM     23  C   UNL     1      19.685 -36.426  24.678  1.00  0.00    -0.000 C 
BRANCH  23  24
ATOM     24  C   UNL     1      18.920 -37.725  24.993  1.00  0.00    -0.000 C 
BRANCH  24  25
ATOM     25  C   UNL     1      18.054 -37.679  26.265  1.00  0.00    -0.003 C 
ATOM     26  C   UNL     1      16.994 -36.579  26.225  1.00  0.00     0.004 C 
ENDBRANCH  24  25
ENDBRANCH  23  24
ENDBRANCH  22  23
ENDBRANCH  21  22
ENDBRANCH  20  21
ENDBRANCH  19  20
ENDBRANCH  18  19
ENDBRANCH  17  18
ENDBRANCH  16  17
ENDBRANCH  15  16
ENDBRANCH   1  15
TORSDOF 22
ENDMDL
MODEL 7
REMARK VINA RESULT:    -4.715      3.235      6.583
REMARK INTER + INTRA:         -14.786
REMARK INTER:                 -11.215
REMARK INTRA:                  -3.571
REMARK UNBOUND:                -4.008
REMARK SMILES CCCCCCCCCCCCCCCCCCCCCCCC(=O)[O-]
REMARK SMILES IDX 13 1 14 2 15 3 16 4 17 5 18 6 19 7 20 8 21 9 22 10 23 11
REMARK SMILES IDX 24 12 25 13 26 14 12 15 11 16 10 17 9 18 8 19 7 20 6 21 5 22
REMARK SMILES IDX 4 23 3 24 2 25 1 26
REMARK H PARENT
REMARK Flexibility Score: inf
ROOT
ATOM      1  C   UNL     1      13.508 -31.632  22.947  1.00  0.00     0.000 C 
ENDROOT
BRANCH   1   2
ATOM      2  C   UNL     1      14.332 -32.707  23.672  1.00  0.00     0.000 C 
BRANCH   2   3
ATOM      3  C   UNL     1      15.007 -33.651  22.668  1.00  0.00     0.000 C 
BRANCH   3   4
ATOM      4  C   UNL     1      15.084 -33.055  21.250  1.00  0.00     0.000 C 
BRANCH   4   5
ATOM      5  C   UNL     1      14.913 -34.074  20.105  1.00  0.00     0.000 C 
BRANCH   5   6
ATOM      6  C   UNL     1      16.111 -35.017  19.888  1.00  0.00     0.000 C 
BRANCH   6   7
ATOM      7  C   UNL     1      17.428 -34.263  19.651  1.00  0.00     0.000 C 
BRANCH   7   8
ATOM      8  C   UNL     1      18.503 -34.709  20.648  1.00  0.00     0.000 C 
BRANCH   8   9
ATOM      9  C   UNL     1      18.130 -36.048  21.296  1.00  0.00     0.000 C 
BRANCH   9  10
ATOM     10  C   UNL     1      18.746 -36.178  22.694  1.00  0.00     0.006 C 
BRANCH  10  11
ATOM     11  C   UNL     1      18.309 -35.019  23.595  1.00  0.00     0.053 C 
BRANCH  11  12
ATOM     12  C   UNL     1      17.835 -35.527  24.921  1.00  0.00     0.041 C 
ATOM     13  O   UNL     1      16.603 -35.573  25.181  1.00  0.00    -0.550 OA
ATOM     14  O   UNL     1      18.753 -35.963  25.868  1.00  0.00    -0.550 OA
ENDBRANCH  11  12
ENDBRANCH  10  11
ENDBRANCH   9  10
ENDBRANCH   8   9
ENDBRANCH   7   8
ENDBRANCH   6   7
ENDBRANCH   5   6
ENDBRANCH   4   5
ENDBRANCH   3   4
ENDBRANCH   2   3
ENDBRANCH   1   2
BRANCH   1  15
ATOM     15  C   UNL     1      13.451 -30.298  23.715  1.00  0.00     0.000 C 
BRANCH  15  16
ATOM     16  C   UNL     1      14.310 -29.167  23.121  1.00  0.00     0.000 C 
BRANCH  16  17
ATOM     17  C   UNL     1      15.038 -29.580  21.831  1.00  0.00     0.000 C 
BRANCH  17  18
ATOM     18  C   UNL     1      16.574 -29.495  21.964  1.00  0.00    -0.000 C 
BRANCH  18  19
ATOM     19  C   UNL     1      17.157 -30.433  23.038  1.00  0.00    -0.000 C 
BRANCH  19  20
ATOM     20  C   UNL     1      18.147 -31.489  22.511  1.00  0.00    -0.000 C 
BRANCH  20  21
ATOM     21  C   UNL     1      19.619 -31.029  22.437  1.00  0.00    -0.000 C 
BRANCH  21  22
ATOM     22  C   UNL     1      20.101 -30.584  21.044  1.00  0.00    -0.000 C 
BRANCH  22  23
ATOM     23  C   UNL     1      20.763 -29.195  21.055  1.00  0.00    -0.000 C 
BRANCH  23  24
ATOM     24  C   UNL     1      19.772 -28.058  20.744  1.00  0.00    -0.000 C 
BRANCH  24  25
ATOM     25  C   UNL     1      20.221 -26.659  21.202  1.00  0.00    -0.003 C 
ATOM     26  C   UNL     1      20.823 -25.826  20.070  1.00  0.00     0.004 C 
ENDBRANCH  24  25
ENDBRANCH  23  24
ENDBRANCH  22  23
ENDBRANCH  21  22
ENDBRANCH  20  21
ENDBRANCH  19  20
ENDBRANCH  18  19
ENDBRANCH  17  18
ENDBRANCH  16  17
ENDBRANCH  15  16
ENDBRANCH   1  15
TORSDOF 22
ENDMDL
MODEL 8
REMARK VINA RESULT:    -4.680      1.323      5.078
REMARK INTER + INTRA:         -14.708
REMARK INTER:                 -11.662
REMARK INTRA:                  -3.045
REMARK UNBOUND:                -4.008
REMARK SMILES CCCCCCCCCCCCCCCCCCCCCCCC(=O)[O-]
REMARK SMILES IDX 13 1 14 2 15 3 16 4 17 5 18 6 19 7 20 8 21 9 22 10 23 11
REMARK SMILES IDX 24 12 25 13 26 14 12 15 11 16 10 17 9 18 8 19 7 20 6 21 5 22
REMARK SMILES IDX 4 23 3 24 2 25 1 26
REMARK H PARENT
REMARK Flexibility Score: inf
ROOT
ATOM      1  C   UNL     1      17.622 -36.573  19.709  1.00  0.00     0.000 C 
ENDROOT
BRANCH   1   2
ATOM      2  C   UNL     1      16.414 -35.647  19.916  1.00  0.00     0.000 C 
BRANCH   2   3
ATOM      3  C   UNL     1      16.747 -34.209  19.499  1.00  0.00     0.000 C 
BRANCH   3   4
ATOM      4  C   UNL     1      18.258 -33.913  19.533  1.00  0.00     0.000 C 
BRANCH   4   5
ATOM      5  C   UNL     1      18.715 -32.987  20.678  1.00  0.00     0.000 C 
BRANCH   5   6
ATOM      6  C   UNL     1      18.007 -31.621  20.734  1.00  0.00     0.000 C 
BRANCH   6   7
ATOM      7  C   UNL     1      18.832 -30.552  21.466  1.00  0.00     0.000 C 
BRANCH   7   8
ATOM      8  C   UNL     1      18.294 -29.147  21.174  1.00  0.00     0.000 C 
BRANCH   8   9
ATOM      9  C   UNL     1      19.425 -28.202  20.753  1.00  0.00     0.000 C 
BRANCH   9  10
ATOM     10  C   UNL     1      20.796 -28.774  21.133  1.00  0.00     0.006 C 
BRANCH  10  11
ATOM     11  C   UNL     1      21.925 -27.872  20.627  1.00  0.00     0.053 C 
BRANCH  11  12
ATOM     12  C   UNL     1      21.652 -26.439  20.964  1.00  0.00     0.041 C 
ATOM     13  O   UNL     1      21.507 -26.085  22.165  1.00  0.00    -0.550 OA
ATOM     14  O   UNL     1      21.569 -25.490  19.953  1.00  0.00    -0.550 OA
ENDBRANCH  11  12
ENDBRANCH  10  11
ENDBRANCH   9  10
ENDBRANCH   8   9
ENDBRANCH   7   8
ENDBRANCH   6   7
ENDBRANCH   5   6
ENDBRANCH   4   5
ENDBRANCH   3   4
ENDBRANCH   2   3
ENDBRANCH   1   2
BRANCH   1  15
ATOM     15  C   UNL     1      17.967 -37.403  20.959  1.00  0.00     0.000 C 
BRANCH  15  16
ATOM     16  C   UNL     1      18.897 -36.706  21.968  1.00  0.00     0.000 C 
BRANCH  16  17
ATOM     17  C   UNL     1      18.173 -36.278  23.256  1.00  0.00     0.000 C 
BRANCH  17  18
ATOM     18  C   UNL     1      18.670 -34.917  23.791  1.00  0.00    -0.000 C 
BRANCH  18  19
ATOM     19  C   UNL     1      17.542 -33.898  24.038  1.00  0.00    -0.000 C 
BRANCH  19  20
ATOM     20  C   UNL     1      16.206 -34.227  23.346  1.00  0.00    -0.000 C 
BRANCH  20  21
ATOM     21  C   UNL     1      15.204 -33.056  23.262  1.00  0.00    -0.000 C 
BRANCH  21  22
ATOM     22  C   UNL     1      14.573 -32.827  21.877  1.00  0.00    -0.000 C 
BRANCH  22  23
ATOM     23  C   UNL     1      14.264 -31.346  21.596  1.00  0.00    -0.000 C 
BRANCH  23  24
ATOM     24  C   UNL     1      12.917 -30.893  22.189  1.00  0.00    -0.000 C 
BRANCH  24  25
ATOM     25  C   UNL     1      13.003 -30.247  23.583  1.00  0.00    -0.003 C 
ATOM     26  C   UNL     1      12.982 -28.719  23.536  1.00  0.00     0.004 C 
ENDBRANCH  24  25
ENDBRANCH  23  24
ENDBRANCH  22  23
ENDBRANCH  21  22
ENDBRANCH  20  21
ENDBRANCH  19  20
ENDBRANCH  18  19
ENDBRANCH  17  18
ENDBRANCH  16  17
ENDBRANCH  15  16
ENDBRANCH   1  15
TORSDOF 22
ENDMDL
MODEL 9
REMARK VINA RESULT:    -4.667      1.426      2.948
REMARK INTER + INTRA:         -14.677
REMARK INTER:                 -11.334
REMARK INTRA:                  -3.343
REMARK UNBOUND:                -4.008
REMARK SMILES CCCCCCCCCCCCCCCCCCCCCCCC(=O)[O-]
REMARK SMILES IDX 13 1 14 2 15 3 16 4 17 5 18 6 19 7 20 8 21 9 22 10 23 11
REMARK SMILES IDX 24 12 25 13 26 14 12 15 11 16 10 17 9 18 8 19 7 20 6 21 5 22
REMARK SMILES IDX 4 23 3 24 2 25 1 26
REMARK H PARENT
REMARK Flexibility Score: inf
ROOT
ATOM      1  C   UNL     1      16.969 -31.414  22.373  1.00  0.00     0.000 C 
ENDROOT
BRANCH   1   2
ATOM      2  C   UNL     1      17.603 -31.120  21.005  1.00  0.00     0.000 C 
BRANCH   2   3
ATOM      3  C   UNL     1      18.769 -32.077  20.724  1.00  0.00     0.000 C 
BRANCH   3   4
ATOM      4  C   UNL     1      19.832 -32.063  21.838  1.00  0.00     0.000 C 
BRANCH   4   5
ATOM      5  C   UNL     1      21.164 -31.384  21.460  1.00  0.00     0.000 C 
BRANCH   5   6
ATOM      6  C   UNL     1      21.310 -29.927  21.937  1.00  0.00     0.000 C 
BRANCH   6   7
ATOM      7  C   UNL     1      21.291 -28.916  20.781  1.00  0.00     0.000 C 
BRANCH   7   8
ATOM      8  C   UNL     1      19.960 -28.158  20.736  1.00  0.00     0.000 C 
BRANCH   8   9
ATOM      9  C   UNL     1      20.188 -26.643  20.790  1.00  0.00     0.000 C 
BRANCH   9  10
ATOM     10  C   UNL     1      21.567 -26.311  21.371  1.00  0.00     0.006 C 
BRANCH  10  11
ATOM     11  C   UNL     1      22.036 -24.927  20.913  1.00  0.00     0.053 C 
BRANCH  11  12
ATOM     12  C   UNL     1      23.152 -25.045  19.922  1.00  0.00     0.041 C 
ATOM     13  O   UNL     1      23.982 -24.107  19.785  1.00  0.00    -0.550 OA
ATOM     14  O   UNL     1      23.286 -26.197  19.158  1.00  0.00    -0.550 OA
ENDBRANCH  11  12
ENDBRANCH  10  11
ENDBRANCH   9  10
ENDBRANCH   8   9
ENDBRANCH   7   8
ENDBRANCH   6   7
ENDBRANCH   5   6
ENDBRANCH   4   5
ENDBRANCH   3   4
ENDBRANCH   2   3
ENDBRANCH   1   2
BRANCH   1  15
ATOM     15  C   UNL     1      15.480 -31.026  22.444  1.00  0.00     0.000 C 
BRANCH  15  16
ATOM     16  C   UNL     1      14.498 -32.211  22.469  1.00  0.00     0.000 C 
BRANCH  16  17
ATOM     17  C   UNL     1      14.313 -32.866  21.090  1.00  0.00     0.000 C 
BRANCH  17  18
ATOM     18  C   UNL     1      15.022 -34.234  20.985  1.00  0.00    -0.000 C 
BRANCH  18  19
ATOM     19  C   UNL     1      15.951 -34.360  19.763  1.00  0.00    -0.000 C 
BRANCH  19  20
ATOM     20  C   UNL     1      16.720 -35.691  19.666  1.00  0.00    -0.000 C 
BRANCH  20  21
ATOM     21  C   UNL     1      18.103 -35.702  20.352  1.00  0.00    -0.000 C 
BRANCH  21  22
ATOM     22  C   UNL     1      18.358 -36.887  21.301  1.00  0.00    -0.000 C 
BRANCH  22  23
ATOM     23  C   UNL     1      18.562 -36.452  22.762  1.00  0.00    -0.000 C 
BRANCH  23  24
ATOM     24  C   UNL     1      17.923 -35.087  23.075  1.00  0.00    -0.000 C 
BRANCH  24  25
ATOM     25  C   UNL     1      16.872 -35.102  24.199  1.00  0.00    -0.003 C 
ATOM     26  C   UNL     1      16.880 -33.825  25.041  1.00  0.00     0.004 C 
ENDBRANCH  24  25
ENDBRANCH  23  24
ENDBRANCH  22  23
ENDBRANCH  21  22
ENDBRANCH  20  21
ENDBRANCH  19  20
ENDBRANCH  18  19
ENDBRANCH  17  18
ENDBRANCH  16  17
ENDBRANCH  15  16
ENDBRANCH   1  15
TORSDOF 22
ENDMDL
