MODEL 1
REMARK VINA RESULT:    -5.274      0.000      0.000
REMARK INTER + INTRA:          -5.274
REMARK INTER:                  -5.274
REMARK INTRA:                   0.000
REMARK UNBOUND:                 0.000
REMARK SMILES CC1=CC[C@H]2[C@H](C1)C2(C)C
REMARK SMILES IDX 1 1 2 2 3 3 4 4 5 5 6 6 7 7 8 8 9 9 10 10
REMARK H PARENT
REMARK Flexibility Score: inf
ROOT
ATOM      1  C   UNL     1     140.791 135.099 161.246  1.00  0.00     0.039 C 
ATOM      2  C   UNL     1     139.457 135.590 161.730  1.00  0.00    -0.077 C 
ATOM      3  C   UNL     1     139.405 136.581 162.668  1.00  0.00    -0.028 C 
ATOM      4  C   UNL     1     138.080 137.140 163.181  1.00  0.00     0.031 C 
ATOM      5  C   UNL     1     137.010 136.861 162.120  1.00  0.00     0.003 C 
ATOM      6  C   UNL     1     137.018 135.288 162.084  1.00  0.00     0.003 C 
ATOM      7  C   UNL     1     138.175 135.015 161.116  1.00  0.00     0.034 C 
ATOM      8  C   UNL     1     135.723 136.068 162.047  1.00  0.00    -0.029 C 
ATOM      9  C   UNL     1     134.875 136.067 163.321  1.00  0.00     0.012 C 
ATOM     10  C   UNL     1     134.986 136.063 160.705  1.00  0.00     0.012 C 
ENDROOT
TORSDOF 0
ENDMDL
MODEL 2
REMARK VINA RESULT:    -3.853     16.367     17.441
REMARK INTER + INTRA:          -3.853
REMARK INTER:                  -3.853
REMARK INTRA:                   0.000
REMARK UNBOUND:                 0.000
REMARK SMILES CC1=CC[C@H]2[C@H](C1)C2(C)C
REMARK SMILES IDX 1 1 2 2 3 3 4 4 5 5 6 6 7 7 8 8 9 9 10 10
REMARK H PARENT
REMARK Flexibility Score: inf
ROOT
ATOM      1  C   UNL     1     139.745 154.003 159.425  1.00  0.00     0.039 C 
ATOM      2  C   UNL     1     138.987 153.869 160.714  1.00  0.00    -0.077 C 
ATOM      3  C   UNL     1     139.040 154.877 161.633  1.00  0.00    -0.028 C 
ATOM      4  C   UNL     1     138.271 154.812 162.951  1.00  0.00     0.031 C 
ATOM      5  C   UNL     1     137.104 153.836 162.766  1.00  0.00     0.003 C 
ATOM      6  C   UNL     1     137.871 152.497 162.457  1.00  0.00     0.003 C 
ATOM      7  C   UNL     1     138.113 152.631 160.949  1.00  0.00     0.034 C 
ATOM      8  C   UNL     1     136.671 152.521 163.377  1.00  0.00    -0.029 C 
ATOM      9  C   UNL     1     136.942 152.368 164.876  1.00  0.00     0.012 C 
ATOM     10  C   UNL     1     135.396 151.883 162.819  1.00  0.00     0.012 C 
ENDROOT
TORSDOF 0
ENDMDL
MODEL 3
REMARK VINA RESULT:    -3.718     13.091     15.153
REMARK INTER + INTRA:          -3.718
REMARK INTER:                  -3.718
REMARK INTRA:                   0.000
REMARK UNBOUND:                 0.000
REMARK SMILES CC1=CC[C@H]2[C@H](C1)C2(C)C
REMARK SMILES IDX 1 1 2 2 3 3 4 4 5 5 6 6 7 7 8 8 9 9 10 10
REMARK H PARENT
REMARK Flexibility Score: inf
ROOT
ATOM      1  C   UNL     1     154.757 138.622 163.678  1.00  0.00     0.039 C 
ATOM      2  C   UNL     1     153.807 137.736 162.924  1.00  0.00    -0.077 C 
ATOM      3  C   UNL     1     153.558 136.473 163.381  1.00  0.00    -0.028 C 
ATOM      4  C   UNL     1     152.583 135.535 162.674  1.00  0.00     0.031 C 
ATOM      5  C   UNL     1     151.611 136.394 161.858  1.00  0.00     0.003 C 
ATOM      6  C   UNL     1     152.597 137.098 160.852  1.00  0.00     0.003 C 
ATOM      7  C   UNL     1     153.082 138.286 161.690  1.00  0.00     0.034 C 
ATOM      8  C   UNL     1     151.260 136.557 160.395  1.00  0.00    -0.029 C 
ATOM      9  C   UNL     1     151.279 135.272 159.564  1.00  0.00     0.012 C 
ATOM     10  C   UNL     1     150.204 137.610 160.048  1.00  0.00     0.012 C 
ENDROOT
TORSDOF 0
ENDMDL
MODEL 4
REMARK VINA RESULT:    -3.438     16.680     18.028
REMARK INTER + INTRA:          -3.438
REMARK INTER:                  -3.438
REMARK INTRA:                   0.000
REMARK UNBOUND:                 0.000
REMARK SMILES CC1=CC[C@H]2[C@H](C1)C2(C)C
REMARK SMILES IDX 1 1 2 2 3 3 4 4 5 5 6 6 7 7 8 8 9 9 10 10
REMARK H PARENT
REMARK Flexibility Score: inf
ROOT
ATOM      1  C   UNL     1     136.003 152.081 163.880  1.00  0.00     0.039 C 
ATOM      2  C   UNL     1     136.932 152.919 163.049  1.00  0.00    -0.077 C 
ATOM      3  C   UNL     1     137.141 154.226 163.385  1.00  0.00    -0.028 C 
ATOM      4  C   UNL     1     138.093 155.121 162.595  1.00  0.00     0.031 C 
ATOM      5  C   UNL     1     139.095 154.217 161.869  1.00  0.00     0.003 C 
ATOM      6  C   UNL     1     138.138 153.392 160.931  1.00  0.00     0.003 C 
ATOM      7  C   UNL     1     137.681 152.275 161.876  1.00  0.00     0.034 C 
ATOM      8  C   UNL     1     139.462 153.926 160.430  1.00  0.00    -0.029 C 
ATOM      9  C   UNL     1     139.412 155.125 159.480  1.00  0.00     0.012 C 
ATOM     10  C   UNL     1     140.551 152.877 160.190  1.00  0.00     0.012 C 
ENDROOT
TORSDOF 0
ENDMDL
MODEL 5
REMARK VINA RESULT:    -3.186     16.565     17.647
REMARK INTER + INTRA:          -3.186
REMARK INTER:                  -3.186
REMARK INTRA:                   0.000
REMARK UNBOUND:                 0.000
REMARK SMILES CC1=CC[C@H]2[C@H](C1)C2(C)C
REMARK SMILES IDX 1 1 2 2 3 3 4 4 5 5 6 6 7 7 8 8 9 9 10 10
REMARK H PARENT
REMARK Flexibility Score: inf
ROOT
ATOM      1  C   UNL     1     140.321 153.680 159.545  1.00  0.00     0.039 C 
ATOM      2  C   UNL     1     139.166 153.401 160.464  1.00  0.00    -0.077 C 
ATOM      3  C   UNL     1     138.898 152.115 160.836  1.00  0.00    -0.028 C 
ATOM      4  C   UNL     1     137.755 151.770 161.788  1.00  0.00     0.031 C 
ATOM      5  C   UNL     1     137.437 153.021 162.614  1.00  0.00     0.003 C 
ATOM      6  C   UNL     1     136.992 154.026 161.488  1.00  0.00     0.003 C 
ATOM      7  C   UNL     1     138.346 154.572 161.020  1.00  0.00     0.034 C 
ATOM      8  C   UNL     1     136.246 153.935 162.800  1.00  0.00    -0.029 C 
ATOM      9  C   UNL     1     134.877 153.250 162.774  1.00  0.00     0.012 C 
ATOM     10  C   UNL     1     136.424 155.125 163.747  1.00  0.00     0.012 C 
ENDROOT
TORSDOF 0
ENDMDL
MODEL 6
REMARK VINA RESULT:    -3.124      1.178      2.721
REMARK INTER + INTRA:          -3.124
REMARK INTER:                  -3.124
REMARK INTRA:                   0.000
REMARK UNBOUND:                 0.000
REMARK SMILES CC1=CC[C@H]2[C@H](C1)C2(C)C
REMARK SMILES IDX 1 1 2 2 3 3 4 4 5 5 6 6 7 7 8 8 9 9 10 10
REMARK H PARENT
REMARK Flexibility Score: inf
ROOT
ATOM      1  C   UNL     1     138.657 137.499 164.745  1.00  0.00     0.039 C 
ATOM      2  C   UNL     1     138.274 136.861 163.440  1.00  0.00    -0.077 C 
ATOM      3  C   UNL     1     139.238 136.274 162.671  1.00  0.00    -0.028 C 
ATOM      4  C   UNL     1     138.908 135.586 161.348  1.00  0.00     0.031 C 
ATOM      5  C   UNL     1     137.429 135.187 161.381  1.00  0.00     0.003 C 
ATOM      6  C   UNL     1     136.735 136.594 161.510  1.00  0.00     0.003 C 
ATOM      7  C   UNL     1     136.799 136.822 163.025  1.00  0.00     0.034 C 
ATOM      8  C   UNL     1     136.186 135.528 160.588  1.00  0.00    -0.029 C 
ATOM      9  C   UNL     1     136.397 135.734 159.086  1.00  0.00     0.012 C 
ATOM     10  C   UNL     1     134.876 134.876 161.037  1.00  0.00     0.012 C 
ENDROOT
TORSDOF 0
ENDMDL
MODEL 7
REMARK VINA RESULT:    -2.954     12.950     15.661
REMARK INTER + INTRA:          -2.954
REMARK INTER:                  -2.954
REMARK INTRA:                   0.000
REMARK UNBOUND:                 0.000
REMARK SMILES CC1=CC[C@H]2[C@H](C1)C2(C)C
REMARK SMILES IDX 1 1 2 2 3 3 4 4 5 5 6 6 7 7 8 8 9 9 10 10
REMARK H PARENT
REMARK Flexibility Score: inf
ROOT
ATOM      1  C   UNL     1     150.003 137.541 159.680  1.00  0.00     0.039 C 
ATOM      2  C   UNL     1     151.123 136.939 160.479  1.00  0.00    -0.077 C 
ATOM      3  C   UNL     1     151.395 135.606 160.357  1.00  0.00    -0.028 C 
ATOM      4  C   UNL     1     152.537 134.941 161.122  1.00  0.00     0.031 C 
ATOM      5  C   UNL     1     153.553 136.028 161.489  1.00  0.00     0.003 C 
ATOM      6  C   UNL     1     152.683 136.962 162.410  1.00  0.00     0.003 C 
ATOM      7  C   UNL     1     151.984 137.843 161.368  1.00  0.00     0.034 C 
ATOM      8  C   UNL     1     154.112 136.616 162.766  1.00  0.00    -0.029 C 
ATOM      9  C   UNL     1     154.321 135.625 163.913  1.00  0.00     0.012 C 
ATOM     10  C   UNL     1     155.125 137.755 162.620  1.00  0.00     0.012 C 
ENDROOT
TORSDOF 0
ENDMDL
