MODEL 1
REMARK VINA RESULT:    -6.215      0.000      0.000
REMARK INTER + INTRA:         -11.220
REMARK INTER:                  -9.667
REMARK INTRA:                  -1.553
REMARK UNBOUND:                -1.553
REMARK SMILES C[C@@]12C[C@@]3(O)O[C@@H](O1)[C@]1(COC(=O)c4ccccc4)[C@H]3C[C@@]12O[C@H]1O[C@@H](CO)[C@@H](O)[C@@H](O)[C@@H]1O
REMARK SMILES IDX 1 1 2 2 3 3 4 4 20 5 21 6 22 7 9 8 7 9 8 10 6 11 23 12 24 13
REMARK SMILES IDX 33 14 25 15 31 16 26 17 29 18 34 19 32 21 27 23 28 24 30 26
REMARK SMILES IDX 5 28 10 30 11 31 12 32 13 33 14 34 15 35 19 36 16 37 18 38
REMARK SMILES IDX 17 39
REMARK H PARENT 34 20 32 22 28 25 30 27 5 29
REMARK Flexibility Score: inf
ROOT
ATOM      1  C   UNL     1     171.905 166.848 173.701  1.00  0.00     0.046 C 
ATOM      2  C   UNL     1     171.807 168.142 172.893  1.00  0.00     0.104 C 
ATOM      3  C   UNL     1     170.321 168.639 172.773  1.00  0.00     0.104 C 
ATOM      4  C   UNL     1     170.432 169.912 171.856  1.00  0.00     0.175 C 
ATOM      5  C   UNL     1     171.276 169.596 170.579  1.00  0.00     0.070 C 
ATOM      6  C   UNL     1     171.412 168.092 170.304  1.00  0.00     0.050 C 
ATOM      7  C   UNL     1     172.443 168.067 171.457  1.00  0.00     0.115 C 
ATOM      8  C   UNL     1     172.649 169.565 171.235  1.00  0.00     0.096 C 
ATOM      9  C   UNL     1     172.501 170.237 172.588  1.00  0.00     0.267 C 
ATOM     10  O   UNL     1     172.509 169.186 173.542  1.00  0.00    -0.342 OA
ATOM     11  O   UNL     1     171.218 170.844 172.574  1.00  0.00    -0.320 OA
ENDROOT
BRANCH   7  12
ATOM     12  O   UNL     1     173.645 167.321 171.323  1.00  0.00    -0.339 OA
BRANCH  12  13
ATOM     13  C   UNL     1     173.600 166.417 170.231  1.00  0.00     0.282 C 
ATOM     14  C   UNL     1     173.486 164.971 170.768  1.00  0.00     0.202 C 
ATOM     15  O   UNL     1     174.735 166.629 169.393  1.00  0.00    -0.341 OA
ATOM     16  C   UNL     1     174.739 164.578 171.582  1.00  0.00     0.179 C 
ATOM     17  C   UNL     1     175.850 165.779 169.637  1.00  0.00     0.178 C 
ATOM     18  C   UNL     1     176.001 165.349 171.116  1.00  0.00     0.177 C 
BRANCH  14  19
ATOM     19  O   UNL     1     173.324 164.078 169.695  1.00  0.00    -0.385 OA
ATOM     20  H   UNL     1     174.202 163.637 169.549  1.00  0.00     0.211 HD
ENDBRANCH  14  19
BRANCH  16  21
ATOM     21  O   UNL     1     174.498 164.799 172.950  1.00  0.00    -0.387 OA
ATOM     22  H   UNL     1     173.514 164.868 173.060  1.00  0.00     0.211 HD
ENDBRANCH  16  21
BRANCH  17  23
ATOM     23  C   UNL     1     177.122 166.489 169.148  1.00  0.00     0.191 C 
BRANCH  23  24
ATOM     24  O   UNL     1     176.979 167.879 169.259  1.00  0.00    -0.394 OA
ATOM     25  H   UNL     1     176.004 168.063 169.301  1.00  0.00     0.210 HD
ENDBRANCH  23  24
ENDBRANCH  17  23
BRANCH  18  26
ATOM     26  O   UNL     1     176.223 166.484 171.916  1.00  0.00    -0.387 OA
ATOM     27  H   UNL     1     175.877 167.269 171.416  1.00  0.00     0.211 HD
ENDBRANCH  18  26
ENDBRANCH  12  13
ENDBRANCH   7  12
BRANCH   4  28
ATOM     28  O   UNL     1     169.179 170.443 171.524  1.00  0.00    -0.365 OA
ATOM     29  H   UNL     1     168.500 169.865 171.960  1.00  0.00     0.214 HD
ENDBRANCH   4  28
BRANCH   8  30
ATOM     30  C   UNL     1     173.853 169.990 170.370  1.00  0.00     0.249 C 
BRANCH  30  31
ATOM     31  O   UNL     1     174.738 170.824 171.116  1.00  0.00    -0.461 OA
BRANCH  31  32
ATOM     32  C   UNL     1     175.953 170.386 171.658  1.00  0.00     0.338 C 
ATOM     33  O   UNL     1     176.280 169.169 171.585  1.00  0.00    -0.246 OA
BRANCH  32  34
ATOM     34  C   UNL     1     176.850 171.354 172.325  1.00  0.00     0.060 A 
ATOM     35  C   UNL     1     176.353 172.211 173.324  1.00  0.00     0.015 A 
ATOM     36  C   UNL     1     178.209 171.440 171.968  1.00  0.00     0.015 A 
ATOM     37  C   UNL     1     177.196 173.132 173.950  1.00  0.00     0.001 A 
ATOM     38  C   UNL     1     179.049 172.361 172.601  1.00  0.00     0.001 A 
ATOM     39  C   UNL     1     178.544 173.207 173.590  1.00  0.00     0.000 A 
ENDBRANCH  32  34
ENDBRANCH  31  32
ENDBRANCH  30  31
ENDBRANCH   8  30
TORSDOF 12
ENDMDL
MODEL 2
REMARK VINA RESULT:    -6.126      1.933      3.570
REMARK INTER + INTRA:         -11.081
REMARK INTER:                  -9.481
REMARK INTRA:                  -1.600
REMARK UNBOUND:                -1.553
REMARK SMILES C[C@@]12C[C@@]3(O)O[C@@H](O1)[C@]1(COC(=O)c4ccccc4)[C@H]3C[C@@]12O[C@H]1O[C@@H](CO)[C@@H](O)[C@@H](O)[C@@H]1O
REMARK SMILES IDX 1 1 2 2 3 3 4 4 20 5 21 6 22 7 9 8 7 9 8 10 6 11 23 12 24 13
REMARK SMILES IDX 33 14 25 15 31 16 26 17 29 18 34 19 32 21 27 23 28 24 30 26
REMARK SMILES IDX 5 28 10 30 11 31 12 32 13 33 14 34 15 35 19 36 16 37 18 38
REMARK SMILES IDX 17 39
REMARK H PARENT 34 20 32 22 28 25 30 27 5 29
REMARK Flexibility Score: inf
ROOT
ATOM      1  C   UNL     1     174.936 164.817 171.250  1.00  0.00     0.046 C 
ATOM      2  C   UNL     1     174.384 165.780 172.302  1.00  0.00     0.104 C 
ATOM      3  C   UNL     1     173.659 165.012 173.466  1.00  0.00     0.104 C 
ATOM      4  C   UNL     1     173.107 166.166 174.380  1.00  0.00     0.175 C 
ATOM      5  C   UNL     1     172.344 167.227 173.523  1.00  0.00     0.070 C 
ATOM      6  C   UNL     1     171.939 166.704 172.138  1.00  0.00     0.050 C 
ATOM      7  C   UNL     1     173.421 166.887 171.736  1.00  0.00     0.115 C 
ATOM      8  C   UNL     1     173.553 167.891 172.881  1.00  0.00     0.096 C 
ATOM      9  C   UNL     1     174.763 167.475 173.698  1.00  0.00     0.267 C 
ATOM     10  O   UNL     1     175.437 166.501 172.916  1.00  0.00    -0.342 OA
ATOM     11  O   UNL     1     174.242 166.858 174.865  1.00  0.00    -0.320 OA
ENDROOT
BRANCH   7  12
ATOM     12  O   UNL     1     173.755 167.446 170.473  1.00  0.00    -0.339 OA
BRANCH  12  13
ATOM     13  C   UNL     1     172.658 167.439 169.574  1.00  0.00     0.282 C 
ATOM     14  C   UNL     1     172.927 166.415 168.447  1.00  0.00     0.202 C 
ATOM     15  O   UNL     1     172.424 168.765 169.102  1.00  0.00    -0.341 OA
ATOM     16  C   UNL     1     174.154 166.825 167.603  1.00  0.00     0.179 C 
ATOM     17  C   UNL     1     173.032 169.092 167.856  1.00  0.00     0.178 C 
ATOM     18  C   UNL     1     174.371 168.361 167.598  1.00  0.00     0.177 C 
BRANCH  14  19
ATOM     19  O   UNL     1     171.797 166.317 167.616  1.00  0.00    -0.385 OA
ATOM     20  H   UNL     1     171.291 167.167 167.712  1.00  0.00     0.211 HD
ENDBRANCH  14  19
BRANCH  16  21
ATOM     21  O   UNL     1     175.297 166.163 168.084  1.00  0.00    -0.387 OA
ATOM     22  H   UNL     1     175.796 166.819 168.637  1.00  0.00     0.211 HD
ENDBRANCH  16  21
BRANCH  17  23
ATOM     23  C   UNL     1     173.225 170.614 167.791  1.00  0.00     0.191 C 
BRANCH  23  24
ATOM     24  O   UNL     1     173.596 171.113 169.048  1.00  0.00    -0.394 OA
ATOM     25  H   UNL     1     173.117 171.976 169.165  1.00  0.00     0.210 HD
ENDBRANCH  23  24
ENDBRANCH  17  23
BRANCH  18  26
ATOM     26  O   UNL     1     175.310 168.740 168.575  1.00  0.00    -0.387 OA
ATOM     27  H   UNL     1     176.047 168.076 168.548  1.00  0.00     0.211 HD
ENDBRANCH  18  26
ENDBRANCH  12  13
ENDBRANCH   7  12
BRANCH   4  28
ATOM     28  O   UNL     1     172.312 165.684 175.428  1.00  0.00    -0.365 OA
ATOM     29  H   UNL     1     172.932 165.316 176.109  1.00  0.00     0.214 HD
ENDBRANCH   4  28
BRANCH   8  30
ATOM     30  C   UNL     1     173.429 169.386 172.524  1.00  0.00     0.249 C 
BRANCH  30  31
ATOM     31  O   UNL     1     174.598 170.097 172.928  1.00  0.00    -0.461 OA
BRANCH  31  32
ATOM     32  C   UNL     1     175.574 170.565 172.039  1.00  0.00     0.338 C 
ATOM     33  O   UNL     1     175.546 170.220 170.824  1.00  0.00    -0.246 OA
BRANCH  32  34
ATOM     34  C   UNL     1     176.644 171.460 172.528  1.00  0.00     0.060 A 
ATOM     35  C   UNL     1     176.371 172.413 173.528  1.00  0.00     0.015 A 
ATOM     36  C   UNL     1     177.947 171.380 172.001  1.00  0.00     0.015 A 
ATOM     37  C   UNL     1     177.379 173.265 173.987  1.00  0.00     0.001 A 
ATOM     38  C   UNL     1     178.952 172.234 172.466  1.00  0.00     0.001 A 
ATOM     39  C   UNL     1     178.669 173.176 173.458  1.00  0.00     0.000 A 
ENDBRANCH  32  34
ENDBRANCH  31  32
ENDBRANCH  30  31
ENDBRANCH   8  30
TORSDOF 12
ENDMDL
MODEL 3
REMARK VINA RESULT:    -6.083      1.984      3.695
REMARK INTER + INTRA:         -11.015
REMARK INTER:                  -9.405
REMARK INTRA:                  -1.610
REMARK UNBOUND:                -1.553
REMARK SMILES C[C@@]12C[C@@]3(O)O[C@@H](O1)[C@]1(COC(=O)c4ccccc4)[C@H]3C[C@@]12O[C@H]1O[C@@H](CO)[C@@H](O)[C@@H](O)[C@@H]1O
REMARK SMILES IDX 1 1 2 2 3 3 4 4 20 5 21 6 22 7 9 8 7 9 8 10 6 11 23 12 24 13
REMARK SMILES IDX 33 14 25 15 31 16 26 17 29 18 34 19 32 21 27 23 28 24 30 26
REMARK SMILES IDX 5 28 10 30 11 31 12 32 13 33 14 34 15 35 19 36 16 37 18 38
REMARK SMILES IDX 17 39
REMARK H PARENT 34 20 32 22 28 25 30 27 5 29
REMARK Flexibility Score: inf
ROOT
ATOM      1  C   UNL     1     170.659 169.482 169.944  1.00  0.00     0.046 C 
ATOM      2  C   UNL     1     172.030 169.465 169.267  1.00  0.00     0.104 C 
ATOM      3  C   UNL     1     171.903 169.386 167.702  1.00  0.00     0.104 C 
ATOM      4  C   UNL     1     173.395 169.299 167.216  1.00  0.00     0.175 C 
ATOM      5  C   UNL     1     174.169 168.200 168.012  1.00  0.00     0.070 C 
ATOM      6  C   UNL     1     173.240 167.205 168.723  1.00  0.00     0.050 C 
ATOM      7  C   UNL     1     172.991 168.323 169.764  1.00  0.00     0.115 C 
ATOM      8  C   UNL     1     174.314 168.952 169.327  1.00  0.00     0.096 C 
ATOM      9  C   UNL     1     174.032 170.413 169.025  1.00  0.00     0.267 C 
ATOM     10  O   UNL     1     172.731 170.665 169.534  1.00  0.00    -0.342 OA
ATOM     11  O   UNL     1     174.006 170.513 167.610  1.00  0.00    -0.320 OA
ENDROOT
BRANCH   7  12
ATOM     12  O   UNL     1     172.961 168.014 171.150  1.00  0.00    -0.339 OA
BRANCH  12  13
ATOM     13  C   UNL     1     172.731 166.636 171.390  1.00  0.00     0.282 C 
ATOM     14  C   UNL     1     171.302 166.445 171.952  1.00  0.00     0.202 C 
ATOM     15  O   UNL     1     173.755 166.125 172.242  1.00  0.00    -0.341 OA
ATOM     16  C   UNL     1     171.147 167.138 173.324  1.00  0.00     0.179 C 
ATOM     17  C   UNL     1     173.443 166.091 173.631  1.00  0.00     0.178 C 
ATOM     18  C   UNL     1     172.493 167.224 174.089  1.00  0.00     0.177 C 
BRANCH  14  19
ATOM     19  O   UNL     1     171.023 165.074 172.084  1.00  0.00    -0.385 OA
ATOM     20  H   UNL     1     170.469 164.968 172.902  1.00  0.00     0.211 HD
ENDBRANCH  14  19
BRANCH  16  21
ATOM     21  O   UNL     1     170.596 168.419 173.144  1.00  0.00    -0.387 OA
ATOM     22  H   UNL     1     170.076 168.625 173.964  1.00  0.00     0.211 HD
ENDBRANCH  16  21
BRANCH  17  23
ATOM     23  C   UNL     1     174.756 166.130 174.427  1.00  0.00     0.191 C 
BRANCH  23  24
ATOM     24  O   UNL     1     175.705 166.922 173.766  1.00  0.00    -0.394 OA
ATOM     25  H   UNL     1     176.561 166.812 174.259  1.00  0.00     0.210 HD
ENDBRANCH  23  24
ENDBRANCH  17  23
BRANCH  18  26
ATOM     26  O   UNL     1     173.112 168.470 173.882  1.00  0.00    -0.387 OA
ATOM     27  H   UNL     1     172.398 169.158 173.894  1.00  0.00     0.211 HD
ENDBRANCH  18  26
ENDBRANCH  12  13
ENDBRANCH   7  12
BRANCH   4  28
ATOM     28  O   UNL     1     173.496 169.098 165.833  1.00  0.00    -0.365 OA
ATOM     29  H   UNL     1     172.568 169.054 165.483  1.00  0.00     0.214 HD
ENDBRANCH   4  28
BRANCH   8  30
ATOM     30  C   UNL     1     175.558 168.641 170.183  1.00  0.00     0.249 C 
BRANCH  30  31
ATOM     31  O   UNL     1     176.111 169.842 170.720  1.00  0.00    -0.461 OA
BRANCH  31  32
ATOM     32  C   UNL     1     176.110 170.162 172.083  1.00  0.00     0.338 C 
ATOM     33  O   UNL     1     175.401 169.499 172.891  1.00  0.00    -0.246 OA
BRANCH  32  34
ATOM     34  C   UNL     1     176.936 171.284 172.574  1.00  0.00     0.060 A 
ATOM     35  C   UNL     1     176.407 172.205 173.498  1.00  0.00     0.015 A 
ATOM     36  C   UNL     1     178.259 171.456 172.123  1.00  0.00     0.015 A 
ATOM     37  C   UNL     1     177.184 173.272 173.957  1.00  0.00     0.001 A 
ATOM     38  C   UNL     1     179.032 172.524 172.589  1.00  0.00     0.001 A 
ATOM     39  C   UNL     1     178.496 173.432 173.505  1.00  0.00     0.000 A 
ENDBRANCH  32  34
ENDBRANCH  31  32
ENDBRANCH  30  31
ENDBRANCH   8  30
TORSDOF 12
ENDMDL
MODEL 4
REMARK VINA RESULT:    -6.054      1.670      5.166
REMARK INTER + INTRA:         -10.969
REMARK INTER:                  -9.367
REMARK INTRA:                  -1.603
REMARK UNBOUND:                -1.553
REMARK SMILES C[C@@]12C[C@@]3(O)O[C@@H](O1)[C@]1(COC(=O)c4ccccc4)[C@H]3C[C@@]12O[C@H]1O[C@@H](CO)[C@@H](O)[C@@H](O)[C@@H]1O
REMARK SMILES IDX 1 1 2 2 3 3 4 4 20 5 21 6 22 7 9 8 7 9 8 10 6 11 23 12 24 13
REMARK SMILES IDX 33 14 25 15 31 16 26 17 29 18 34 19 32 21 27 23 28 24 30 26
REMARK SMILES IDX 5 28 10 30 11 31 12 32 13 33 14 34 15 35 19 36 16 37 18 38
REMARK SMILES IDX 17 39
REMARK H PARENT 34 20 32 22 28 25 30 27 5 29
REMARK Flexibility Score: inf
ROOT
ATOM      1  C   UNL     1     174.023 167.307 167.507  1.00  0.00     0.046 C 
ATOM      2  C   UNL     1     174.948 166.920 168.661  1.00  0.00     0.104 C 
ATOM      3  C   UNL     1     175.644 165.534 168.406  1.00  0.00     0.104 C 
ATOM      4  C   UNL     1     176.472 165.292 169.721  1.00  0.00     0.175 C 
ATOM      5  C   UNL     1     175.579 165.519 170.982  1.00  0.00     0.070 C 
ATOM      6  C   UNL     1     174.076 165.483 170.670  1.00  0.00     0.050 C 
ATOM      7  C   UNL     1     174.259 166.899 170.074  1.00  0.00     0.115 C 
ATOM      8  C   UNL     1     175.518 167.038 170.929  1.00  0.00     0.096 C 
ATOM      9  C   UNL     1     176.635 167.486 170.003  1.00  0.00     0.267 C 
ATOM     10  O   UNL     1     176.000 167.859 168.789  1.00  0.00    -0.342 OA
ATOM     11  O   UNL     1     177.430 166.332 169.777  1.00  0.00    -0.320 OA
ENDROOT
BRANCH   7  12
ATOM     12  O   UNL     1     173.300 167.914 170.338  1.00  0.00    -0.339 OA
BRANCH  12  13
ATOM     13  C   UNL     1     172.072 167.386 170.811  1.00  0.00     0.282 C 
ATOM     14  C   UNL     1     170.987 167.561 169.724  1.00  0.00     0.202 C 
ATOM     15  O   UNL     1     171.741 167.998 172.057  1.00  0.00    -0.341 OA
ATOM     16  C   UNL     1     170.716 169.056 169.443  1.00  0.00     0.179 C 
ATOM     17  C   UNL     1     170.862 169.117 171.980  1.00  0.00     0.178 C 
ATOM     18  C   UNL     1     171.010 169.944 170.680  1.00  0.00     0.177 C 
BRANCH  14  19
ATOM     19  O   UNL     1     169.797 166.938 170.136  1.00  0.00    -0.385 OA
ATOM     20  H   UNL     1     169.228 166.834 169.328  1.00  0.00     0.211 HD
ENDBRANCH  14  19
BRANCH  16  21
ATOM     21  O   UNL     1     171.482 169.473 168.340  1.00  0.00    -0.387 OA
ATOM     22  H   UNL     1     172.346 168.986 168.391  1.00  0.00     0.211 HD
ENDBRANCH  16  21
BRANCH  17  23
ATOM     23  C   UNL     1     171.091 170.002 173.214  1.00  0.00     0.191 C 
BRANCH  23  24
ATOM     24  O   UNL     1     172.456 170.062 173.527  1.00  0.00    -0.394 OA
ATOM     25  H   UNL     1     172.897 169.331 173.020  1.00  0.00     0.210 HD
ENDBRANCH  23  24
ENDBRANCH  17  23
BRANCH  18  26
ATOM     26  O   UNL     1     172.305 170.489 170.614  1.00  0.00    -0.387 OA
ATOM     27  H   UNL     1     172.206 171.462 170.447  1.00  0.00     0.211 HD
ENDBRANCH  18  26
ENDBRANCH  12  13
ENDBRANCH   7  12
BRANCH   4  28
ATOM     28  O   UNL     1     177.081 164.030 169.743  1.00  0.00    -0.365 OA
ATOM     29  H   UNL     1     177.588 163.973 170.595  1.00  0.00     0.214 HD
ENDBRANCH   4  28
BRANCH   8  30
ATOM     30  C   UNL     1     175.380 167.786 172.271  1.00  0.00     0.249 C 
BRANCH  30  31
ATOM     31  O   UNL     1     176.278 168.893 172.324  1.00  0.00    -0.461 OA
BRANCH  31  32
ATOM     32  C   UNL     1     175.873 170.232 172.250  1.00  0.00     0.338 C 
ATOM     33  O   UNL     1     174.715 170.524 171.841  1.00  0.00    -0.246 OA
BRANCH  32  34
ATOM     34  C   UNL     1     176.810 171.304 172.646  1.00  0.00     0.060 A 
ATOM     35  C   UNL     1     176.407 172.300 173.555  1.00  0.00     0.015 A 
ATOM     36  C   UNL     1     178.114 171.353 172.117  1.00  0.00     0.015 A 
ATOM     37  C   UNL     1     177.288 173.320 173.925  1.00  0.00     0.001 A 
ATOM     38  C   UNL     1     178.992 172.374 172.493  1.00  0.00     0.001 A 
ATOM     39  C   UNL     1     178.580 173.357 173.396  1.00  0.00     0.000 A 
ENDBRANCH  32  34
ENDBRANCH  31  32
ENDBRANCH  30  31
ENDBRANCH   8  30
TORSDOF 12
ENDMDL
MODEL 5
REMARK VINA RESULT:    -6.035      2.324      2.929
REMARK INTER + INTRA:         -10.940
REMARK INTER:                  -9.726
REMARK INTRA:                  -1.214
REMARK UNBOUND:                -1.553
REMARK SMILES C[C@@]12C[C@@]3(O)O[C@@H](O1)[C@]1(COC(=O)c4ccccc4)[C@H]3C[C@@]12O[C@H]1O[C@@H](CO)[C@@H](O)[C@@H](O)[C@@H]1O
REMARK SMILES IDX 1 1 2 2 3 3 4 4 20 5 21 6 22 7 9 8 7 9 8 10 6 11 23 12 24 13
REMARK SMILES IDX 33 14 25 15 31 16 26 17 29 18 34 19 32 21 27 23 28 24 30 26
REMARK SMILES IDX 5 28 10 30 11 31 12 32 13 33 14 34 15 35 19 36 16 37 18 38
REMARK SMILES IDX 17 39
REMARK H PARENT 34 20 32 22 28 25 30 27 5 29
REMARK Flexibility Score: inf
ROOT
ATOM      1  C   UNL     1     171.818 165.988 168.954  1.00  0.00     0.046 C 
ATOM      2  C   UNL     1     172.436 167.369 168.728  1.00  0.00     0.104 C 
ATOM      3  C   UNL     1     171.723 168.138 167.557  1.00  0.00     0.104 C 
ATOM      4  C   UNL     1     172.545 169.472 167.440  1.00  0.00     0.175 C 
ATOM      5  C   UNL     1     174.077 169.170 167.383  1.00  0.00     0.070 C 
ATOM      6  C   UNL     1     174.390 167.712 167.018  1.00  0.00     0.050 C 
ATOM      7  C   UNL     1     173.986 167.358 168.469  1.00  0.00     0.115 C 
ATOM      8  C   UNL     1     174.277 168.810 168.848  1.00  0.00     0.096 C 
ATOM      9  C   UNL     1     173.059 169.326 169.592  1.00  0.00     0.267 C 
ATOM     10  O   UNL     1     172.270 168.180 169.876  1.00  0.00    -0.342 OA
ATOM     11  O   UNL     1     172.367 170.151 168.668  1.00  0.00    -0.320 OA
ENDROOT
BRANCH   7  12
ATOM     12  O   UNL     1     174.758 166.430 169.218  1.00  0.00    -0.339 OA
BRANCH  12  13
ATOM     13  C   UNL     1     175.247 165.366 168.418  1.00  0.00     0.282 C 
ATOM     14  C   UNL     1     174.962 164.021 169.126  1.00  0.00     0.202 C 
ATOM     15  O   UNL     1     176.628 165.583 168.132  1.00  0.00    -0.341 OA
ATOM     16  C   UNL     1     175.729 163.922 170.464  1.00  0.00     0.179 C 
ATOM     17  C   UNL     1     177.548 164.928 169.000  1.00  0.00     0.178 C 
ATOM     18  C   UNL     1     177.034 164.761 170.450  1.00  0.00     0.177 C 
BRANCH  14  19
ATOM     19  O   UNL     1     175.338 162.955 168.290  1.00  0.00    -0.385 OA
ATOM     20  H   UNL     1     175.364 163.310 167.362  1.00  0.00     0.211 HD
ENDBRANCH  14  19
BRANCH  16  21
ATOM     21  O   UNL     1     174.890 164.325 171.517  1.00  0.00    -0.387 OA
ATOM     22  H   UNL     1     175.161 163.802 172.316  1.00  0.00     0.211 HD
ENDBRANCH  16  21
BRANCH  17  23
ATOM     23  C   UNL     1     178.873 165.705 168.983  1.00  0.00     0.191 C 
BRANCH  23  24
ATOM     24  O   UNL     1     178.637 167.077 169.152  1.00  0.00    -0.394 OA
ATOM     25  H   UNL     1     178.129 167.380 168.354  1.00  0.00     0.210 HD
ENDBRANCH  23  24
ENDBRANCH  17  23
BRANCH  18  26
ATOM     26  O   UNL     1     176.825 166.028 171.025  1.00  0.00    -0.387 OA
ATOM     27  H   UNL     1     177.606 166.592 170.785  1.00  0.00     0.211 HD
ENDBRANCH  18  26
ENDBRANCH  12  13
ENDBRANCH   7  12
BRANCH   4  28
ATOM     28  O   UNL     1     172.136 170.258 166.354  1.00  0.00    -0.365 OA
ATOM     29  H   UNL     1     172.003 171.178 166.702  1.00  0.00     0.214 HD
ENDBRANCH   4  28
BRANCH   8  30
ATOM     30  C   UNL     1     175.656 169.114 169.466  1.00  0.00     0.249 C 
BRANCH  30  31
ATOM     31  O   UNL     1     175.526 170.014 170.566  1.00  0.00    -0.461 OA
BRANCH  31  32
ATOM     32  C   UNL     1     176.214 169.871 171.778  1.00  0.00     0.338 C 
ATOM     33  O   UNL     1     176.231 168.757 172.372  1.00  0.00    -0.246 OA
BRANCH  32  34
ATOM     34  C   UNL     1     176.915 171.033 172.365  1.00  0.00     0.060 A 
ATOM     35  C   UNL     1     176.272 171.842 173.320  1.00  0.00     0.015 A 
ATOM     36  C   UNL     1     178.229 171.353 171.974  1.00  0.00     0.015 A 
ATOM     37  C   UNL     1     176.929 172.945 173.871  1.00  0.00     0.001 A 
ATOM     38  C   UNL     1     178.883 172.457 172.531  1.00  0.00     0.001 A 
ATOM     39  C   UNL     1     178.234 173.253 173.478  1.00  0.00     0.000 A 
ENDBRANCH  32  34
ENDBRANCH  31  32
ENDBRANCH  30  31
ENDBRANCH   8  30
TORSDOF 12
ENDMDL
MODEL 6
REMARK VINA RESULT:    -6.013      1.831      5.148
REMARK INTER + INTRA:         -10.905
REMARK INTER:                  -9.737
REMARK INTRA:                  -1.168
REMARK UNBOUND:                -1.553
REMARK SMILES C[C@@]12C[C@@]3(O)O[C@@H](O1)[C@]1(COC(=O)c4ccccc4)[C@H]3C[C@@]12O[C@H]1O[C@@H](CO)[C@@H](O)[C@@H](O)[C@@H]1O
REMARK SMILES IDX 1 1 2 2 3 3 4 4 20 5 21 6 22 7 9 8 7 9 8 10 6 11 23 12 24 13
REMARK SMILES IDX 33 14 25 15 31 16 26 17 29 18 34 19 32 21 27 23 28 24 30 26
REMARK SMILES IDX 5 28 10 30 11 31 12 32 13 33 14 34 15 35 19 36 16 37 18 38
REMARK SMILES IDX 17 39
REMARK H PARENT 34 20 32 22 28 25 30 27 5 29
REMARK Flexibility Score: inf
ROOT
ATOM      1  C   UNL     1     171.605 165.420 170.582  1.00  0.00     0.046 C 
ATOM      2  C   UNL     1     172.645 165.805 171.636  1.00  0.00     0.104 C 
ATOM      3  C   UNL     1     173.023 164.584 172.550  1.00  0.00     0.104 C 
ATOM      4  C   UNL     1     174.023 165.202 173.594  1.00  0.00     0.175 C 
ATOM      5  C   UNL     1     173.433 166.511 174.211  1.00  0.00     0.070 C 
ATOM      6  C   UNL     1     171.916 166.640 174.010  1.00  0.00     0.050 C 
ATOM      7  C   UNL     1     172.235 167.022 172.545  1.00  0.00     0.115 C 
ATOM      8  C   UNL     1     173.635 167.422 173.009  1.00  0.00     0.096 C 
ATOM      9  C   UNL     1     174.623 166.722 172.094  1.00  0.00     0.267 C 
ATOM     10  O   UNL     1     173.852 166.210 171.018  1.00  0.00    -0.342 OA
ATOM     11  O   UNL     1     175.144 165.640 172.850  1.00  0.00    -0.320 OA
ENDROOT
BRANCH   7  12
ATOM     12  O   UNL     1     171.538 168.089 171.917  1.00  0.00    -0.339 OA
BRANCH  12  13
ATOM     13  C   UNL     1     170.176 168.148 172.309  1.00  0.00     0.282 C 
ATOM     14  C   UNL     1     169.291 168.343 171.057  1.00  0.00     0.202 C 
ATOM     15  O   UNL     1     170.010 169.166 173.294  1.00  0.00    -0.341 OA
ATOM     16  C   UNL     1     169.585 169.696 170.372  1.00  0.00     0.179 C 
ATOM     17  C   UNL     1     169.592 170.436 172.803  1.00  0.00     0.178 C 
ATOM     18  C   UNL     1     170.101 170.758 171.378  1.00  0.00     0.177 C 
BRANCH  14  19
ATOM     19  O   UNL     1     167.934 168.286 171.421  1.00  0.00    -0.385 OA
ATOM     20  H   UNL     1     167.901 168.274 172.414  1.00  0.00     0.211 HD
ENDBRANCH  14  19
BRANCH  16  21
ATOM     21  O   UNL     1     170.513 169.504 169.333  1.00  0.00    -0.387 OA
ATOM     22  H   UNL     1     170.410 170.271 168.711  1.00  0.00     0.211 HD
ENDBRANCH  16  21
BRANCH  17  23
ATOM     23  C   UNL     1     170.046 171.517 173.796  1.00  0.00     0.191 C 
BRANCH  23  24
ATOM     24  O   UNL     1     171.417 171.391 174.062  1.00  0.00    -0.394 OA
ATOM     25  H   UNL     1     171.770 172.312 174.181  1.00  0.00     0.210 HD
ENDBRANCH  23  24
ENDBRANCH  17  23
BRANCH  18  26
ATOM     26  O   UNL     1     171.506 170.810 171.380  1.00  0.00    -0.387 OA
ATOM     27  H   UNL     1     171.766 171.715 171.695  1.00  0.00     0.211 HD
ENDBRANCH  18  26
ENDBRANCH  12  13
ENDBRANCH   7  12
BRANCH   4  28
ATOM     28  O   UNL     1     174.392 164.286 174.588  1.00  0.00    -0.365 OA
ATOM     29  H   UNL     1     174.416 163.393 174.157  1.00  0.00     0.214 HD
ENDBRANCH   4  28
BRANCH   8  30
ATOM     30  C   UNL     1     173.882 168.918 173.293  1.00  0.00     0.249 C 
BRANCH  30  31
ATOM     31  O   UNL     1     175.157 169.320 172.796  1.00  0.00    -0.461 OA
BRANCH  31  32
ATOM     32  C   UNL     1     175.388 170.524 172.118  1.00  0.00     0.338 C 
ATOM     33  O   UNL     1     174.644 170.864 171.157  1.00  0.00    -0.246 OA
BRANCH  32  34
ATOM     34  C   UNL     1     176.511 171.392 172.528  1.00  0.00     0.060 A 
ATOM     35  C   UNL     1     176.323 172.383 173.509  1.00  0.00     0.015 A 
ATOM     36  C   UNL     1     177.783 171.248 171.941  1.00  0.00     0.015 A 
ATOM     37  C   UNL     1     177.381 173.211 173.892  1.00  0.00     0.001 A 
ATOM     38  C   UNL     1     178.840 172.078 172.330  1.00  0.00     0.001 A 
ATOM     39  C   UNL     1     178.640 173.058 173.305  1.00  0.00     0.000 A 
ENDBRANCH  32  34
ENDBRANCH  31  32
ENDBRANCH  30  31
ENDBRANCH   8  30
TORSDOF 12
ENDMDL
MODEL 7
REMARK VINA RESULT:    -5.983      1.881      3.021
REMARK INTER + INTRA:         -10.859
REMARK INTER:                 -10.380
REMARK INTRA:                  -0.479
REMARK UNBOUND:                -1.553
REMARK SMILES C[C@@]12C[C@@]3(O)O[C@@H](O1)[C@]1(COC(=O)c4ccccc4)[C@H]3C[C@@]12O[C@H]1O[C@@H](CO)[C@@H](O)[C@@H](O)[C@@H]1O
REMARK SMILES IDX 1 1 2 2 3 3 4 4 20 5 21 6 22 7 9 8 7 9 8 10 6 11 23 12 24 13
REMARK SMILES IDX 33 14 25 15 31 16 26 17 29 18 34 19 32 21 27 23 28 24 30 26
REMARK SMILES IDX 5 28 10 30 11 31 12 32 13 33 14 34 15 35 19 36 16 37 18 38
REMARK SMILES IDX 17 39
REMARK H PARENT 34 20 32 22 28 25 30 27 5 29
REMARK Flexibility Score: inf
ROOT
ATOM      1  C   UNL     1     169.296 167.629 173.639  1.00  0.00     0.046 C 
ATOM      2  C   UNL     1     170.263 168.411 172.749  1.00  0.00     0.104 C 
ATOM      3  C   UNL     1     169.679 168.622 171.305  1.00  0.00     0.104 C 
ATOM      4  C   UNL     1     170.839 169.361 170.544  1.00  0.00     0.175 C 
ATOM      5  C   UNL     1     172.197 168.618 170.757  1.00  0.00     0.070 C 
ATOM      6  C   UNL     1     172.022 167.175 171.251  1.00  0.00     0.050 C 
ATOM      7  C   UNL     1     171.701 167.785 172.636  1.00  0.00     0.115 C 
ATOM      8  C   UNL     1     172.448 169.044 172.196  1.00  0.00     0.096 C 
ATOM      9  C   UNL     1     171.530 170.222 172.468  1.00  0.00     0.267 C 
ATOM     10  O   UNL     1     170.477 169.710 173.270  1.00  0.00    -0.342 OA
ATOM     11  O   UNL     1     171.011 170.602 171.203  1.00  0.00    -0.320 OA
ENDROOT
BRANCH   7  12
ATOM     12  O   UNL     1     172.246 167.207 173.814  1.00  0.00    -0.339 OA
BRANCH  12  13
ATOM     13  C   UNL     1     171.687 165.935 174.098  1.00  0.00     0.282 C 
ATOM     14  C   UNL     1     171.794 165.655 175.615  1.00  0.00     0.202 C 
ATOM     15  O   UNL     1     172.319 164.947 173.286  1.00  0.00    -0.341 OA
ATOM     16  C   UNL     1     173.271 165.570 176.063  1.00  0.00     0.179 C 
ATOM     17  C   UNL     1     173.403 164.251 173.894  1.00  0.00     0.178 C 
ATOM     18  C   UNL     1     174.201 165.097 174.915  1.00  0.00     0.177 C 
BRANCH  14  19
ATOM     19  O   UNL     1     171.140 164.450 175.924  1.00  0.00    -0.385 OA
ATOM     20  H   UNL     1     171.631 163.725 175.454  1.00  0.00     0.211 HD
ENDBRANCH  14  19
BRANCH  16  21
ATOM     21  O   UNL     1     173.685 166.820 176.555  1.00  0.00    -0.387 OA
ATOM     22  H   UNL     1     173.098 167.033 177.327  1.00  0.00     0.211 HD
ENDBRANCH  16  21
BRANCH  17  23
ATOM     23  C   UNL     1     174.329 163.726 172.786  1.00  0.00     0.191 C 
BRANCH  23  24
ATOM     24  O   UNL     1     174.589 164.735 171.848  1.00  0.00    -0.394 OA
ATOM     25  H   UNL     1     174.048 164.523 171.043  1.00  0.00     0.210 HD
ENDBRANCH  23  24
ENDBRANCH  17  23
BRANCH  18  26
ATOM     26  O   UNL     1     174.790 166.193 174.259  1.00  0.00    -0.387 OA
ATOM     27  H   UNL     1     175.577 165.850 173.762  1.00  0.00     0.211 HD
ENDBRANCH  18  26
ENDBRANCH  12  13
ENDBRANCH   7  12
BRANCH   4  28
ATOM     28  O   UNL     1     170.558 169.537 169.182  1.00  0.00    -0.365 OA
ATOM     29  H   UNL     1     171.028 170.363 168.899  1.00  0.00     0.214 HD
ENDBRANCH   4  28
BRANCH   8  30
ATOM     30  C   UNL     1     173.918 169.183 172.643  1.00  0.00     0.249 C 
BRANCH  30  31
ATOM     31  O   UNL     1     174.534 170.299 172.001  1.00  0.00    -0.461 OA
BRANCH  31  32
ATOM     32  C   UNL     1     175.888 170.345 171.645  1.00  0.00     0.338 C 
ATOM     33  O   UNL     1     176.344 169.553 170.774  1.00  0.00    -0.246 OA
BRANCH  32  34
ATOM     34  C   UNL     1     176.786 171.319 172.300  1.00  0.00     0.060 A 
ATOM     35  C   UNL     1     176.300 172.160 173.318  1.00  0.00     0.015 A 
ATOM     36  C   UNL     1     178.135 171.427 171.914  1.00  0.00     0.015 A 
ATOM     37  C   UNL     1     177.145 173.088 173.933  1.00  0.00     0.001 A 
ATOM     38  C   UNL     1     178.977 172.356 172.535  1.00  0.00     0.001 A 
ATOM     39  C   UNL     1     178.482 173.186 173.543  1.00  0.00     0.000 A 
ENDBRANCH  32  34
ENDBRANCH  31  32
ENDBRANCH  30  31
ENDBRANCH   8  30
TORSDOF 12
ENDMDL
MODEL 8
REMARK VINA RESULT:    -5.982      2.277      4.747
REMARK INTER + INTRA:         -10.857
REMARK INTER:                  -9.618
REMARK INTRA:                  -1.239
REMARK UNBOUND:                -1.553
REMARK SMILES C[C@@]12C[C@@]3(O)O[C@@H](O1)[C@]1(COC(=O)c4ccccc4)[C@H]3C[C@@]12O[C@H]1O[C@@H](CO)[C@@H](O)[C@@H](O)[C@@H]1O
REMARK SMILES IDX 1 1 2 2 3 3 4 4 20 5 21 6 22 7 9 8 7 9 8 10 6 11 23 12 24 13
REMARK SMILES IDX 33 14 25 15 31 16 26 17 29 18 34 19 32 21 27 23 28 24 30 26
REMARK SMILES IDX 5 28 10 30 11 31 12 32 13 33 14 34 15 35 19 36 16 37 18 38
REMARK SMILES IDX 17 39
REMARK H PARENT 34 20 32 22 28 25 30 27 5 29
REMARK Flexibility Score: inf
ROOT
ATOM      1  C   UNL     1     172.210 165.227 169.790  1.00  0.00     0.046 C 
ATOM      2  C   UNL     1     173.627 165.796 169.718  1.00  0.00     0.104 C 
ATOM      3  C   UNL     1     174.486 165.074 168.617  1.00  0.00     0.104 C 
ATOM      4  C   UNL     1     175.902 165.741 168.760  1.00  0.00     0.175 C 
ATOM      5  C   UNL     1     176.358 165.746 170.254  1.00  0.00     0.070 C 
ATOM      6  C   UNL     1     175.575 164.754 171.126  1.00  0.00     0.050 C 
ATOM      7  C   UNL     1     174.412 165.774 171.080  1.00  0.00     0.115 C 
ATOM      8  C   UNL     1     175.442 166.854 170.752  1.00  0.00     0.096 C 
ATOM      9  C   UNL     1     174.938 167.587 169.522  1.00  0.00     0.267 C 
ATOM     10  O   UNL     1     173.595 167.161 169.344  1.00  0.00    -0.342 OA
ATOM     11  O   UNL     1     175.725 167.108 168.442  1.00  0.00    -0.320 OA
ENDROOT
BRANCH   7  12
ATOM     12  O   UNL     1     173.668 166.062 172.256  1.00  0.00    -0.339 OA
BRANCH  12  13
ATOM     13  C   UNL     1     173.381 164.897 173.012  1.00  0.00     0.282 C 
ATOM     14  C   UNL     1     171.887 164.900 173.409  1.00  0.00     0.202 C 
ATOM     15  O   UNL     1     174.271 164.822 174.124  1.00  0.00    -0.341 OA
ATOM     16  C   UNL     1     171.560 166.090 174.340  1.00  0.00     0.179 C 
ATOM     17  C   UNL     1     173.773 165.351 175.349  1.00  0.00     0.178 C 
ATOM     18  C   UNL     1     172.793 166.534 175.170  1.00  0.00     0.177 C 
BRANCH  14  19
ATOM     19  O   UNL     1     171.566 163.695 174.058  1.00  0.00    -0.385 OA
ATOM     20  H   UNL     1     170.577 163.602 174.025  1.00  0.00     0.211 HD
ENDBRANCH  14  19
BRANCH  16  21
ATOM     21  O   UNL     1     171.064 167.160 173.576  1.00  0.00    -0.387 OA
ATOM     22  H   UNL     1     171.105 167.967 174.153  1.00  0.00     0.211 HD
ENDBRANCH  16  21
BRANCH  17  23
ATOM     23  C   UNL     1     174.967 165.764 176.223  1.00  0.00     0.191 C 
BRANCH  23  24
ATOM     24  O   UNL     1     175.882 166.518 175.475  1.00  0.00    -0.394 OA
ATOM     25  H   UNL     1     175.358 166.994 174.779  1.00  0.00     0.210 HD
ENDBRANCH  23  24
ENDBRANCH  17  23
BRANCH  18  26
ATOM     26  O   UNL     1     173.458 167.607 174.550  1.00  0.00    -0.387 OA
ATOM     27  H   UNL     1     174.421 167.369 174.505  1.00  0.00     0.211 HD
ENDBRANCH  18  26
ENDBRANCH  12  13
ENDBRANCH   7  12
BRANCH   4  28
ATOM     28  O   UNL     1     176.861 165.141 167.933  1.00  0.00    -0.365 OA
ATOM     29  H   UNL     1     177.351 165.878 167.484  1.00  0.00     0.214 HD
ENDBRANCH   4  28
BRANCH   8  30
ATOM     30  C   UNL     1     175.952 167.719 171.922  1.00  0.00     0.249 C 
BRANCH  30  31
ATOM     31  O   UNL     1     175.909 169.104 171.580  1.00  0.00    -0.461 OA
BRANCH  31  32
ATOM     32  C   UNL     1     175.580 170.122 172.483  1.00  0.00     0.338 C 
ATOM     33  O   UNL     1     174.453 170.127 173.053  1.00  0.00    -0.246 OA
BRANCH  32  34
ATOM     34  C   UNL     1     176.554 171.197 172.764  1.00  0.00     0.060 A 
ATOM     35  C   UNL     1     177.834 171.166 172.179  1.00  0.00     0.015 A 
ATOM     36  C   UNL     1     176.223 172.263 173.622  1.00  0.00     0.015 A 
ATOM     37  C   UNL     1     178.761 172.177 172.449  1.00  0.00     0.001 A 
ATOM     38  C   UNL     1     177.153 173.274 173.885  1.00  0.00     0.001 A 
ATOM     39  C   UNL     1     178.421 173.231 173.300  1.00  0.00     0.000 A 
ENDBRANCH  32  34
ENDBRANCH  31  32
ENDBRANCH  30  31
ENDBRANCH   8  30
TORSDOF 12
ENDMDL
MODEL 9
REMARK VINA RESULT:    -5.862      2.784      5.465
REMARK INTER + INTRA:         -10.671
REMARK INTER:                  -9.931
REMARK INTRA:                  -0.740
REMARK UNBOUND:                -1.553
REMARK SMILES C[C@@]12C[C@@]3(O)O[C@@H](O1)[C@]1(COC(=O)c4ccccc4)[C@H]3C[C@@]12O[C@H]1O[C@@H](CO)[C@@H](O)[C@@H](O)[C@@H]1O
REMARK SMILES IDX 1 1 2 2 3 3 4 4 20 5 21 6 22 7 9 8 7 9 8 10 6 11 23 12 24 13
REMARK SMILES IDX 33 14 25 15 31 16 26 17 29 18 34 19 32 21 27 23 28 24 30 26
REMARK SMILES IDX 5 28 10 30 11 31 12 32 13 33 14 34 15 35 19 36 16 37 18 38
REMARK SMILES IDX 17 39
REMARK H PARENT 34 20 32 22 28 25 30 27 5 29
REMARK Flexibility Score: inf
ROOT
ATOM      1  C   UNL     1     175.113 165.482 166.637  1.00  0.00     0.046 C 
ATOM      2  C   UNL     1     175.211 165.885 168.109  1.00  0.00     0.104 C 
ATOM      3  C   UNL     1     174.903 164.674 169.062  1.00  0.00     0.104 C 
ATOM      4  C   UNL     1     174.977 165.309 170.498  1.00  0.00     0.175 C 
ATOM      5  C   UNL     1     174.124 166.617 170.565  1.00  0.00     0.070 C 
ATOM      6  C   UNL     1     173.107 166.731 169.420  1.00  0.00     0.050 C 
ATOM      7  C   UNL     1     174.306 167.104 168.515  1.00  0.00     0.115 C 
ATOM      8  C   UNL     1     175.061 167.521 169.776  1.00  0.00     0.096 C 
ATOM      9  C   UNL     1     176.408 166.823 169.737  1.00  0.00     0.267 C 
ATOM     10  O   UNL     1     176.528 166.295 168.424  1.00  0.00    -0.342 OA
ATOM     11  O   UNL     1     176.311 165.752 170.662  1.00  0.00    -0.320 OA
ENDROOT
BRANCH   7  12
ATOM     12  O   UNL     1     174.186 168.160 167.572  1.00  0.00    -0.339 OA
BRANCH  12  13
ATOM     13  C   UNL     1     173.305 167.836 166.509  1.00  0.00     0.282 C 
ATOM     14  C   UNL     1     173.705 168.638 165.249  1.00  0.00     0.202 C 
ATOM     15  O   UNL     1     171.958 168.057 166.925  1.00  0.00    -0.341 OA
ATOM     16  C   UNL     1     173.539 170.157 165.479  1.00  0.00     0.179 C 
ATOM     17  C   UNL     1     171.403 169.321 166.575  1.00  0.00     0.178 C 
ATOM     18  C   UNL     1     172.438 170.470 166.527  1.00  0.00     0.177 C 
BRANCH  14  19
ATOM     19  O   UNL     1     172.912 168.239 164.160  1.00  0.00    -0.385 OA
ATOM     20  H   UNL     1     171.994 168.086 164.509  1.00  0.00     0.211 HD
ENDBRANCH  14  19
BRANCH  16  21
ATOM     21  O   UNL     1     174.770 170.710 165.873  1.00  0.00    -0.387 OA
ATOM     22  H   UNL     1     174.601 171.666 166.081  1.00  0.00     0.211 HD
ENDBRANCH  16  21
BRANCH  17  23
ATOM     23  C   UNL     1     170.275 169.649 167.565  1.00  0.00     0.191 C 
BRANCH  23  24
ATOM     24  O   UNL     1     170.627 169.241 168.859  1.00  0.00    -0.394 OA
ATOM     25  H   UNL     1     171.300 168.519 168.758  1.00  0.00     0.210 HD
ENDBRANCH  23  24
ENDBRANCH  17  23
BRANCH  18  26
ATOM     26  O   UNL     1     172.996 170.655 167.805  1.00  0.00    -0.387 OA
ATOM     27  H   UNL     1     173.977 170.535 167.717  1.00  0.00     0.211 HD
ENDBRANCH  18  26
ENDBRANCH  12  13
ENDBRANCH   7  12
BRANCH   4  28
ATOM     28  O   UNL     1     174.608 164.404 171.503  1.00  0.00    -0.365 OA
ATOM     29  H   UNL     1     173.754 163.990 171.213  1.00  0.00     0.214 HD
ENDBRANCH   4  28
BRANCH   8  30
ATOM     30  C   UNL     1     175.060 169.021 170.135  1.00  0.00     0.249 C 
BRANCH  30  31
ATOM     31  O   UNL     1     176.273 169.381 170.794  1.00  0.00    -0.461 OA
BRANCH  31  32
ATOM     32  C   UNL     1     176.353 169.724 172.150  1.00  0.00     0.338 C 
ATOM     33  O   UNL     1     175.874 168.956 173.030  1.00  0.00    -0.246 OA
BRANCH  32  34
ATOM     34  C   UNL     1     176.993 170.996 172.547  1.00  0.00     0.060 A 
ATOM     35  C   UNL     1     177.807 171.053 173.694  1.00  0.00     0.015 A 
ATOM     36  C   UNL     1     176.795 172.168 171.793  1.00  0.00     0.015 A 
ATOM     37  C   UNL     1     178.407 172.256 174.077  1.00  0.00     0.001 A 
ATOM     38  C   UNL     1     177.401 173.368 172.179  1.00  0.00     0.001 A 
ATOM     39  C   UNL     1     178.206 173.413 173.320  1.00  0.00     0.000 A 
ENDBRANCH  32  34
ENDBRANCH  31  32
ENDBRANCH  30  31
ENDBRANCH   8  30
TORSDOF 12
ENDMDL
