MODEL 1
REMARK VINA RESULT:    -7.117      0.000      0.000
REMARK INTER + INTRA:         -14.148
REMARK INTER:                 -13.359
REMARK INTRA:                  -0.789
REMARK UNBOUND:                -0.789
REMARK SMILES O=C([O-])CCCCCCCCCCCCCCC(=O)[O-]
REMARK SMILES IDX 10 1 9 2 8 3 7 4 6 5 5 6 4 7 2 8 1 9 3 10 11 11 12 12 13 13
REMARK SMILES IDX 14 14 15 15 16 16 17 17 18 18 19 19 20 20
REMARK H PARENT
REMARK Flexibility Score: inf
ROOT
ATOM      1  C   UNL     1     -22.017 -22.030  28.532  1.00  0.00     0.000 C 
ENDROOT
BRANCH   1   2
ATOM      2  C   UNL     1     -22.206 -20.926  29.586  1.00  0.00     0.000 C 
BRANCH   2   3
ATOM      3  C   UNL     1     -21.254 -19.738  29.376  1.00  0.00     0.000 C 
BRANCH   3   4
ATOM      4  C   UNL     1     -20.825 -19.079  30.696  1.00  0.00     0.000 C 
BRANCH   4   5
ATOM      5  C   UNL     1     -19.400 -18.514  30.589  1.00  0.00     0.000 C 
BRANCH   5   6
ATOM      6  C   UNL     1     -18.913 -18.393  29.132  1.00  0.00     0.006 C 
BRANCH   6   7
ATOM      7  C   UNL     1     -19.280 -17.064  28.452  1.00  0.00     0.053 C 
BRANCH   7   8
ATOM      8  C   UNL     1     -18.141 -16.092  28.464  1.00  0.00     0.041 C 
ATOM      9  O   UNL     1     -17.689 -15.658  29.556  1.00  0.00    -0.550 OA
ATOM     10  O   UNL     1     -17.556 -15.691  27.268  1.00  0.00    -0.550 OA
ENDBRANCH   7   8
ENDBRANCH   6   7
ENDBRANCH   5   6
ENDBRANCH   4   5
ENDBRANCH   3   4
ENDBRANCH   2   3
ENDBRANCH   1   2
BRANCH   1  11
ATOM     11  C   UNL     1     -22.176 -23.440  29.123  1.00  0.00     0.000 C 
BRANCH  11  12
ATOM     12  C   UNL     1     -22.113 -23.443  30.661  1.00  0.00     0.000 C 
BRANCH  12  13
ATOM     13  C   UNL     1     -23.383 -24.026  31.308  1.00  0.00     0.000 C 
BRANCH  13  14
ATOM     14  C   UNL     1     -23.677 -25.501  30.964  1.00  0.00     0.000 C 
BRANCH  14  15
ATOM     15  C   UNL     1     -25.151 -25.819  30.658  1.00  0.00     0.000 C 
BRANCH  15  16
ATOM     16  C   UNL     1     -25.456 -25.849  29.154  1.00  0.00     0.006 C 
BRANCH  16  17
ATOM     17  C   UNL     1     -25.013 -27.177  28.533  1.00  0.00     0.053 C 
BRANCH  17  18
ATOM     18  C   UNL     1     -26.191 -28.072  28.312  1.00  0.00     0.041 C 
ATOM     19  O   UNL     1     -26.703 -28.696  29.279  1.00  0.00    -0.550 OA
ATOM     20  O   UNL     1     -26.693 -28.259  27.030  1.00  0.00    -0.550 OA
ENDBRANCH  17  18
ENDBRANCH  16  17
ENDBRANCH  15  16
ENDBRANCH  14  15
ENDBRANCH  13  14
ENDBRANCH  12  13
ENDBRANCH  11  12
ENDBRANCH   1  11
TORSDOF 15
ENDMDL
MODEL 2
REMARK VINA RESULT:    -7.102      1.380     10.475
REMARK INTER + INTRA:         -14.119
REMARK INTER:                 -13.311
REMARK INTRA:                  -0.808
REMARK UNBOUND:                -0.789
REMARK SMILES O=C([O-])CCCCCCCCCCCCCCC(=O)[O-]
REMARK SMILES IDX 10 1 9 2 8 3 7 4 6 5 5 6 4 7 2 8 1 9 3 10 11 11 12 12 13 13
REMARK SMILES IDX 14 14 15 15 16 16 17 17 18 18 19 19 20 20
REMARK H PARENT
REMARK Flexibility Score: inf
ROOT
ATOM      1  C   UNL     1     -21.775 -22.070  31.709  1.00  0.00     0.000 C 
ENDROOT
BRANCH   1   2
ATOM      2  C   UNL     1     -23.147 -22.757  31.602  1.00  0.00     0.000 C 
BRANCH   2   3
ATOM      3  C   UNL     1     -23.052 -24.186  31.045  1.00  0.00     0.000 C 
BRANCH   3   4
ATOM      4  C   UNL     1     -22.444 -24.236  29.635  1.00  0.00     0.000 C 
BRANCH   4   5
ATOM      5  C   UNL     1     -23.276 -25.139  28.711  1.00  0.00     0.000 C 
BRANCH   5   6
ATOM      6  C   UNL     1     -24.684 -25.425  29.265  1.00  0.00     0.006 C 
BRANCH   6   7
ATOM      7  C   UNL     1     -25.119 -26.895  29.157  1.00  0.00     0.053 C 
BRANCH   7   8
ATOM      8  C   UNL     1     -25.550 -27.454  30.477  1.00  0.00     0.041 C 
ATOM      9  O   UNL     1     -25.329 -26.815  31.538  1.00  0.00    -0.550 OA
ATOM     10  O   UNL     1     -26.225 -28.668  30.532  1.00  0.00    -0.550 OA
ENDBRANCH   7   8
ENDBRANCH   6   7
ENDBRANCH   5   6
ENDBRANCH   4   5
ENDBRANCH   3   4
ENDBRANCH   2   3
ENDBRANCH   1   2
BRANCH   1  11
ATOM     11  C   UNL     1     -21.726 -20.734  30.949  1.00  0.00     0.000 C 
BRANCH  11  12
ATOM     12  C   UNL     1     -22.260 -20.856  29.511  1.00  0.00     0.000 C 
BRANCH  12  13
ATOM     13  C   UNL     1     -21.417 -20.064  28.494  1.00  0.00     0.000 C 
BRANCH  13  14
ATOM     14  C   UNL     1     -20.899 -18.699  28.992  1.00  0.00     0.000 C 
BRANCH  14  15
ATOM     15  C   UNL     1     -19.394 -18.647  29.308  1.00  0.00     0.000 C 
BRANCH  15  16
ATOM     16  C   UNL     1     -18.847 -17.214  29.375  1.00  0.00     0.006 C 
BRANCH  16  17
ATOM     17  C   UNL     1     -18.881 -16.549  27.997  1.00  0.00     0.053 C 
BRANCH  17  18
ATOM     18  C   UNL     1     -17.653 -15.724  27.780  1.00  0.00     0.041 C 
ATOM     19  O   UNL     1     -17.140 -15.087  28.738  1.00  0.00    -0.550 OA
ATOM     20  O   UNL     1     -17.102 -15.617  26.509  1.00  0.00    -0.550 OA
ENDBRANCH  17  18
ENDBRANCH  16  17
ENDBRANCH  15  16
ENDBRANCH  14  15
ENDBRANCH  13  14
ENDBRANCH  12  13
ENDBRANCH  11  12
ENDBRANCH   1  11
TORSDOF 15
ENDMDL
MODEL 3
REMARK VINA RESULT:    -7.096      1.853      2.607
REMARK INTER + INTRA:         -14.107
REMARK INTER:                 -13.226
REMARK INTRA:                  -0.882
REMARK UNBOUND:                -0.789
REMARK SMILES O=C([O-])CCCCCCCCCCCCCCC(=O)[O-]
REMARK SMILES IDX 10 1 9 2 8 3 7 4 6 5 5 6 4 7 2 8 1 9 3 10 11 11 12 12 13 13
REMARK SMILES IDX 14 14 15 15 16 16 17 17 18 18 19 19 20 20
REMARK H PARENT
REMARK Flexibility Score: inf
ROOT
ATOM      1  C   UNL     1     -21.967 -20.636  29.198  1.00  0.00     0.000 C 
ENDROOT
BRANCH   1   2
ATOM      2  C   UNL     1     -21.206 -19.455  28.571  1.00  0.00     0.000 C 
BRANCH   2   3
ATOM      3  C   UNL     1     -20.523 -18.566  29.622  1.00  0.00     0.000 C 
BRANCH   3   4
ATOM      4  C   UNL     1     -19.012 -18.418  29.385  1.00  0.00     0.000 C 
BRANCH   4   5
ATOM      5  C   UNL     1     -18.643 -16.955  29.100  1.00  0.00     0.000 C 
BRANCH   5   6
ATOM      6  C   UNL     1     -18.548 -16.645  27.594  1.00  0.00     0.006 C 
BRANCH   6   7
ATOM      7  C   UNL     1     -17.486 -15.593  27.232  1.00  0.00     0.053 C 
BRANCH   7   8
ATOM      8  C   UNL     1     -17.299 -15.468  25.752  1.00  0.00     0.041 C 
ATOM      9  O   UNL     1     -16.142 -15.487  25.256  1.00  0.00    -0.550 OA
ATOM     10  O   UNL     1     -18.405 -15.364  24.916  1.00  0.00    -0.550 OA
ENDBRANCH   7   8
ENDBRANCH   6   7
ENDBRANCH   5   6
ENDBRANCH   4   5
ENDBRANCH   3   4
ENDBRANCH   2   3
ENDBRANCH   1   2
BRANCH   1  11
ATOM     11  C   UNL     1     -21.989 -20.572  30.734  1.00  0.00     0.000 C 
BRANCH  11  12
ATOM     12  C   UNL     1     -21.651 -21.926  31.383  1.00  0.00     0.000 C 
BRANCH  12  13
ATOM     13  C   UNL     1     -22.743 -22.986  31.154  1.00  0.00     0.000 C 
BRANCH  13  14
ATOM     14  C   UNL     1     -22.303 -24.215  30.332  1.00  0.00     0.000 C 
BRANCH  14  15
ATOM     15  C   UNL     1     -23.005 -24.379  28.973  1.00  0.00     0.000 C 
BRANCH  15  16
ATOM     16  C   UNL     1     -23.648 -25.762  28.795  1.00  0.00     0.006 C 
BRANCH  16  17
ATOM     17  C   UNL     1     -25.080 -25.774  29.334  1.00  0.00     0.053 C 
BRANCH  17  18
ATOM     18  C   UNL     1     -25.201 -26.720  30.486  1.00  0.00     0.041 C 
ATOM     19  O   UNL     1     -24.749 -26.402  31.618  1.00  0.00    -0.550 OA
ATOM     20  O   UNL     1     -25.765 -27.976  30.298  1.00  0.00    -0.550 OA
ENDBRANCH  17  18
ENDBRANCH  16  17
ENDBRANCH  15  16
ENDBRANCH  14  15
ENDBRANCH  13  14
ENDBRANCH  12  13
ENDBRANCH  11  12
ENDBRANCH   1  11
TORSDOF 15
ENDMDL
MODEL 4
REMARK VINA RESULT:    -7.060      0.822     10.826
REMARK INTER + INTRA:         -14.040
REMARK INTER:                 -13.267
REMARK INTRA:                  -0.773
REMARK UNBOUND:                -0.789
REMARK SMILES O=C([O-])CCCCCCCCCCCCCCC(=O)[O-]
REMARK SMILES IDX 10 1 9 2 8 3 7 4 6 5 5 6 4 7 2 8 1 9 3 10 11 11 12 12 13 13
REMARK SMILES IDX 14 14 15 15 16 16 17 17 18 18 19 19 20 20
REMARK H PARENT
REMARK Flexibility Score: inf
ROOT
ATOM      1  C   UNL     1     -22.352 -22.966  30.892  1.00  0.00     0.000 C 
ENDROOT
BRANCH   1   2
ATOM      2  C   UNL     1     -22.141 -23.531  29.477  1.00  0.00     0.000 C 
BRANCH   2   3
ATOM      3  C   UNL     1     -23.112 -24.676  29.147  1.00  0.00     0.000 C 
BRANCH   3   4
ATOM      4  C   UNL     1     -23.511 -25.495  30.384  1.00  0.00     0.000 C 
BRANCH   4   5
ATOM      5  C   UNL     1     -25.021 -25.778  30.391  1.00  0.00     0.000 C 
BRANCH   5   6
ATOM      6  C   UNL     1     -25.365 -27.198  29.905  1.00  0.00     0.006 C 
BRANCH   6   7
ATOM      7  C   UNL     1     -25.453 -27.340  28.377  1.00  0.00     0.053 C 
BRANCH   7   8
ATOM      8  C   UNL     1     -26.453 -28.374  27.964  1.00  0.00     0.041 C 
ATOM      9  O   UNL     1     -26.770 -28.501  26.752  1.00  0.00    -0.550 OA
ATOM     10  O   UNL     1     -27.012 -29.221  28.914  1.00  0.00    -0.550 OA
ENDBRANCH   7   8
ENDBRANCH   6   7
ENDBRANCH   5   6
ENDBRANCH   4   5
ENDBRANCH   3   4
ENDBRANCH   2   3
ENDBRANCH   1   2
BRANCH   1  11
ATOM     11  C   UNL     1     -22.001 -21.472  30.987  1.00  0.00     0.000 C 
BRANCH  11  12
ATOM     12  C   UNL     1     -22.202 -20.736  29.650  1.00  0.00     0.000 C 
BRANCH  12  13
ATOM     13  C   UNL     1     -21.191 -19.594  29.441  1.00  0.00     0.000 C 
BRANCH  13  14
ATOM     14  C   UNL     1     -20.574 -19.019  30.732  1.00  0.00     0.000 C 
BRANCH  14  15
ATOM     15  C   UNL     1     -19.703 -17.765  30.538  1.00  0.00     0.000 C 
BRANCH  15  16
ATOM     16  C   UNL     1     -19.763 -17.211  29.108  1.00  0.00     0.006 C 
BRANCH  16  17
ATOM     17  C   UNL     1     -18.420 -17.388  28.395  1.00  0.00     0.053 C 
BRANCH  17  18
ATOM     18  C   UNL     1     -17.825 -16.058  28.057  1.00  0.00     0.041 C 
ATOM     19  O   UNL     1     -17.500 -15.258  28.974  1.00  0.00    -0.550 OA
ATOM     20  O   UNL     1     -17.676 -15.680  26.728  1.00  0.00    -0.550 OA
ENDBRANCH  17  18
ENDBRANCH  16  17
ENDBRANCH  15  16
ENDBRANCH  14  15
ENDBRANCH  13  14
ENDBRANCH  12  13
ENDBRANCH  11  12
ENDBRANCH   1  11
TORSDOF 15
ENDMDL
MODEL 5
REMARK VINA RESULT:    -7.050      1.794     10.804
REMARK INTER + INTRA:         -14.023
REMARK INTER:                 -13.365
REMARK INTRA:                  -0.658
REMARK UNBOUND:                -0.789
REMARK SMILES O=C([O-])CCCCCCCCCCCCCCC(=O)[O-]
REMARK SMILES IDX 10 1 9 2 8 3 7 4 6 5 5 6 4 7 2 8 1 9 3 10 11 11 12 12 13 13
REMARK SMILES IDX 14 14 15 15 16 16 17 17 18 18 19 19 20 20
REMARK H PARENT
REMARK Flexibility Score: inf
ROOT
ATOM      1  C   UNL     1     -22.150 -20.855  30.582  1.00  0.00     0.000 C 
ENDROOT
BRANCH   1   2
ATOM      2  C   UNL     1     -22.415 -22.214  31.253  1.00  0.00     0.000 C 
BRANCH   2   3
ATOM      3  C   UNL     1     -21.928 -23.398  30.403  1.00  0.00     0.000 C 
BRANCH   3   4
ATOM      4  C   UNL     1     -22.958 -24.534  30.319  1.00  0.00     0.000 C 
BRANCH   4   5
ATOM      5  C   UNL     1     -23.181 -24.964  28.861  1.00  0.00     0.000 C 
BRANCH   5   6
ATOM      6  C   UNL     1     -23.871 -26.336  28.740  1.00  0.00     0.006 C 
BRANCH   6   7
ATOM      7  C   UNL     1     -25.340 -26.346  29.194  1.00  0.00     0.053 C 
BRANCH   7   8
ATOM      8  C   UNL     1     -25.553 -27.220  30.391  1.00  0.00     0.041 C 
ATOM      9  O   UNL     1     -26.154 -28.320  30.273  1.00  0.00    -0.550 OA
ATOM     10  O   UNL     1     -25.062 -26.833  31.632  1.00  0.00    -0.550 OA
ENDBRANCH   7   8
ENDBRANCH   6   7
ENDBRANCH   5   6
ENDBRANCH   4   5
ENDBRANCH   3   4
ENDBRANCH   2   3
ENDBRANCH   1   2
BRANCH   1  11
ATOM     11  C   UNL     1     -21.983 -20.973  29.059  1.00  0.00     0.000 C 
BRANCH  11  12
ATOM     12  C   UNL     1     -21.511 -19.657  28.415  1.00  0.00     0.000 C 
BRANCH  12  13
ATOM     13  C   UNL     1     -20.371 -18.985  29.201  1.00  0.00     0.000 C 
BRANCH  13  14
ATOM     14  C   UNL     1     -20.090 -17.516  28.823  1.00  0.00     0.000 C 
BRANCH  14  15
ATOM     15  C   UNL     1     -18.622 -17.194  28.493  1.00  0.00     0.000 C 
BRANCH  15  16
ATOM     16  C   UNL     1     -18.470 -15.968  27.582  1.00  0.00     0.006 C 
BRANCH  16  17
ATOM     17  C   UNL     1     -17.068 -15.913  26.968  1.00  0.00     0.053 C 
BRANCH  17  18
ATOM     18  C   UNL     1     -17.150 -15.702  25.489  1.00  0.00     0.041 C 
ATOM     19  O   UNL     1     -18.202 -15.240  24.972  1.00  0.00    -0.550 OA
ATOM     20  O   UNL     1     -16.083 -16.062  24.675  1.00  0.00    -0.550 OA
ENDBRANCH  17  18
ENDBRANCH  16  17
ENDBRANCH  15  16
ENDBRANCH  14  15
ENDBRANCH  13  14
ENDBRANCH  12  13
ENDBRANCH  11  12
ENDBRANCH   1  11
TORSDOF 15
ENDMDL
MODEL 6
REMARK VINA RESULT:    -7.026      0.758      1.219
REMARK INTER + INTRA:         -13.976
REMARK INTER:                 -13.265
REMARK INTRA:                  -0.710
REMARK UNBOUND:                -0.789
REMARK SMILES O=C([O-])CCCCCCCCCCCCCCC(=O)[O-]
REMARK SMILES IDX 10 1 9 2 8 3 7 4 6 5 5 6 4 7 2 8 1 9 3 10 11 11 12 12 13 13
REMARK SMILES IDX 14 14 15 15 16 16 17 17 18 18 19 19 20 20
REMARK H PARENT
REMARK Flexibility Score: inf
ROOT
ATOM      1  C   UNL     1     -22.005 -21.379  31.033  1.00  0.00     0.000 C 
ENDROOT
BRANCH   1   2
ATOM      2  C   UNL     1     -22.101 -20.831  29.599  1.00  0.00     0.000 C 
BRANCH   2   3
ATOM      3  C   UNL     1     -21.224 -19.588  29.380  1.00  0.00     0.000 C 
BRANCH   3   4
ATOM      4  C   UNL     1     -20.677 -19.007  30.693  1.00  0.00     0.000 C 
BRANCH   4   5
ATOM      5  C   UNL     1     -19.233 -18.517  30.515  1.00  0.00     0.000 C 
BRANCH   5   6
ATOM      6  C   UNL     1     -19.146 -17.158  29.794  1.00  0.00     0.006 C 
BRANCH   6   7
ATOM      7  C   UNL     1     -18.491 -17.221  28.405  1.00  0.00     0.053 C 
BRANCH   7   8
ATOM      8  C   UNL     1     -17.822 -15.933  28.039  1.00  0.00     0.041 C 
ATOM      9  O   UNL     1     -17.636 -15.637  26.829  1.00  0.00    -0.550 OA
ATOM     10  O   UNL     1     -17.431 -15.044  29.034  1.00  0.00    -0.550 OA
ENDBRANCH   7   8
ENDBRANCH   6   7
ENDBRANCH   5   6
ENDBRANCH   4   5
ENDBRANCH   3   4
ENDBRANCH   2   3
ENDBRANCH   1   2
BRANCH   1  11
ATOM     11  C   UNL     1     -22.739 -22.720  31.201  1.00  0.00     0.000 C 
BRANCH  11  12
ATOM     12  C   UNL     1     -22.112 -23.842  30.354  1.00  0.00     0.000 C 
BRANCH  12  13
ATOM     13  C   UNL     1     -23.130 -24.925  29.953  1.00  0.00     0.000 C 
BRANCH  13  14
ATOM     14  C   UNL     1     -24.091 -25.370  31.074  1.00  0.00     0.000 C 
BRANCH  14  15
ATOM     15  C   UNL     1     -25.342 -26.132  30.599  1.00  0.00     0.000 C 
BRANCH  15  16
ATOM     16  C   UNL     1     -25.550 -26.049  29.080  1.00  0.00     0.006 C 
BRANCH  16  17
ATOM     17  C   UNL     1     -25.137 -27.357  28.399  1.00  0.00     0.053 C 
BRANCH  17  18
ATOM     18  C   UNL     1     -26.342 -28.179  28.067  1.00  0.00     0.041 C 
ATOM     19  O   UNL     1     -26.871 -28.912  28.944  1.00  0.00    -0.550 OA
ATOM     20  O   UNL     1     -26.850 -28.177  26.773  1.00  0.00    -0.550 OA
ENDBRANCH  17  18
ENDBRANCH  16  17
ENDBRANCH  15  16
ENDBRANCH  14  15
ENDBRANCH  13  14
ENDBRANCH  12  13
ENDBRANCH  11  12
ENDBRANCH   1  11
TORSDOF 15
ENDMDL
MODEL 7
REMARK VINA RESULT:    -6.865      1.387     10.422
REMARK INTER + INTRA:         -13.675
REMARK INTER:                 -12.807
REMARK INTRA:                  -0.868
REMARK UNBOUND:                -0.789
REMARK SMILES O=C([O-])CCCCCCCCCCCCCCC(=O)[O-]
REMARK SMILES IDX 10 1 9 2 8 3 7 4 6 5 5 6 4 7 2 8 1 9 3 10 11 11 12 12 13 13
REMARK SMILES IDX 14 14 15 15 16 16 17 17 18 18 19 19 20 20
REMARK H PARENT
REMARK Flexibility Score: inf
ROOT
ATOM      1  C   UNL     1     -22.832 -22.783  31.995  1.00  0.00     0.000 C 
ENDROOT
BRANCH   1   2
ATOM      2  C   UNL     1     -23.505 -24.022  31.379  1.00  0.00     0.000 C 
BRANCH   2   3
ATOM      3  C   UNL     1     -22.855 -24.451  30.054  1.00  0.00     0.000 C 
BRANCH   3   4
ATOM      4  C   UNL     1     -23.586 -25.625  29.386  1.00  0.00     0.000 C 
BRANCH   4   5
ATOM      5  C   UNL     1     -24.271 -26.513  30.436  1.00  0.00     0.000 C 
BRANCH   5   6
ATOM      6  C   UNL     1     -25.448 -27.322  29.859  1.00  0.00     0.006 C 
BRANCH   6   7
ATOM      7  C   UNL     1     -25.432 -27.456  28.328  1.00  0.00     0.053 C 
BRANCH   7   8
ATOM      8  C   UNL     1     -26.507 -28.372  27.831  1.00  0.00     0.041 C 
ATOM      9  O   UNL     1     -26.756 -28.448  26.599  1.00  0.00    -0.550 OA
ATOM     10  O   UNL     1     -27.212 -29.168  28.726  1.00  0.00    -0.550 OA
ENDBRANCH   7   8
ENDBRANCH   6   7
ENDBRANCH   5   6
ENDBRANCH   4   5
ENDBRANCH   3   4
ENDBRANCH   2   3
ENDBRANCH   1   2
BRANCH   1  11
ATOM     11  C   UNL     1     -21.635 -22.291  31.166  1.00  0.00     0.000 C 
BRANCH  11  12
ATOM     12  C   UNL     1     -21.104 -20.930  31.650  1.00  0.00     0.000 C 
BRANCH  12  13
ATOM     13  C   UNL     1     -21.595 -19.756  30.784  1.00  0.00     0.000 C 
BRANCH  13  14
ATOM     14  C   UNL     1     -21.765 -20.073  29.284  1.00  0.00     0.000 C 
BRANCH  14  15
ATOM     15  C   UNL     1     -21.031 -19.117  28.327  1.00  0.00     0.000 C 
BRANCH  15  16
ATOM     16  C   UNL     1     -20.520 -17.849  29.025  1.00  0.00     0.006 C 
BRANCH  16  17
ATOM     17  C   UNL     1     -19.032 -17.973  29.364  1.00  0.00     0.053 C 
BRANCH  17  18
ATOM     18  C   UNL     1     -18.692 -17.129  30.552  1.00  0.00     0.041 C 
ATOM     19  O   UNL     1     -18.915 -17.553  31.716  1.00  0.00    -0.550 OA
ATOM     20  O   UNL     1     -18.177 -15.851  30.372  1.00  0.00    -0.550 OA
ENDBRANCH  17  18
ENDBRANCH  16  17
ENDBRANCH  15  16
ENDBRANCH  14  15
ENDBRANCH  13  14
ENDBRANCH  12  13
ENDBRANCH  11  12
ENDBRANCH   1  11
TORSDOF 15
ENDMDL
MODEL 8
REMARK VINA RESULT:    -6.839      1.149      1.645
REMARK INTER + INTRA:         -13.626
REMARK INTER:                 -12.832
REMARK INTRA:                  -0.794
REMARK UNBOUND:                -0.789
REMARK SMILES O=C([O-])CCCCCCCCCCCCCCC(=O)[O-]
REMARK SMILES IDX 10 1 9 2 8 3 7 4 6 5 5 6 4 7 2 8 1 9 3 10 11 11 12 12 13 13
REMARK SMILES IDX 14 14 15 15 16 16 17 17 18 18 19 19 20 20
REMARK H PARENT
REMARK Flexibility Score: inf
ROOT
ATOM      1  C   UNL     1     -22.395 -20.873  30.422  1.00  0.00     0.000 C 
ENDROOT
BRANCH   1   2
ATOM      2  C   UNL     1     -21.206 -19.997  29.992  1.00  0.00     0.000 C 
BRANCH   2   3
ATOM      3  C   UNL     1     -20.869 -18.909  31.023  1.00  0.00     0.000 C 
BRANCH   3   4
ATOM      4  C   UNL     1     -19.379 -18.887  31.401  1.00  0.00     0.000 C 
BRANCH   4   5
ATOM      5  C   UNL     1     -18.777 -17.493  31.171  1.00  0.00     0.000 C 
BRANCH   5   6
ATOM      6  C   UNL     1     -19.384 -16.772  29.953  1.00  0.00     0.006 C 
BRANCH   6   7
ATOM      7  C   UNL     1     -18.710 -17.116  28.615  1.00  0.00     0.053 C 
BRANCH   7   8
ATOM      8  C   UNL     1     -17.910 -15.971  28.077  1.00  0.00     0.041 C 
ATOM      9  O   UNL     1     -17.392 -15.135  28.863  1.00  0.00    -0.550 OA
ATOM     10  O   UNL     1     -17.709 -15.845  26.707  1.00  0.00    -0.550 OA
ENDBRANCH   7   8
ENDBRANCH   6   7
ENDBRANCH   5   6
ENDBRANCH   4   5
ENDBRANCH   3   4
ENDBRANCH   2   3
ENDBRANCH   1   2
BRANCH   1  11
ATOM     11  C   UNL     1     -21.965 -22.055  31.306  1.00  0.00     0.000 C 
BRANCH  11  12
ATOM     12  C   UNL     1     -23.132 -23.008  31.621  1.00  0.00     0.000 C 
BRANCH  12  13
ATOM     13  C   UNL     1     -22.981 -24.381  30.941  1.00  0.00     0.000 C 
BRANCH  13  14
ATOM     14  C   UNL     1     -22.724 -24.335  29.420  1.00  0.00     0.000 C 
BRANCH  14  15
ATOM     15  C   UNL     1     -23.438 -25.427  28.603  1.00  0.00     0.000 C 
BRANCH  15  16
ATOM     16  C   UNL     1     -24.826 -25.776  29.157  1.00  0.00     0.006 C 
BRANCH  16  17
ATOM     17  C   UNL     1     -25.329 -27.101  28.579  1.00  0.00     0.053 C 
BRANCH  17  18
ATOM     18  C   UNL     1     -25.967 -27.932  29.646  1.00  0.00     0.041 C 
ATOM     19  O   UNL     1     -25.720 -27.703  30.860  1.00  0.00    -0.550 OA
ATOM     20  O   UNL     1     -26.794 -28.994  29.301  1.00  0.00    -0.550 OA
ENDBRANCH  17  18
ENDBRANCH  16  17
ENDBRANCH  15  16
ENDBRANCH  14  15
ENDBRANCH  13  14
ENDBRANCH  12  13
ENDBRANCH  11  12
ENDBRANCH   1  11
TORSDOF 15
ENDMDL
MODEL 9
REMARK VINA RESULT:    -6.737      1.733     10.842
REMARK INTER + INTRA:         -13.434
REMARK INTER:                 -12.884
REMARK INTRA:                  -0.550
REMARK UNBOUND:                -0.789
REMARK SMILES O=C([O-])CCCCCCCCCCCCCCC(=O)[O-]
REMARK SMILES IDX 10 1 9 2 8 3 7 4 6 5 5 6 4 7 2 8 1 9 3 10 11 11 12 12 13 13
REMARK SMILES IDX 14 14 15 15 16 16 17 17 18 18 19 19 20 20
REMARK H PARENT
REMARK Flexibility Score: inf
ROOT
ATOM      1  C   UNL     1     -23.553 -24.414  31.438  1.00  0.00     0.000 C 
ENDROOT
BRANCH   1   2
ATOM      2  C   UNL     1     -24.391 -25.348  30.548  1.00  0.00     0.000 C 
BRANCH   2   3
ATOM      3  C   UNL     1     -23.799 -25.511  29.139  1.00  0.00     0.000 C 
BRANCH   3   4
ATOM      4  C   UNL     1     -24.154 -26.860  28.497  1.00  0.00     0.000 C 
BRANCH   4   5
ATOM      5  C   UNL     1     -25.672 -27.098  28.526  1.00  0.00     0.000 C 
BRANCH   5   6
ATOM      6  C   UNL     1     -26.110 -28.274  27.632  1.00  0.00     0.006 C 
BRANCH   6   7
ATOM      7  C   UNL     1     -27.026 -27.873  26.465  1.00  0.00     0.053 C 
BRANCH   7   8
ATOM      8  C   UNL     1     -26.981 -28.867  25.346  1.00  0.00     0.041 C 
ATOM      9  O   UNL     1     -28.027 -29.474  24.996  1.00  0.00    -0.550 OA
ATOM     10  O   UNL     1     -25.789 -29.099  24.669  1.00  0.00    -0.550 OA
ENDBRANCH   7   8
ENDBRANCH   6   7
ENDBRANCH   5   6
ENDBRANCH   4   5
ENDBRANCH   3   4
ENDBRANCH   2   3
ENDBRANCH   1   2
BRANCH   1  11
ATOM     11  C   UNL     1     -22.486 -23.645  30.642  1.00  0.00     0.000 C 
BRANCH  11  12
ATOM     12  C   UNL     1     -22.089 -22.320  31.319  1.00  0.00     0.000 C 
BRANCH  12  13
ATOM     13  C   UNL     1     -22.322 -21.096  30.415  1.00  0.00     0.000 C 
BRANCH  13  14
ATOM     14  C   UNL     1     -21.125 -20.130  30.297  1.00  0.00     0.000 C 
BRANCH  14  15
ATOM     15  C   UNL     1     -20.891 -19.547  28.892  1.00  0.00     0.000 C 
BRANCH  15  16
ATOM     16  C   UNL     1     -20.916 -18.012  28.870  1.00  0.00     0.006 C 
BRANCH  16  17
ATOM     17  C   UNL     1     -19.496 -17.443  28.795  1.00  0.00     0.053 C 
BRANCH  17  18
ATOM     18  C   UNL     1     -19.093 -16.863  30.114  1.00  0.00     0.041 C 
ATOM     19  O   UNL     1     -19.773 -17.102  31.146  1.00  0.00    -0.550 OA
ATOM     20  O   UNL     1     -17.994 -16.016  30.194  1.00  0.00    -0.550 OA
ENDBRANCH  17  18
ENDBRANCH  16  17
ENDBRANCH  15  16
ENDBRANCH  14  15
ENDBRANCH  13  14
ENDBRANCH  12  13
ENDBRANCH  11  12
ENDBRANCH   1  11
TORSDOF 15
ENDMDL
