MODEL 1
REMARK VINA RESULT:    -6.456      0.000      0.000
REMARK INTER + INTRA:          -9.964
REMARK INTER:                  -8.909
REMARK INTRA:                  -1.054
REMARK UNBOUND:                -1.054
REMARK SMILES O=C([O-])[C@H]1O[C@H](Oc2cc3oc(-c4ccccc4)cc(=O)c3c(O)c2O)[C@@H](O)[C@H](O)[C@H]1O
REMARK SMILES IDX 7 1 6 2 4 3 31 4 5 5 29 6 27 7 2 8 1 9 3 10 32 11 30 13
REMARK SMILES IDX 28 15 8 17 25 18 9 19 23 20 10 21 22 22 11 23 20 24 12 25
REMARK SMILES IDX 19 26 21 27 26 28 24 30 13 32 14 33 18 34 15 35 17 36 16 37
REMARK H PARENT 32 12 30 14 28 16 26 29 24 31
REMARK Flexibility Score: inf
ROOT
ATOM      1  O   UNL     1      43.450  16.520  -3.638  1.00  0.00    -0.458 OA
ENDROOT
BRANCH   1   2
ATOM      2  C   UNL     1      43.265  17.597  -2.702  1.00  0.00     0.339 C 
ATOM      3  C   UNL     1      42.423  19.454  -3.946  1.00  0.00     0.199 C 
ATOM      4  C   UNL     1      41.175  19.609  -3.055  1.00  0.00     0.180 C 
ATOM      5  O   UNL     1      43.523  18.890  -3.245  1.00  0.00    -0.328 OA
ATOM      6  C   UNL     1      40.740  18.229  -2.537  1.00  0.00     0.181 C 
ATOM      7  C   UNL     1      41.922  17.452  -1.919  1.00  0.00     0.214 C 
BRANCH   3   8
ATOM      8  C   UNL     1      42.836  20.787  -4.505  1.00  0.00     0.073 C 
ATOM      9  O   UNL     1      44.051  21.034  -4.726  1.00  0.00    -0.547 OA
ATOM     10  O   UNL     1      41.881  21.769  -4.743  1.00  0.00    -0.547 OA
ENDBRANCH   3   8
BRANCH   4  11
ATOM     11  O   UNL     1      41.355  20.525  -1.998  1.00  0.00    -0.387 OA
ATOM     12  H   UNL     1      40.476  20.701  -1.570  1.00  0.00     0.211 HD
ENDBRANCH   4  11
BRANCH   6  13
ATOM     13  O   UNL     1      40.204  17.476  -3.599  1.00  0.00    -0.387 OA
ATOM     14  H   UNL     1      40.192  16.527  -3.301  1.00  0.00     0.211 HD
ENDBRANCH   6  13
BRANCH   7  15
ATOM     15  O   UNL     1      42.065  17.784  -0.557  1.00  0.00    -0.384 OA
ATOM     16  H   UNL     1      42.608  18.613  -0.486  1.00  0.00     0.211 HD
ENDBRANCH   7  15
ENDBRANCH   1   2
BRANCH   1  17
ATOM     17  C   UNL     1      44.410  15.506  -3.570  1.00  0.00     0.172 A 
ATOM     18  C   UNL     1      44.045  14.263  -3.036  1.00  0.00     0.201 A 
ATOM     19  C   UNL     1      45.724  15.737  -3.991  1.00  0.00     0.098 A 
ATOM     20  C   UNL     1      45.001  13.217  -2.958  1.00  0.00     0.176 A 
ATOM     21  C   UNL     1      46.671  14.715  -3.939  1.00  0.00     0.146 A 
ATOM     22  C   UNL     1      46.319  13.441  -3.433  1.00  0.00     0.111 A 
ATOM     23  O   UNL     1      47.908  14.957  -4.365  1.00  0.00    -0.456 OA
ATOM     24  C   UNL     1      47.322  12.448  -3.419  1.00  0.00     0.197 A 
ATOM     25  C   UNL     1      48.878  14.044  -4.349  1.00  0.00     0.138 A 
ATOM     26  C   UNL     1      48.600  12.749  -3.885  1.00  0.00     0.100 A 
ATOM     27  O   UNL     1      47.089  11.283  -2.996  1.00  0.00    -0.289 OA
BRANCH  18  28
ATOM     28  O   UNL     1      42.722  14.105  -2.613  1.00  0.00    -0.502 OA
ATOM     29  H   UNL     1      41.970  14.731  -2.856  1.00  0.00     0.293 HD
ENDBRANCH  18  28
BRANCH  20  30
ATOM     30  O   UNL     1      44.672  11.970  -2.414  1.00  0.00    -0.504 OA
ATOM     31  H   UNL     1      43.774  11.525  -2.517  1.00  0.00     0.293 HD
ENDBRANCH  20  30
BRANCH  25  32
ATOM     32  C   UNL     1      50.232  14.428  -4.824  1.00  0.00     0.017 A 
ATOM     33  C   UNL     1      51.131  13.433  -5.252  1.00  0.00     0.012 A 
ATOM     34  C   UNL     1      50.625  15.781  -4.907  1.00  0.00     0.012 A 
ATOM     35  C   UNL     1      52.398  13.779  -5.735  1.00  0.00     0.001 A 
ATOM     36  C   UNL     1      51.895  16.121  -5.387  1.00  0.00     0.001 A 
ATOM     37  C   UNL     1      52.781  15.122  -5.799  1.00  0.00     0.000 A 
ENDBRANCH  25  32
ENDBRANCH   1  17
TORSDOF 9
ENDMDL
MODEL 2
REMARK VINA RESULT:    -6.176      2.266      8.602
REMARK INTER + INTRA:          -9.577
REMARK INTER:                  -8.172
REMARK INTRA:                  -1.405
REMARK UNBOUND:                -1.054
REMARK SMILES O=C([O-])[C@H]1O[C@H](Oc2cc3oc(-c4ccccc4)cc(=O)c3c(O)c2O)[C@@H](O)[C@H](O)[C@H]1O
REMARK SMILES IDX 7 1 6 2 4 3 31 4 5 5 29 6 27 7 2 8 1 9 3 10 32 11 30 13
REMARK SMILES IDX 28 15 8 17 25 18 9 19 23 20 10 21 22 22 11 23 20 24 12 25
REMARK SMILES IDX 19 26 21 27 26 28 24 30 13 32 14 33 18 34 15 35 17 36 16 37
REMARK H PARENT 32 12 30 14 28 16 26 29 24 31
REMARK Flexibility Score: inf
ROOT
ATOM      1  O   UNL     1      47.737  15.329  -4.774  1.00  0.00    -0.458 OA
ENDROOT
BRANCH   1   2
ATOM      2  C   UNL     1      48.619  14.727  -3.810  1.00  0.00     0.339 C 
ATOM      3  C   UNL     1      47.547  12.736  -3.043  1.00  0.00     0.199 C 
ATOM      4  C   UNL     1      48.737  11.833  -3.420  1.00  0.00     0.180 C 
ATOM      5  O   UNL     1      47.948  14.065  -2.741  1.00  0.00    -0.328 OA
ATOM      6  C   UNL     1      49.439  12.403  -4.663  1.00  0.00     0.181 C 
ATOM      7  C   UNL     1      49.751  13.905  -4.505  1.00  0.00     0.214 C 
BRANCH   3   8
ATOM      8  C   UNL     1      46.815  12.169  -1.859  1.00  0.00     0.073 C 
ATOM      9  O   UNL     1      45.667  11.670  -2.002  1.00  0.00    -0.547 OA
ATOM     10  O   UNL     1      47.383  12.230  -0.591  1.00  0.00    -0.547 OA
ENDBRANCH   3   8
BRANCH   4  11
ATOM     11  O   UNL     1      49.645  11.635  -2.359  1.00  0.00    -0.387 OA
ATOM     12  H   UNL     1      49.285  10.938  -1.751  1.00  0.00     0.211 HD
ENDBRANCH   4  11
BRANCH   6  13
ATOM     13  O   UNL     1      48.615  12.224  -5.790  1.00  0.00    -0.387 OA
ATOM     14  H   UNL     1      48.446  13.128  -6.169  1.00  0.00     0.211 HD
ENDBRANCH   6  13
BRANCH   7  15
ATOM     15  O   UNL     1      50.997  14.082  -3.871  1.00  0.00    -0.384 OA
ATOM     16  H   UNL     1      50.841  14.270  -2.908  1.00  0.00     0.211 HD
ENDBRANCH   7  15
ENDBRANCH   1   2
BRANCH   1  17
ATOM     17  C   UNL     1      46.346  15.445  -4.679  1.00  0.00     0.172 A 
ATOM     18  C   UNL     1      45.542  14.535  -5.379  1.00  0.00     0.201 A 
ATOM     19  C   UNL     1      45.764  16.476  -3.933  1.00  0.00     0.098 A 
ATOM     20  C   UNL     1      44.129  14.631  -5.298  1.00  0.00     0.176 A 
ATOM     21  C   UNL     1      44.377  16.573  -3.827  1.00  0.00     0.146 A 
ATOM     22  C   UNL     1      43.544  15.647  -4.499  1.00  0.00     0.111 A 
ATOM     23  O   UNL     1      43.852  17.550  -3.093  1.00  0.00    -0.456 OA
ATOM     24  C   UNL     1      42.149  15.795  -4.342  1.00  0.00     0.197 A 
ATOM     25  C   UNL     1      42.540  17.724  -2.940  1.00  0.00     0.138 A 
ATOM     26  C   UNL     1      41.648  16.831  -3.554  1.00  0.00     0.100 A 
ATOM     27  O   UNL     1      41.336  15.007  -4.895  1.00  0.00    -0.289 OA
BRANCH  18  28
ATOM     28  O   UNL     1      46.186  13.544  -6.125  1.00  0.00    -0.502 OA
ATOM     29  H   UNL     1      46.956  13.717  -6.754  1.00  0.00     0.293 HD
ENDBRANCH  18  28
BRANCH  20  30
ATOM     30  O   UNL     1      43.298  13.749  -6.000  1.00  0.00    -0.504 OA
ATOM     31  H   UNL     1      42.354  13.522  -5.728  1.00  0.00     0.293 HD
ENDBRANCH  20  30
BRANCH  25  32
ATOM     32  C   UNL     1      42.059  18.864  -2.119  1.00  0.00     0.017 A 
ATOM     33  C   UNL     1      40.725  18.888  -1.669  1.00  0.00     0.012 A 
ATOM     34  C   UNL     1      42.926  19.908  -1.732  1.00  0.00     0.012 A 
ATOM     35  C   UNL     1      40.264  19.938  -0.866  1.00  0.00     0.001 A 
ATOM     36  C   UNL     1      42.459  20.957  -0.932  1.00  0.00     0.001 A 
ATOM     37  C   UNL     1      41.129  20.974  -0.501  1.00  0.00     0.000 A 
ENDBRANCH  25  32
ENDBRANCH   1  17
TORSDOF 9
ENDMDL
MODEL 3
REMARK VINA RESULT:    -5.869      1.246      2.477
REMARK INTER + INTRA:          -9.153
REMARK INTER:                  -8.403
REMARK INTRA:                  -0.750
REMARK UNBOUND:                -1.054
REMARK SMILES O=C([O-])[C@H]1O[C@H](Oc2cc3oc(-c4ccccc4)cc(=O)c3c(O)c2O)[C@@H](O)[C@H](O)[C@H]1O
REMARK SMILES IDX 7 1 6 2 4 3 31 4 5 5 29 6 27 7 2 8 1 9 3 10 32 11 30 13
REMARK SMILES IDX 28 15 8 17 25 18 9 19 23 20 10 21 22 22 11 23 20 24 12 25
REMARK SMILES IDX 19 26 21 27 26 28 24 30 13 32 14 33 18 34 15 35 17 36 16 37
REMARK H PARENT 32 12 30 14 28 16 26 29 24 31
REMARK Flexibility Score: inf
ROOT
ATOM      1  O   UNL     1      44.527  17.665  -3.357  1.00  0.00    -0.458 OA
ENDROOT
BRANCH   1   2
ATOM      2  C   UNL     1      43.188  17.844  -3.850  1.00  0.00     0.339 C 
ATOM      3  C   UNL     1      42.235  19.650  -2.611  1.00  0.00     0.199 C 
ATOM      4  C   UNL     1      41.889  20.462  -3.873  1.00  0.00     0.180 C 
ATOM      5  O   UNL     1      42.252  18.250  -2.853  1.00  0.00    -0.328 OA
ATOM      6  C   UNL     1      42.940  20.190  -4.962  1.00  0.00     0.181 C 
ATOM      7  C   UNL     1      43.169  18.679  -5.169  1.00  0.00     0.214 C 
BRANCH   3   8
ATOM      8  C   UNL     1      41.247  19.941  -1.515  1.00  0.00     0.073 C 
ATOM      9  O   UNL     1      41.607  20.575  -0.488  1.00  0.00    -0.547 OA
ATOM     10  O   UNL     1      39.941  19.474  -1.611  1.00  0.00    -0.547 OA
ENDBRANCH   3   8
BRANCH   4  11
ATOM     11  O   UNL     1      40.582  20.227  -4.347  1.00  0.00    -0.387 OA
ATOM     12  H   UNL     1      40.634  19.831  -5.256  1.00  0.00     0.211 HD
ENDBRANCH   4  11
BRANCH   6  13
ATOM     13  O   UNL     1      44.160  20.791  -4.597  1.00  0.00    -0.387 OA
ATOM     14  H   UNL     1      44.757  20.735  -5.390  1.00  0.00     0.211 HD
ENDBRANCH   6  13
BRANCH   7  15
ATOM     15  O   UNL     1      42.247  18.168  -6.104  1.00  0.00    -0.384 OA
ATOM     16  H   UNL     1      41.725  18.924  -6.483  1.00  0.00     0.211 HD
ENDBRANCH   7  15
ENDBRANCH   1   2
BRANCH   1  17
ATOM     17  C   UNL     1      45.292  16.495  -3.413  1.00  0.00     0.172 A 
ATOM     18  C   UNL     1      44.744  15.305  -2.917  1.00  0.00     0.201 A 
ATOM     19  C   UNL     1      46.597  16.518  -3.917  1.00  0.00     0.098 A 
ATOM     20  C   UNL     1      45.499  14.104  -2.963  1.00  0.00     0.176 A 
ATOM     21  C   UNL     1      47.346  15.344  -3.987  1.00  0.00     0.146 A 
ATOM     22  C   UNL     1      46.803  14.122  -3.522  1.00  0.00     0.111 A 
ATOM     23  O   UNL     1      48.576  15.390  -4.491  1.00  0.00    -0.456 OA
ATOM     24  C   UNL     1      47.610  12.969  -3.632  1.00  0.00     0.197 A 
ATOM     25  C   UNL     1      49.365  14.322  -4.593  1.00  0.00     0.138 A 
ATOM     26  C   UNL     1      48.889  13.070  -4.176  1.00  0.00     0.100 A 
ATOM     27  O   UNL     1      47.199  11.839  -3.252  1.00  0.00    -0.289 OA
BRANCH  18  28
ATOM     28  O   UNL     1      43.444  15.356  -2.405  1.00  0.00    -0.502 OA
ATOM     29  H   UNL     1      43.074  14.704  -1.730  1.00  0.00     0.293 HD
ENDBRANCH  18  28
BRANCH  20  30
ATOM     30  O   UNL     1      44.987  12.902  -2.459  1.00  0.00    -0.504 OA
ATOM     31  H   UNL     1      44.966  12.661  -1.480  1.00  0.00     0.293 HD
ENDBRANCH  20  30
BRANCH  25  32
ATOM     32  C   UNL     1      50.733  14.491  -5.147  1.00  0.00     0.017 A 
ATOM     33  C   UNL     1      51.325  15.767  -5.168  1.00  0.00     0.012 A 
ATOM     34  C   UNL     1      51.479  13.386  -5.610  1.00  0.00     0.012 A 
ATOM     35  C   UNL     1      52.626  15.939  -5.656  1.00  0.00     0.001 A 
ATOM     36  C   UNL     1      52.778  13.565  -6.101  1.00  0.00     0.001 A 
ATOM     37  C   UNL     1      53.351  14.839  -6.125  1.00  0.00     0.000 A 
ENDBRANCH  25  32
ENDBRANCH   1  17
TORSDOF 9
ENDMDL
MODEL 4
REMARK VINA RESULT:    -5.713      1.173      2.463
REMARK INTER + INTRA:          -8.938
REMARK INTER:                  -7.766
REMARK INTRA:                  -1.171
REMARK UNBOUND:                -1.054
REMARK SMILES O=C([O-])[C@H]1O[C@H](Oc2cc3oc(-c4ccccc4)cc(=O)c3c(O)c2O)[C@@H](O)[C@H](O)[C@H]1O
REMARK SMILES IDX 7 1 6 2 4 3 31 4 5 5 29 6 27 7 2 8 1 9 3 10 32 11 30 13
REMARK SMILES IDX 28 15 8 17 25 18 9 19 23 20 10 21 22 22 11 23 20 24 12 25
REMARK SMILES IDX 19 26 21 27 26 28 24 30 13 32 14 33 18 34 15 35 17 36 16 37
REMARK H PARENT 32 12 30 14 28 16 26 29 24 31
REMARK Flexibility Score: inf
ROOT
ATOM      1  O   UNL     1      44.368  17.366  -2.625  1.00  0.00    -0.458 OA
ENDROOT
BRANCH   1   2
ATOM      2  C   UNL     1      43.569  18.215  -3.467  1.00  0.00     0.339 C 
ATOM      3  C   UNL     1      41.341  17.357  -3.396  1.00  0.00     0.199 C 
ATOM      4  C   UNL     1      40.737  18.697  -2.933  1.00  0.00     0.180 C 
ATOM      5  O   UNL     1      42.526  17.532  -4.160  1.00  0.00    -0.328 OA
ATOM      6  C   UNL     1      41.753  19.442  -2.052  1.00  0.00     0.181 C 
ATOM      7  C   UNL     1      43.140  19.520  -2.724  1.00  0.00     0.214 C 
BRANCH   3   8
ATOM      8  C   UNL     1      40.344  16.589  -4.217  1.00  0.00     0.073 C 
ATOM      9  O   UNL     1      39.875  15.500  -3.790  1.00  0.00    -0.547 OA
ATOM     10  O   UNL     1      39.964  17.055  -5.470  1.00  0.00    -0.547 OA
ENDBRANCH   3   8
BRANCH   4  11
ATOM     11  O   UNL     1      40.286  19.504  -3.998  1.00  0.00    -0.387 OA
ATOM     12  H   UNL     1      40.285  20.453  -3.706  1.00  0.00     0.211 HD
ENDBRANCH   4  11
BRANCH   6  13
ATOM     13  O   UNL     1      41.880  18.778  -0.818  1.00  0.00    -0.387 OA
ATOM     14  H   UNL     1      41.009  18.876  -0.348  1.00  0.00     0.211 HD
ENDBRANCH   6  13
BRANCH   7  15
ATOM     15  O   UNL     1      43.216  20.653  -3.558  1.00  0.00    -0.384 OA
ATOM     16  H   UNL     1      43.492  20.362  -4.467  1.00  0.00     0.211 HD
ENDBRANCH   7  15
ENDBRANCH   1   2
BRANCH   1  17
ATOM     17  C   UNL     1      45.078  16.226  -3.015  1.00  0.00     0.172 A 
ATOM     18  C   UNL     1      44.461  14.973  -2.905  1.00  0.00     0.201 A 
ATOM     19  C   UNL     1      46.398  16.328  -3.470  1.00  0.00     0.098 A 
ATOM     20  C   UNL     1      45.160  13.802  -3.296  1.00  0.00     0.176 A 
ATOM     21  C   UNL     1      47.093  15.190  -3.876  1.00  0.00     0.146 A 
ATOM     22  C   UNL     1      46.480  13.916  -3.804  1.00  0.00     0.111 A 
ATOM     23  O   UNL     1      48.338  15.318  -4.324  1.00  0.00    -0.456 OA
ATOM     24  C   UNL     1      47.235  12.806  -4.241  1.00  0.00     0.197 A 
ATOM     25  C   UNL     1      49.080  14.288  -4.728  1.00  0.00     0.138 A 
ATOM     26  C   UNL     1      48.533  12.995  -4.711  1.00  0.00     0.100 A 
ATOM     27  O   UNL     1      46.760  11.638  -4.223  1.00  0.00    -0.289 OA
BRANCH  18  28
ATOM     28  O   UNL     1      43.150  14.939  -2.421  1.00  0.00    -0.502 OA
ATOM     29  H   UNL     1      42.434  14.318  -2.765  1.00  0.00     0.293 HD
ENDBRANCH  18  28
BRANCH  20  30
ATOM     30  O   UNL     1      44.578  12.534  -3.182  1.00  0.00    -0.504 OA
ATOM     31  H   UNL     1      44.535  11.860  -3.930  1.00  0.00     0.293 HD
ENDBRANCH  20  30
BRANCH  25  32
ATOM     32  C   UNL     1      50.470  14.540  -5.187  1.00  0.00     0.017 A 
ATOM     33  C   UNL     1      50.974  15.854  -5.197  1.00  0.00     0.012 A 
ATOM     34  C   UNL     1      51.322  13.481  -5.567  1.00  0.00     0.012 A 
ATOM     35  C   UNL     1      52.293  16.107  -5.593  1.00  0.00     0.001 A 
ATOM     36  C   UNL     1      52.638  13.740  -5.966  1.00  0.00     0.001 A 
ATOM     37  C   UNL     1      53.123  15.050  -5.981  1.00  0.00     0.000 A 
ENDBRANCH  25  32
ENDBRANCH   1  17
TORSDOF 9
ENDMDL
MODEL 5
REMARK VINA RESULT:    -5.599      2.275      8.424
REMARK INTER + INTRA:          -8.780
REMARK INTER:                  -7.761
REMARK INTRA:                  -1.019
REMARK UNBOUND:                -1.054
REMARK SMILES O=C([O-])[C@H]1O[C@H](Oc2cc3oc(-c4ccccc4)cc(=O)c3c(O)c2O)[C@@H](O)[C@H](O)[C@H]1O
REMARK SMILES IDX 7 1 6 2 4 3 31 4 5 5 29 6 27 7 2 8 1 9 3 10 32 11 30 13
REMARK SMILES IDX 28 15 8 17 25 18 9 19 23 20 10 21 22 22 11 23 20 24 12 25
REMARK SMILES IDX 19 26 21 27 26 28 24 30 13 32 14 33 18 34 15 35 17 36 16 37
REMARK H PARENT 32 12 30 14 28 16 26 29 24 31
REMARK Flexibility Score: inf
ROOT
ATOM      1  O   UNL     1      46.591  13.169  -3.401  1.00  0.00    -0.458 OA
ENDROOT
BRANCH   1   2
ATOM      2  C   UNL     1      47.374  13.077  -4.603  1.00  0.00     0.339 C 
ATOM      3  C   UNL     1      49.322  14.417  -4.260  1.00  0.00     0.199 C 
ATOM      4  C   UNL     1      50.291  13.258  -4.563  1.00  0.00     0.180 C 
ATOM      5  O   UNL     1      48.078  14.273  -4.931  1.00  0.00    -0.328 OA
ATOM      6  C   UNL     1      49.664  11.932  -4.104  1.00  0.00     0.181 C 
ATOM      7  C   UNL     1      48.225  11.767  -4.635  1.00  0.00     0.214 C 
BRANCH   3   8
ATOM      8  C   UNL     1      49.937  15.730  -4.654  1.00  0.00     0.073 C 
ATOM      9  O   UNL     1      49.207  16.693  -5.010  1.00  0.00    -0.547 OA
ATOM     10  O   UNL     1      51.320  15.877  -4.667  1.00  0.00    -0.547 OA
ENDBRANCH   3   8
BRANCH   4  11
ATOM     11  O   UNL     1      50.689  13.202  -5.914  1.00  0.00    -0.387 OA
ATOM     12  H   UNL     1      50.062  12.615  -6.412  1.00  0.00     0.211 HD
ENDBRANCH   4  11
BRANCH   6  13
ATOM     13  O   UNL     1      49.641  11.885  -2.698  1.00  0.00    -0.387 OA
ATOM     14  H   UNL     1      49.701  10.926  -2.441  1.00  0.00     0.211 HD
ENDBRANCH   6  13
BRANCH   7  15
ATOM     15  O   UNL     1      48.240  11.178  -5.914  1.00  0.00    -0.384 OA
ATOM     16  H   UNL     1      48.957  10.491  -5.941  1.00  0.00     0.211 HD
ENDBRANCH   7  15
ENDBRANCH   1   2
BRANCH   1  17
ATOM     17  C   UNL     1      45.277  13.634  -3.290  1.00  0.00     0.172 A 
ATOM     18  C   UNL     1      44.222  12.764  -3.598  1.00  0.00     0.201 A 
ATOM     19  C   UNL     1      45.016  14.958  -2.918  1.00  0.00     0.098 A 
ATOM     20  C   UNL     1      42.880  13.212  -3.492  1.00  0.00     0.176 A 
ATOM     21  C   UNL     1      43.703  15.409  -2.791  1.00  0.00     0.146 A 
ATOM     22  C   UNL     1      42.620  14.539  -3.065  1.00  0.00     0.111 A 
ATOM     23  O   UNL     1      43.484  16.666  -2.415  1.00  0.00    -0.456 OA
ATOM     24  C   UNL     1      41.316  15.056  -2.907  1.00  0.00     0.197 A 
ATOM     25  C   UNL     1      42.266  17.185  -2.272  1.00  0.00     0.138 A 
ATOM     26  C   UNL     1      41.140  16.378  -2.501  1.00  0.00     0.100 A 
ATOM     27  O   UNL     1      40.296  14.346  -3.118  1.00  0.00    -0.289 OA
BRANCH  18  28
ATOM     28  O   UNL     1      44.552  11.462  -3.986  1.00  0.00    -0.502 OA
ATOM     29  H   UNL     1      45.138  10.841  -3.450  1.00  0.00     0.293 HD
ENDBRANCH  18  28
BRANCH  20  30
ATOM     30  O   UNL     1      41.806  12.372  -3.810  1.00  0.00    -0.504 OA
ATOM     31  H   UNL     1      40.998  12.661  -4.339  1.00  0.00     0.293 HD
ENDBRANCH  20  30
BRANCH  25  32
ATOM     32  C   UNL     1      42.135  18.609  -1.872  1.00  0.00     0.017 A 
ATOM     33  C   UNL     1      42.759  19.610  -2.640  1.00  0.00     0.012 A 
ATOM     34  C   UNL     1      41.352  18.992  -0.762  1.00  0.00     0.012 A 
ATOM     35  C   UNL     1      42.618  20.960  -2.298  1.00  0.00     0.001 A 
ATOM     36  C   UNL     1      41.219  20.343  -0.421  1.00  0.00     0.001 A 
ATOM     37  C   UNL     1      41.851  21.326  -1.187  1.00  0.00     0.000 A 
ENDBRANCH  25  32
ENDBRANCH   1  17
TORSDOF 9
ENDMDL
MODEL 6
REMARK VINA RESULT:    -5.375      1.615      2.353
REMARK INTER + INTRA:          -8.472
REMARK INTER:                  -7.397
REMARK INTRA:                  -1.075
REMARK UNBOUND:                -1.054
REMARK SMILES O=C([O-])[C@H]1O[C@H](Oc2cc3oc(-c4ccccc4)cc(=O)c3c(O)c2O)[C@@H](O)[C@H](O)[C@H]1O
REMARK SMILES IDX 7 1 6 2 4 3 31 4 5 5 29 6 27 7 2 8 1 9 3 10 32 11 30 13
REMARK SMILES IDX 28 15 8 17 25 18 9 19 23 20 10 21 22 22 11 23 20 24 12 25
REMARK SMILES IDX 19 26 21 27 26 28 24 30 13 32 14 33 18 34 15 35 17 36 16 37
REMARK H PARENT 32 12 30 14 28 16 26 29 24 31
REMARK Flexibility Score: inf
ROOT
ATOM      1  O   UNL     1      42.310  17.437  -1.358  1.00  0.00    -0.458 OA
ENDROOT
BRANCH   1   2
ATOM      2  C   UNL     1      42.286  18.859  -1.569  1.00  0.00     0.339 C 
ATOM      3  C   UNL     1      42.836  19.224  -3.864  1.00  0.00     0.199 C 
ATOM      4  C   UNL     1      41.551  20.026  -4.145  1.00  0.00     0.180 C 
ATOM      5  O   UNL     1      43.252  19.323  -2.510  1.00  0.00    -0.328 OA
ATOM      6  C   UNL     1      40.409  19.491  -3.266  1.00  0.00     0.181 C 
ATOM      7  C   UNL     1      40.831  19.383  -1.786  1.00  0.00     0.214 C 
BRANCH   3   8
ATOM      8  C   UNL     1      43.953  19.698  -4.751  1.00  0.00     0.073 C 
ATOM      9  O   UNL     1      44.650  18.867  -5.394  1.00  0.00    -0.547 OA
ATOM     10  O   UNL     1      44.252  21.053  -4.834  1.00  0.00    -0.547 OA
ENDBRANCH   3   8
BRANCH   4  11
ATOM     11  O   UNL     1      41.716  21.417  -3.987  1.00  0.00    -0.387 OA
ATOM     12  H   UNL     1      42.676  21.645  -4.103  1.00  0.00     0.211 HD
ENDBRANCH   4  11
BRANCH   6  13
ATOM     13  O   UNL     1      40.022  18.218  -3.725  1.00  0.00    -0.387 OA
ATOM     14  H   UNL     1      39.060  18.281  -3.969  1.00  0.00     0.211 HD
ENDBRANCH   6  13
BRANCH   7  15
ATOM     15  O   UNL     1      40.605  20.606  -1.123  1.00  0.00    -0.384 OA
ATOM     16  H   UNL     1      39.627  20.777  -1.095  1.00  0.00     0.211 HD
ENDBRANCH   7  15
ENDBRANCH   1   2
BRANCH   1  17
ATOM     17  C   UNL     1      42.885  16.474  -2.193  1.00  0.00     0.172 A 
ATOM     18  C   UNL     1      42.056  15.516  -2.793  1.00  0.00     0.201 A 
ATOM     19  C   UNL     1      44.269  16.440  -2.397  1.00  0.00     0.098 A 
ATOM     20  C   UNL     1      42.616  14.530  -3.646  1.00  0.00     0.176 A 
ATOM     21  C   UNL     1      44.833  15.490  -3.247  1.00  0.00     0.146 A 
ATOM     22  C   UNL     1      44.013  14.531  -3.890  1.00  0.00     0.111 A 
ATOM     23  O   UNL     1      46.149  15.494  -3.439  1.00  0.00    -0.456 OA
ATOM     24  C   UNL     1      44.646  13.604  -4.746  1.00  0.00     0.197 A 
ATOM     25  C   UNL     1      46.776  14.622  -4.228  1.00  0.00     0.138 A 
ATOM     26  C   UNL     1      46.028  13.657  -4.920  1.00  0.00     0.100 A 
ATOM     27  O   UNL     1      43.989  12.726  -5.366  1.00  0.00    -0.289 OA
BRANCH  18  28
ATOM     28  O   UNL     1      40.686  15.592  -2.530  1.00  0.00    -0.502 OA
ATOM     29  H   UNL     1      40.249  15.248  -1.688  1.00  0.00     0.293 HD
ENDBRANCH  18  28
BRANCH  20  30
ATOM     30  O   UNL     1      41.817  13.549  -4.246  1.00  0.00    -0.504 OA
ATOM     31  H   UNL     1      41.635  12.642  -3.844  1.00  0.00     0.293 HD
ENDBRANCH  20  30
BRANCH  25  32
ATOM     32  C   UNL     1      48.253  14.700  -4.352  1.00  0.00     0.017 A 
ATOM     33  C   UNL     1      49.025  13.527  -4.255  1.00  0.00     0.012 A 
ATOM     34  C   UNL     1      48.906  15.923  -4.616  1.00  0.00     0.012 A 
ATOM     35  C   UNL     1      50.417  13.577  -4.403  1.00  0.00     0.001 A 
ATOM     36  C   UNL     1      50.297  15.968  -4.759  1.00  0.00     0.001 A 
ATOM     37  C   UNL     1      51.052  14.797  -4.651  1.00  0.00     0.000 A 
ENDBRANCH  25  32
ENDBRANCH   1  17
TORSDOF 9
ENDMDL
MODEL 7
REMARK VINA RESULT:    -5.081      1.985      8.141
REMARK INTER + INTRA:          -8.066
REMARK INTER:                  -6.990
REMARK INTRA:                  -1.076
REMARK UNBOUND:                -1.054
REMARK SMILES O=C([O-])[C@H]1O[C@H](Oc2cc3oc(-c4ccccc4)cc(=O)c3c(O)c2O)[C@@H](O)[C@H](O)[C@H]1O
REMARK SMILES IDX 7 1 6 2 4 3 31 4 5 5 29 6 27 7 2 8 1 9 3 10 32 11 30 13
REMARK SMILES IDX 28 15 8 17 25 18 9 19 23 20 10 21 22 22 11 23 20 24 12 25
REMARK SMILES IDX 19 26 21 27 26 28 24 30 13 32 14 33 18 34 15 35 17 36 16 37
REMARK H PARENT 32 12 30 14 28 16 26 29 24 31
REMARK Flexibility Score: inf
ROOT
ATOM      1  O   UNL     1      46.585  13.780  -3.592  1.00  0.00    -0.458 OA
ENDROOT
BRANCH   1   2
ATOM      2  C   UNL     1      47.415  13.481  -4.728  1.00  0.00     0.339 C 
ATOM      3  C   UNL     1      49.484  14.625  -4.389  1.00  0.00     0.199 C 
ATOM      4  C   UNL     1      50.327  13.342  -4.518  1.00  0.00     0.180 C 
ATOM      5  O   UNL     1      48.270  14.553  -5.121  1.00  0.00    -0.328 OA
ATOM      6  C   UNL     1      49.527  12.145  -3.978  1.00  0.00     0.181 C 
ATOM      7  C   UNL     1      48.108  12.089  -4.582  1.00  0.00     0.214 C 
BRANCH   3   8
ATOM      8  C   UNL     1      50.269  15.816  -4.864  1.00  0.00     0.073 C 
ATOM      9  O   UNL     1      49.674  16.817  -5.346  1.00  0.00    -0.547 OA
ATOM     10  O   UNL     1      51.658  15.803  -4.812  1.00  0.00    -0.547 OA
ENDBRANCH   3   8
BRANCH   4  11
ATOM     11  O   UNL     1      50.786  13.106  -5.830  1.00  0.00    -0.387 OA
ATOM     12  H   UNL     1      51.638  13.598  -5.968  1.00  0.00     0.211 HD
ENDBRANCH   4  11
BRANCH   6  13
ATOM     13  O   UNL     1      49.424  12.243  -2.578  1.00  0.00    -0.387 OA
ATOM     14  H   UNL     1      49.218  11.330  -2.241  1.00  0.00     0.211 HD
ENDBRANCH   6  13
BRANCH   7  15
ATOM     15  O   UNL     1      48.122  11.375  -5.797  1.00  0.00    -0.384 OA
ATOM     16  H   UNL     1      48.795  10.648  -5.732  1.00  0.00     0.211 HD
ENDBRANCH   7  15
ENDBRANCH   1   2
BRANCH   1  17
ATOM     17  C   UNL     1      45.384  14.495  -3.597  1.00  0.00     0.172 A 
ATOM     18  C   UNL     1      44.215  13.858  -3.157  1.00  0.00     0.201 A 
ATOM     19  C   UNL     1      45.337  15.811  -4.070  1.00  0.00     0.098 A 
ATOM     20  C   UNL     1      42.984  14.562  -3.151  1.00  0.00     0.176 A 
ATOM     21  C   UNL     1      44.139  16.524  -4.053  1.00  0.00     0.146 A 
ATOM     22  C   UNL     1      42.951  15.913  -3.584  1.00  0.00     0.111 A 
ATOM     23  O   UNL     1      44.128  17.781  -4.488  1.00  0.00    -0.456 OA
ATOM     24  C   UNL     1      41.776  16.694  -3.583  1.00  0.00     0.197 A 
ATOM     25  C   UNL     1      43.031  18.536  -4.513  1.00  0.00     0.138 A 
ATOM     26  C   UNL     1      41.819  18.010  -4.041  1.00  0.00     0.100 A 
ATOM     27  O   UNL     1      40.678  16.231  -3.171  1.00  0.00    -0.289 OA
BRANCH  18  28
ATOM     28  O   UNL     1      44.326  12.535  -2.720  1.00  0.00    -0.502 OA
ATOM     29  H   UNL     1      45.196  12.092  -2.464  1.00  0.00     0.293 HD
ENDBRANCH  18  28
BRANCH  20  30
ATOM     30  O   UNL     1      41.796  13.948  -2.735  1.00  0.00    -0.504 OA
ATOM     31  H   UNL     1      41.654  12.951  -2.705  1.00  0.00     0.293 HD
ENDBRANCH  20  30
BRANCH  25  32
ATOM     32  C   UNL     1      43.125  19.920  -5.044  1.00  0.00     0.017 A 
ATOM     33  C   UNL     1      44.348  20.388  -5.562  1.00  0.00     0.012 A 
ATOM     34  C   UNL     1      41.998  20.768  -5.090  1.00  0.00     0.012 A 
ATOM     35  C   UNL     1      44.446  21.678  -6.098  1.00  0.00     0.001 A 
ATOM     36  C   UNL     1      42.103  22.058  -5.623  1.00  0.00     0.001 A 
ATOM     37  C   UNL     1      43.325  22.513  -6.125  1.00  0.00     0.000 A 
ENDBRANCH  25  32
ENDBRANCH   1  17
TORSDOF 9
ENDMDL
MODEL 8
REMARK VINA RESULT:    -5.047      2.630      8.397
REMARK INTER + INTRA:          -8.019
REMARK INTER:                  -7.021
REMARK INTRA:                  -0.998
REMARK UNBOUND:                -1.054
REMARK SMILES O=C([O-])[C@H]1O[C@H](Oc2cc3oc(-c4ccccc4)cc(=O)c3c(O)c2O)[C@@H](O)[C@H](O)[C@H]1O
REMARK SMILES IDX 7 1 6 2 4 3 31 4 5 5 29 6 27 7 2 8 1 9 3 10 32 11 30 13
REMARK SMILES IDX 28 15 8 17 25 18 9 19 23 20 10 21 22 22 11 23 20 24 12 25
REMARK SMILES IDX 19 26 21 27 26 28 24 30 13 32 14 33 18 34 15 35 17 36 16 37
REMARK H PARENT 32 12 30 14 28 16 26 29 24 31
REMARK Flexibility Score: inf
ROOT
ATOM      1  O   UNL     1      45.637  12.642  -4.644  1.00  0.00    -0.458 OA
ENDROOT
BRANCH   1   2
ATOM      2  C   UNL     1      46.505  11.734  -3.944  1.00  0.00     0.339 C 
ATOM      3  C   UNL     1      48.733  12.538  -4.249  1.00  0.00     0.199 C 
ATOM      4  C   UNL     1      49.016  12.619  -2.737  1.00  0.00     0.180 C 
ATOM      5  O   UNL     1      47.772  11.542  -4.570  1.00  0.00    -0.328 OA
ATOM      6  C   UNL     1      47.717  12.966  -1.990  1.00  0.00     0.181 C 
ATOM      7  C   UNL     1      46.552  12.048  -2.415  1.00  0.00     0.214 C 
BRANCH   3   8
ATOM      8  C   UNL     1      50.001  12.250  -5.004  1.00  0.00     0.073 C 
ATOM      9  O   UNL     1      50.364  11.061  -5.206  1.00  0.00    -0.547 OA
ATOM     10  O   UNL     1      50.803  13.297  -5.445  1.00  0.00    -0.547 OA
ENDBRANCH   3   8
BRANCH   4  11
ATOM     11  O   UNL     1      49.614  11.452  -2.218  1.00  0.00    -0.387 OA
ATOM     12  H   UNL     1      50.480  11.693  -1.797  1.00  0.00     0.211 HD
ENDBRANCH   4  11
BRANCH   6  13
ATOM     13  O   UNL     1      47.366  14.302  -2.256  1.00  0.00    -0.387 OA
ATOM     14  H   UNL     1      47.743  14.526  -3.149  1.00  0.00     0.211 HD
ENDBRANCH   6  13
BRANCH   7  15
ATOM     15  O   UNL     1      46.544  10.875  -1.634  1.00  0.00    -0.384 OA
ATOM     16  H   UNL     1      46.034  10.173  -2.117  1.00  0.00     0.211 HD
ENDBRANCH   7  15
ENDBRANCH   1   2
BRANCH   1  17
ATOM     17  C   UNL     1      44.467  13.229  -4.153  1.00  0.00     0.172 A 
ATOM     18  C   UNL     1      43.310  12.444  -4.044  1.00  0.00     0.201 A 
ATOM     19  C   UNL     1      44.436  14.586  -3.813  1.00  0.00     0.098 A 
ATOM     20  C   UNL     1      42.110  13.016  -3.547  1.00  0.00     0.176 A 
ATOM     21  C   UNL     1      43.271  15.160  -3.306  1.00  0.00     0.146 A 
ATOM     22  C   UNL     1      42.098  14.380  -3.157  1.00  0.00     0.111 A 
ATOM     23  O   UNL     1      43.276  16.447  -2.971  1.00  0.00    -0.456 OA
ATOM     24  C   UNL     1      40.956  15.019  -2.627  1.00  0.00     0.197 A 
ATOM     25  C   UNL     1      42.210  17.080  -2.484  1.00  0.00     0.138 A 
ATOM     26  C   UNL     1      41.016  16.369  -2.283  1.00  0.00     0.100 A 
ATOM     27  O   UNL     1      39.875  14.396  -2.450  1.00  0.00    -0.289 OA
BRANCH  18  28
ATOM     28  O   UNL     1      43.403  11.102  -4.422  1.00  0.00    -0.502 OA
ATOM     29  H   UNL     1      44.262  10.644  -4.685  1.00  0.00     0.293 HD
ENDBRANCH  18  28
BRANCH  20  30
ATOM     30  O   UNL     1      40.934  12.264  -3.444  1.00  0.00    -0.504 OA
ATOM     31  H   UNL     1      40.318  12.065  -4.216  1.00  0.00     0.293 HD
ENDBRANCH  20  30
BRANCH  25  32
ATOM     32  C   UNL     1      42.317  18.527  -2.168  1.00  0.00     0.017 A 
ATOM     33  C   UNL     1      43.249  19.326  -2.857  1.00  0.00     0.012 A 
ATOM     34  C   UNL     1      41.467  19.137  -1.221  1.00  0.00     0.012 A 
ATOM     35  C   UNL     1      43.341  20.698  -2.596  1.00  0.00     0.001 A 
ATOM     36  C   UNL     1      41.566  20.509  -0.961  1.00  0.00     0.001 A 
ATOM     37  C   UNL     1      42.502  21.288  -1.646  1.00  0.00     0.000 A 
ENDBRANCH  25  32
ENDBRANCH   1  17
TORSDOF 9
ENDMDL
MODEL 9
REMARK VINA RESULT:    -4.971      1.442      3.087
REMARK INTER + INTRA:          -7.915
REMARK INTER:                  -6.919
REMARK INTRA:                  -0.995
REMARK UNBOUND:                -1.054
REMARK SMILES O=C([O-])[C@H]1O[C@H](Oc2cc3oc(-c4ccccc4)cc(=O)c3c(O)c2O)[C@@H](O)[C@H](O)[C@H]1O
REMARK SMILES IDX 7 1 6 2 4 3 31 4 5 5 29 6 27 7 2 8 1 9 3 10 32 11 30 13
REMARK SMILES IDX 28 15 8 17 25 18 9 19 23 20 10 21 22 22 11 23 20 24 12 25
REMARK SMILES IDX 19 26 21 27 26 28 24 30 13 32 14 33 18 34 15 35 17 36 16 37
REMARK H PARENT 32 12 30 14 28 16 26 29 24 31
REMARK Flexibility Score: inf
ROOT
ATOM      1  O   UNL     1      42.074  17.641  -5.860  1.00  0.00    -0.458 OA
ENDROOT
BRANCH   1   2
ATOM      2  C   UNL     1      41.524  18.826  -5.259  1.00  0.00     0.339 C 
ATOM      3  C   UNL     1      42.516  19.025  -3.095  1.00  0.00     0.199 C 
ATOM      4  C   UNL     1      43.049  20.446  -3.363  1.00  0.00     0.180 C 
ATOM      5  O   UNL     1      41.347  18.732  -3.846  1.00  0.00    -0.328 OA
ATOM      6  C   UNL     1      43.403  20.589  -4.852  1.00  0.00     0.181 C 
ATOM      7  C   UNL     1      42.250  20.114  -5.761  1.00  0.00     0.214 C 
BRANCH   3   8
ATOM      8  C   UNL     1      42.212  18.846  -1.634  1.00  0.00     0.073 C 
ATOM      9  O   UNL     1      41.844  17.725  -1.194  1.00  0.00    -0.547 OA
ATOM     10  O   UNL     1      42.295  19.930  -0.767  1.00  0.00    -0.547 OA
ENDBRANCH   3   8
BRANCH   4  11
ATOM     11  O   UNL     1      42.165  21.461  -2.942  1.00  0.00    -0.387 OA
ATOM     12  H   UNL     1      41.513  21.644  -3.668  1.00  0.00     0.211 HD
ENDBRANCH   4  11
BRANCH   6  13
ATOM     13  O   UNL     1      44.552  19.828  -5.136  1.00  0.00    -0.387 OA
ATOM     14  H   UNL     1      44.279  18.872  -5.102  1.00  0.00     0.211 HD
ENDBRANCH   6  13
BRANCH   7  15
ATOM     15  O   UNL     1      41.349  21.170  -5.999  1.00  0.00    -0.384 OA
ATOM     16  H   UNL     1      40.422  20.818  -5.942  1.00  0.00     0.211 HD
ENDBRANCH   7  15
ENDBRANCH   1   2
BRANCH   1  17
ATOM     17  C   UNL     1      42.804  16.636  -5.218  1.00  0.00     0.172 A 
ATOM     18  C   UNL     1      42.117  15.681  -4.456  1.00  0.00     0.201 A 
ATOM     19  C   UNL     1      44.201  16.605  -5.298  1.00  0.00     0.098 A 
ATOM     20  C   UNL     1      42.835  14.651  -3.796  1.00  0.00     0.176 A 
ATOM     21  C   UNL     1      44.921  15.589  -4.672  1.00  0.00     0.146 A 
ATOM     22  C   UNL     1      44.247  14.595  -3.923  1.00  0.00     0.111 A 
ATOM     23  O   UNL     1      46.246  15.572  -4.783  1.00  0.00    -0.456 OA
ATOM     24  C   UNL     1      45.035  13.589  -3.323  1.00  0.00     0.197 A 
ATOM     25  C   UNL     1      47.016  14.645  -4.215  1.00  0.00     0.138 A 
ATOM     26  C   UNL     1      46.420  13.611  -3.477  1.00  0.00     0.100 A 
ATOM     27  O   UNL     1      44.514  12.659  -2.649  1.00  0.00    -0.289 OA
BRANCH  18  28
ATOM     28  O   UNL     1      40.724  15.783  -4.397  1.00  0.00    -0.502 OA
ATOM     29  H   UNL     1      40.200  15.912  -3.546  1.00  0.00     0.293 HD
ENDBRANCH  18  28
BRANCH  20  30
ATOM     30  O   UNL     1      42.180  13.694  -3.013  1.00  0.00    -0.504 OA
ATOM     31  H   UNL     1      41.318  13.860  -2.517  1.00  0.00     0.293 HD
ENDBRANCH  20  30
BRANCH  25  32
ATOM     32  C   UNL     1      48.489  14.735  -4.382  1.00  0.00     0.017 A 
ATOM     33  C   UNL     1      49.275  13.571  -4.291  1.00  0.00     0.012 A 
ATOM     34  C   UNL     1      49.121  15.960  -4.682  1.00  0.00     0.012 A 
ATOM     35  C   UNL     1      50.661  13.632  -4.479  1.00  0.00     0.001 A 
ATOM     36  C   UNL     1      50.507  16.016  -4.864  1.00  0.00     0.001 A 
ATOM     37  C   UNL     1      51.277  14.854  -4.762  1.00  0.00     0.000 A 
ENDBRANCH  25  32
ENDBRANCH   1  17
TORSDOF 9
ENDMDL
