MODEL 1
REMARK VINA RESULT:    -2.392      0.000      0.000
REMARK INTER + INTRA:          -2.703
REMARK INTER:                  -2.671
REMARK INTRA:                  -0.032
REMARK UNBOUND:                -0.032
REMARK SMILES CCCC(=O)[O-]
REMARK SMILES IDX 3 1 4 2 5 3 6 4 2 5 1 6
REMARK H PARENT
REMARK Flexibility Score: inf
ROOT
ATOM      1  C   UNL     1      60.931  31.068  61.835  1.00  0.00     0.052 C 
ENDROOT
BRANCH   1   2
ATOM      2  C   UNL     1      62.060  30.089  61.769  1.00  0.00     0.041 C 
ATOM      3  O   UNL     1      61.825  28.853  61.715  1.00  0.00    -0.550 OA
ATOM      4  O   UNL     1      63.372  30.542  61.718  1.00  0.00    -0.550 OA
ENDBRANCH   1   2
BRANCH   1   5
ATOM      5  C   UNL     1      60.795  31.818  60.507  1.00  0.00     0.003 C 
ATOM      6  C   UNL     1      61.387  33.221  60.604  1.00  0.00     0.004 C 
ENDBRANCH   1   5
TORSDOF 2
ENDMDL
MODEL 2
REMARK VINA RESULT:    -2.377      3.681      4.431
REMARK INTER + INTRA:          -2.687
REMARK INTER:                  -2.675
REMARK INTRA:                  -0.012
REMARK UNBOUND:                -0.032
REMARK SMILES CCCC(=O)[O-]
REMARK SMILES IDX 3 1 4 2 5 3 6 4 2 5 1 6
REMARK H PARENT
REMARK Flexibility Score: inf
ROOT
ATOM      1  C   UNL     1      62.471  34.543  60.617  1.00  0.00     0.052 C 
ENDROOT
BRANCH   1   2
ATOM      2  C   UNL     1      63.843  34.161  61.075  1.00  0.00     0.041 C 
ATOM      3  O   UNL     1      64.497  34.930  61.828  1.00  0.00    -0.550 OA
ATOM      4  O   UNL     1      64.381  32.934  60.710  1.00  0.00    -0.550 OA
ENDBRANCH   1   2
BRANCH   1   5
ATOM      5  C   UNL     1      62.148  35.981  61.032  1.00  0.00     0.003 C 
ATOM      6  C   UNL     1      60.733  36.369  60.617  1.00  0.00     0.004 C 
ENDBRANCH   1   5
TORSDOF 2
ENDMDL
MODEL 3
REMARK VINA RESULT:    -2.373     13.620     14.328
REMARK INTER + INTRA:          -2.682
REMARK INTER:                  -2.671
REMARK INTRA:                  -0.012
REMARK UNBOUND:                -0.032
REMARK SMILES CCCC(=O)[O-]
REMARK SMILES IDX 3 1 4 2 5 3 6 4 2 5 1 6
REMARK H PARENT
REMARK Flexibility Score: inf
ROOT
ATOM      1  C   UNL     1      53.572  27.542  49.721  1.00  0.00     0.052 C 
ENDROOT
BRANCH   1   2
ATOM      2  C   UNL     1      54.333  26.265  49.551  1.00  0.00     0.041 C 
ATOM      3  O   UNL     1      55.588  26.256  49.653  1.00  0.00    -0.550 OA
ATOM      4  O   UNL     1      53.652  25.075  49.330  1.00  0.00    -0.550 OA
ENDBRANCH   1   2
BRANCH   1   5
ATOM      5  C   UNL     1      54.477  28.631  50.305  1.00  0.00     0.003 C 
ATOM      6  C   UNL     1      53.709  29.934  50.507  1.00  0.00     0.004 C 
ENDBRANCH   1   5
TORSDOF 2
ENDMDL
MODEL 4
REMARK VINA RESULT:    -2.366     11.821     12.426
REMARK INTER + INTRA:          -2.675
REMARK INTER:                  -2.640
REMARK INTRA:                  -0.036
REMARK UNBOUND:                -0.032
REMARK SMILES CCCC(=O)[O-]
REMARK SMILES IDX 3 1 4 2 5 3 6 4 2 5 1 6
REMARK H PARENT
REMARK Flexibility Score: inf
ROOT
ATOM      1  C   UNL     1      58.865  29.215  49.096  1.00  0.00     0.052 C 
ENDROOT
BRANCH   1   2
ATOM      2  C   UNL     1      59.756  28.026  49.267  1.00  0.00     0.041 C 
ATOM      3  O   UNL     1      60.999  28.179  49.400  1.00  0.00    -0.550 OA
ATOM      4  O   UNL     1      59.209  26.751  49.331  1.00  0.00    -0.550 OA
ENDBRANCH   1   2
BRANCH   1   5
ATOM      5  C   UNL     1      58.224  29.601  50.432  1.00  0.00     0.003 C 
ATOM      6  C   UNL     1      56.809  29.042  50.545  1.00  0.00     0.004 C 
ENDBRANCH   1   5
TORSDOF 2
ENDMDL
MODEL 5
REMARK VINA RESULT:    -2.313      1.518      1.801
REMARK INTER + INTRA:          -2.615
REMARK INTER:                  -2.591
REMARK INTRA:                  -0.025
REMARK UNBOUND:                -0.032
REMARK SMILES CCCC(=O)[O-]
REMARK SMILES IDX 3 1 4 2 5 3 6 4 2 5 1 6
REMARK H PARENT
REMARK Flexibility Score: inf
ROOT
ATOM      1  C   UNL     1      62.287  31.927  60.742  1.00  0.00     0.052 C 
ENDROOT
BRANCH   1   2
ATOM      2  C   UNL     1      61.593  30.964  61.652  1.00  0.00     0.041 C 
ATOM      3  O   UNL     1      60.483  31.264  62.166  1.00  0.00    -0.550 OA
ATOM      4  O   UNL     1      62.146  29.713  61.892  1.00  0.00    -0.550 OA
ENDBRANCH   1   2
BRANCH   1   5
ATOM      5  C   UNL     1      61.445  33.193  60.559  1.00  0.00     0.003 C 
ATOM      6  C   UNL     1      62.305  34.448  60.675  1.00  0.00     0.004 C 
ENDBRANCH   1   5
TORSDOF 2
ENDMDL
MODEL 6
REMARK VINA RESULT:    -2.296     12.302     12.633
REMARK INTER + INTRA:          -2.597
REMARK INTER:                  -2.573
REMARK INTRA:                  -0.024
REMARK UNBOUND:                -0.032
REMARK SMILES CCCC(=O)[O-]
REMARK SMILES IDX 3 1 4 2 5 3 6 4 2 5 1 6
REMARK H PARENT
REMARK Flexibility Score: inf
ROOT
ATOM      1  C   UNL     1      57.903  27.967  50.176  1.00  0.00     0.052 C 
ENDROOT
BRANCH   1   2
ATOM      2  C   UNL     1      58.948  28.673  49.372  1.00  0.00     0.041 C 
ATOM      3  O   UNL     1      58.742  29.841  48.951  1.00  0.00    -0.550 OA
ATOM      4  O   UNL     1      60.171  28.061  49.131  1.00  0.00    -0.550 OA
ENDBRANCH   1   2
BRANCH   1   5
ATOM      5  C   UNL     1      56.759  28.922  50.527  1.00  0.00     0.003 C 
ATOM      6  C   UNL     1      55.405  28.232  50.394  1.00  0.00     0.004 C 
ENDBRANCH   1   5
TORSDOF 2
ENDMDL
MODEL 7
REMARK VINA RESULT:    -2.226      9.946     10.453
REMARK INTER + INTRA:          -2.518
REMARK INTER:                  -2.455
REMARK INTRA:                  -0.063
REMARK UNBOUND:                -0.032
REMARK SMILES CCCC(=O)[O-]
REMARK SMILES IDX 3 1 4 2 5 3 6 4 2 5 1 6
REMARK H PARENT
REMARK Flexibility Score: inf
ROOT
ATOM      1  C   UNL     1      72.766  31.199  60.317  1.00  0.00     0.052 C 
ENDROOT
BRANCH   1   2
ATOM      2  C   UNL     1      72.295  30.595  61.602  1.00  0.00     0.041 C 
ATOM      3  O   UNL     1      71.171  30.031  61.663  1.00  0.00    -0.550 OA
ATOM      4  O   UNL     1      73.118  30.611  62.720  1.00  0.00    -0.550 OA
ENDBRANCH   1   2
BRANCH   1   5
ATOM      5  C   UNL     1      71.708  32.150  59.752  1.00  0.00     0.003 C 
ATOM      6  C   UNL     1      71.569  33.397  60.620  1.00  0.00     0.004 C 
ENDBRANCH   1   5
TORSDOF 2
ENDMDL
MODEL 8
REMARK VINA RESULT:    -2.197     12.907     13.597
REMARK INTER + INTRA:          -2.485
REMARK INTER:                  -2.476
REMARK INTRA:                  -0.010
REMARK UNBOUND:                -0.032
REMARK SMILES CCCC(=O)[O-]
REMARK SMILES IDX 3 1 4 2 5 3 6 4 2 5 1 6
REMARK H PARENT
REMARK Flexibility Score: inf
ROOT
ATOM      1  C   UNL     1      55.023  27.651  50.091  1.00  0.00     0.052 C 
ENDROOT
BRANCH   1   2
ATOM      2  C   UNL     1      56.429  28.101  50.338  1.00  0.00     0.041 C 
ATOM      3  O   UNL     1      56.677  29.316  50.550  1.00  0.00    -0.550 OA
ATOM      4  O   UNL     1      57.458  27.170  50.383  1.00  0.00    -0.550 OA
ENDBRANCH   1   2
BRANCH   1   5
ATOM      5  C   UNL     1      55.000  26.191  49.629  1.00  0.00     0.003 C 
ATOM      6  C   UNL     1      53.649  25.827  49.024  1.00  0.00     0.004 C 
ENDBRANCH   1   5
TORSDOF 2
ENDMDL
MODEL 9
REMARK VINA RESULT:    -2.168      2.163      2.698
REMARK INTER + INTRA:          -2.453
REMARK INTER:                  -2.417
REMARK INTRA:                  -0.036
REMARK UNBOUND:                -0.032
REMARK SMILES CCCC(=O)[O-]
REMARK SMILES IDX 3 1 4 2 5 3 6 4 2 5 1 6
REMARK H PARENT
REMARK Flexibility Score: inf
ROOT
ATOM      1  C   UNL     1      62.800  30.517  60.486  1.00  0.00     0.052 C 
ENDROOT
BRANCH   1   2
ATOM      2  C   UNL     1      64.115  31.176  60.757  1.00  0.00     0.041 C 
ATOM      3  O   UNL     1      65.188  30.531  60.620  1.00  0.00    -0.550 OA
ATOM      4  O   UNL     1      64.160  32.518  61.112  1.00  0.00    -0.550 OA
ENDBRANCH   1   2
BRANCH   1   5
ATOM      5  C   UNL     1      62.018  30.325  61.789  1.00  0.00     0.003 C 
ATOM      6  C   UNL     1      60.745  31.166  61.796  1.00  0.00     0.004 C 
ENDBRANCH   1   5
TORSDOF 2
ENDMDL
