MODEL 1
REMARK VINA RESULT:    -6.775      0.000      0.000
REMARK INTER + INTRA:         -12.854
REMARK INTER:                 -10.736
REMARK INTRA:                  -2.118
REMARK UNBOUND:                -2.118
REMARK SMILES C[C@@H]1O[C@@H](O[C@H]2[C@H](Oc3cc(O)c4c(c3)O[C@H](c3ccc(O)cc3)CC4=O)O[C@H](CO)[C@@H](O)[C@@H]2O)[C@H](O)[C@H](O)[C@H]1O
REMARK SMILES IDX 6 1 34 2 32 3 29 4 28 5 7 6 5 7 4 8 1 9 2 10 40 11 3 12
REMARK SMILES IDX 38 13 36 14 41 15 39 17 37 19 35 21 8 23 9 24 10 25 15 26
REMARK SMILES IDX 11 27 14 28 13 29 16 30 26 31 17 32 27 33 25 34 12 35 18 37
REMARK SMILES IDX 19 38 24 39 20 40 23 41 21 42 22 43 33 45 30 47 31 48
REMARK H PARENT 41 16 39 18 37 20 35 22 12 36 22 44 33 46 31 49
REMARK Flexibility Score: inf
ROOT
ATOM      1  C   UNL     1     124.399 133.505 111.052  1.00  0.00     0.221 C 
ATOM      2  C   UNL     1     123.167 134.296 110.501  1.00  0.00     0.181 C 
ATOM      3  C   UNL     1     121.952 133.375 110.420  1.00  0.00     0.177 C 
ATOM      4  C   UNL     1     121.792 132.689 111.790  1.00  0.00     0.179 C 
ATOM      5  O   UNL     1     122.793 131.716 111.971  1.00  0.00    -0.332 OA
ATOM      6  C   UNL     1     124.140 132.171 111.849  1.00  0.00     0.339 C 
ENDROOT
BRANCH   1   7
ATOM      7  O   UNL     1     125.449 134.281 111.632  1.00  0.00    -0.337 OA
BRANCH   7   8
ATOM      8  C   UNL     1     126.602 134.552 110.834  1.00  0.00     0.282 C 
ATOM      9  C   UNL     1     129.370 133.195 110.226  1.00  0.00     0.041 C 
ATOM     10  C   UNL     1     128.979 134.447 111.024  1.00  0.00     0.150 C 
ATOM     11  C   UNL     1     129.069 135.745 110.177  1.00  0.00     0.174 C 
ATOM     12  O   UNL     1     127.720 134.275 111.665  1.00  0.00    -0.344 OA
ATOM     13  C   UNL     1     127.959 136.715 110.611  1.00  0.00     0.179 C 
ATOM     14  C   UNL     1     126.595 136.039 110.340  1.00  0.00     0.202 C 
BRANCH  11  15
ATOM     15  O   UNL     1     130.336 136.341 110.291  1.00  0.00    -0.388 OA
ATOM     16  H   UNL     1     130.324 136.925 111.098  1.00  0.00     0.211 HD
ENDBRANCH  11  15
BRANCH  13  17
ATOM     17  O   UNL     1     128.067 137.964 109.965  1.00  0.00    -0.387 OA
ATOM     18  H   UNL     1     127.747 138.667 110.596  1.00  0.00     0.211 HD
ENDBRANCH  13  17
BRANCH  14  19
ATOM     19  O   UNL     1     126.327 136.116 108.958  1.00  0.00    -0.385 OA
ATOM     20  H   UNL     1     126.869 135.443 108.473  1.00  0.00     0.211 HD
ENDBRANCH  14  19
ENDBRANCH   7   8
ENDBRANCH   1   7
BRANCH   2  21
ATOM     21  O   UNL     1     123.472 134.812 109.226  1.00  0.00    -0.387 OA
ATOM     22  H   UNL     1     123.318 135.796 109.254  1.00  0.00     0.211 HD
ENDBRANCH   2  21
BRANCH   6  23
ATOM     23  O   UNL     1     124.917 131.119 111.259  1.00  0.00    -0.462 OA
BRANCH  23  24
ATOM     24  C   UNL     1     125.983 130.514 111.940  1.00  0.00     0.130 A 
ATOM     25  C   UNL     1     125.962 130.415 113.335  1.00  0.00     0.093 A 
ATOM     26  C   UNL     1     127.087 130.027 111.228  1.00  0.00     0.094 A 
ATOM     27  C   UNL     1     127.083 129.939 114.034  1.00  0.00     0.133 A 
ATOM     28  C   UNL     1     128.211 129.557 111.910  1.00  0.00     0.138 A 
ATOM     29  C   UNL     1     128.226 129.522 113.318  1.00  0.00     0.102 A 
ATOM     30  O   UNL     1     129.324 129.130 111.170  1.00  0.00    -0.484 OA
ATOM     31  C   UNL     1     129.477 129.097 113.987  1.00  0.00     0.174 C 
ATOM     32  C   UNL     1     130.497 128.541 111.754  1.00  0.00     0.211 C 
ATOM     33  O   UNL     1     129.513 128.857 115.227  1.00  0.00    -0.294 OA
ATOM     34  C   UNL     1     130.748 129.053 113.187  1.00  0.00     0.131 C 
BRANCH  27  35
ATOM     35  O   UNL     1     127.067 129.907 115.431  1.00  0.00    -0.507 OA
ATOM     36  H   UNL     1     127.862 129.575 115.964  1.00  0.00     0.293 HD
ENDBRANCH  27  35
BRANCH  32  37
ATOM     37  C   UNL     1     130.442 127.026 111.704  1.00  0.00    -0.007 A 
ATOM     38  C   UNL     1     131.599 126.237 111.849  1.00  0.00     0.011 A 
ATOM     39  C   UNL     1     129.216 126.386 111.443  1.00  0.00     0.011 A 
ATOM     40  C   UNL     1     131.529 124.845 111.750  1.00  0.00     0.046 A 
ATOM     41  C   UNL     1     129.146 124.994 111.354  1.00  0.00     0.046 A 
ATOM     42  C   UNL     1     130.304 124.218 111.506  1.00  0.00     0.115 A 
BRANCH  42  43
ATOM     43  O   UNL     1     130.247 122.829 111.418  1.00  0.00    -0.508 OA
ATOM     44  H   UNL     1     130.825 122.245 112.011  1.00  0.00     0.293 HD
ENDBRANCH  42  43
ENDBRANCH  32  37
ENDBRANCH  23  24
ENDBRANCH   6  23
BRANCH   3  45
ATOM     45  O   UNL     1     120.806 134.132 110.115  1.00  0.00    -0.387 OA
ATOM     46  H   UNL     1     120.029 133.628 110.466  1.00  0.00     0.211 HD
ENDBRANCH   3  45
BRANCH   4  47
ATOM     47  C   UNL     1     120.424 131.997 111.926  1.00  0.00     0.191 C 
BRANCH  47  48
ATOM     48  O   UNL     1     119.524 132.791 112.656  1.00  0.00    -0.394 OA
ATOM     49  H   UNL     1     119.169 133.480 112.038  1.00  0.00     0.210 HD
ENDBRANCH  47  48
ENDBRANCH   4  47
TORSDOF 14
ENDMDL
MODEL 2
REMARK VINA RESULT:    -6.752      3.235      6.029
REMARK INTER + INTRA:         -12.817
REMARK INTER:                 -11.086
REMARK INTRA:                  -1.731
REMARK UNBOUND:                -2.118
REMARK SMILES C[C@@H]1O[C@@H](O[C@H]2[C@H](Oc3cc(O)c4c(c3)O[C@H](c3ccc(O)cc3)CC4=O)O[C@H](CO)[C@@H](O)[C@@H]2O)[C@H](O)[C@H](O)[C@H]1O
REMARK SMILES IDX 6 1 34 2 32 3 29 4 28 5 7 6 5 7 4 8 1 9 2 10 40 11 3 12
REMARK SMILES IDX 38 13 36 14 41 15 39 17 37 19 35 21 8 23 9 24 10 25 15 26
REMARK SMILES IDX 11 27 14 28 13 29 16 30 26 31 17 32 27 33 25 34 12 35 18 37
REMARK SMILES IDX 19 38 24 39 20 40 23 41 21 42 22 43 33 45 30 47 31 48
REMARK H PARENT 41 16 39 18 37 20 35 22 12 36 22 44 33 46 31 49
REMARK Flexibility Score: inf
ROOT
ATOM      1  C   UNL     1     128.136 130.341 111.523  1.00  0.00     0.221 C 
ATOM      2  C   UNL     1     126.851 130.830 112.269  1.00  0.00     0.181 C 
ATOM      3  C   UNL     1     126.517 129.873 113.411  1.00  0.00     0.177 C 
ATOM      4  C   UNL     1     127.792 129.687 114.255  1.00  0.00     0.179 C 
ATOM      5  O   UNL     1     128.724 128.888 113.565  1.00  0.00    -0.332 OA
ATOM      6  C   UNL     1     129.104 129.346 112.269  1.00  0.00     0.339 C 
ENDROOT
BRANCH   1   7
ATOM      7  O   UNL     1     128.852 131.324 110.772  1.00  0.00    -0.337 OA
BRANCH   7   8
ATOM      8  C   UNL     1     128.447 132.687 110.896  1.00  0.00     0.282 C 
ATOM      9  C   UNL     1     125.773 134.332 110.765  1.00  0.00     0.041 C 
ATOM     10  C   UNL     1     126.976 134.226 109.817  1.00  0.00     0.150 C 
ATOM     11  C   UNL     1     128.026 135.345 110.059  1.00  0.00     0.174 C 
ATOM     12  O   UNL     1     127.531 132.916 109.835  1.00  0.00    -0.344 OA
ATOM     13  C   UNL     1     129.434 134.786 109.804  1.00  0.00     0.179 C 
ATOM     14  C   UNL     1     129.688 133.641 110.812  1.00  0.00     0.202 C 
BRANCH  11  15
ATOM     15  O   UNL     1     127.771 136.465 109.250  1.00  0.00    -0.388 OA
ATOM     16  H   UNL     1     127.179 136.173 108.504  1.00  0.00     0.211 HD
ENDBRANCH  11  15
BRANCH  13  17
ATOM     17  O   UNL     1     130.422 135.789 109.884  1.00  0.00    -0.387 OA
ATOM     18  H   UNL     1     130.440 136.131 110.821  1.00  0.00     0.211 HD
ENDBRANCH  13  17
BRANCH  14  19
ATOM     19  O   UNL     1     129.979 134.211 112.068  1.00  0.00    -0.385 OA
ATOM     20  H   UNL     1     130.614 133.633 112.560  1.00  0.00     0.211 HD
ENDBRANCH  14  19
ENDBRANCH   7   8
ENDBRANCH   1   7
BRANCH   2  21
ATOM     21  O   UNL     1     125.777 130.897 111.360  1.00  0.00    -0.387 OA
ATOM     22  H   UNL     1     125.513 131.854 111.276  1.00  0.00     0.211 HD
ENDBRANCH   2  21
BRANCH   6  23
ATOM     23  O   UNL     1     129.323 128.200 111.434  1.00  0.00    -0.462 OA
BRANCH  23  24
ATOM     24  C   UNL     1     130.474 127.407 111.551  1.00  0.00     0.130 A 
ATOM     25  C   UNL     1     130.433 126.052 111.208  1.00  0.00     0.093 A 
ATOM     26  C   UNL     1     131.664 127.962 112.036  1.00  0.00     0.094 A 
ATOM     27  C   UNL     1     131.538 125.220 111.452  1.00  0.00     0.133 A 
ATOM     28  C   UNL     1     132.769 127.145 112.291  1.00  0.00     0.138 A 
ATOM     29  C   UNL     1     132.711 125.765 112.016  1.00  0.00     0.102 A 
ATOM     30  O   UNL     1     133.929 127.722 112.831  1.00  0.00    -0.484 OA
ATOM     31  C   UNL     1     133.880 124.936 112.387  1.00  0.00     0.174 C 
ATOM     32  C   UNL     1     135.154 127.004 113.047  1.00  0.00     0.211 C 
ATOM     33  O   UNL     1     133.986 123.736 112.005  1.00  0.00    -0.294 OA
ATOM     34  C   UNL     1     134.906 125.507 113.325  1.00  0.00     0.131 C 
BRANCH  27  35
ATOM     35  O   UNL     1     131.456 123.855 111.161  1.00  0.00    -0.507 OA
ATOM     36  H   UNL     1     131.893 123.461 110.337  1.00  0.00     0.293 HD
ENDBRANCH  27  35
BRANCH  32  37
ATOM     37  C   UNL     1     136.125 127.206 111.900  1.00  0.00    -0.007 A 
ATOM     38  C   UNL     1     135.800 128.002 110.785  1.00  0.00     0.011 A 
ATOM     39  C   UNL     1     137.361 126.532 111.911  1.00  0.00     0.011 A 
ATOM     40  C   UNL     1     136.693 128.133 109.719  1.00  0.00     0.046 A 
ATOM     41  C   UNL     1     138.256 126.672 110.849  1.00  0.00     0.046 A 
ATOM     42  C   UNL     1     137.923 127.472 109.747  1.00  0.00     0.115 A 
BRANCH  42  43
ATOM     43  O   UNL     1     138.807 127.618 108.679  1.00  0.00    -0.508 OA
ATOM     44  H   UNL     1     138.574 128.202 107.885  1.00  0.00     0.293 HD
ENDBRANCH  42  43
ENDBRANCH  32  37
ENDBRANCH  23  24
ENDBRANCH   6  23
BRANCH   3  45
ATOM     45  O   UNL     1     125.485 130.418 114.197  1.00  0.00    -0.387 OA
ATOM     46  H   UNL     1     125.387 131.365 113.923  1.00  0.00     0.211 HD
ENDBRANCH   3  45
BRANCH   4  47
ATOM     47  C   UNL     1     127.489 129.009 115.604  1.00  0.00     0.191 C 
BRANCH  47  48
ATOM     48  O   UNL     1     127.091 129.952 116.566  1.00  0.00    -0.394 OA
ATOM     49  H   UNL     1     126.100 129.926 116.612  1.00  0.00     0.210 HD
ENDBRANCH  47  48
ENDBRANCH   4  47
TORSDOF 14
ENDMDL
MODEL 3
REMARK VINA RESULT:    -6.659      2.791      4.593
REMARK INTER + INTRA:         -12.669
REMARK INTER:                 -11.004
REMARK INTRA:                  -1.666
REMARK UNBOUND:                -2.118
REMARK SMILES C[C@@H]1O[C@@H](O[C@H]2[C@H](Oc3cc(O)c4c(c3)O[C@H](c3ccc(O)cc3)CC4=O)O[C@H](CO)[C@@H](O)[C@@H]2O)[C@H](O)[C@H](O)[C@H]1O
REMARK SMILES IDX 6 1 34 2 32 3 29 4 28 5 7 6 5 7 4 8 1 9 2 10 40 11 3 12
REMARK SMILES IDX 38 13 36 14 41 15 39 17 37 19 35 21 8 23 9 24 10 25 15 26
REMARK SMILES IDX 11 27 14 28 13 29 16 30 26 31 17 32 27 33 25 34 12 35 18 37
REMARK SMILES IDX 19 38 24 39 20 40 23 41 21 42 22 43 33 45 30 47 31 48
REMARK H PARENT 41 16 39 18 37 20 35 22 12 36 22 44 33 46 31 49
REMARK Flexibility Score: inf
ROOT
ATOM      1  C   UNL     1     123.286 132.338 109.355  1.00  0.00     0.221 C 
ATOM      2  C   UNL     1     122.271 131.418 108.599  1.00  0.00     0.181 C 
ATOM      3  C   UNL     1     120.945 131.376 109.356  1.00  0.00     0.177 C 
ATOM      4  C   UNL     1     120.512 132.830 109.623  1.00  0.00     0.179 C 
ATOM      5  O   UNL     1     121.317 133.404 110.626  1.00  0.00    -0.332 OA
ATOM      6  C   UNL     1     122.724 133.390 110.385  1.00  0.00     0.339 C 
ENDROOT
BRANCH   1   7
ATOM      7  O   UNL     1     124.366 132.867 108.583  1.00  0.00    -0.337 OA
BRANCH   7   8
ATOM      8  C   UNL     1     124.192 134.149 107.980  1.00  0.00     0.282 C 
ATOM      9  C   UNL     1     122.015 135.626 106.262  1.00  0.00     0.041 C 
ATOM     10  C   UNL     1     123.405 135.071 105.924  1.00  0.00     0.150 C 
ATOM     11  C   UNL     1     124.518 136.149 106.021  1.00  0.00     0.174 C 
ATOM     12  O   UNL     1     123.687 133.896 106.676  1.00  0.00    -0.344 OA
ATOM     13  C   UNL     1     125.816 135.499 106.526  1.00  0.00     0.179 C 
ATOM     14  C   UNL     1     125.552 134.928 107.938  1.00  0.00     0.202 C 
BRANCH  11  15
ATOM     15  O   UNL     1     124.719 136.788 104.786  1.00  0.00    -0.388 OA
ATOM     16  H   UNL     1     125.430 137.474 104.912  1.00  0.00     0.211 HD
ENDBRANCH  11  15
BRANCH  13  17
ATOM     17  O   UNL     1     126.898 136.402 106.515  1.00  0.00    -0.387 OA
ATOM     18  H   UNL     1     127.629 136.002 105.968  1.00  0.00     0.211 HD
ENDBRANCH  13  17
BRANCH  14  19
ATOM     19  O   UNL     1     125.555 135.997 108.857  1.00  0.00    -0.385 OA
ATOM     20  H   UNL     1     124.863 135.846 109.550  1.00  0.00     0.211 HD
ENDBRANCH  14  19
ENDBRANCH   7   8
ENDBRANCH   1   7
BRANCH   2  21
ATOM     21  O   UNL     1     122.807 130.121 108.485  1.00  0.00    -0.387 OA
ATOM     22  H   UNL     1     122.722 129.843 107.532  1.00  0.00     0.211 HD
ENDBRANCH   2  21
BRANCH   6  23
ATOM     23  O   UNL     1     123.392 133.211 111.642  1.00  0.00    -0.462 OA
BRANCH  23  24
ATOM     24  C   UNL     1     124.755 132.892 111.717  1.00  0.00     0.130 A 
ATOM     25  C   UNL     1     125.722 133.870 111.465  1.00  0.00     0.093 A 
ATOM     26  C   UNL     1     125.156 131.585 112.021  1.00  0.00     0.094 A 
ATOM     27  C   UNL     1     127.083 133.529 111.401  1.00  0.00     0.133 A 
ATOM     28  C   UNL     1     126.505 131.230 111.955  1.00  0.00     0.138 A 
ATOM     29  C   UNL     1     127.479 132.194 111.630  1.00  0.00     0.102 A 
ATOM     30  O   UNL     1     126.870 129.899 112.209  1.00  0.00    -0.484 OA
ATOM     31  C   UNL     1     128.881 131.740 111.488  1.00  0.00     0.174 C 
ATOM     32  C   UNL     1     128.229 129.436 112.262  1.00  0.00     0.211 C 
ATOM     33  O   UNL     1     129.834 132.564 111.388  1.00  0.00    -0.294 OA
ATOM     34  C   UNL     1     129.159 130.269 111.357  1.00  0.00     0.131 C 
BRANCH  27  35
ATOM     35  O   UNL     1     128.030 134.508 111.085  1.00  0.00    -0.507 OA
ATOM     36  H   UNL     1     128.661 134.881 111.783  1.00  0.00     0.293 HD
ENDBRANCH  27  35
BRANCH  32  37
ATOM     37  C   UNL     1     128.740 129.380 113.689  1.00  0.00    -0.007 A 
ATOM     38  C   UNL     1     130.110 129.509 113.990  1.00  0.00     0.011 A 
ATOM     39  C   UNL     1     127.839 129.130 114.739  1.00  0.00     0.011 A 
ATOM     40  C   UNL     1     130.562 129.406 115.308  1.00  0.00     0.046 A 
ATOM     41  C   UNL     1     128.291 129.036 116.057  1.00  0.00     0.046 A 
ATOM     42  C   UNL     1     129.656 129.172 116.346  1.00  0.00     0.115 A 
BRANCH  42  43
ATOM     43  O   UNL     1     130.120 129.079 117.656  1.00  0.00    -0.508 OA
ATOM     44  H   UNL     1     129.809 129.731 118.367  1.00  0.00     0.293 HD
ENDBRANCH  42  43
ENDBRANCH  32  37
ENDBRANCH  23  24
ENDBRANCH   6  23
BRANCH   3  45
ATOM     45  O   UNL     1     119.978 130.714 108.576  1.00  0.00    -0.387 OA
ATOM     46  H   UNL     1     119.416 131.416 108.162  1.00  0.00     0.211 HD
ENDBRANCH   3  45
BRANCH   4  47
ATOM     47  C   UNL     1     119.045 132.913 110.085  1.00  0.00     0.191 C 
BRANCH  47  48
ATOM     48  O   UNL     1     118.947 133.502 111.357  1.00  0.00    -0.394 OA
ATOM     49  H   UNL     1     118.257 134.213 111.301  1.00  0.00     0.210 HD
ENDBRANCH  47  48
ENDBRANCH   4  47
TORSDOF 14
ENDMDL
MODEL 4
REMARK VINA RESULT:    -6.595      2.963      4.766
REMARK INTER + INTRA:         -12.568
REMARK INTER:                  -9.995
REMARK INTRA:                  -2.573
REMARK UNBOUND:                -2.118
REMARK SMILES C[C@@H]1O[C@@H](O[C@H]2[C@H](Oc3cc(O)c4c(c3)O[C@H](c3ccc(O)cc3)CC4=O)O[C@H](CO)[C@@H](O)[C@@H]2O)[C@H](O)[C@H](O)[C@H]1O
REMARK SMILES IDX 6 1 34 2 32 3 29 4 28 5 7 6 5 7 4 8 1 9 2 10 40 11 3 12
REMARK SMILES IDX 38 13 36 14 41 15 39 17 37 19 35 21 8 23 9 24 10 25 15 26
REMARK SMILES IDX 11 27 14 28 13 29 16 30 26 31 17 32 27 33 25 34 12 35 18 37
REMARK SMILES IDX 19 38 24 39 20 40 23 41 21 42 22 43 33 45 30 47 31 48
REMARK H PARENT 41 16 39 18 37 20 35 22 12 36 22 44 33 46 31 49
REMARK Flexibility Score: inf
ROOT
ATOM      1  C   UNL     1     123.055 132.749 108.830  1.00  0.00     0.221 C 
ATOM      2  C   UNL     1     121.794 132.570 107.922  1.00  0.00     0.181 C 
ATOM      3  C   UNL     1     120.526 132.786 108.745  1.00  0.00     0.177 C 
ATOM      4  C   UNL     1     120.674 134.127 109.489  1.00  0.00     0.179 C 
ATOM      5  O   UNL     1     121.600 134.004 110.542  1.00  0.00    -0.332 OA
ATOM      6  C   UNL     1     122.901 133.543 110.182  1.00  0.00     0.339 C 
ENDROOT
BRANCH   1   7
ATOM      7  O   UNL     1     124.283 133.054 108.165  1.00  0.00    -0.337 OA
BRANCH   7   8
ATOM      8  C   UNL     1     125.014 131.975 107.581  1.00  0.00     0.282 C 
ATOM      9  C   UNL     1     126.949 129.696 108.548  1.00  0.00     0.041 C 
ATOM     10  C   UNL     1     127.179 130.983 107.743  1.00  0.00     0.150 C 
ATOM     11  C   UNL     1     127.143 130.740 106.209  1.00  0.00     0.174 C 
ATOM     12  O   UNL     1     126.305 132.021 108.172  1.00  0.00    -0.344 OA
ATOM     13  C   UNL     1     126.529 131.964 105.513  1.00  0.00     0.179 C 
ATOM     14  C   UNL     1     125.079 132.132 106.023  1.00  0.00     0.202 C 
BRANCH  11  15
ATOM     15  O   UNL     1     128.426 130.462 105.707  1.00  0.00    -0.388 OA
ATOM     16  H   UNL     1     128.907 131.330 105.609  1.00  0.00     0.211 HD
ENDBRANCH  11  15
BRANCH  13  17
ATOM     17  O   UNL     1     126.586 131.857 104.109  1.00  0.00    -0.387 OA
ATOM     18  H   UNL     1     126.510 132.774 103.725  1.00  0.00     0.211 HD
ENDBRANCH  13  17
BRANCH  14  19
ATOM     19  O   UNL     1     124.269 131.174 105.381  1.00  0.00    -0.385 OA
ATOM     20  H   UNL     1     124.154 130.384 105.967  1.00  0.00     0.211 HD
ENDBRANCH  14  19
ENDBRANCH   7   8
ENDBRANCH   1   7
BRANCH   2  21
ATOM     21  O   UNL     1     121.797 131.278 107.362  1.00  0.00    -0.387 OA
ATOM     22  H   UNL     1     120.880 131.098 107.016  1.00  0.00     0.211 HD
ENDBRANCH   2  21
BRANCH   6  23
ATOM     23  O   UNL     1     123.404 132.734 111.255  1.00  0.00    -0.462 OA
BRANCH  23  24
ATOM     24  C   UNL     1     124.777 132.537 111.453  1.00  0.00     0.130 A 
ATOM     25  C   UNL     1     125.673 133.599 111.291  1.00  0.00     0.093 A 
ATOM     26  C   UNL     1     125.265 131.268 111.791  1.00  0.00     0.094 A 
ATOM     27  C   UNL     1     127.059 133.381 111.349  1.00  0.00     0.133 A 
ATOM     28  C   UNL     1     126.641 131.035 111.846  1.00  0.00     0.138 A 
ATOM     29  C   UNL     1     127.550 132.085 111.611  1.00  0.00     0.102 A 
ATOM     30  O   UNL     1     127.099 129.739 112.130  1.00  0.00    -0.484 OA
ATOM     31  C   UNL     1     128.994 131.759 111.597  1.00  0.00     0.174 C 
ATOM     32  C   UNL     1     128.483 129.399 112.306  1.00  0.00     0.211 C 
ATOM     33  O   UNL     1     129.875 132.666 111.584  1.00  0.00    -0.294 OA
ATOM     34  C   UNL     1     129.413 130.320 111.490  1.00  0.00     0.131 C 
BRANCH  27  35
ATOM     35  O   UNL     1     127.938 134.443 111.121  1.00  0.00    -0.507 OA
ATOM     36  H   UNL     1     128.924 134.289 110.950  1.00  0.00     0.293 HD
ENDBRANCH  27  35
BRANCH  32  37
ATOM     37  C   UNL     1     128.868 129.376 113.773  1.00  0.00    -0.007 A 
ATOM     38  C   UNL     1     130.202 129.541 114.192  1.00  0.00     0.011 A 
ATOM     39  C   UNL     1     127.882 129.119 114.743  1.00  0.00     0.011 A 
ATOM     40  C   UNL     1     130.537 129.467 115.546  1.00  0.00     0.046 A 
ATOM     41  C   UNL     1     128.217 129.055 116.097  1.00  0.00     0.046 A 
ATOM     42  C   UNL     1     129.548 129.227 116.503  1.00  0.00     0.115 A 
BRANCH  42  43
ATOM     43  O   UNL     1     129.895 129.164 117.851  1.00  0.00    -0.508 OA
ATOM     44  H   UNL     1     130.594 129.786 118.239  1.00  0.00     0.293 HD
ENDBRANCH  42  43
ENDBRANCH  32  37
ENDBRANCH  23  24
ENDBRANCH   6  23
BRANCH   3  45
ATOM     45  O   UNL     1     119.409 132.821 107.890  1.00  0.00    -0.387 OA
ATOM     46  H   UNL     1     118.889 131.996 108.066  1.00  0.00     0.211 HD
ENDBRANCH   3  45
BRANCH   4  47
ATOM     47  C   UNL     1     119.334 134.599 110.086  1.00  0.00     0.191 C 
BRANCH  47  48
ATOM     48  O   UNL     1     119.296 135.999 110.199  1.00  0.00    -0.394 OA
ATOM     49  H   UNL     1     119.023 136.360 109.316  1.00  0.00     0.210 HD
ENDBRANCH  47  48
ENDBRANCH   4  47
TORSDOF 14
ENDMDL
MODEL 5
REMARK VINA RESULT:    -6.577      2.694      5.768
REMARK INTER + INTRA:         -12.539
REMARK INTER:                 -10.077
REMARK INTRA:                  -2.463
REMARK UNBOUND:                -2.118
REMARK SMILES C[C@@H]1O[C@@H](O[C@H]2[C@H](Oc3cc(O)c4c(c3)O[C@H](c3ccc(O)cc3)CC4=O)O[C@H](CO)[C@@H](O)[C@@H]2O)[C@H](O)[C@H](O)[C@H]1O
REMARK SMILES IDX 6 1 34 2 32 3 29 4 28 5 7 6 5 7 4 8 1 9 2 10 40 11 3 12
REMARK SMILES IDX 38 13 36 14 41 15 39 17 37 19 35 21 8 23 9 24 10 25 15 26
REMARK SMILES IDX 11 27 14 28 13 29 16 30 26 31 17 32 27 33 25 34 12 35 18 37
REMARK SMILES IDX 19 38 24 39 20 40 23 41 21 42 22 43 33 45 30 47 31 48
REMARK H PARENT 41 16 39 18 37 20 35 22 12 36 22 44 33 46 31 49
REMARK Flexibility Score: inf
ROOT
ATOM      1  C   UNL     1     125.684 133.924 110.454  1.00  0.00     0.221 C 
ATOM      2  C   UNL     1     125.330 135.446 110.391  1.00  0.00     0.181 C 
ATOM      3  C   UNL     1     126.558 136.280 110.749  1.00  0.00     0.177 C 
ATOM      4  C   UNL     1     127.727 135.792 109.873  1.00  0.00     0.179 C 
ATOM      5  O   UNL     1     128.180 134.535 110.315  1.00  0.00    -0.332 OA
ATOM      6  C   UNL     1     127.200 133.500 110.375  1.00  0.00     0.339 C 
ENDROOT
BRANCH   1   7
ATOM      7  O   UNL     1     124.840 133.040 109.712  1.00  0.00    -0.337 OA
BRANCH   7   8
ATOM      8  C   UNL     1     123.770 132.397 110.404  1.00  0.00     0.282 C 
ATOM      9  C   UNL     1     120.811 131.528 109.801  1.00  0.00     0.041 C 
ATOM     10  C   UNL     1     121.411 132.637 110.676  1.00  0.00     0.150 C 
ATOM     11  C   UNL     1     121.573 132.204 112.159  1.00  0.00     0.174 C 
ATOM     12  O   UNL     1     122.606 133.155 110.103  1.00  0.00    -0.344 OA
ATOM     13  C   UNL     1     122.834 132.857 112.746  1.00  0.00     0.179 C 
ATOM     14  C   UNL     1     124.056 132.353 111.944  1.00  0.00     0.202 C 
BRANCH  11  15
ATOM     15  O   UNL     1     120.434 132.532 112.913  1.00  0.00    -0.388 OA
ATOM     16  H   UNL     1     120.593 132.230 113.849  1.00  0.00     0.211 HD
ENDBRANCH  11  15
BRANCH  13  17
ATOM     17  O   UNL     1     122.965 132.603 114.126  1.00  0.00    -0.387 OA
ATOM     18  H   UNL     1     123.820 133.014 114.436  1.00  0.00     0.211 HD
ENDBRANCH  13  17
BRANCH  14  19
ATOM     19  O   UNL     1     124.356 131.043 112.370  1.00  0.00    -0.385 OA
ATOM     20  H   UNL     1     124.868 131.074 113.217  1.00  0.00     0.211 HD
ENDBRANCH  14  19
ENDBRANCH   7   8
ENDBRANCH   1   7
BRANCH   2  21
ATOM     21  O   UNL     1     124.277 135.722 111.285  1.00  0.00    -0.387 OA
ATOM     22  H   UNL     1     123.927 134.849 111.615  1.00  0.00     0.211 HD
ENDBRANCH   2  21
BRANCH   6  23
ATOM     23  O   UNL     1     127.505 132.657 111.494  1.00  0.00    -0.462 OA
BRANCH  23  24
ATOM     24  C   UNL     1     127.722 131.280 111.346  1.00  0.00     0.130 A 
ATOM     25  C   UNL     1     127.833 130.459 112.473  1.00  0.00     0.093 A 
ATOM     26  C   UNL     1     127.854 130.722 110.068  1.00  0.00     0.094 A 
ATOM     27  C   UNL     1     128.190 129.107 112.340  1.00  0.00     0.133 A 
ATOM     28  C   UNL     1     128.215 129.380 109.921  1.00  0.00     0.138 A 
ATOM     29  C   UNL     1     128.400 128.564 111.054  1.00  0.00     0.102 A 
ATOM     30  O   UNL     1     128.396 128.864 108.628  1.00  0.00    -0.484 OA
ATOM     31  C   UNL     1     128.867 127.176 110.838  1.00  0.00     0.174 C 
ATOM     32  C   UNL     1     128.674 127.483 108.348  1.00  0.00     0.211 C 
ATOM     33  O   UNL     1     128.874 126.329 111.777  1.00  0.00    -0.294 OA
ATOM     34  C   UNL     1     129.439 126.802 109.500  1.00  0.00     0.131 C 
BRANCH  27  35
ATOM     35  O   UNL     1     128.358 128.318 113.481  1.00  0.00    -0.507 OA
ATOM     36  H   UNL     1     128.614 127.340 113.418  1.00  0.00     0.293 HD
ENDBRANCH  27  35
BRANCH  32  37
ATOM     37  C   UNL     1     127.410 126.724 107.992  1.00  0.00    -0.007 A 
ATOM     38  C   UNL     1     127.320 125.326 108.135  1.00  0.00     0.011 A 
ATOM     39  C   UNL     1     126.316 127.418 107.443  1.00  0.00     0.011 A 
ATOM     40  C   UNL     1     126.162 124.644 107.754  1.00  0.00     0.046 A 
ATOM     41  C   UNL     1     125.155 126.736 107.072  1.00  0.00     0.046 A 
ATOM     42  C   UNL     1     125.075 125.345 107.225  1.00  0.00     0.115 A 
BRANCH  42  43
ATOM     43  O   UNL     1     123.923 124.653 106.856  1.00  0.00    -0.508 OA
ATOM     44  H   UNL     1     123.437 124.060 107.518  1.00  0.00     0.293 HD
ENDBRANCH  42  43
ENDBRANCH  32  37
ENDBRANCH  23  24
ENDBRANCH   6  23
BRANCH   3  45
ATOM     45  O   UNL     1     126.294 137.640 110.500  1.00  0.00    -0.387 OA
ATOM     46  H   UNL     1     125.319 137.769 110.625  1.00  0.00     0.211 HD
ENDBRANCH   3  45
BRANCH   4  47
ATOM     47  C   UNL     1     128.917 136.769 109.914  1.00  0.00     0.191 C 
BRANCH  47  48
ATOM     48  O   UNL     1     128.791 137.762 108.928  1.00  0.00    -0.394 OA
ATOM     49  H   UNL     1     129.136 138.608 109.316  1.00  0.00     0.210 HD
ENDBRANCH  47  48
ENDBRANCH   4  47
TORSDOF 14
ENDMDL
MODEL 6
REMARK VINA RESULT:    -6.547      3.039      5.430
REMARK INTER + INTRA:         -12.493
REMARK INTER:                 -10.199
REMARK INTRA:                  -2.294
REMARK UNBOUND:                -2.118
REMARK SMILES C[C@@H]1O[C@@H](O[C@H]2[C@H](Oc3cc(O)c4c(c3)O[C@H](c3ccc(O)cc3)CC4=O)O[C@H](CO)[C@@H](O)[C@@H]2O)[C@H](O)[C@H](O)[C@H]1O
REMARK SMILES IDX 6 1 34 2 32 3 29 4 28 5 7 6 5 7 4 8 1 9 2 10 40 11 3 12
REMARK SMILES IDX 38 13 36 14 41 15 39 17 37 19 35 21 8 23 9 24 10 25 15 26
REMARK SMILES IDX 11 27 14 28 13 29 16 30 26 31 17 32 27 33 25 34 12 35 18 37
REMARK SMILES IDX 19 38 24 39 20 40 23 41 21 42 22 43 33 45 30 47 31 48
REMARK H PARENT 41 16 39 18 37 20 35 22 12 36 22 44 33 46 31 49
REMARK Flexibility Score: inf
ROOT
ATOM      1  C   UNL     1     127.300 130.122 109.664  1.00  0.00     0.221 C 
ATOM      2  C   UNL     1     126.086 131.109 109.692  1.00  0.00     0.181 C 
ATOM      3  C   UNL     1     125.305 130.935 110.993  1.00  0.00     0.177 C 
ATOM      4  C   UNL     1     126.310 131.022 112.158  1.00  0.00     0.179 C 
ATOM      5  O   UNL     1     127.094 129.854 112.216  1.00  0.00    -0.332 OA
ATOM      6  C   UNL     1     127.809 129.519 111.028  1.00  0.00     0.339 C 
ENDROOT
BRANCH   1   7
ATOM      7  O   UNL     1     128.378 130.460 108.791  1.00  0.00    -0.337 OA
BRANCH   7   8
ATOM      8  C   UNL     1     129.471 131.203 109.332  1.00  0.00     0.282 C 
ATOM      9  C   UNL     1     129.879 133.656 111.253  1.00  0.00     0.041 C 
ATOM     10  C   UNL     1     130.063 133.479 109.740  1.00  0.00     0.150 C 
ATOM     11  C   UNL     1     131.527 133.130 109.354  1.00  0.00     0.174 C 
ATOM     12  O   UNL     1     129.106 132.571 109.207  1.00  0.00    -0.344 OA
ATOM     13  C   UNL     1     131.524 132.179 108.147  1.00  0.00     0.179 C 
ATOM     14  C   UNL     1     130.795 130.879 108.559  1.00  0.00     0.202 C 
BRANCH  11  15
ATOM     15  O   UNL     1     132.273 134.290 109.084  1.00  0.00    -0.388 OA
ATOM     16  H   UNL     1     132.740 134.552 109.924  1.00  0.00     0.211 HD
ENDBRANCH  11  15
BRANCH  13  17
ATOM     17  O   UNL     1     132.826 131.927 107.671  1.00  0.00    -0.387 OA
ATOM     18  H   UNL     1     133.433 132.624 108.046  1.00  0.00     0.211 HD
ENDBRANCH  13  17
BRANCH  14  19
ATOM     19  O   UNL     1     131.672 130.111 109.351  1.00  0.00    -0.385 OA
ATOM     20  H   UNL     1     132.426 129.785 108.798  1.00  0.00     0.211 HD
ENDBRANCH  14  19
ENDBRANCH   7   8
ENDBRANCH   1   7
BRANCH   2  21
ATOM     21  O   UNL     1     125.251 130.859 108.586  1.00  0.00    -0.387 OA
ATOM     22  H   UNL     1     124.464 131.466 108.659  1.00  0.00     0.211 HD
ENDBRANCH   2  21
BRANCH   6  23
ATOM     23  O   UNL     1     127.850 128.089 110.917  1.00  0.00    -0.462 OA
BRANCH  23  24
ATOM     24  C   UNL     1     129.037 127.366 111.096  1.00  0.00     0.130 A 
ATOM     25  C   UNL     1     129.118 126.032 110.684  1.00  0.00     0.093 A 
ATOM     26  C   UNL     1     130.142 127.968 111.711  1.00  0.00     0.094 A 
ATOM     27  C   UNL     1     130.252 125.259 110.985  1.00  0.00     0.133 A 
ATOM     28  C   UNL     1     131.274 127.210 112.022  1.00  0.00     0.138 A 
ATOM     29  C   UNL     1     131.334 125.846 111.676  1.00  0.00     0.102 A 
ATOM     30  O   UNL     1     132.342 127.828 112.690  1.00  0.00    -0.484 OA
ATOM     31  C   UNL     1     132.520 125.073 112.108  1.00  0.00     0.174 C 
ATOM     32  C   UNL     1     133.590 127.179 112.978  1.00  0.00     0.211 C 
ATOM     33  O   UNL     1     132.739 123.905 111.678  1.00  0.00    -0.294 OA
ATOM     34  C   UNL     1     133.422 125.656 113.159  1.00  0.00     0.131 C 
BRANCH  27  35
ATOM     35  O   UNL     1     130.288 123.910 110.621  1.00  0.00    -0.507 OA
ATOM     36  H   UNL     1     129.935 123.185 111.234  1.00  0.00     0.293 HD
ENDBRANCH  27  35
BRANCH  32  37
ATOM     37  C   UNL     1     134.640 127.504 111.932  1.00  0.00    -0.007 A 
ATOM     38  C   UNL     1     134.313 128.177 110.739  1.00  0.00     0.011 A 
ATOM     39  C   UNL     1     135.965 127.070 112.122  1.00  0.00     0.011 A 
ATOM     40  C   UNL     1     135.288 128.421 109.770  1.00  0.00     0.046 A 
ATOM     41  C   UNL     1     136.941 127.324 111.156  1.00  0.00     0.046 A 
ATOM     42  C   UNL     1     136.605 128.000 109.975  1.00  0.00     0.115 A 
BRANCH  42  43
ATOM     43  O   UNL     1     137.569 128.258 109.002  1.00  0.00    -0.508 OA
ATOM     44  H   UNL     1     137.552 127.777 108.111  1.00  0.00     0.293 HD
ENDBRANCH  42  43
ENDBRANCH  32  37
ENDBRANCH  23  24
ENDBRANCH   6  23
BRANCH   3  45
ATOM     45  O   UNL     1     124.340 131.953 111.103  1.00  0.00    -0.387 OA
ATOM     46  H   UNL     1     124.444 132.349 112.005  1.00  0.00     0.211 HD
ENDBRANCH   3  45
BRANCH   4  47
ATOM     47  C   UNL     1     125.598 131.186 113.514  1.00  0.00     0.191 C 
BRANCH  47  48
ATOM     48  O   UNL     1     124.330 130.584 113.496  1.00  0.00    -0.394 OA
ATOM     49  H   UNL     1     124.434 129.686 113.088  1.00  0.00     0.210 HD
ENDBRANCH  47  48
ENDBRANCH   4  47
TORSDOF 14
ENDMDL
MODEL 7
REMARK VINA RESULT:    -6.544      3.477      7.152
REMARK INTER + INTRA:         -12.488
REMARK INTER:                 -10.641
REMARK INTRA:                  -1.846
REMARK UNBOUND:                -2.118
REMARK SMILES C[C@@H]1O[C@@H](O[C@H]2[C@H](Oc3cc(O)c4c(c3)O[C@H](c3ccc(O)cc3)CC4=O)O[C@H](CO)[C@@H](O)[C@@H]2O)[C@H](O)[C@H](O)[C@H]1O
REMARK SMILES IDX 6 1 34 2 32 3 29 4 28 5 7 6 5 7 4 8 1 9 2 10 40 11 3 12
REMARK SMILES IDX 38 13 36 14 41 15 39 17 37 19 35 21 8 23 9 24 10 25 15 26
REMARK SMILES IDX 11 27 14 28 13 29 16 30 26 31 17 32 27 33 25 34 12 35 18 37
REMARK SMILES IDX 19 38 24 39 20 40 23 41 21 42 22 43 33 45 30 47 31 48
REMARK H PARENT 41 16 39 18 37 20 35 22 12 36 22 44 33 46 31 49
REMARK Flexibility Score: inf
ROOT
ATOM      1  C   UNL     1     128.937 131.326 110.528  1.00  0.00     0.221 C 
ATOM      2  C   UNL     1     129.833 132.594 110.341  1.00  0.00     0.181 C 
ATOM      3  C   UNL     1     131.251 132.177 109.957  1.00  0.00     0.177 C 
ATOM      4  C   UNL     1     131.147 131.207 108.765  1.00  0.00     0.179 C 
ATOM      5  O   UNL     1     130.659 129.957 109.192  1.00  0.00    -0.332 OA
ATOM      6  C   UNL     1     129.405 129.972 109.871  1.00  0.00     0.339 C 
ENDROOT
BRANCH   1   7
ATOM      7  O   UNL     1     127.525 131.518 110.415  1.00  0.00    -0.337 OA
BRANCH   7   8
ATOM      8  C   UNL     1     126.811 131.935 111.578  1.00  0.00     0.282 C 
ATOM      9  C   UNL     1     125.537 130.597 114.120  1.00  0.00     0.041 C 
ATOM     10  C   UNL     1     124.926 131.243 112.869  1.00  0.00     0.150 C 
ATOM     11  C   UNL     1     124.568 132.739 113.085  1.00  0.00     0.174 C 
ATOM     12  O   UNL     1     125.738 131.014 111.723  1.00  0.00    -0.344 OA
ATOM     13  C   UNL     1     124.800 133.512 111.777  1.00  0.00     0.179 C 
ATOM     14  C   UNL     1     126.298 133.407 111.413  1.00  0.00     0.202 C 
BRANCH  11  15
ATOM     15  O   UNL     1     123.245 132.887 113.534  1.00  0.00    -0.388 OA
ATOM     16  H   UNL     1     123.272 133.389 114.394  1.00  0.00     0.211 HD
ENDBRANCH  11  15
BRANCH  13  17
ATOM     17  O   UNL     1     124.372 134.852 111.874  1.00  0.00    -0.387 OA
ATOM     18  H   UNL     1     123.467 134.858 112.292  1.00  0.00     0.211 HD
ENDBRANCH  13  17
BRANCH  14  19
ATOM     19  O   UNL     1     127.019 134.293 112.239  1.00  0.00    -0.385 OA
ATOM     20  H   UNL     1     127.042 135.193 111.827  1.00  0.00     0.211 HD
ENDBRANCH  14  19
ENDBRANCH   7   8
ENDBRANCH   1   7
BRANCH   2  21
ATOM     21  O   UNL     1     129.851 133.337 111.538  1.00  0.00    -0.387 OA
ATOM     22  H   UNL     1     130.741 133.199 111.964  1.00  0.00     0.211 HD
ENDBRANCH   2  21
BRANCH   6  23
ATOM     23  O   UNL     1     129.427 128.951 110.879  1.00  0.00    -0.462 OA
BRANCH  23  24
ATOM     24  C   UNL     1     130.464 128.010 110.956  1.00  0.00     0.130 A 
ATOM     25  C   UNL     1     130.339 126.770 110.323  1.00  0.00     0.093 A 
ATOM     26  C   UNL     1     131.622 128.298 111.690  1.00  0.00     0.094 A 
ATOM     27  C   UNL     1     131.308 125.770 110.510  1.00  0.00     0.133 A 
ATOM     28  C   UNL     1     132.591 127.312 111.890  1.00  0.00     0.138 A 
ATOM     29  C   UNL     1     132.436 126.035 111.316  1.00  0.00     0.102 A 
ATOM     30  O   UNL     1     133.712 127.613 112.678  1.00  0.00    -0.484 OA
ATOM     31  C   UNL     1     133.450 125.005 111.634  1.00  0.00     0.174 C 
ATOM     32  C   UNL     1     134.816 126.716 112.878  1.00  0.00     0.211 C 
ATOM     33  O   UNL     1     133.490 123.904 111.015  1.00  0.00    -0.294 OA
ATOM     34  C   UNL     1     134.383 125.238 112.790  1.00  0.00     0.131 C 
BRANCH  27  35
ATOM     35  O   UNL     1     131.133 124.515 109.921  1.00  0.00    -0.507 OA
ATOM     36  H   UNL     1     130.789 124.417 108.973  1.00  0.00     0.293 HD
ENDBRANCH  27  35
BRANCH  32  37
ATOM     37  C   UNL     1     135.958 127.020 111.927  1.00  0.00    -0.007 A 
ATOM     38  C   UNL     1     135.795 127.883 110.826  1.00  0.00     0.011 A 
ATOM     39  C   UNL     1     137.197 126.378 112.104  1.00  0.00     0.011 A 
ATOM     40  C   UNL     1     136.848 128.109 109.937  1.00  0.00     0.046 A 
ATOM     41  C   UNL     1     138.252 126.613 111.220  1.00  0.00     0.046 A 
ATOM     42  C   UNL     1     138.080 127.479 110.131  1.00  0.00     0.115 A 
BRANCH  42  43
ATOM     43  O   UNL     1     139.125 127.720 109.240  1.00  0.00    -0.508 OA
ATOM     44  H   UNL     1     139.026 128.395 108.491  1.00  0.00     0.293 HD
ENDBRANCH  42  43
ENDBRANCH  32  37
ENDBRANCH  23  24
ENDBRANCH   6  23
BRANCH   3  45
ATOM     45  O   UNL     1     131.996 133.315 109.599  1.00  0.00    -0.387 OA
ATOM     46  H   UNL     1     131.387 133.906 109.087  1.00  0.00     0.211 HD
ENDBRANCH   3  45
BRANCH   4  47
ATOM     47  C   UNL     1     132.514 130.981 108.093  1.00  0.00     0.191 C 
BRANCH  47  48
ATOM     48  O   UNL     1     133.565 131.184 109.003  1.00  0.00    -0.394 OA
ATOM     49  H   UNL     1     133.215 130.983 109.909  1.00  0.00     0.210 HD
ENDBRANCH  47  48
ENDBRANCH   4  47
TORSDOF 14
ENDMDL
MODEL 8
REMARK VINA RESULT:    -6.524      3.013      6.532
REMARK INTER + INTRA:         -12.456
REMARK INTER:                  -9.734
REMARK INTRA:                  -2.722
REMARK UNBOUND:                -2.118
REMARK SMILES C[C@@H]1O[C@@H](O[C@H]2[C@H](Oc3cc(O)c4c(c3)O[C@H](c3ccc(O)cc3)CC4=O)O[C@H](CO)[C@@H](O)[C@@H]2O)[C@H](O)[C@H](O)[C@H]1O
REMARK SMILES IDX 6 1 34 2 32 3 29 4 28 5 7 6 5 7 4 8 1 9 2 10 40 11 3 12
REMARK SMILES IDX 38 13 36 14 41 15 39 17 37 19 35 21 8 23 9 24 10 25 15 26
REMARK SMILES IDX 11 27 14 28 13 29 16 30 26 31 17 32 27 33 25 34 12 35 18 37
REMARK SMILES IDX 19 38 24 39 20 40 23 41 21 42 22 43 33 45 30 47 31 48
REMARK H PARENT 41 16 39 18 37 20 35 22 12 36 22 44 33 46 31 49
REMARK Flexibility Score: inf
ROOT
ATOM      1  C   UNL     1     123.970 133.002 112.026  1.00  0.00     0.221 C 
ATOM      2  C   UNL     1     122.758 132.285 112.706  1.00  0.00     0.181 C 
ATOM      3  C   UNL     1     121.492 132.509 111.880  1.00  0.00     0.177 C 
ATOM      4  C   UNL     1     121.810 132.124 110.423  1.00  0.00     0.179 C 
ATOM      5  O   UNL     1     122.634 133.098 109.828  1.00  0.00    -0.332 OA
ATOM      6  C   UNL     1     123.863 133.375 110.499  1.00  0.00     0.339 C 
ENDROOT
BRANCH   1   7
ATOM      7  O   UNL     1     125.271 132.523 112.371  1.00  0.00    -0.337 OA
BRANCH   7   8
ATOM      8  C   UNL     1     126.058 131.921 111.342  1.00  0.00     0.282 C 
ATOM      9  C   UNL     1     125.593 130.026 108.879  1.00  0.00     0.041 C 
ATOM     10  C   UNL     1     126.262 129.812 110.244  1.00  0.00     0.150 C 
ATOM     11  C   UNL     1     127.800 130.026 110.194  1.00  0.00     0.174 C 
ATOM     12  O   UNL     1     125.617 130.573 111.258  1.00  0.00    -0.344 OA
ATOM     13  C   UNL     1     128.272 130.642 111.521  1.00  0.00     0.179 C 
ATOM     14  C   UNL     1     127.583 132.016 111.687  1.00  0.00     0.202 C 
BRANCH  11  15
ATOM     15  O   UNL     1     128.473 128.823 109.925  1.00  0.00    -0.388 OA
ATOM     16  H   UNL     1     129.426 129.045 109.735  1.00  0.00     0.211 HD
ENDBRANCH  11  15
BRANCH  13  17
ATOM     17  O   UNL     1     129.676 130.743 111.585  1.00  0.00    -0.387 OA
ATOM     18  H   UNL     1     130.000 130.109 112.283  1.00  0.00     0.211 HD
ENDBRANCH  13  17
BRANCH  14  19
ATOM     19  O   UNL     1     128.238 132.944 110.851  1.00  0.00    -0.385 OA
ATOM     20  H   UNL     1     128.034 133.866 111.149  1.00  0.00     0.211 HD
ENDBRANCH  14  19
ENDBRANCH   7   8
ENDBRANCH   1   7
BRANCH   2  21
ATOM     21  O   UNL     1     122.584 132.790 114.009  1.00  0.00    -0.387 OA
ATOM     22  H   UNL     1     123.434 133.237 114.275  1.00  0.00     0.211 HD
ENDBRANCH   2  21
BRANCH   6  23
ATOM     23  O   UNL     1     124.156 134.771 110.340  1.00  0.00    -0.462 OA
BRANCH  23  24
ATOM     24  C   UNL     1     125.439 135.224 110.003  1.00  0.00     0.130 A 
ATOM     25  C   UNL     1     126.064 136.208 110.776  1.00  0.00     0.093 A 
ATOM     26  C   UNL     1     126.092 134.712 108.875  1.00  0.00     0.094 A 
ATOM     27  C   UNL     1     127.285 136.768 110.368  1.00  0.00     0.133 A 
ATOM     28  C   UNL     1     127.305 135.263 108.454  1.00  0.00     0.138 A 
ATOM     29  C   UNL     1     127.905 136.306 109.187  1.00  0.00     0.102 A 
ATOM     30  O   UNL     1     127.907 134.768 107.288  1.00  0.00    -0.484 OA
ATOM     31  C   UNL     1     129.143 136.909 108.645  1.00  0.00     0.174 C 
ATOM     32  C   UNL     1     129.194 135.189 106.809  1.00  0.00     0.211 C 
ATOM     33  O   UNL     1     129.842 137.710 109.330  1.00  0.00    -0.294 OA
ATOM     34  C   UNL     1     129.514 136.642 107.214  1.00  0.00     0.131 C 
BRANCH  27  35
ATOM     35  O   UNL     1     127.863 137.795 111.119  1.00  0.00    -0.507 OA
ATOM     36  H   UNL     1     128.080 138.695 110.710  1.00  0.00     0.293 HD
ENDBRANCH  27  35
BRANCH  32  37
ATOM     37  C   UNL     1     130.288 134.233 107.246  1.00  0.00    -0.007 A 
ATOM     38  C   UNL     1     129.994 132.963 107.776  1.00  0.00     0.011 A 
ATOM     39  C   UNL     1     131.633 134.644 107.182  1.00  0.00     0.011 A 
ATOM     40  C   UNL     1     131.018 132.120 108.217  1.00  0.00     0.046 A 
ATOM     41  C   UNL     1     132.656 133.797 107.614  1.00  0.00     0.046 A 
ATOM     42  C   UNL     1     132.351 132.532 108.135  1.00  0.00     0.115 A 
BRANCH  42  43
ATOM     43  O   UNL     1     133.362 131.678 108.571  1.00  0.00    -0.508 OA
ATOM     44  H   UNL     1     133.144 130.775 108.974  1.00  0.00     0.293 HD
ENDBRANCH  42  43
ENDBRANCH  32  37
ENDBRANCH  23  24
ENDBRANCH   6  23
BRANCH   3  45
ATOM     45  O   UNL     1     120.453 131.704 112.383  1.00  0.00    -0.387 OA
ATOM     46  H   UNL     1     120.880 130.909 112.792  1.00  0.00     0.211 HD
ENDBRANCH   3  45
BRANCH   4  47
ATOM     47  C   UNL     1     120.531 131.999 109.574  1.00  0.00     0.191 C 
BRANCH  47  48
ATOM     48  O   UNL     1     119.933 130.739 109.743  1.00  0.00    -0.394 OA
ATOM     49  H   UNL     1     119.373 130.785 110.560  1.00  0.00     0.210 HD
ENDBRANCH  47  48
ENDBRANCH   4  47
TORSDOF 14
ENDMDL
MODEL 9
REMARK VINA RESULT:    -6.517      2.330      8.566
REMARK INTER + INTRA:         -12.445
REMARK INTER:                 -10.113
REMARK INTRA:                  -2.332
REMARK UNBOUND:                -2.118
REMARK SMILES C[C@@H]1O[C@@H](O[C@H]2[C@H](Oc3cc(O)c4c(c3)O[C@H](c3ccc(O)cc3)CC4=O)O[C@H](CO)[C@@H](O)[C@@H]2O)[C@H](O)[C@H](O)[C@H]1O
REMARK SMILES IDX 6 1 34 2 32 3 29 4 28 5 7 6 5 7 4 8 1 9 2 10 40 11 3 12
REMARK SMILES IDX 38 13 36 14 41 15 39 17 37 19 35 21 8 23 9 24 10 25 15 26
REMARK SMILES IDX 11 27 14 28 13 29 16 30 26 31 17 32 27 33 25 34 12 35 18 37
REMARK SMILES IDX 19 38 24 39 20 40 23 41 21 42 22 43 33 45 30 47 31 48
REMARK H PARENT 41 16 39 18 37 20 35 22 12 36 22 44 33 46 31 49
REMARK Flexibility Score: inf
ROOT
ATOM      1  C   UNL     1     127.913 131.951 111.040  1.00  0.00     0.221 C 
ATOM      2  C   UNL     1     129.348 131.336 111.143  1.00  0.00     0.181 C 
ATOM      3  C   UNL     1     129.260 129.889 111.622  1.00  0.00     0.177 C 
ATOM      4  C   UNL     1     128.244 129.159 110.722  1.00  0.00     0.179 C 
ATOM      5  O   UNL     1     126.933 129.570 111.029  1.00  0.00    -0.332 OA
ATOM      6  C   UNL     1     126.681 130.972 110.948  1.00  0.00     0.339 C 
ENDROOT
BRANCH   1   7
ATOM      7  O   UNL     1     127.763 133.085 110.184  1.00  0.00    -0.337 OA
BRANCH   7   8
ATOM      8  C   UNL     1     127.300 134.305 110.762  1.00  0.00     0.282 C 
ATOM      9  C   UNL     1     124.553 135.764 111.204  1.00  0.00     0.041 C 
ATOM     10  C   UNL     1     125.739 136.043 110.271  1.00  0.00     0.150 C 
ATOM     11  C   UNL     1     126.742 137.065 110.871  1.00  0.00     0.174 C 
ATOM     12  O   UNL     1     126.353 134.832 109.843  1.00  0.00    -0.344 OA
ATOM     13  C   UNL     1     128.169 136.695 110.438  1.00  0.00     0.179 C 
ATOM     14  C   UNL     1     128.495 135.291 110.999  1.00  0.00     0.202 C 
BRANCH  11  15
ATOM     15  O   UNL     1     126.421 138.379 110.489  1.00  0.00    -0.388 OA
ATOM     16  H   UNL     1     125.926 138.801 111.243  1.00  0.00     0.211 HD
ENDBRANCH  11  15
BRANCH  13  17
ATOM     17  O   UNL     1     129.112 137.659 110.847  1.00  0.00    -0.387 OA
ATOM     18  H   UNL     1     129.168 138.358 110.138  1.00  0.00     0.211 HD
ENDBRANCH  13  17
BRANCH  14  19
ATOM     19  O   UNL     1     128.785 135.419 112.373  1.00  0.00    -0.385 OA
ATOM     20  H   UNL     1     129.099 134.551 112.732  1.00  0.00     0.211 HD
ENDBRANCH  14  19
ENDBRANCH   7   8
ENDBRANCH   1   7
BRANCH   2  21
ATOM     21  O   UNL     1     130.122 132.099 112.039  1.00  0.00    -0.387 OA
ATOM     22  H   UNL     1     130.270 132.993 111.623  1.00  0.00     0.211 HD
ENDBRANCH   2  21
BRANCH   6  23
ATOM     23  O   UNL     1     125.736 131.318 111.970  1.00  0.00    -0.462 OA
BRANCH  23  24
ATOM     24  C   UNL     1     124.401 131.624 111.672  1.00  0.00     0.130 A 
ATOM     25  C   UNL     1     123.513 131.975 112.694  1.00  0.00     0.093 A 
ATOM     26  C   UNL     1     123.941 131.555 110.350  1.00  0.00     0.094 A 
ATOM     27  C   UNL     1     122.145 132.146 112.425  1.00  0.00     0.133 A 
ATOM     28  C   UNL     1     122.583 131.717 110.069  1.00  0.00     0.138 A 
ATOM     29  C   UNL     1     121.670 131.998 111.104  1.00  0.00     0.102 A 
ATOM     30  O   UNL     1     122.144 131.586 108.742  1.00  0.00    -0.484 OA
ATOM     31  C   UNL     1     120.233 132.072 110.759  1.00  0.00     0.174 C 
ATOM     32  C   UNL     1     120.792 131.821 108.318  1.00  0.00     0.211 C 
ATOM     33  O   UNL     1     119.377 132.504 111.583  1.00  0.00    -0.294 OA
ATOM     34  C   UNL     1     119.775 131.522 109.437  1.00  0.00     0.131 C 
BRANCH  27  35
ATOM     35  O   UNL     1     121.263 132.434 113.470  1.00  0.00    -0.507 OA
ATOM     36  H   UNL     1     120.433 131.877 113.634  1.00  0.00     0.293 HD
ENDBRANCH  27  35
BRANCH  32  37
ATOM     37  C   UNL     1     120.620 133.223 107.766  1.00  0.00    -0.007 A 
ATOM     38  C   UNL     1     119.379 133.887 107.802  1.00  0.00     0.011 A 
ATOM     39  C   UNL     1     121.708 133.861 107.143  1.00  0.00     0.011 A 
ATOM     40  C   UNL     1     119.234 135.159 107.244  1.00  0.00     0.046 A 
ATOM     41  C   UNL     1     121.565 135.137 106.593  1.00  0.00     0.046 A 
ATOM     42  C   UNL     1     120.325 135.790 106.641  1.00  0.00     0.115 A 
BRANCH  42  43
ATOM     43  O   UNL     1     120.169 137.062 106.095  1.00  0.00    -0.508 OA
ATOM     44  H   UNL     1     120.484 137.886 106.593  1.00  0.00     0.293 HD
ENDBRANCH  42  43
ENDBRANCH  32  37
ENDBRANCH  23  24
ENDBRANCH   6  23
BRANCH   3  45
ATOM     45  O   UNL     1     130.525 129.282 111.524  1.00  0.00    -0.387 OA
ATOM     46  H   UNL     1     131.191 129.964 111.795  1.00  0.00     0.211 HD
ENDBRANCH   3  45
BRANCH   4  47
ATOM     47  C   UNL     1     128.318 127.631 110.902  1.00  0.00     0.191 C 
BRANCH  47  48
ATOM     48  O   UNL     1     128.601 127.291 112.235  1.00  0.00    -0.394 OA
ATOM     49  H   UNL     1     129.274 127.938 112.569  1.00  0.00     0.210 HD
ENDBRANCH  47  48
ENDBRANCH   4  47
TORSDOF 14
ENDMDL
