MODEL 1
REMARK VINA RESULT:    -4.124      0.000      0.000
REMARK INTER + INTRA:          -5.337
REMARK INTER:                  -5.088
REMARK INTRA:                  -0.249
REMARK UNBOUND:                -0.249
REMARK SMILES C=CC[C@H](C)C(=O)CC
REMARK SMILES IDX 4 1 5 2 6 3 7 4 8 5 9 6 3 7 2 8 1 9
REMARK H PARENT
REMARK Flexibility Score: inf
ROOT
ATOM      1  C   UNL     1     -39.418  15.807  15.571  1.00  0.00     0.057 C 
ATOM      2  C   UNL     1     -39.321  16.370  14.148  1.00  0.00     0.016 C 
ENDROOT
BRANCH   1   3
ATOM      3  C   UNL     1     -39.298  14.296  15.560  1.00  0.00     0.135 C 
ATOM      4  O   UNL     1     -38.190  13.790  15.446  1.00  0.00    -0.299 OA
BRANCH   3   5
ATOM      5  C   UNL     1     -40.498  13.395  15.713  1.00  0.00     0.072 C 
ATOM      6  C   UNL     1     -40.119  12.096  16.415  1.00  0.00     0.012 C 
ENDBRANCH   3   5
ENDBRANCH   1   3
BRANCH   1   7
ATOM      7  C   UNL     1     -40.715  16.279  16.261  1.00  0.00     0.038 C 
BRANCH   7   8
ATOM      8  C   UNL     1     -41.469  17.285  15.431  1.00  0.00    -0.034 C 
ATOM      9  C   UNL     1     -42.793  17.431  15.532  1.00  0.00     0.004 C 
ENDBRANCH   7   8
ENDBRANCH   1   7
TORSDOF 4
ENDMDL
MODEL 2
REMARK VINA RESULT:    -4.027      1.519      3.828
REMARK INTER + INTRA:          -5.218
REMARK INTER:                  -4.924
REMARK INTRA:                  -0.293
REMARK UNBOUND:                -0.249
REMARK SMILES C=CC[C@H](C)C(=O)CC
REMARK SMILES IDX 4 1 5 2 6 3 7 4 8 5 9 6 3 7 2 8 1 9
REMARK H PARENT
REMARK Flexibility Score: inf
ROOT
ATOM      1  C   UNL     1     -39.185  15.561  15.611  1.00  0.00     0.057 C 
ATOM      2  C   UNL     1     -40.565  15.964  16.143  1.00  0.00     0.016 C 
ENDROOT
BRANCH   1   3
ATOM      3  C   UNL     1     -38.873  16.292  14.320  1.00  0.00     0.135 C 
ATOM      4  O   UNL     1     -37.704  16.454  13.997  1.00  0.00    -0.299 OA
BRANCH   3   5
ATOM      5  C   UNL     1     -39.959  16.802  13.404  1.00  0.00     0.072 C 
ATOM      6  C   UNL     1     -39.901  16.105  12.049  1.00  0.00     0.012 C 
ENDBRANCH   3   5
ENDBRANCH   1   3
BRANCH   1   7
ATOM      7  C   UNL     1     -39.085  14.030  15.448  1.00  0.00     0.038 C 
BRANCH   7   8
ATOM      8  C   UNL     1     -40.402  13.342  15.696  1.00  0.00    -0.034 C 
ATOM      9  C   UNL     1     -40.484  12.205  16.392  1.00  0.00     0.004 C 
ENDBRANCH   7   8
ENDBRANCH   1   7
TORSDOF 4
ENDMDL
MODEL 3
REMARK VINA RESULT:    -3.935      2.484      3.585
REMARK INTER + INTRA:          -5.104
REMARK INTER:                  -4.843
REMARK INTRA:                  -0.261
REMARK UNBOUND:                -0.249
REMARK SMILES C=CC[C@H](C)C(=O)CC
REMARK SMILES IDX 4 1 5 2 6 3 7 4 8 5 9 6 3 7 2 8 1 9
REMARK H PARENT
REMARK Flexibility Score: inf
ROOT
ATOM      1  C   UNL     1     -42.198  18.072  15.853  1.00  0.00     0.057 C 
ATOM      2  C   UNL     1     -41.797  18.297  14.391  1.00  0.00     0.016 C 
ENDROOT
BRANCH   1   3
ATOM      3  C   UNL     1     -41.270  17.074  16.517  1.00  0.00     0.135 C 
ATOM      4  O   UNL     1     -41.030  17.189  17.710  1.00  0.00    -0.299 OA
BRANCH   3   5
ATOM      5  C   UNL     1     -40.654  15.924  15.758  1.00  0.00     0.072 C 
ATOM      6  C   UNL     1     -39.151  15.848  16.008  1.00  0.00     0.012 C 
ENDBRANCH   3   5
ENDBRANCH   1   3
BRANCH   1   7
ATOM      7  C   UNL     1     -43.677  17.645  15.957  1.00  0.00     0.038 C 
BRANCH   7   8
ATOM      8  C   UNL     1     -44.419  18.413  17.020  1.00  0.00    -0.034 C 
ATOM      9  C   UNL     1     -44.471  17.993  18.287  1.00  0.00     0.004 C 
ENDBRANCH   7   8
ENDBRANCH   1   7
TORSDOF 4
ENDMDL
MODEL 4
REMARK VINA RESULT:    -3.846      2.249      3.406
REMARK INTER + INTRA:          -4.995
REMARK INTER:                  -4.772
REMARK INTRA:                  -0.223
REMARK UNBOUND:                -0.249
REMARK SMILES C=CC[C@H](C)C(=O)CC
REMARK SMILES IDX 4 1 5 2 6 3 7 4 8 5 9 6 3 7 2 8 1 9
REMARK H PARENT
REMARK Flexibility Score: inf
ROOT
ATOM      1  C   UNL     1     -41.716  17.190  16.945  1.00  0.00     0.057 C 
ATOM      2  C   UNL     1     -40.772  17.542  18.101  1.00  0.00     0.016 C 
ENDROOT
BRANCH   1   3
ATOM      3  C   UNL     1     -40.935  16.673  15.753  1.00  0.00     0.135 C 
ATOM      4  O   UNL     1     -40.934  17.324  14.718  1.00  0.00    -0.299 OA
BRANCH   3   5
ATOM      5  C   UNL     1     -40.135  15.395  15.810  1.00  0.00     0.072 C 
ATOM      6  C   UNL     1     -38.647  15.675  15.630  1.00  0.00     0.012 C 
ENDBRANCH   3   5
ENDBRANCH   1   3
BRANCH   1   7
ATOM      7  C   UNL     1     -42.606  18.395  16.576  1.00  0.00     0.038 C 
BRANCH   7   8
ATOM      8  C   UNL     1     -44.065  18.130  16.843  1.00  0.00    -0.034 C 
ATOM      9  C   UNL     1     -44.551  18.054  18.085  1.00  0.00     0.004 C 
ENDBRANCH   7   8
ENDBRANCH   1   7
TORSDOF 4
ENDMDL
MODEL 5
REMARK VINA RESULT:    -3.809      1.055      2.193
REMARK INTER + INTRA:          -4.949
REMARK INTER:                  -4.773
REMARK INTRA:                  -0.176
REMARK UNBOUND:                -0.249
REMARK SMILES C=CC[C@H](C)C(=O)CC
REMARK SMILES IDX 4 1 5 2 6 3 7 4 8 5 9 6 3 7 2 8 1 9
REMARK H PARENT
REMARK Flexibility Score: inf
ROOT
ATOM      1  C   UNL     1     -39.888  15.510  14.980  1.00  0.00     0.057 C 
ATOM      2  C   UNL     1     -40.692  16.230  16.069  1.00  0.00     0.016 C 
ENDROOT
BRANCH   1   3
ATOM      3  C   UNL     1     -39.561  14.091  15.404  1.00  0.00     0.135 C 
ATOM      4  O   UNL     1     -38.391  13.740  15.449  1.00  0.00    -0.299 OA
BRANCH   3   5
ATOM      5  C   UNL     1     -40.633  13.106  15.800  1.00  0.00     0.072 C 
ATOM      6  C   UNL     1     -40.030  11.907  16.526  1.00  0.00     0.012 C 
ENDBRANCH   3   5
ENDBRANCH   1   3
BRANCH   1   7
ATOM      7  C   UNL     1     -38.621  16.310  14.613  1.00  0.00     0.038 C 
BRANCH   7   8
ATOM      8  C   UNL     1     -38.696  16.892  13.225  1.00  0.00    -0.034 C 
ATOM      9  C   UNL     1     -39.685  17.712  12.858  1.00  0.00     0.004 C 
ENDBRANCH   7   8
ENDBRANCH   1   7
TORSDOF 4
ENDMDL
MODEL 6
REMARK VINA RESULT:    -3.792      2.891      4.931
REMARK INTER + INTRA:          -4.928
REMARK INTER:                  -4.744
REMARK INTRA:                  -0.184
REMARK UNBOUND:                -0.249
REMARK SMILES C=CC[C@H](C)C(=O)CC
REMARK SMILES IDX 4 1 5 2 6 3 7 4 8 5 9 6 3 7 2 8 1 9
REMARK H PARENT
REMARK Flexibility Score: inf
ROOT
ATOM      1  C   UNL     1     -42.170  17.374  15.660  1.00  0.00     0.057 C 
ATOM      2  C   UNL     1     -41.541  17.911  14.369  1.00  0.00     0.016 C 
ENDROOT
BRANCH   1   3
ATOM      3  C   UNL     1     -43.030  18.435  16.319  1.00  0.00     0.135 C 
ATOM      4  O   UNL     1     -42.595  19.574  16.417  1.00  0.00    -0.299 OA
BRANCH   3   5
ATOM      5  C   UNL     1     -44.417  18.138  16.834  1.00  0.00     0.072 C 
ATOM      6  C   UNL     1     -44.429  18.070  18.358  1.00  0.00     0.012 C 
ENDBRANCH   3   5
ENDBRANCH   1   3
BRANCH   1   7
ATOM      7  C   UNL     1     -41.087  16.832  16.615  1.00  0.00     0.038 C 
BRANCH   7   8
ATOM      8  C   UNL     1     -40.007  16.077  15.884  1.00  0.00    -0.034 C 
ATOM      9  C   UNL     1     -40.081  14.758  15.685  1.00  0.00     0.004 C 
ENDBRANCH   7   8
ENDBRANCH   1   7
TORSDOF 4
ENDMDL
MODEL 7
REMARK VINA RESULT:    -3.779      1.236      1.586
REMARK INTER + INTRA:          -4.912
REMARK INTER:                  -4.688
REMARK INTRA:                  -0.224
REMARK UNBOUND:                -0.249
REMARK SMILES C=CC[C@H](C)C(=O)CC
REMARK SMILES IDX 4 1 5 2 6 3 7 4 8 5 9 6 3 7 2 8 1 9
REMARK H PARENT
REMARK Flexibility Score: inf
ROOT
ATOM      1  C   UNL     1     -40.564  15.830  15.708  1.00  0.00     0.057 C 
ATOM      2  C   UNL     1     -39.818  16.396  16.921  1.00  0.00     0.016 C 
ENDROOT
BRANCH   1   3
ATOM      3  C   UNL     1     -39.742  14.753  15.026  1.00  0.00     0.135 C 
ATOM      4  O   UNL     1     -39.265  14.980  13.923  1.00  0.00    -0.299 OA
BRANCH   3   5
ATOM      5  C   UNL     1     -39.469  13.419  15.677  1.00  0.00     0.072 C 
ATOM      6  C   UNL     1     -40.772  12.702  16.016  1.00  0.00     0.012 C 
ENDBRANCH   3   5
ENDBRANCH   1   3
BRANCH   1   7
ATOM      7  C   UNL     1     -40.962  16.957  14.732  1.00  0.00     0.038 C 
BRANCH   7   8
ATOM      8  C   UNL     1     -42.308  17.548  15.062  1.00  0.00    -0.034 C 
ATOM      9  C   UNL     1     -42.439  18.805  15.495  1.00  0.00     0.004 C 
ENDBRANCH   7   8
ENDBRANCH   1   7
TORSDOF 4
ENDMDL
MODEL 8
REMARK VINA RESULT:    -3.775      1.733      2.212
REMARK INTER + INTRA:          -4.906
REMARK INTER:                  -4.614
REMARK INTRA:                  -0.293
REMARK UNBOUND:                -0.249
REMARK SMILES C=CC[C@H](C)C(=O)CC
REMARK SMILES IDX 4 1 5 2 6 3 7 4 8 5 9 6 3 7 2 8 1 9
REMARK H PARENT
REMARK Flexibility Score: inf
ROOT
ATOM      1  C   UNL     1     -39.899  16.426  14.704  1.00  0.00     0.057 C 
ATOM      2  C   UNL     1     -40.351  17.174  13.445  1.00  0.00     0.016 C 
ENDROOT
BRANCH   1   3
ATOM      3  C   UNL     1     -39.378  15.047  14.351  1.00  0.00     0.135 C 
ATOM      4  O   UNL     1     -39.494  14.644  13.202  1.00  0.00    -0.299 OA
BRANCH   3   5
ATOM      5  C   UNL     1     -38.695  14.163  15.366  1.00  0.00     0.072 C 
ATOM      6  C   UNL     1     -37.477  14.861  15.964  1.00  0.00     0.012 C 
ENDBRANCH   3   5
ENDBRANCH   1   3
BRANCH   1   7
ATOM      7  C   UNL     1     -41.036  16.365  15.745  1.00  0.00     0.038 C 
BRANCH   7   8
ATOM      8  C   UNL     1     -40.574  16.771  17.120  1.00  0.00    -0.034 C 
ATOM      9  C   UNL     1     -41.336  17.509  17.932  1.00  0.00     0.004 C 
ENDBRANCH   7   8
ENDBRANCH   1   7
TORSDOF 4
ENDMDL
MODEL 9
REMARK VINA RESULT:    -3.739      3.602      5.000
REMARK INTER + INTRA:          -4.862
REMARK INTER:                  -4.463
REMARK INTRA:                  -0.399
REMARK UNBOUND:                -0.249
REMARK SMILES C=CC[C@H](C)C(=O)CC
REMARK SMILES IDX 4 1 5 2 6 3 7 4 8 5 9 6 3 7 2 8 1 9
REMARK H PARENT
REMARK Flexibility Score: inf
ROOT
ATOM      1  C   UNL     1     -43.257  17.829  17.873  1.00  0.00     0.057 C 
ATOM      2  C   UNL     1     -44.149  18.175  19.071  1.00  0.00     0.016 C 
ENDROOT
BRANCH   1   3
ATOM      3  C   UNL     1     -41.885  18.457  18.026  1.00  0.00     0.135 C 
ATOM      4  O   UNL     1     -41.777  19.672  17.947  1.00  0.00    -0.299 OA
BRANCH   3   5
ATOM      5  C   UNL     1     -40.652  17.631  18.300  1.00  0.00     0.072 C 
ATOM      6  C   UNL     1     -40.319  16.737  17.110  1.00  0.00     0.012 C 
ENDBRANCH   3   5
ENDBRANCH   1   3
BRANCH   1   7
ATOM      7  C   UNL     1     -43.934  18.235  16.548  1.00  0.00     0.038 C 
BRANCH   7   8
ATOM      8  C   UNL     1     -43.328  17.537  15.359  1.00  0.00    -0.034 C 
ATOM      9  C   UNL     1     -42.593  18.192  14.456  1.00  0.00     0.004 C 
ENDBRANCH   7   8
ENDBRANCH   1   7
TORSDOF 4
ENDMDL
