MODEL 1
REMARK VINA RESULT:    -4.354      0.000      0.000
REMARK INTER + INTRA:          -6.174
REMARK INTER:                  -5.626
REMARK INTRA:                  -0.548
REMARK UNBOUND:                -0.548
REMARK SMILES C=CC(=O)CCCCC
REMARK SMILES IDX 6 1 7 2 8 3 9 4 5 5 3 6 4 7 2 8 1 9
REMARK H PARENT
REMARK Flexibility Score: inf
ROOT
ATOM      1  C   UNL     1     -10.800  75.442  32.080  1.00  0.00     0.008 C 
ENDROOT
BRANCH   1   2
ATOM      2  C   UNL     1     -10.853  74.597  33.365  1.00  0.00     0.000 C 
BRANCH   2   3
ATOM      3  C   UNL     1     -11.740  73.344  33.278  1.00  0.00    -0.003 C 
ATOM      4  C   UNL     1     -10.954  72.043  33.433  1.00  0.00     0.004 C 
ENDBRANCH   2   3
ENDBRANCH   1   2
BRANCH   1   5
ATOM      5  C   UNL     1      -9.776  74.919  31.063  1.00  0.00     0.080 C 
BRANCH   5   6
ATOM      6  C   UNL     1     -10.426  74.682  29.726  1.00  0.00     0.155 C 
ATOM      7  O   UNL     1      -9.871  75.148  28.695  1.00  0.00    -0.295 OA
BRANCH   6   8
ATOM      8  C   UNL     1     -11.670  73.900  29.558  1.00  0.00     0.039 C 
ATOM      9  C   UNL     1     -11.730  72.571  29.640  1.00  0.00     0.012 C 
ENDBRANCH   6   8
ENDBRANCH   5   6
ENDBRANCH   1   5
TORSDOF 5
ENDMDL
MODEL 2
REMARK VINA RESULT:    -4.346      2.120      4.395
REMARK INTER + INTRA:          -6.165
REMARK INTER:                  -5.653
REMARK INTRA:                  -0.512
REMARK UNBOUND:                -0.548
REMARK SMILES C=CC(=O)CCCCC
REMARK SMILES IDX 6 1 7 2 8 3 9 4 5 5 3 6 4 7 2 8 1 9
REMARK H PARENT
REMARK Flexibility Score: inf
ROOT
ATOM      1  C   UNL     1     -11.850  72.458  29.763  1.00  0.00     0.008 C 
ENDROOT
BRANCH   1   2
ATOM      2  C   UNL     1     -11.744  73.722  28.890  1.00  0.00     0.000 C 
BRANCH   2   3
ATOM      3  C   UNL     1     -10.495  73.785  27.995  1.00  0.00    -0.003 C 
ATOM      4  C   UNL     1      -9.870  75.179  27.940  1.00  0.00     0.004 C 
ENDBRANCH   2   3
ENDBRANCH   1   2
BRANCH   1   5
ATOM      5  C   UNL     1     -10.795  72.412  30.877  1.00  0.00     0.080 C 
BRANCH   5   6
ATOM      6  C   UNL     1     -11.183  73.317  32.016  1.00  0.00     0.155 C 
ATOM      7  O   UNL     1     -12.029  72.903  32.853  1.00  0.00    -0.295 OA
BRANCH   6   8
ATOM      8  C   UNL     1     -10.596  74.659  32.219  1.00  0.00     0.039 C 
ATOM      9  C   UNL     1      -9.497  75.092  31.600  1.00  0.00     0.012 C 
ENDBRANCH   6   8
ENDBRANCH   5   6
ENDBRANCH   1   5
TORSDOF 5
ENDMDL
MODEL 3
REMARK VINA RESULT:    -4.325      1.522      3.433
REMARK INTER + INTRA:          -6.137
REMARK INTER:                  -5.552
REMARK INTRA:                  -0.585
REMARK UNBOUND:                -0.548
REMARK SMILES C=CC(=O)CCCCC
REMARK SMILES IDX 6 1 7 2 8 3 9 4 5 5 3 6 4 7 2 8 1 9
REMARK H PARENT
REMARK Flexibility Score: inf
ROOT
ATOM      1  C   UNL     1      -9.506  74.075  30.075  1.00  0.00     0.008 C 
ENDROOT
BRANCH   1   2
ATOM      2  C   UNL     1     -10.665  74.625  29.224  1.00  0.00     0.000 C 
BRANCH   2   3
ATOM      3  C   UNL     1     -11.980  73.836  29.338  1.00  0.00    -0.003 C 
ATOM      4  C   UNL     1     -11.769  72.375  29.733  1.00  0.00     0.004 C 
ENDBRANCH   2   3
ENDBRANCH   1   2
BRANCH   1   5
ATOM      5  C   UNL     1      -9.130  75.000  31.241  1.00  0.00     0.080 C 
BRANCH   5   6
ATOM      6  C   UNL     1     -10.192  74.971  32.308  1.00  0.00     0.155 C 
ATOM      7  O   UNL     1     -10.875  76.011  32.507  1.00  0.00    -0.295 OA
BRANCH   6   8
ATOM      8  C   UNL     1     -10.494  73.769  33.115  1.00  0.00     0.039 C 
ATOM      9  C   UNL     1     -11.714  73.247  33.244  1.00  0.00     0.012 C 
ENDBRANCH   6   8
ENDBRANCH   5   6
ENDBRANCH   1   5
TORSDOF 5
ENDMDL
MODEL 4
REMARK VINA RESULT:    -4.277      1.752      1.895
REMARK INTER + INTRA:          -6.075
REMARK INTER:                  -5.749
REMARK INTRA:                  -0.326
REMARK UNBOUND:                -0.548
REMARK SMILES C=CC(=O)CCCCC
REMARK SMILES IDX 6 1 7 2 8 3 9 4 5 5 3 6 4 7 2 8 1 9
REMARK H PARENT
REMARK Flexibility Score: inf
ROOT
ATOM      1  C   UNL     1     -10.814  75.118  31.632  1.00  0.00     0.008 C 
ENDROOT
BRANCH   1   2
ATOM      2  C   UNL     1     -11.012  74.539  33.045  1.00  0.00     0.000 C 
BRANCH   2   3
ATOM      3  C   UNL     1     -11.707  73.167  33.088  1.00  0.00    -0.003 C 
ATOM      4  C   UNL     1     -10.820  72.067  33.669  1.00  0.00     0.004 C 
ENDBRANCH   2   3
ENDBRANCH   1   2
BRANCH   1   5
ATOM      5  C   UNL     1      -9.365  75.002  31.138  1.00  0.00     0.080 C 
BRANCH   5   6
ATOM      6  C   UNL     1      -9.229  73.879  30.145  1.00  0.00     0.155 C 
ATOM      7  O   UNL     1      -9.129  72.700  30.579  1.00  0.00    -0.295 OA
BRANCH   6   8
ATOM      8  C   UNL     1      -9.238  74.087  28.681  1.00  0.00     0.039 C 
ATOM      9  C   UNL     1      -9.839  75.114  28.079  1.00  0.00     0.012 C 
ENDBRANCH   6   8
ENDBRANCH   5   6
ENDBRANCH   1   5
TORSDOF 5
ENDMDL
MODEL 5
REMARK VINA RESULT:    -4.275      1.471      2.692
REMARK INTER + INTRA:          -6.073
REMARK INTER:                  -5.614
REMARK INTRA:                  -0.459
REMARK UNBOUND:                -0.548
REMARK SMILES C=CC(=O)CCCCC
REMARK SMILES IDX 6 1 7 2 8 3 9 4 5 5 3 6 4 7 2 8 1 9
REMARK H PARENT
REMARK Flexibility Score: inf
ROOT
ATOM      1  C   UNL     1     -10.791  72.387  31.409  1.00  0.00     0.008 C 
ENDROOT
BRANCH   1   2
ATOM      2  C   UNL     1     -11.646  72.971  32.549  1.00  0.00     0.000 C 
BRANCH   2   3
ATOM      3  C   UNL     1     -11.101  74.271  33.164  1.00  0.00    -0.003 C 
ATOM      4  C   UNL     1     -10.506  75.220  32.125  1.00  0.00     0.004 C 
ENDBRANCH   2   3
ENDBRANCH   1   2
BRANCH   1   5
ATOM      5  C   UNL     1     -11.601  72.117  30.134  1.00  0.00     0.080 C 
BRANCH   5   6
ATOM      6  C   UNL     1     -11.526  73.294  29.196  1.00  0.00     0.155 C 
ATOM      7  O   UNL     1     -12.588  73.917  28.926  1.00  0.00    -0.295 OA
BRANCH   6   8
ATOM      8  C   UNL     1     -10.261  73.774  28.600  1.00  0.00     0.039 C 
ATOM      9  C   UNL     1     -10.019  75.049  28.296  1.00  0.00     0.012 C 
ENDBRANCH   6   8
ENDBRANCH   5   6
ENDBRANCH   1   5
TORSDOF 5
ENDMDL
MODEL 6
REMARK VINA RESULT:    -4.256      1.913      4.281
REMARK INTER + INTRA:          -6.047
REMARK INTER:                  -5.736
REMARK INTRA:                  -0.311
REMARK UNBOUND:                -0.548
REMARK SMILES C=CC(=O)CCCCC
REMARK SMILES IDX 6 1 7 2 8 3 9 4 5 5 3 6 4 7 2 8 1 9
REMARK H PARENT
REMARK Flexibility Score: inf
ROOT
ATOM      1  C   UNL     1     -11.960  73.769  29.744  1.00  0.00     0.008 C 
ENDROOT
BRANCH   1   2
ATOM      2  C   UNL     1     -11.465  74.175  28.344  1.00  0.00     0.000 C 
BRANCH   2   3
ATOM      3  C   UNL     1     -10.152  74.976  28.330  1.00  0.00    -0.003 C 
ATOM      4  C   UNL     1      -9.023  74.258  27.591  1.00  0.00     0.004 C 
ENDBRANCH   2   3
ENDBRANCH   1   2
BRANCH   1   5
ATOM      5  C   UNL     1     -11.532  72.349  30.139  1.00  0.00     0.080 C 
BRANCH   5   6
ATOM      6  C   UNL     1     -10.515  72.389  31.250  1.00  0.00     0.155 C 
ATOM      7  O   UNL     1      -9.304  72.569  30.952  1.00  0.00    -0.295 OA
BRANCH   6   8
ATOM      8  C   UNL     1     -10.872  72.257  32.679  1.00  0.00     0.039 C 
ATOM      9  C   UNL     1     -11.664  73.110  33.330  1.00  0.00     0.012 C 
ENDBRANCH   6   8
ENDBRANCH   5   6
ENDBRANCH   1   5
TORSDOF 5
ENDMDL
MODEL 7
REMARK VINA RESULT:    -4.095      2.273      4.027
REMARK INTER + INTRA:          -5.840
REMARK INTER:                  -5.486
REMARK INTRA:                  -0.354
REMARK UNBOUND:                -0.548
REMARK SMILES C=CC(=O)CCCCC
REMARK SMILES IDX 6 1 7 2 8 3 9 4 5 5 3 6 4 7 2 8 1 9
REMARK H PARENT
REMARK Flexibility Score: inf
ROOT
ATOM      1  C   UNL     1      -9.545  74.864  30.729  1.00  0.00     0.008 C 
ENDROOT
BRANCH   1   2
ATOM      2  C   UNL     1      -9.819  75.112  29.235  1.00  0.00     0.000 C 
BRANCH   2   3
ATOM      3  C   UNL     1      -9.219  74.061  28.285  1.00  0.00    -0.003 C 
ATOM      4  C   UNL     1      -9.504  74.355  26.813  1.00  0.00     0.004 C 
ENDBRANCH   2   3
ENDBRANCH   1   2
BRANCH   1   5
ATOM      5  C   UNL     1     -10.817  74.925  31.587  1.00  0.00     0.080 C 
BRANCH   5   6
ATOM      6  C   UNL     1     -11.250  73.542  31.996  1.00  0.00     0.155 C 
ATOM      7  O   UNL     1     -11.879  73.403  33.079  1.00  0.00    -0.295 OA
BRANCH   6   8
ATOM      8  C   UNL     1     -11.000  72.339  31.172  1.00  0.00     0.039 C 
ATOM      9  C   UNL     1     -11.714  72.014  30.094  1.00  0.00     0.012 C 
ENDBRANCH   6   8
ENDBRANCH   5   6
ENDBRANCH   1   5
TORSDOF 5
ENDMDL
MODEL 8
REMARK VINA RESULT:    -3.986      2.757      4.932
REMARK INTER + INTRA:          -5.699
REMARK INTER:                  -5.516
REMARK INTRA:                  -0.183
REMARK UNBOUND:                -0.548
REMARK SMILES C=CC(=O)CCCCC
REMARK SMILES IDX 6 1 7 2 8 3 9 4 5 5 3 6 4 7 2 8 1 9
REMARK H PARENT
REMARK Flexibility Score: inf
ROOT
ATOM      1  C   UNL     1     -11.539  73.192  32.198  1.00  0.00     0.008 C 
ENDROOT
BRANCH   1   2
ATOM      2  C   UNL     1     -10.668  74.312  31.598  1.00  0.00     0.000 C 
BRANCH   2   3
ATOM      3  C   UNL     1     -10.935  74.612  30.114  1.00  0.00    -0.003 C 
ATOM      4  C   UNL     1     -11.991  73.695  29.499  1.00  0.00     0.004 C 
ENDBRANCH   2   3
ENDBRANCH   1   2
BRANCH   1   5
ATOM      5  C   UNL     1     -11.915  73.450  33.663  1.00  0.00     0.080 C 
BRANCH   5   6
ATOM      6  C   UNL     1     -10.900  72.834  34.590  1.00  0.00     0.155 C 
ATOM      7  O   UNL     1     -10.214  71.863  34.173  1.00  0.00    -0.295 OA
BRANCH   6   8
ATOM      8  C   UNL     1     -10.645  73.334  35.958  1.00  0.00     0.039 C 
ATOM      9  C   UNL     1     -11.449  73.104  36.996  1.00  0.00     0.012 C 
ENDBRANCH   6   8
ENDBRANCH   5   6
ENDBRANCH   1   5
TORSDOF 5
ENDMDL
MODEL 9
REMARK VINA RESULT:    -3.957      2.007      2.548
REMARK INTER + INTRA:          -5.662
REMARK INTER:                  -5.448
REMARK INTRA:                  -0.213
REMARK UNBOUND:                -0.548
REMARK SMILES C=CC(=O)CCCCC
REMARK SMILES IDX 6 1 7 2 8 3 9 4 5 5 3 6 4 7 2 8 1 9
REMARK H PARENT
REMARK Flexibility Score: inf
ROOT
ATOM      1  C   UNL     1     -11.532  72.730  33.187  1.00  0.00     0.008 C 
ENDROOT
BRANCH   1   2
ATOM      2  C   UNL     1     -10.781  72.340  34.473  1.00  0.00     0.000 C 
BRANCH   2   3
ATOM      3  C   UNL     1     -10.663  73.463  35.518  1.00  0.00    -0.003 C 
ATOM      4  C   UNL     1     -11.446  73.173  36.798  1.00  0.00     0.004 C 
ENDBRANCH   2   3
ENDBRANCH   1   2
BRANCH   1   5
ATOM      5  C   UNL     1     -10.625  72.747  31.949  1.00  0.00     0.080 C 
BRANCH   5   6
ATOM      6  C   UNL     1     -10.455  74.151  31.432  1.00  0.00     0.155 C 
ATOM      7  O   UNL     1      -9.668  74.925  32.039  1.00  0.00    -0.295 OA
BRANCH   6   8
ATOM      8  C   UNL     1     -11.143  74.658  30.225  1.00  0.00     0.039 C 
ATOM      9  C   UNL     1     -11.996  73.937  29.497  1.00  0.00     0.012 C 
ENDBRANCH   6   8
ENDBRANCH   5   6
ENDBRANCH   1   5
TORSDOF 5
ENDMDL
