MODEL 1
REMARK VINA RESULT:    -5.550      0.000      0.000
REMARK INTER + INTRA:          -6.504
REMARK INTER:                  -6.361
REMARK INTRA:                  -0.143
REMARK UNBOUND:                -0.143
REMARK SMILES O=C([O-])C=Cc1ccc(O)cc1
REMARK SMILES IDX 6 1 7 2 12 3 8 4 11 5 9 6 5 7 4 8 2 9 1 10 3 11 10 12
REMARK H PARENT 10 13
REMARK Flexibility Score: inf
ROOT
ATOM      1  C   UNL     1     -28.480  -6.838  -0.998  1.00  0.00    -0.025 A 
ATOM      2  C   UNL     1     -28.233  -6.178  -2.214  1.00  0.00     0.012 A 
ATOM      3  C   UNL     1     -29.154  -6.143   0.027  1.00  0.00     0.012 A 
ATOM      4  C   UNL     1     -28.671  -4.866  -2.413  1.00  0.00     0.047 A 
ATOM      5  C   UNL     1     -29.588  -4.830  -0.176  1.00  0.00     0.047 A 
ATOM      6  C   UNL     1     -29.352  -4.189  -1.398  1.00  0.00     0.115 A 
ENDROOT
BRANCH   1   7
ATOM      7  C   UNL     1     -27.986  -8.228  -0.831  1.00  0.00     0.010 C 
ATOM      8  C   UNL     1     -26.746  -8.622  -1.152  1.00  0.00     0.025 C 
BRANCH   8   9
ATOM      9  C   UNL     1     -26.296 -10.009  -0.958  1.00  0.00     0.064 C 
ATOM     10  O   UNL     1     -25.891 -10.378   0.175  1.00  0.00    -0.545 OA
ATOM     11  O   UNL     1     -26.310 -10.920  -2.008  1.00  0.00    -0.545 OA
ENDBRANCH   8   9
ENDBRANCH   1   7
BRANCH   6  12
ATOM     12  O   UNL     1     -29.782  -2.882  -1.610  1.00  0.00    -0.508 OA
ATOM     13  H   UNL     1     -29.440  -2.333  -2.390  1.00  0.00     0.293 HD
ENDBRANCH   6  12
TORSDOF 3
ENDMDL
MODEL 2
REMARK VINA RESULT:    -5.506      2.818      3.489
REMARK INTER + INTRA:          -6.453
REMARK INTER:                  -6.303
REMARK INTRA:                  -0.150
REMARK UNBOUND:                -0.143
REMARK SMILES O=C([O-])C=Cc1ccc(O)cc1
REMARK SMILES IDX 6 1 7 2 12 3 8 4 11 5 9 6 5 7 4 8 2 9 1 10 3 11 10 12
REMARK H PARENT 10 13
REMARK Flexibility Score: inf
ROOT
ATOM      1  C   UNL     1     -29.165  -6.369  -0.026  1.00  0.00    -0.025 A 
ATOM      2  C   UNL     1     -28.576  -7.105  -1.068  1.00  0.00     0.012 A 
ATOM      3  C   UNL     1     -29.350  -4.981  -0.195  1.00  0.00     0.012 A 
ATOM      4  C   UNL     1     -28.206  -6.478  -2.261  1.00  0.00     0.047 A 
ATOM      5  C   UNL     1     -28.976  -4.358  -1.389  1.00  0.00     0.047 A 
ATOM      6  C   UNL     1     -28.406  -5.105  -2.427  1.00  0.00     0.115 A 
ENDROOT
BRANCH   1   7
ATOM      7  C   UNL     1     -29.532  -7.078   1.226  1.00  0.00     0.010 C 
ATOM      8  C   UNL     1     -29.639  -8.410   1.323  1.00  0.00     0.025 C 
BRANCH   8   9
ATOM      9  C   UNL     1     -29.995  -9.071   2.588  1.00  0.00     0.064 C 
ATOM     10  O   UNL     1     -29.083  -9.491   3.347  1.00  0.00    -0.545 OA
ATOM     11  O   UNL     1     -31.324  -9.240   2.960  1.00  0.00    -0.545 OA
ENDBRANCH   8   9
ENDBRANCH   1   7
BRANCH   6  12
ATOM     12  O   UNL     1     -28.032  -4.494  -3.621  1.00  0.00    -0.508 OA
ATOM     13  H   UNL     1     -28.719  -4.222  -4.314  1.00  0.00     0.293 HD
ENDBRANCH   6  12
TORSDOF 3
ENDMDL
MODEL 3
REMARK VINA RESULT:    -5.201      6.989     10.083
REMARK INTER + INTRA:          -6.104
REMARK INTER:                  -5.955
REMARK INTRA:                  -0.149
REMARK UNBOUND:                -0.143
REMARK SMILES O=C([O-])C=Cc1ccc(O)cc1
REMARK SMILES IDX 6 1 7 2 12 3 8 4 11 5 9 6 5 7 4 8 2 9 1 10 3 11 10 12
REMARK H PARENT 10 13
REMARK Flexibility Score: inf
ROOT
ATOM      1  C   UNL     1     -26.325 -14.924   2.326  1.00  0.00    -0.025 A 
ATOM      2  C   UNL     1     -26.873 -14.740   3.607  1.00  0.00     0.012 A 
ATOM      3  C   UNL     1     -26.352 -16.213   1.755  1.00  0.00     0.012 A 
ATOM      4  C   UNL     1     -27.457 -15.809   4.291  1.00  0.00     0.047 A 
ATOM      5  C   UNL     1     -26.936 -17.280   2.444  1.00  0.00     0.047 A 
ATOM      6  C   UNL     1     -27.493 -17.081   3.712  1.00  0.00     0.115 A 
ENDROOT
BRANCH   1   7
ATOM      7  C   UNL     1     -25.707 -13.760   1.643  1.00  0.00     0.010 C 
ATOM      8  C   UNL     1     -24.997 -12.816   2.276  1.00  0.00     0.025 C 
BRANCH   8   9
ATOM      9  C   UNL     1     -24.392 -11.685   1.557  1.00  0.00     0.064 C 
ATOM     10  O   UNL     1     -24.805 -11.390   0.405  1.00  0.00    -0.545 OA
ATOM     11  O   UNL     1     -23.370 -10.935   2.127  1.00  0.00    -0.545 OA
ENDBRANCH   8   9
ENDBRANCH   1   7
BRANCH   6  12
ATOM     12  O   UNL     1     -28.079 -18.136   4.407  1.00  0.00    -0.508 OA
ATOM     13  H   UNL     1     -28.569 -18.880   3.924  1.00  0.00     0.293 HD
ENDBRANCH   6  12
TORSDOF 3
ENDMDL
MODEL 4
REMARK VINA RESULT:    -5.159     10.934     12.097
REMARK INTER + INTRA:          -6.056
REMARK INTER:                  -5.913
REMARK INTRA:                  -0.143
REMARK UNBOUND:                -0.143
REMARK SMILES O=C([O-])C=Cc1ccc(O)cc1
REMARK SMILES IDX 6 1 7 2 12 3 8 4 11 5 9 6 5 7 4 8 2 9 1 10 3 11 10 12
REMARK H PARENT 10 13
REMARK Flexibility Score: inf
ROOT
ATOM      1  C   UNL     1     -32.693 -15.519   4.947  1.00  0.00    -0.025 A 
ATOM      2  C   UNL     1     -33.276 -16.251   5.996  1.00  0.00     0.012 A 
ATOM      3  C   UNL     1     -33.485 -15.187   3.829  1.00  0.00     0.012 A 
ATOM      4  C   UNL     1     -34.623 -16.619   5.944  1.00  0.00     0.047 A 
ATOM      5  C   UNL     1     -34.832 -15.560   3.780  1.00  0.00     0.047 A 
ATOM      6  C   UNL     1     -35.405 -16.274   4.839  1.00  0.00     0.115 A 
ENDROOT
BRANCH   1   7
ATOM      7  C   UNL     1     -31.256 -15.160   5.044  1.00  0.00     0.010 C 
ATOM      8  C   UNL     1     -30.276 -16.053   5.239  1.00  0.00     0.025 C 
BRANCH   8   9
ATOM      9  C   UNL     1     -28.863 -15.652   5.318  1.00  0.00     0.064 C 
ATOM     10  O   UNL     1     -28.555 -14.572   5.886  1.00  0.00    -0.545 OA
ATOM     11  O   UNL     1     -27.860 -16.446   4.773  1.00  0.00    -0.545 OA
ENDBRANCH   8   9
ENDBRANCH   1   7
BRANCH   6  12
ATOM     12  O   UNL     1     -36.746 -16.648   4.801  1.00  0.00    -0.508 OA
ATOM     13  H   UNL     1     -37.278 -16.623   3.939  1.00  0.00     0.293 HD
ENDBRANCH   6  12
TORSDOF 3
ENDMDL
MODEL 5
REMARK VINA RESULT:    -5.149      9.501     11.281
REMARK INTER + INTRA:          -6.044
REMARK INTER:                  -5.896
REMARK INTRA:                  -0.148
REMARK UNBOUND:                -0.143
REMARK SMILES O=C([O-])C=Cc1ccc(O)cc1
REMARK SMILES IDX 6 1 7 2 12 3 8 4 11 5 9 6 5 7 4 8 2 9 1 10 3 11 10 12
REMARK H PARENT 10 13
REMARK Flexibility Score: inf
ROOT
ATOM      1  C   UNL     1     -33.350 -14.554   3.732  1.00  0.00    -0.025 A 
ATOM      2  C   UNL     1     -32.341 -14.665   4.705  1.00  0.00     0.012 A 
ATOM      3  C   UNL     1     -34.472 -15.404   3.817  1.00  0.00     0.012 A 
ATOM      4  C   UNL     1     -32.461 -15.582   5.752  1.00  0.00     0.047 A 
ATOM      5  C   UNL     1     -34.586 -16.321   4.866  1.00  0.00     0.047 A 
ATOM      6  C   UNL     1     -33.583 -16.411   5.838  1.00  0.00     0.115 A 
ENDROOT
BRANCH   1   7
ATOM      7  C   UNL     1     -33.172 -13.572   2.634  1.00  0.00     0.010 C 
ATOM      8  C   UNL     1     -32.397 -12.483   2.726  1.00  0.00     0.025 C 
BRANCH   8   9
ATOM      9  C   UNL     1     -32.242 -11.541   1.607  1.00  0.00     0.064 C 
ATOM     10  O   UNL     1     -31.166 -11.526   0.953  1.00  0.00    -0.545 OA
ATOM     11  O   UNL     1     -33.264 -10.666   1.258  1.00  0.00    -0.545 OA
ENDBRANCH   8   9
ENDBRANCH   1   7
BRANCH   6  12
ATOM     12  O   UNL     1     -33.688 -17.320   6.887  1.00  0.00    -0.508 OA
ATOM     13  H   UNL     1     -33.507 -18.308   6.752  1.00  0.00     0.293 HD
ENDBRANCH   6  12
TORSDOF 3
ENDMDL
MODEL 6
REMARK VINA RESULT:    -5.136      5.906      7.769
REMARK INTER + INTRA:          -6.030
REMARK INTER:                  -5.894
REMARK INTRA:                  -0.135
REMARK UNBOUND:                -0.143
REMARK SMILES O=C([O-])C=Cc1ccc(O)cc1
REMARK SMILES IDX 6 1 7 2 12 3 8 4 11 5 9 6 5 7 4 8 2 9 1 10 3 11 10 12
REMARK H PARENT 10 13
REMARK Flexibility Score: inf
ROOT
ATOM      1  C   UNL     1     -25.532 -12.814   1.567  1.00  0.00    -0.025 A 
ATOM      2  C   UNL     1     -24.506 -12.092   2.201  1.00  0.00     0.012 A 
ATOM      3  C   UNL     1     -25.977 -12.391   0.298  1.00  0.00     0.012 A 
ATOM      4  C   UNL     1     -23.920 -10.990   1.573  1.00  0.00     0.047 A 
ATOM      5  C   UNL     1     -25.389 -11.287  -0.326  1.00  0.00     0.047 A 
ATOM      6  C   UNL     1     -24.356 -10.585   0.308  1.00  0.00     0.115 A 
ENDROOT
BRANCH   1   7
ATOM      7  C   UNL     1     -26.131 -13.971   2.280  1.00  0.00     0.010 C 
ATOM      8  C   UNL     1     -26.053 -15.235   1.843  1.00  0.00     0.025 C 
BRANCH   8   9
ATOM      9  C   UNL     1     -26.652 -16.353   2.588  1.00  0.00     0.064 C 
ATOM     10  O   UNL     1     -26.795 -17.469   2.024  1.00  0.00    -0.545 OA
ATOM     11  O   UNL     1     -27.065 -16.198   3.907  1.00  0.00    -0.545 OA
ENDBRANCH   8   9
ENDBRANCH   1   7
BRANCH   6  12
ATOM     12  O   UNL     1     -23.762  -9.485  -0.305  1.00  0.00    -0.508 OA
ATOM     13  H   UNL     1     -24.290  -8.645  -0.512  1.00  0.00     0.293 HD
ENDBRANCH   6  12
TORSDOF 3
ENDMDL
MODEL 7
REMARK VINA RESULT:    -5.124      1.793      2.481
REMARK INTER + INTRA:          -6.016
REMARK INTER:                  -5.863
REMARK INTRA:                  -0.153
REMARK UNBOUND:                -0.143
REMARK SMILES O=C([O-])C=Cc1ccc(O)cc1
REMARK SMILES IDX 6 1 7 2 12 3 8 4 11 5 9 6 5 7 4 8 2 9 1 10 3 11 10 12
REMARK H PARENT 10 13
REMARK Flexibility Score: inf
ROOT
ATOM      1  C   UNL     1     -28.637  -7.207  -0.642  1.00  0.00    -0.025 A 
ATOM      2  C   UNL     1     -29.353  -6.381   0.242  1.00  0.00     0.012 A 
ATOM      3  C   UNL     1     -28.204  -6.671  -1.872  1.00  0.00     0.012 A 
ATOM      4  C   UNL     1     -29.607  -5.045  -0.081  1.00  0.00     0.047 A 
ATOM      5  C   UNL     1     -28.463  -5.335  -2.192  1.00  0.00     0.047 A 
ATOM      6  C   UNL     1     -29.162  -4.517  -1.296  1.00  0.00     0.115 A 
ENDROOT
BRANCH   1   7
ATOM      7  C   UNL     1     -28.401  -8.621  -0.258  1.00  0.00     0.010 C 
ATOM      8  C   UNL     1     -28.942  -9.200   0.823  1.00  0.00     0.025 C 
BRANCH   8   9
ATOM      9  C   UNL     1     -28.688 -10.609   1.159  1.00  0.00     0.064 C 
ATOM     10  O   UNL     1     -27.529 -11.081   1.023  1.00  0.00    -0.545 OA
ATOM     11  O   UNL     1     -29.708 -11.432   1.623  1.00  0.00    -0.545 OA
ENDBRANCH   8   9
ENDBRANCH   1   7
BRANCH   6  12
ATOM     12  O   UNL     1     -29.423  -3.185  -1.605  1.00  0.00    -0.508 OA
ATOM     13  H   UNL     1     -29.404  -2.463  -0.894  1.00  0.00     0.293 HD
ENDBRANCH   6  12
TORSDOF 3
ENDMDL
MODEL 8
REMARK VINA RESULT:    -5.078      6.339      9.796
REMARK INTER + INTRA:          -5.963
REMARK INTER:                  -5.828
REMARK INTRA:                  -0.135
REMARK UNBOUND:                -0.143
REMARK SMILES O=C([O-])C=Cc1ccc(O)cc1
REMARK SMILES IDX 6 1 7 2 12 3 8 4 11 5 9 6 5 7 4 8 2 9 1 10 3 11 10 12
REMARK H PARENT 10 13
REMARK Flexibility Score: inf
ROOT
ATOM      1  C   UNL     1     -26.059 -14.747   2.637  1.00  0.00    -0.025 A 
ATOM      2  C   UNL     1     -26.072 -16.007   2.016  1.00  0.00     0.012 A 
ATOM      3  C   UNL     1     -26.785 -14.572   3.833  1.00  0.00     0.012 A 
ATOM      4  C   UNL     1     -26.769 -17.075   2.587  1.00  0.00     0.047 A 
ATOM      5  C   UNL     1     -27.483 -15.642   4.400  1.00  0.00     0.047 A 
ATOM      6  C   UNL     1     -27.474 -16.898   3.781  1.00  0.00     0.115 A 
ENDROOT
BRANCH   1   7
ATOM      7  C   UNL     1     -25.312 -13.641   1.987  1.00  0.00     0.010 C 
ATOM      8  C   UNL     1     -25.893 -12.546   1.480  1.00  0.00     0.025 C 
BRANCH   8   9
ATOM      9  C   UNL     1     -25.111 -11.469   0.854  1.00  0.00     0.064 C 
ATOM     10  O   UNL     1     -24.514 -10.633   1.580  1.00  0.00    -0.545 OA
ATOM     11  O   UNL     1     -25.021 -11.359  -0.530  1.00  0.00    -0.545 OA
ENDBRANCH   8   9
ENDBRANCH   1   7
BRANCH   6  12
ATOM     12  O   UNL     1     -28.165 -17.971   4.338  1.00  0.00    -0.508 OA
ATOM     13  H   UNL     1     -27.706 -18.853   4.530  1.00  0.00     0.293 HD
ENDBRANCH   6  12
TORSDOF 3
ENDMDL
MODEL 9
REMARK VINA RESULT:    -4.895      5.644      6.389
REMARK INTER + INTRA:          -5.753
REMARK INTER:                  -5.602
REMARK INTRA:                  -0.151
REMARK UNBOUND:                -0.143
REMARK SMILES O=C([O-])C=Cc1ccc(O)cc1
REMARK SMILES IDX 6 1 7 2 12 3 8 4 11 5 9 6 5 7 4 8 2 9 1 10 3 11 10 12
REMARK H PARENT 10 13
REMARK Flexibility Score: inf
ROOT
ATOM      1  C   UNL     1     -31.840 -10.244   2.186  1.00  0.00    -0.025 A 
ATOM      2  C   UNL     1     -32.152  -9.010   2.783  1.00  0.00     0.012 A 
ATOM      3  C   UNL     1     -32.880 -11.006   1.616  1.00  0.00     0.012 A 
ATOM      4  C   UNL     1     -33.466  -8.535   2.788  1.00  0.00     0.047 A 
ATOM      5  C   UNL     1     -34.194 -10.527   1.625  1.00  0.00     0.047 A 
ATOM      6  C   UNL     1     -34.490  -9.289   2.207  1.00  0.00     0.115 A 
ENDROOT
BRANCH   1   7
ATOM      7  C   UNL     1     -30.431 -10.711   2.215  1.00  0.00     0.010 C 
ATOM      8  C   UNL     1     -29.443 -10.058   2.842  1.00  0.00     0.025 C 
BRANCH   8   9
ATOM      9  C   UNL     1     -28.062 -10.564   2.854  1.00  0.00     0.064 C 
ATOM     10  O   UNL     1     -27.558 -10.968   3.935  1.00  0.00    -0.545 OA
ATOM     11  O   UNL     1     -27.301 -10.603   1.691  1.00  0.00    -0.545 OA
ENDBRANCH   8   9
ENDBRANCH   1   7
BRANCH   6  12
ATOM     12  O   UNL     1     -35.794  -8.802   2.220  1.00  0.00    -0.508 OA
ATOM     13  H   UNL     1     -35.990  -7.810   2.151  1.00  0.00     0.293 HD
ENDBRANCH   6  12
TORSDOF 3
ENDMDL
