MODEL 1
REMARK VINA RESULT:    -3.199      0.000      0.000
REMARK INTER + INTRA:          -8.393
REMARK INTER:                  -6.004
REMARK INTRA:                  -2.389
REMARK UNBOUND:                -2.389
REMARK SMILES O=C([O-])CCCCCCCCCCCCCCC(=O)[O-]
REMARK SMILES IDX 10 1 9 2 8 3 7 4 6 5 5 6 4 7 2 8 1 9 3 10 11 11 12 12 13 13
REMARK SMILES IDX 14 14 15 15 16 16 17 17 18 18 19 19 20 20
REMARK H PARENT
REMARK Flexibility Score: inf
ROOT
ATOM      1  C   UNL     1      -3.766   5.667  40.279  1.00  0.00     0.000 C 
ENDROOT
BRANCH   1   2
ATOM      2  C   UNL     1      -2.288   5.295  40.483  1.00  0.00     0.000 C 
BRANCH   2   3
ATOM      3  C   UNL     1      -1.599   4.874  39.175  1.00  0.00     0.000 C 
BRANCH   3   4
ATOM      4  C   UNL     1      -2.417   5.250  37.927  1.00  0.00     0.000 C 
BRANCH   4   5
ATOM      5  C   UNL     1      -1.585   6.015  36.885  1.00  0.00     0.000 C 
BRANCH   5   6
ATOM      6  C   UNL     1      -1.725   5.429  35.472  1.00  0.00     0.006 C 
BRANCH   6   7
ATOM      7  C   UNL     1      -1.910   3.909  35.525  1.00  0.00     0.053 C 
BRANCH   7   8
ATOM      8  C   UNL     1      -0.589   3.216  35.421  1.00  0.00     0.041 C 
ATOM      9  O   UNL     1      -0.073   3.002  34.293  1.00  0.00    -0.550 OA
ATOM     10  O   UNL     1       0.052   2.763  36.568  1.00  0.00    -0.550 OA
ENDBRANCH   7   8
ENDBRANCH   6   7
ENDBRANCH   5   6
ENDBRANCH   4   5
ENDBRANCH   3   4
ENDBRANCH   2   3
ENDBRANCH   1   2
BRANCH   1  11
ATOM     11  C   UNL     1      -4.055   7.141  40.610  1.00  0.00     0.000 C 
BRANCH  11  12
ATOM     12  C   UNL     1      -2.781   7.997  40.670  1.00  0.00     0.000 C 
BRANCH  12  13
ATOM     13  C   UNL     1      -2.548   8.723  39.336  1.00  0.00     0.000 C 
BRANCH  13  14
ATOM     14  C   UNL     1      -1.058   8.968  39.046  1.00  0.00     0.000 C 
BRANCH  14  15
ATOM     15  C   UNL     1      -0.176   8.797  40.291  1.00  0.00     0.000 C 
BRANCH  15  16
ATOM     16  C   UNL     1       0.691   7.533  40.181  1.00  0.00     0.006 C 
BRANCH  16  17
ATOM     17  C   UNL     1       1.423   7.448  38.835  1.00  0.00     0.053 C 
BRANCH  17  18
ATOM     18  C   UNL     1       2.151   6.148  38.682  1.00  0.00     0.041 C 
ATOM     19  O   UNL     1       1.751   5.290  37.851  1.00  0.00    -0.550 OA
ATOM     20  O   UNL     1       3.291   5.897  39.435  1.00  0.00    -0.550 OA
ENDBRANCH  17  18
ENDBRANCH  16  17
ENDBRANCH  15  16
ENDBRANCH  14  15
ENDBRANCH  13  14
ENDBRANCH  12  13
ENDBRANCH  11  12
ENDBRANCH   1  11
TORSDOF 15
ENDMDL
MODEL 2
REMARK VINA RESULT:    -3.100      1.459      4.776
REMARK INTER + INTRA:          -8.207
REMARK INTER:                  -6.046
REMARK INTRA:                  -2.162
REMARK UNBOUND:                -2.389
REMARK SMILES O=C([O-])CCCCCCCCCCCCCCC(=O)[O-]
REMARK SMILES IDX 10 1 9 2 8 3 7 4 6 5 5 6 4 7 2 8 1 9 3 10 11 11 12 12 13 13
REMARK SMILES IDX 14 14 15 15 16 16 17 17 18 18 19 19 20 20
REMARK H PARENT
REMARK Flexibility Score: inf
ROOT
ATOM      1  C   UNL     1      -3.780   7.400  40.424  1.00  0.00     0.000 C 
ENDROOT
BRANCH   1   2
ATOM      2  C   UNL     1      -2.489   8.215  40.238  1.00  0.00     0.000 C 
BRANCH   2   3
ATOM      3  C   UNL     1      -2.486   9.025  38.932  1.00  0.00     0.000 C 
BRANCH   3   4
ATOM      4  C   UNL     1      -1.138   8.957  38.194  1.00  0.00     0.000 C 
BRANCH   4   5
ATOM      5  C   UNL     1       0.000   8.439  39.089  1.00  0.00     0.000 C 
BRANCH   5   6
ATOM      6  C   UNL     1       0.900   7.422  38.372  1.00  0.00     0.006 C 
BRANCH   6   7
ATOM      7  C   UNL     1       1.839   6.727  39.364  1.00  0.00     0.053 C 
BRANCH   7   8
ATOM      8  C   UNL     1       2.402   5.478  38.764  1.00  0.00     0.041 C 
ATOM      9  O   UNL     1       2.866   4.572  39.505  1.00  0.00    -0.550 OA
ATOM     10  O   UNL     1       2.461   5.335  37.383  1.00  0.00    -0.550 OA
ENDBRANCH   7   8
ENDBRANCH   6   7
ENDBRANCH   5   6
ENDBRANCH   4   5
ENDBRANCH   3   4
ENDBRANCH   2   3
ENDBRANCH   1   2
BRANCH   1  11
ATOM     11  C   UNL     1      -3.514   5.889  40.531  1.00  0.00     0.000 C 
BRANCH  11  12
ATOM     12  C   UNL     1      -2.329   5.432  39.667  1.00  0.00     0.000 C 
BRANCH  12  13
ATOM     13  C   UNL     1      -2.793   5.080  38.245  1.00  0.00     0.000 C 
BRANCH  13  14
ATOM     14  C   UNL     1      -1.650   5.129  37.219  1.00  0.00     0.000 C 
BRANCH  14  15
ATOM     15  C   UNL     1      -1.965   6.042  36.024  1.00  0.00     0.000 C 
BRANCH  15  16
ATOM     16  C   UNL     1      -0.680   6.432  35.278  1.00  0.00     0.006 C 
BRANCH  16  17
ATOM     17  C   UNL     1      -0.037   5.236  34.564  1.00  0.00     0.053 C 
BRANCH  17  18
ATOM     18  C   UNL     1      -0.369   5.218  33.104  1.00  0.00     0.041 C 
ATOM     19  O   UNL     1      -0.145   6.231  32.390  1.00  0.00    -0.550 OA
ATOM     20  O   UNL     1      -0.896   4.070  32.524  1.00  0.00    -0.550 OA
ENDBRANCH  17  18
ENDBRANCH  16  17
ENDBRANCH  15  16
ENDBRANCH  14  15
ENDBRANCH  13  14
ENDBRANCH  12  13
ENDBRANCH  11  12
ENDBRANCH   1  11
TORSDOF 15
ENDMDL
MODEL 3
REMARK VINA RESULT:    -3.043      2.561      3.913
REMARK INTER + INTRA:          -8.100
REMARK INTER:                  -5.381
REMARK INTRA:                  -2.718
REMARK UNBOUND:                -2.389
REMARK SMILES O=C([O-])CCCCCCCCCCCCCCC(=O)[O-]
REMARK SMILES IDX 10 1 9 2 8 3 7 4 6 5 5 6 4 7 2 8 1 9 3 10 11 11 12 12 13 13
REMARK SMILES IDX 14 14 15 15 16 16 17 17 18 18 19 19 20 20
REMARK H PARENT
REMARK Flexibility Score: inf
ROOT
ATOM      1  C   UNL     1       1.098   5.209  37.983  1.00  0.00     0.000 C 
ENDROOT
BRANCH   1   2
ATOM      2  C   UNL     1      -0.362   4.958  38.395  1.00  0.00     0.000 C 
BRANCH   2   3
ATOM      3  C   UNL     1      -1.183   4.292  37.280  1.00  0.00     0.000 C 
BRANCH   3   4
ATOM      4  C   UNL     1      -2.367   5.159  36.816  1.00  0.00     0.000 C 
BRANCH   4   5
ATOM      5  C   UNL     1      -2.054   5.949  35.536  1.00  0.00     0.000 C 
BRANCH   5   6
ATOM      6  C   UNL     1      -0.944   5.300  34.697  1.00  0.00     0.006 C 
BRANCH   6   7
ATOM      7  C   UNL     1       0.084   6.344  34.247  1.00  0.00     0.053 C 
BRANCH   7   8
ATOM      8  C   UNL     1       1.352   5.678  33.816  1.00  0.00     0.041 C 
ATOM      9  O   UNL     1       1.881   5.975  32.713  1.00  0.00    -0.550 OA
ATOM     10  O   UNL     1       1.925   4.693  34.611  1.00  0.00    -0.550 OA
ENDBRANCH   7   8
ENDBRANCH   6   7
ENDBRANCH   5   6
ENDBRANCH   4   5
ENDBRANCH   3   4
ENDBRANCH   2   3
ENDBRANCH   1   2
BRANCH   1  11
ATOM     11  C   UNL     1       1.364   6.679  37.613  1.00  0.00     0.000 C 
BRANCH  11  12
ATOM     12  C   UNL     1       1.361   7.608  38.836  1.00  0.00     0.000 C 
BRANCH  12  13
ATOM     13  C   UNL     1       0.458   8.827  38.594  1.00  0.00     0.000 C 
BRANCH  13  14
ATOM     14  C   UNL     1      -0.503   8.629  37.411  1.00  0.00     0.000 C 
BRANCH  14  15
ATOM     15  C   UNL     1      -1.962   8.941  37.774  1.00  0.00     0.000 C 
BRANCH  15  16
ATOM     16  C   UNL     1      -2.179   8.860  39.293  1.00  0.00     0.006 C 
BRANCH  16  17
ATOM     17  C   UNL     1      -2.754   7.504  39.725  1.00  0.00     0.053 C 
BRANCH  17  18
ATOM     18  C   UNL     1      -2.284   7.113  41.092  1.00  0.00     0.041 C 
ATOM     19  O   UNL     1      -1.057   6.940  41.317  1.00  0.00    -0.550 OA
ATOM     20  O   UNL     1      -3.200   6.970  42.128  1.00  0.00    -0.550 OA
ENDBRANCH  17  18
ENDBRANCH  16  17
ENDBRANCH  15  16
ENDBRANCH  14  15
ENDBRANCH  13  14
ENDBRANCH  12  13
ENDBRANCH  11  12
ENDBRANCH   1  11
TORSDOF 15
ENDMDL
MODEL 4
REMARK VINA RESULT:    -3.017      2.391      5.416
REMARK INTER + INTRA:          -8.051
REMARK INTER:                  -6.101
REMARK INTRA:                  -1.951
REMARK UNBOUND:                -2.389
REMARK SMILES O=C([O-])CCCCCCCCCCCCCCC(=O)[O-]
REMARK SMILES IDX 10 1 9 2 8 3 7 4 6 5 5 6 4 7 2 8 1 9 3 10 11 11 12 12 13 13
REMARK SMILES IDX 14 14 15 15 16 16 17 17 18 18 19 19 20 20
REMARK H PARENT
REMARK Flexibility Score: inf
ROOT
ATOM      1  C   UNL     1      -2.736   5.552  39.091  1.00  0.00     0.000 C 
ENDROOT
BRANCH   1   2
ATOM      2  C   UNL     1      -2.167   6.709  39.931  1.00  0.00     0.000 C 
BRANCH   2   3
ATOM      3  C   UNL     1      -2.938   8.022  39.725  1.00  0.00     0.000 C 
BRANCH   3   4
ATOM      4  C   UNL     1      -2.094   9.102  39.026  1.00  0.00     0.000 C 
BRANCH   4   5
ATOM      5  C   UNL     1      -2.106   8.963  37.495  1.00  0.00     0.000 C 
BRANCH   5   6
ATOM      6  C   UNL     1      -0.696   8.824  36.903  1.00  0.00     0.006 C 
BRANCH   6   7
ATOM      7  C   UNL     1       0.363   8.800  38.011  1.00  0.00     0.053 C 
BRANCH   7   8
ATOM      8  C   UNL     1       1.066   7.480  38.035  1.00  0.00     0.041 C 
ATOM      9  O   UNL     1       1.278   6.855  36.962  1.00  0.00    -0.550 OA
ATOM     10  O   UNL     1       1.446   6.916  39.246  1.00  0.00    -0.550 OA
ENDBRANCH   7   8
ENDBRANCH   6   7
ENDBRANCH   5   6
ENDBRANCH   4   5
ENDBRANCH   3   4
ENDBRANCH   2   3
ENDBRANCH   1   2
BRANCH   1  11
ATOM     11  C   UNL     1      -1.730   5.025  38.053  1.00  0.00     0.000 C 
BRANCH  11  12
ATOM     12  C   UNL     1      -2.399   4.624  36.730  1.00  0.00     0.000 C 
BRANCH  12  13
ATOM     13  C   UNL     1      -2.360   5.784  35.724  1.00  0.00     0.000 C 
BRANCH  13  14
ATOM     14  C   UNL     1      -1.194   5.667  34.729  1.00  0.00     0.000 C 
BRANCH  14  15
ATOM     15  C   UNL     1      -0.781   4.210  34.469  1.00  0.00     0.000 C 
BRANCH  15  16
ATOM     16  C   UNL     1       0.539   4.146  33.685  1.00  0.00     0.006 C 
BRANCH  16  17
ATOM     17  C   UNL     1       0.360   4.537  32.212  1.00  0.00     0.053 C 
BRANCH  17  18
ATOM     18  C   UNL     1       1.254   5.674  31.828  1.00  0.00     0.041 C 
ATOM     19  O   UNL     1       2.002   6.212  32.686  1.00  0.00    -0.550 OA
ATOM     20  O   UNL     1       1.284   6.121  30.512  1.00  0.00    -0.550 OA
ENDBRANCH  17  18
ENDBRANCH  16  17
ENDBRANCH  15  16
ENDBRANCH  14  15
ENDBRANCH  13  14
ENDBRANCH  12  13
ENDBRANCH  11  12
ENDBRANCH   1  11
TORSDOF 15
ENDMDL
MODEL 5
REMARK VINA RESULT:    -2.942      1.640      3.887
REMARK INTER + INTRA:          -7.910
REMARK INTER:                  -5.594
REMARK INTRA:                  -2.316
REMARK UNBOUND:                -2.389
REMARK SMILES O=C([O-])CCCCCCCCCCCCCCC(=O)[O-]
REMARK SMILES IDX 10 1 9 2 8 3 7 4 6 5 5 6 4 7 2 8 1 9 3 10 11 11 12 12 13 13
REMARK SMILES IDX 14 14 15 15 16 16 17 17 18 18 19 19 20 20
REMARK H PARENT
REMARK Flexibility Score: inf
ROOT
ATOM      1  C   UNL     1      -3.075   5.833  40.062  1.00  0.00     0.000 C 
ENDROOT
BRANCH   1   2
ATOM      2  C   UNL     1      -2.281   5.018  41.098  1.00  0.00     0.000 C 
BRANCH   2   3
ATOM      3  C   UNL     1      -1.800   5.876  42.279  1.00  0.00     0.000 C 
BRANCH   3   4
ATOM      4  C   UNL     1      -0.267   5.995  42.340  1.00  0.00     0.000 C 
BRANCH   4   5
ATOM      5  C   UNL     1       0.257   7.251  41.625  1.00  0.00     0.000 C 
BRANCH   5   6
ATOM      6  C   UNL     1       0.905   6.932  40.269  1.00  0.00     0.006 C 
BRANCH   6   7
ATOM      7  C   UNL     1       1.290   5.451  40.181  1.00  0.00     0.053 C 
BRANCH   7   8
ATOM      8  C   UNL     1       1.532   5.057  38.759  1.00  0.00     0.041 C 
ATOM      9  O   UNL     1       2.521   5.521  38.132  1.00  0.00    -0.550 OA
ATOM     10  O   UNL     1       0.639   4.215  38.108  1.00  0.00    -0.550 OA
ENDBRANCH   7   8
ENDBRANCH   6   7
ENDBRANCH   5   6
ENDBRANCH   4   5
ENDBRANCH   3   4
ENDBRANCH   2   3
ENDBRANCH   1   2
BRANCH   1  11
ATOM     11  C   UNL     1      -3.875   6.981  40.700  1.00  0.00     0.000 C 
BRANCH  11  12
ATOM     12  C   UNL     1      -3.498   8.356  40.127  1.00  0.00     0.000 C 
BRANCH  12  13
ATOM     13  C   UNL     1      -2.262   8.251  39.222  1.00  0.00     0.000 C 
BRANCH  13  14
ATOM     14  C   UNL     1      -2.373   9.121  37.960  1.00  0.00     0.000 C 
BRANCH  14  15
ATOM     15  C   UNL     1      -1.752   8.453  36.724  1.00  0.00     0.000 C 
BRANCH  15  16
ATOM     16  C   UNL     1      -1.179   7.072  37.076  1.00  0.00     0.006 C 
BRANCH  16  17
ATOM     17  C   UNL     1      -1.545   6.009  36.031  1.00  0.00     0.053 C 
BRANCH  17  18
ATOM     18  C   UNL     1      -0.519   5.923  34.944  1.00  0.00     0.041 C 
ATOM     19  O   UNL     1      -0.873   5.740  33.750  1.00  0.00    -0.550 OA
ATOM     20  O   UNL     1       0.829   6.077  35.247  1.00  0.00    -0.550 OA
ENDBRANCH  17  18
ENDBRANCH  16  17
ENDBRANCH  15  16
ENDBRANCH  14  15
ENDBRANCH  13  14
ENDBRANCH  12  13
ENDBRANCH  11  12
ENDBRANCH   1  11
TORSDOF 15
ENDMDL
MODEL 6
REMARK VINA RESULT:    -2.941      8.755     11.728
REMARK INTER + INTRA:          -7.910
REMARK INTER:                  -6.148
REMARK INTRA:                  -1.762
REMARK UNBOUND:                -2.389
REMARK SMILES O=C([O-])CCCCCCCCCCCCCCC(=O)[O-]
REMARK SMILES IDX 10 1 9 2 8 3 7 4 6 5 5 6 4 7 2 8 1 9 3 10 11 11 12 12 13 13
REMARK SMILES IDX 14 14 15 15 16 16 17 17 18 18 19 19 20 20
REMARK H PARENT
REMARK Flexibility Score: inf
ROOT
ATOM      1  C   UNL     1       0.630   7.838  24.678  1.00  0.00     0.000 C 
ENDROOT
BRANCH   1   2
ATOM      2  C   UNL     1      -0.448   7.167  25.545  1.00  0.00     0.000 C 
BRANCH   2   3
ATOM      3  C   UNL     1      -0.571   5.660  25.270  1.00  0.00     0.000 C 
BRANCH   3   4
ATOM      4  C   UNL     1      -1.719   5.004  26.058  1.00  0.00     0.000 C 
BRANCH   4   5
ATOM      5  C   UNL     1      -1.247   4.382  27.382  1.00  0.00     0.000 C 
BRANCH   5   6
ATOM      6  C   UNL     1      -2.317   3.493  28.032  1.00  0.00     0.006 C 
BRANCH   6   7
ATOM      7  C   UNL     1      -3.462   3.210  27.053  1.00  0.00     0.053 C 
BRANCH   7   8
ATOM      8  C   UNL     1      -4.682   2.759  27.791  1.00  0.00     0.041 C 
ATOM      9  O   UNL     1      -5.032   3.340  28.852  1.00  0.00    -0.550 OA
ATOM     10  O   UNL     1      -5.408   1.666  27.334  1.00  0.00    -0.550 OA
ENDBRANCH   7   8
ENDBRANCH   6   7
ENDBRANCH   5   6
ENDBRANCH   4   5
ENDBRANCH   3   4
ENDBRANCH   2   3
ENDBRANCH   1   2
BRANCH   1  11
ATOM     11  C   UNL     1       1.329   9.002  25.401  1.00  0.00     0.000 C 
BRANCH  11  12
ATOM     12  C   UNL     1       2.818   8.729  25.665  1.00  0.00     0.000 C 
BRANCH  12  13
ATOM     13  C   UNL     1       3.019   8.090  27.047  1.00  0.00     0.000 C 
BRANCH  13  14
ATOM     14  C   UNL     1       3.273   6.575  26.970  1.00  0.00     0.000 C 
BRANCH  14  15
ATOM     15  C   UNL     1       2.209   5.757  27.718  1.00  0.00     0.000 C 
BRANCH  15  16
ATOM     16  C   UNL     1       1.371   6.658  28.638  1.00  0.00     0.006 C 
BRANCH  16  17
ATOM     17  C   UNL     1       1.265   6.095  30.061  1.00  0.00     0.053 C 
BRANCH  17  18
ATOM     18  C   UNL     1       0.753   7.119  31.026  1.00  0.00     0.041 C 
ATOM     19  O   UNL     1       0.743   8.338  30.712  1.00  0.00    -0.550 OA
ATOM     20  O   UNL     1       0.256   6.724  32.262  1.00  0.00    -0.550 OA
ENDBRANCH  17  18
ENDBRANCH  16  17
ENDBRANCH  15  16
ENDBRANCH  14  15
ENDBRANCH  13  14
ENDBRANCH  12  13
ENDBRANCH  11  12
ENDBRANCH   1  11
TORSDOF 15
ENDMDL
MODEL 7
REMARK VINA RESULT:    -2.936      1.642      2.047
REMARK INTER + INTRA:          -7.899
REMARK INTER:                  -5.397
REMARK INTRA:                  -2.502
REMARK UNBOUND:                -2.389
REMARK SMILES O=C([O-])CCCCCCCCCCCCCCC(=O)[O-]
REMARK SMILES IDX 10 1 9 2 8 3 7 4 6 5 5 6 4 7 2 8 1 9 3 10 11 11 12 12 13 13
REMARK SMILES IDX 14 14 15 15 16 16 17 17 18 18 19 19 20 20
REMARK H PARENT
REMARK Flexibility Score: inf
ROOT
ATOM      1  C   UNL     1      -2.379   7.029  40.612  1.00  0.00     0.000 C 
ENDROOT
BRANCH   1   2
ATOM      2  C   UNL     1      -1.787   5.867  39.797  1.00  0.00     0.000 C 
BRANCH   2   3
ATOM      3  C   UNL     1      -2.759   5.341  38.729  1.00  0.00     0.000 C 
BRANCH   3   4
ATOM      4  C   UNL     1      -2.101   5.200  37.345  1.00  0.00     0.000 C 
BRANCH   4   5
ATOM      5  C   UNL     1      -0.904   4.235  37.356  1.00  0.00     0.000 C 
BRANCH   5   6
ATOM      6  C   UNL     1      -0.344   3.973  35.950  1.00  0.00     0.006 C 
BRANCH   6   7
ATOM      7  C   UNL     1      -1.028   4.869  34.912  1.00  0.00     0.053 C 
BRANCH   7   8
ATOM      8  C   UNL     1      -0.008   5.551  34.056  1.00  0.00     0.041 C 
ATOM      9  O   UNL     1      -0.356   6.125  32.991  1.00  0.00    -0.550 OA
ATOM     10  O   UNL     1       1.335   5.511  34.410  1.00  0.00    -0.550 OA
ENDBRANCH   7   8
ENDBRANCH   6   7
ENDBRANCH   5   6
ENDBRANCH   4   5
ENDBRANCH   3   4
ENDBRANCH   2   3
ENDBRANCH   1   2
BRANCH   1  11
ATOM     11  C   UNL     1      -3.069   8.081  39.727  1.00  0.00     0.000 C 
BRANCH  11  12
ATOM     12  C   UNL     1      -2.076   9.071  39.099  1.00  0.00     0.000 C 
BRANCH  12  13
ATOM     13  C   UNL     1      -2.000   8.877  37.577  1.00  0.00     0.000 C 
BRANCH  13  14
ATOM     14  C   UNL     1      -0.556   8.885  37.049  1.00  0.00     0.000 C 
BRANCH  14  15
ATOM     15  C   UNL     1       0.463   8.432  38.105  1.00  0.00     0.000 C 
BRANCH  15  16
ATOM     16  C   UNL     1       1.096   7.088  37.715  1.00  0.00     0.006 C 
BRANCH  16  17
ATOM     17  C   UNL     1       1.943   6.495  38.850  1.00  0.00     0.053 C 
BRANCH  17  18
ATOM     18  C   UNL     1       2.514   5.162  38.476  1.00  0.00     0.041 C 
ATOM     19  O   UNL     1       2.855   4.927  37.287  1.00  0.00    -0.550 OA
ATOM     20  O   UNL     1       2.700   4.187  39.450  1.00  0.00    -0.550 OA
ENDBRANCH  17  18
ENDBRANCH  16  17
ENDBRANCH  15  16
ENDBRANCH  14  15
ENDBRANCH  13  14
ENDBRANCH  12  13
ENDBRANCH  11  12
ENDBRANCH   1  11
TORSDOF 15
ENDMDL
MODEL 8
REMARK VINA RESULT:    -2.909      2.086      4.377
REMARK INTER + INTRA:          -7.849
REMARK INTER:                  -5.693
REMARK INTRA:                  -2.156
REMARK UNBOUND:                -2.389
REMARK SMILES O=C([O-])CCCCCCCCCCCCCCC(=O)[O-]
REMARK SMILES IDX 10 1 9 2 8 3 7 4 6 5 5 6 4 7 2 8 1 9 3 10 11 11 12 12 13 13
REMARK SMILES IDX 14 14 15 15 16 16 17 17 18 18 19 19 20 20
REMARK H PARENT
REMARK Flexibility Score: inf
ROOT
ATOM      1  C   UNL     1      -3.331   6.755  40.453  1.00  0.00     0.000 C 
ENDROOT
BRANCH   1   2
ATOM      2  C   UNL     1      -3.521   6.491  41.956  1.00  0.00     0.000 C 
BRANCH   2   3
ATOM      3  C   UNL     1      -2.956   7.623  42.829  1.00  0.00     0.000 C 
BRANCH   3   4
ATOM      4  C   UNL     1      -1.455   7.452  43.125  1.00  0.00     0.000 C 
BRANCH   4   5
ATOM      5  C   UNL     1      -0.601   8.574  42.513  1.00  0.00     0.000 C 
BRANCH   5   6
ATOM      6  C   UNL     1       0.355   8.063  41.426  1.00  0.00     0.006 C 
BRANCH   6   7
ATOM      7  C   UNL     1       0.255   6.540  41.281  1.00  0.00     0.053 C 
BRANCH   7   8
ATOM      8  C   UNL     1       1.084   6.069  40.129  1.00  0.00     0.041 C 
ATOM      9  O   UNL     1       1.716   6.898  39.421  1.00  0.00    -0.550 OA
ATOM     10  O   UNL     1       1.122   4.718  39.804  1.00  0.00    -0.550 OA
ENDBRANCH   7   8
ENDBRANCH   6   7
ENDBRANCH   5   6
ENDBRANCH   4   5
ENDBRANCH   3   4
ENDBRANCH   2   3
ENDBRANCH   1   2
BRANCH   1  11
ATOM     11  C   UNL     1      -3.504   8.238  40.087  1.00  0.00     0.000 C 
BRANCH  11  12
ATOM     12  C   UNL     1      -2.383   8.759  39.174  1.00  0.00     0.000 C 
BRANCH  12  13
ATOM     13  C   UNL     1      -1.799   7.622  38.323  1.00  0.00     0.000 C 
BRANCH  13  14
ATOM     14  C   UNL     1      -1.608   8.020  36.851  1.00  0.00     0.000 C 
BRANCH  14  15
ATOM     15  C   UNL     1      -0.143   7.928  36.398  1.00  0.00     0.000 C 
BRANCH  15  16
ATOM     16  C   UNL     1       0.093   6.667  35.553  1.00  0.00     0.006 C 
BRANCH  16  17
ATOM     17  C   UNL     1       0.591   5.487  36.399  1.00  0.00     0.053 C 
BRANCH  17  18
ATOM     18  C   UNL     1       1.984   5.086  36.024  1.00  0.00     0.041 C 
ATOM     19  O   UNL     1       2.820   4.784  36.917  1.00  0.00    -0.550 OA
ATOM     20  O   UNL     1       2.352   5.016  34.686  1.00  0.00    -0.550 OA
ENDBRANCH  17  18
ENDBRANCH  16  17
ENDBRANCH  15  16
ENDBRANCH  14  15
ENDBRANCH  13  14
ENDBRANCH  12  13
ENDBRANCH  11  12
ENDBRANCH   1  11
TORSDOF 15
ENDMDL
MODEL 9
REMARK VINA RESULT:    -2.879      1.959      2.737
REMARK INTER + INTRA:          -7.793
REMARK INTER:                  -5.785
REMARK INTRA:                  -2.008
REMARK UNBOUND:                -2.389
REMARK SMILES O=C([O-])CCCCCCCCCCCCCCC(=O)[O-]
REMARK SMILES IDX 10 1 9 2 8 3 7 4 6 5 5 6 4 7 2 8 1 9 3 10 11 11 12 12 13 13
REMARK SMILES IDX 14 14 15 15 16 16 17 17 18 18 19 19 20 20
REMARK H PARENT
REMARK Flexibility Score: inf
ROOT
ATOM      1  C   UNL     1      -1.636   5.246  39.424  1.00  0.00     0.000 C 
ENDROOT
BRANCH   1   2
ATOM      2  C   UNL     1      -1.367   4.763  37.989  1.00  0.00     0.000 C 
BRANCH   2   3
ATOM      3  C   UNL     1      -2.513   5.110  37.026  1.00  0.00     0.000 C 
BRANCH   3   4
ATOM      4  C   UNL     1      -2.014   5.489  35.621  1.00  0.00     0.000 C 
BRANCH   4   5
ATOM      5  C   UNL     1      -0.749   4.715  35.215  1.00  0.00     0.000 C 
BRANCH   5   6
ATOM      6  C   UNL     1      -0.853   4.110  33.807  1.00  0.00     0.006 C 
BRANCH   6   7
ATOM      7  C   UNL     1      -0.503   5.150  32.737  1.00  0.00     0.053 C 
BRANCH   7   8
ATOM      8  C   UNL     1       0.725   5.908  33.127  1.00  0.00     0.041 C 
ATOM      9  O   UNL     1       1.824   5.309  33.265  1.00  0.00    -0.550 OA
ATOM     10  O   UNL     1       0.648   7.272  33.385  1.00  0.00    -0.550 OA
ENDBRANCH   7   8
ENDBRANCH   6   7
ENDBRANCH   5   6
ENDBRANCH   4   5
ENDBRANCH   3   4
ENDBRANCH   2   3
ENDBRANCH   1   2
BRANCH   1  11
ATOM     11  C   UNL     1      -3.134   5.443  39.711  1.00  0.00     0.000 C 
BRANCH  11  12
ATOM     12  C   UNL     1      -3.462   6.858  40.211  1.00  0.00     0.000 C 
BRANCH  12  13
ATOM     13  C   UNL     1      -2.209   7.539  40.782  1.00  0.00     0.000 C 
BRANCH  13  14
ATOM     14  C   UNL     1      -1.760   8.751  39.950  1.00  0.00     0.000 C 
BRANCH  14  15
ATOM     15  C   UNL     1      -2.362   8.754  38.537  1.00  0.00     0.000 C 
BRANCH  15  16
ATOM     16  C   UNL     1      -1.260   8.650  37.472  1.00  0.00     0.006 C 
BRANCH  16  17
ATOM     17  C   UNL     1       0.142   8.835  38.067  1.00  0.00     0.053 C 
BRANCH  17  18
ATOM     18  C   UNL     1       0.997   7.623  37.859  1.00  0.00     0.041 C 
ATOM     19  O   UNL     1       1.072   7.086  36.723  1.00  0.00    -0.550 OA
ATOM     20  O   UNL     1       1.737   7.105  38.915  1.00  0.00    -0.550 OA
ENDBRANCH  17  18
ENDBRANCH  16  17
ENDBRANCH  15  16
ENDBRANCH  14  15
ENDBRANCH  13  14
ENDBRANCH  12  13
ENDBRANCH  11  12
ENDBRANCH   1  11
TORSDOF 15
ENDMDL
