MODEL 1
REMARK VINA RESULT:    -4.246      0.000      0.000
REMARK INTER + INTRA:          -6.765
REMARK INTER:                  -6.479
REMARK INTRA:                  -0.286
REMARK UNBOUND:                -0.286
REMARK SMILES O=C([O-])CCCCCCCCC(=O)[O-]
REMARK SMILES IDX 7 1 6 2 5 3 4 4 2 5 1 6 3 7 8 8 9 9 10 10 11 11 12 12 13 13
REMARK SMILES IDX 14 14
REMARK H PARENT
REMARK Flexibility Score: inf
ROOT
ATOM      1  C   UNL     1       5.254 -36.233  20.564  1.00  0.00     0.000 C 
ENDROOT
BRANCH   1   2
ATOM      2  C   UNL     1       5.900 -34.905  20.994  1.00  0.00     0.000 C 
BRANCH   2   3
ATOM      3  C   UNL     1       5.921 -34.727  22.521  1.00  0.00     0.006 C 
BRANCH   3   4
ATOM      4  C   UNL     1       5.751 -36.053  23.274  1.00  0.00     0.053 C 
BRANCH   4   5
ATOM      5  C   UNL     1       5.746 -35.818  24.751  1.00  0.00     0.041 C 
ATOM      6  O   UNL     1       6.123 -34.711  25.217  1.00  0.00    -0.550 OA
ATOM      7  O   UNL     1       5.373 -36.838  25.617  1.00  0.00    -0.550 OA
ENDBRANCH   4   5
ENDBRANCH   3   4
ENDBRANCH   2   3
ENDBRANCH   1   2
BRANCH   1   8
ATOM      8  C   UNL     1       4.691 -36.188  19.131  1.00  0.00     0.000 C 
BRANCH   8   9
ATOM      9  C   UNL     1       3.305 -36.835  18.948  1.00  0.00     0.000 C 
BRANCH   9  10
ATOM     10  C   UNL     1       2.773 -36.860  17.501  1.00  0.00     0.006 C 
BRANCH  10  11
ATOM     11  C   UNL     1       3.532 -35.929  16.538  1.00  0.00     0.053 C 
BRANCH  11  12
ATOM     12  C   UNL     1       3.402 -36.350  15.105  1.00  0.00     0.041 C 
ATOM     13  O   UNL     1       2.674 -35.693  14.314  1.00  0.00    -0.550 OA
ATOM     14  O   UNL     1       4.112 -37.446  14.634  1.00  0.00    -0.550 OA
ENDBRANCH  11  12
ENDBRANCH  10  11
ENDBRANCH   9  10
ENDBRANCH   8   9
ENDBRANCH   1   8
TORSDOF 9
ENDMDL
MODEL 2
REMARK VINA RESULT:    -4.182      1.247      1.780
REMARK INTER + INTRA:          -6.668
REMARK INTER:                  -6.317
REMARK INTRA:                  -0.351
REMARK UNBOUND:                -0.286
REMARK SMILES O=C([O-])CCCCCCCCC(=O)[O-]
REMARK SMILES IDX 7 1 6 2 5 3 4 4 2 5 1 6 3 7 8 8 9 9 10 10 11 11 12 12 13 13
REMARK SMILES IDX 14 14
REMARK H PARENT
REMARK Flexibility Score: inf
ROOT
ATOM      1  C   UNL     1       4.730 -34.680  21.387  1.00  0.00     0.000 C 
ENDROOT
BRANCH   1   2
ATOM      2  C   UNL     1       5.090 -34.351  22.845  1.00  0.00     0.000 C 
BRANCH   2   3
ATOM      3  C   UNL     1       6.061 -35.376  23.456  1.00  0.00     0.006 C 
BRANCH   3   4
ATOM      4  C   UNL     1       5.903 -35.506  24.977  1.00  0.00     0.053 C 
BRANCH   4   5
ATOM      5  C   UNL     1       5.631 -36.928  25.353  1.00  0.00     0.041 C 
ATOM      6  O   UNL     1       5.780 -37.308  26.544  1.00  0.00    -0.550 OA
ATOM      7  O   UNL     1       5.262 -37.847  24.378  1.00  0.00    -0.550 OA
ENDBRANCH   4   5
ENDBRANCH   3   4
ENDBRANCH   2   3
ENDBRANCH   1   2
BRANCH   1   8
ATOM      8  C   UNL     1       5.505 -35.893  20.837  1.00  0.00     0.000 C 
BRANCH   8   9
ATOM      9  C   UNL     1       4.730 -36.773  19.838  1.00  0.00     0.000 C 
BRANCH   9  10
ATOM     10  C   UNL     1       4.265 -36.062  18.552  1.00  0.00     0.006 C 
BRANCH  10  11
ATOM     11  C   UNL     1       3.097 -36.763  17.837  1.00  0.00     0.053 C 
BRANCH  11  12
ATOM     12  C   UNL     1       2.972 -36.356  16.399  1.00  0.00     0.041 C 
ATOM     13  O   UNL     1       2.214 -35.404  16.073  1.00  0.00    -0.550 OA
ATOM     14  O   UNL     1       3.719 -37.004  15.424  1.00  0.00    -0.550 OA
ENDBRANCH  11  12
ENDBRANCH  10  11
ENDBRANCH   9  10
ENDBRANCH   8   9
ENDBRANCH   1   8
TORSDOF 9
ENDMDL
MODEL 3
REMARK VINA RESULT:    -4.172      0.740      8.066
REMARK INTER + INTRA:          -6.653
REMARK INTER:                  -6.360
REMARK INTRA:                  -0.293
REMARK UNBOUND:                -0.286
REMARK SMILES O=C([O-])CCCCCCCCC(=O)[O-]
REMARK SMILES IDX 7 1 6 2 5 3 4 4 2 5 1 6 3 7 8 8 9 9 10 10 11 11 12 12 13 13
REMARK SMILES IDX 14 14
REMARK H PARENT
REMARK Flexibility Score: inf
ROOT
ATOM      1  C   UNL     1       3.804 -36.552  19.513  1.00  0.00     0.000 C 
ENDROOT
BRANCH   1   2
ATOM      2  C   UNL     1       3.921 -36.087  18.052  1.00  0.00     0.000 C 
BRANCH   2   3
ATOM      3  C   UNL     1       2.744 -36.564  17.186  1.00  0.00     0.006 C 
BRANCH   3   4
ATOM      4  C   UNL     1       2.590 -35.750  15.895  1.00  0.00     0.053 C 
BRANCH   4   5
ATOM      5  C   UNL     1       3.503 -36.277  14.834  1.00  0.00     0.041 C 
ATOM      6  O   UNL     1       3.883 -35.528  13.895  1.00  0.00    -0.550 OA
ATOM      7  O   UNL     1       3.894 -37.609  14.852  1.00  0.00    -0.550 OA
ENDBRANCH   4   5
ENDBRANCH   3   4
ENDBRANCH   2   3
ENDBRANCH   1   2
BRANCH   1   8
ATOM      8  C   UNL     1       5.158 -36.564  20.248  1.00  0.00     0.000 C 
BRANCH   8   9
ATOM      9  C   UNL     1       5.751 -35.177  20.558  1.00  0.00     0.000 C 
BRANCH   9  10
ATOM     10  C   UNL     1       5.669 -34.736  22.033  1.00  0.00     0.006 C 
BRANCH  10  11
ATOM     11  C   UNL     1       5.765 -35.898  23.040  1.00  0.00     0.053 C 
BRANCH  11  12
ATOM     12  C   UNL     1       5.777 -35.428  24.463  1.00  0.00     0.041 C 
ATOM     13  O   UNL     1       6.125 -34.250  24.741  1.00  0.00    -0.550 OA
ATOM     14  O   UNL     1       5.368 -36.280  25.481  1.00  0.00    -0.550 OA
ENDBRANCH  11  12
ENDBRANCH  10  11
ENDBRANCH   9  10
ENDBRANCH   8   9
ENDBRANCH   1   8
TORSDOF 9
ENDMDL
MODEL 4
REMARK VINA RESULT:    -4.103      1.356      7.888
REMARK INTER + INTRA:          -6.547
REMARK INTER:                  -6.267
REMARK INTRA:                  -0.280
REMARK UNBOUND:                -0.286
REMARK SMILES O=C([O-])CCCCCCCCC(=O)[O-]
REMARK SMILES IDX 7 1 6 2 5 3 4 4 2 5 1 6 3 7 8 8 9 9 10 10 11 11 12 12 13 13
REMARK SMILES IDX 14 14
REMARK H PARENT
REMARK Flexibility Score: inf
ROOT
ATOM      1  C   UNL     1       5.064 -35.205  20.303  1.00  0.00     0.000 C 
ENDROOT
BRANCH   1   2
ATOM      2  C   UNL     1       4.854 -36.685  19.939  1.00  0.00     0.000 C 
BRANCH   2   3
ATOM      3  C   UNL     1       3.800 -36.875  18.835  1.00  0.00     0.006 C 
BRANCH   3   4
ATOM      4  C   UNL     1       3.934 -35.847  17.704  1.00  0.00     0.053 C 
BRANCH   4   5
ATOM      5  C   UNL     1       3.118 -36.263  16.522  1.00  0.00     0.041 C 
ATOM      6  O   UNL     1       1.872 -36.081  16.517  1.00  0.00    -0.550 OA
ATOM      7  O   UNL     1       3.725 -36.898  15.446  1.00  0.00    -0.550 OA
ENDBRANCH   4   5
ENDBRANCH   3   4
ENDBRANCH   2   3
ENDBRANCH   1   2
BRANCH   1   8
ATOM      8  C   UNL     1       6.010 -35.013  21.504  1.00  0.00     0.000 C 
BRANCH   8   9
ATOM      9  C   UNL     1       5.323 -34.649  22.833  1.00  0.00     0.000 C 
BRANCH   9  10
ATOM     10  C   UNL     1       6.125 -34.982  24.107  1.00  0.00     0.006 C 
BRANCH  10  11
ATOM     11  C   UNL     1       5.279 -35.597  25.236  1.00  0.00     0.053 C 
BRANCH  11  12
ATOM     12  C   UNL     1       5.427 -37.086  25.323  1.00  0.00     0.041 C 
ATOM     13  O   UNL     1       5.560 -37.647  26.443  1.00  0.00    -0.550 OA
ATOM     14  O   UNL     1       5.381 -37.859  24.170  1.00  0.00    -0.550 OA
ENDBRANCH  11  12
ENDBRANCH  10  11
ENDBRANCH   9  10
ENDBRANCH   8   9
ENDBRANCH   1   8
TORSDOF 9
ENDMDL
MODEL 5
REMARK VINA RESULT:    -3.986      0.647      8.221
REMARK INTER + INTRA:          -6.369
REMARK INTER:                  -6.082
REMARK INTRA:                  -0.287
REMARK UNBOUND:                -0.286
REMARK SMILES O=C([O-])CCCCCCCCC(=O)[O-]
REMARK SMILES IDX 7 1 6 2 5 3 4 4 2 5 1 6 3 7 8 8 9 9 10 10 11 11 12 12 13 13
REMARK SMILES IDX 14 14
REMARK H PARENT
REMARK Flexibility Score: inf
ROOT
ATOM      1  C   UNL     1       4.367 -36.771  19.838  1.00  0.00     0.000 C 
ENDROOT
BRANCH   1   2
ATOM      2  C   UNL     1       3.270 -36.830  18.762  1.00  0.00     0.000 C 
BRANCH   2   3
ATOM      3  C   UNL     1       3.739 -36.265  17.411  1.00  0.00     0.006 C 
BRANCH   3   4
ATOM      4  C   UNL     1       2.583 -36.050  16.425  1.00  0.00     0.053 C 
BRANCH   4   5
ATOM      5  C   UNL     1       3.034 -36.322  15.025  1.00  0.00     0.041 C 
ATOM      6  O   UNL     1       3.973 -37.132  14.807  1.00  0.00    -0.550 OA
ATOM      7  O   UNL     1       2.452 -35.642  13.962  1.00  0.00    -0.550 OA
ENDBRANCH   4   5
ENDBRANCH   3   4
ENDBRANCH   2   3
ENDBRANCH   1   2
BRANCH   1   8
ATOM      8  C   UNL     1       4.520 -35.370  20.460  1.00  0.00     0.000 C 
BRANCH   8   9
ATOM      9  C   UNL     1       5.939 -35.012  20.938  1.00  0.00     0.000 C 
BRANCH   9  10
ATOM     10  C   UNL     1       6.062 -34.641  22.429  1.00  0.00     0.006 C 
BRANCH  10  11
ATOM     11  C   UNL     1       6.028 -35.851  23.380  1.00  0.00     0.053 C 
BRANCH  11  12
ATOM     12  C   UNL     1       5.766 -35.460  24.804  1.00  0.00     0.041 C 
ATOM     13  O   UNL     1       5.250 -36.285  25.604  1.00  0.00    -0.550 OA
ATOM     14  O   UNL     1       6.124 -34.197  25.256  1.00  0.00    -0.550 OA
ENDBRANCH  11  12
ENDBRANCH  10  11
ENDBRANCH   9  10
ENDBRANCH   8   9
ENDBRANCH   1   8
TORSDOF 9
ENDMDL
MODEL 6
REMARK VINA RESULT:    -3.870      1.613      2.309
REMARK INTER + INTRA:          -6.192
REMARK INTER:                  -5.824
REMARK INTRA:                  -0.367
REMARK UNBOUND:                -0.286
REMARK SMILES O=C([O-])CCCCCCCCC(=O)[O-]
REMARK SMILES IDX 7 1 6 2 5 3 4 4 2 5 1 6 3 7 8 8 9 9 10 10 11 11 12 12 13 13
REMARK SMILES IDX 14 14
REMARK H PARENT
REMARK Flexibility Score: inf
ROOT
ATOM      1  C   UNL     1       3.675 -36.927  19.335  1.00  0.00     0.000 C 
ENDROOT
BRANCH   1   2
ATOM      2  C   UNL     1       5.007 -36.834  20.097  1.00  0.00     0.000 C 
BRANCH   2   3
ATOM      3  C   UNL     1       5.499 -35.385  20.247  1.00  0.00     0.006 C 
BRANCH   3   4
ATOM      4  C   UNL     1       6.107 -35.107  21.628  1.00  0.00     0.053 C 
BRANCH   4   5
ATOM      5  C   UNL     1       5.094 -34.470  22.525  1.00  0.00     0.041 C 
ATOM      6  O   UNL     1       5.384 -34.206  23.722  1.00  0.00    -0.550 OA
ATOM      7  O   UNL     1       3.813 -34.212  22.055  1.00  0.00    -0.550 OA
ENDBRANCH   4   5
ENDBRANCH   3   4
ENDBRANCH   2   3
ENDBRANCH   1   2
BRANCH   1   8
ATOM      8  C   UNL     1       3.798 -36.500  17.860  1.00  0.00     0.000 C 
BRANCH   8   9
ATOM      9  C   UNL     1       2.473 -36.442  17.077  1.00  0.00     0.000 C 
BRANCH   9  10
ATOM     10  C   UNL     1       2.449 -35.462  15.887  1.00  0.00     0.006 C 
BRANCH  10  11
ATOM     11  C   UNL     1       2.573 -36.144  14.512  1.00  0.00     0.053 C 
BRANCH  11  12
ATOM     12  C   UNL     1       3.963 -36.634  14.235  1.00  0.00     0.041 C 
ATOM     13  O   UNL     1       4.860 -35.827  13.875  1.00  0.00    -0.550 OA
ATOM     14  O   UNL     1       4.275 -37.976  14.409  1.00  0.00    -0.550 OA
ENDBRANCH  11  12
ENDBRANCH  10  11
ENDBRANCH   9  10
ENDBRANCH   8   9
ENDBRANCH   1   8
TORSDOF 9
ENDMDL
MODEL 7
REMARK VINA RESULT:    -2.557      2.804      6.475
REMARK INTER + INTRA:          -4.188
REMARK INTER:                  -3.515
REMARK INTRA:                  -0.673
REMARK UNBOUND:                -0.286
REMARK SMILES O=C([O-])CCCCCCCCC(=O)[O-]
REMARK SMILES IDX 7 1 6 2 5 3 4 4 2 5 1 6 3 7 8 8 9 9 10 10 11 11 12 12 13 13
REMARK SMILES IDX 14 14
REMARK H PARENT
REMARK Flexibility Score: inf
ROOT
ATOM      1  C   UNL     1       6.120 -35.171  23.193  1.00  0.00     0.000 C 
ENDROOT
BRANCH   1   2
ATOM      2  C   UNL     1       5.137 -34.242  22.460  1.00  0.00     0.000 C 
BRANCH   2   3
ATOM      3  C   UNL     1       4.249 -34.997  21.458  1.00  0.00     0.006 C 
BRANCH   3   4
ATOM      4  C   UNL     1       5.012 -35.424  20.196  1.00  0.00     0.053 C 
BRANCH   4   5
ATOM      5  C   UNL     1       4.126 -36.228  19.298  1.00  0.00     0.041 C 
ATOM      6  O   UNL     1       4.254 -36.152  18.048  1.00  0.00    -0.550 OA
ATOM      7  O   UNL     1       3.125 -37.024  19.840  1.00  0.00    -0.550 OA
ENDBRANCH   4   5
ENDBRANCH   3   4
ENDBRANCH   2   3
ENDBRANCH   1   2
BRANCH   1   8
ATOM      8  C   UNL     1       5.933 -35.153  24.722  1.00  0.00     0.000 C 
BRANCH   8   9
ATOM      9  C   UNL     1       5.157 -36.349  25.305  1.00  0.00     0.000 C 
BRANCH   9  10
ATOM     10  C   UNL     1       5.703 -37.740  24.927  1.00  0.00     0.006 C 
BRANCH  10  11
ATOM     11  C   UNL     1       4.779 -38.543  23.994  1.00  0.00     0.053 C 
BRANCH  11  12
ATOM     12  C   UNL     1       5.512 -39.145  22.833  1.00  0.00     0.041 C 
ATOM     13  O   UNL     1       5.831 -38.431  21.845  1.00  0.00    -0.550 OA
ATOM     14  O   UNL     1       5.874 -40.485  22.857  1.00  0.00    -0.550 OA
ENDBRANCH  11  12
ENDBRANCH  10  11
ENDBRANCH   9  10
ENDBRANCH   8   9
ENDBRANCH   1   8
TORSDOF 9
ENDMDL
MODEL 8
REMARK VINA RESULT:    -2.528      2.106      7.034
REMARK INTER + INTRA:          -4.144
REMARK INTER:                  -3.979
REMARK INTRA:                  -0.165
REMARK UNBOUND:                -0.286
REMARK SMILES O=C([O-])CCCCCCCCC(=O)[O-]
REMARK SMILES IDX 7 1 6 2 5 3 4 4 2 5 1 6 3 7 8 8 9 9 10 10 11 11 12 12 13 13
REMARK SMILES IDX 14 14
REMARK H PARENT
REMARK Flexibility Score: inf
ROOT
ATOM      1  C   UNL     1       5.134 -34.341  19.069  1.00  0.00     0.000 C 
ENDROOT
BRANCH   1   2
ATOM      2  C   UNL     1       4.606 -35.311  17.999  1.00  0.00     0.000 C 
BRANCH   2   3
ATOM      3  C   UNL     1       3.869 -36.516  18.609  1.00  0.00     0.006 C 
BRANCH   3   4
ATOM      4  C   UNL     1       2.661 -36.957  17.772  1.00  0.00     0.053 C 
BRANCH   4   5
ATOM      5  C   UNL     1       2.759 -36.407  16.385  1.00  0.00     0.041 C 
ATOM      6  O   UNL     1       2.037 -35.436  16.036  1.00  0.00    -0.550 OA
ATOM      7  O   UNL     1       3.612 -36.997  15.460  1.00  0.00    -0.550 OA
ENDBRANCH   4   5
ENDBRANCH   3   4
ENDBRANCH   2   3
ENDBRANCH   1   2
BRANCH   1   8
ATOM      8  C   UNL     1       6.037 -35.031  20.109  1.00  0.00     0.000 C 
BRANCH   8   9
ATOM      9  C   UNL     1       5.347 -35.407  21.434  1.00  0.00     0.000 C 
BRANCH   9  10
ATOM     10  C   UNL     1       5.931 -36.637  22.159  1.00  0.00     0.006 C 
BRANCH  10  11
ATOM     11  C   UNL     1       5.620 -37.977  21.468  1.00  0.00     0.053 C 
BRANCH  11  12
ATOM     12  C   UNL     1       5.627 -39.133  22.422  1.00  0.00     0.041 C 
ATOM     13  O   UNL     1       6.007 -40.271  22.036  1.00  0.00    -0.550 OA
ATOM     14  O   UNL     1       5.250 -38.947  23.745  1.00  0.00    -0.550 OA
ENDBRANCH  11  12
ENDBRANCH  10  11
ENDBRANCH   9  10
ENDBRANCH   8   9
ENDBRANCH   1   8
TORSDOF 9
ENDMDL
