MODEL 1
REMARK VINA RESULT:    -5.057      0.000      0.000
REMARK INTER + INTRA:          -6.151
REMARK INTER:                  -6.092
REMARK INTRA:                  -0.059
REMARK UNBOUND:                -0.059
REMARK SMILES OCCc1ccc(O)c(O)c1
REMARK SMILES IDX 3 1 4 2 5 3 6 4 7 5 11 6 9 7 8 8 10 10 2 12 1 13
REMARK H PARENT 8 9 10 11 1 14
REMARK Flexibility Score: inf
ROOT
ATOM      1  C   UNL     1     108.554 121.706 122.854  1.00  0.00     0.064 C 
ENDROOT
BRANCH   1   2
ATOM      2  C   UNL     1     109.192 120.936 121.726  1.00  0.00    -0.042 A 
ATOM      3  C   UNL     1     108.503 120.742 120.521  1.00  0.00     0.008 A 
ATOM      4  C   UNL     1     109.108 120.053 119.469  1.00  0.00     0.050 A 
ATOM      5  C   UNL     1     110.410 119.553 119.597  1.00  0.00     0.157 A 
ATOM      6  C   UNL     1     110.500 120.447 121.858  1.00  0.00     0.054 A 
ATOM      7  C   UNL     1     111.116 119.755 120.808  1.00  0.00     0.157 A 
BRANCH   5   8
ATOM      8  O   UNL     1     110.957 118.870 118.509  1.00  0.00    -0.504 OA
ATOM      9  H   UNL     1     111.947 118.817 118.315  1.00  0.00     0.293 HD
ENDBRANCH   5   8
BRANCH   7  10
ATOM     10  O   UNL     1     112.417 119.291 121.008  1.00  0.00    -0.504 OA
ATOM     11  H   UNL     1     113.078 119.121 120.263  1.00  0.00     0.293 HD
ENDBRANCH   7  10
ENDBRANCH   1   2
BRANCH   1  12
ATOM     12  C   UNL     1     109.535 122.703 123.478  1.00  0.00     0.161 C 
BRANCH  12  13
ATOM     13  O   UNL     1     108.874 123.558 124.372  1.00  0.00    -0.396 OA
ATOM     14  H   UNL     1     108.415 124.247 123.824  1.00  0.00     0.210 HD
ENDBRANCH  12  13
ENDBRANCH   1  12
TORSDOF 5
ENDMDL
MODEL 2
REMARK VINA RESULT:    -4.840      1.176      2.207
REMARK INTER + INTRA:          -5.889
REMARK INTER:                  -5.824
REMARK INTRA:                  -0.065
REMARK UNBOUND:                -0.059
REMARK SMILES OCCc1ccc(O)c(O)c1
REMARK SMILES IDX 3 1 4 2 5 3 6 4 7 5 11 6 9 7 8 8 10 10 2 12 1 13
REMARK H PARENT 8 9 10 11 1 14
REMARK Flexibility Score: inf
ROOT
ATOM      1  C   UNL     1     110.294 122.408 122.873  1.00  0.00     0.064 C 
ENDROOT
BRANCH   1   2
ATOM      2  C   UNL     1     110.356 121.424 121.733  1.00  0.00    -0.042 A 
ATOM      3  C   UNL     1     111.512 120.661 121.518  1.00  0.00     0.008 A 
ATOM      4  C   UNL     1     111.556 119.730 120.479  1.00  0.00     0.050 A 
ATOM      5  C   UNL     1     110.449 119.539 119.643  1.00  0.00     0.157 A 
ATOM      6  C   UNL     1     109.240 121.231 120.906  1.00  0.00     0.054 A 
ATOM      7  C   UNL     1     109.274 120.298 119.861  1.00  0.00     0.157 A 
BRANCH   5   8
ATOM      8  O   UNL     1     110.559 118.595 118.620  1.00  0.00    -0.504 OA
ATOM      9  H   UNL     1     111.437 118.287 118.227  1.00  0.00     0.293 HD
ENDBRANCH   5   8
BRANCH   7  10
ATOM     10  O   UNL     1     108.130 120.160 119.074  1.00  0.00    -0.504 OA
ATOM     11  H   UNL     1     107.661 119.281 118.907  1.00  0.00     0.293 HD
ENDBRANCH   7  10
ENDBRANCH   1   2
BRANCH   1  12
ATOM     12  C   UNL     1     108.874 122.526 123.435  1.00  0.00     0.161 C 
BRANCH  12  13
ATOM     13  O   UNL     1     108.794 123.567 124.372  1.00  0.00    -0.396 OA
ATOM     14  H   UNL     1     107.879 123.540 124.754  1.00  0.00     0.210 HD
ENDBRANCH  12  13
ENDBRANCH   1  12
TORSDOF 5
ENDMDL
MODEL 3
REMARK VINA RESULT:    -4.809      2.021      3.192
REMARK INTER + INTRA:          -5.852
REMARK INTER:                  -5.764
REMARK INTRA:                  -0.088
REMARK UNBOUND:                -0.059
REMARK SMILES OCCc1ccc(O)c(O)c1
REMARK SMILES IDX 3 1 4 2 5 3 6 4 7 5 11 6 9 7 8 8 10 10 2 12 1 13
REMARK H PARENT 8 9 10 11 1 14
REMARK Flexibility Score: inf
ROOT
ATOM      1  C   UNL     1     107.207 121.384 120.547  1.00  0.00     0.064 C 
ENDROOT
BRANCH   1   2
ATOM      2  C   UNL     1     108.616 120.854 120.600  1.00  0.00    -0.042 A 
ATOM      3  C   UNL     1     109.462 121.191 121.665  1.00  0.00     0.008 A 
ATOM      4  C   UNL     1     110.757 120.675 121.726  1.00  0.00     0.050 A 
ATOM      5  C   UNL     1     111.228 119.810 120.731  1.00  0.00     0.157 A 
ATOM      6  C   UNL     1     109.078 119.980 119.605  1.00  0.00     0.054 A 
ATOM      7  C   UNL     1     110.376 119.456 119.657  1.00  0.00     0.157 A 
BRANCH   5   8
ATOM      8  O   UNL     1     112.534 119.330 120.848  1.00  0.00    -0.504 OA
ATOM      9  H   UNL     1     112.785 118.492 121.352  1.00  0.00     0.293 HD
ENDBRANCH   5   8
BRANCH   7  10
ATOM     10  O   UNL     1     110.773 118.595 118.631  1.00  0.00    -0.504 OA
ATOM     11  H   UNL     1     111.714 118.547 118.267  1.00  0.00     0.293 HD
ENDBRANCH   7  10
ENDBRANCH   1   2
BRANCH   1  12
ATOM     12  C   UNL     1     106.752 121.627 119.105  1.00  0.00     0.161 C 
BRANCH  12  13
ATOM     13  O   UNL     1     107.298 122.818 118.604  1.00  0.00    -0.396 OA
ATOM     14  H   UNL     1     108.092 123.026 119.162  1.00  0.00     0.210 HD
ENDBRANCH  12  13
ENDBRANCH   1  12
TORSDOF 5
ENDMDL
MODEL 4
REMARK VINA RESULT:    -4.645      1.438      2.616
REMARK INTER + INTRA:          -5.655
REMARK INTER:                  -5.576
REMARK INTRA:                  -0.079
REMARK UNBOUND:                -0.059
REMARK SMILES OCCc1ccc(O)c(O)c1
REMARK SMILES IDX 3 1 4 2 5 3 6 4 7 5 11 6 9 7 8 8 10 10 2 12 1 13
REMARK H PARENT 8 9 10 11 1 14
REMARK Flexibility Score: inf
ROOT
ATOM      1  C   UNL     1     107.182 121.286 120.898  1.00  0.00     0.064 C 
ENDROOT
BRANCH   1   2
ATOM      2  C   UNL     1     108.592 120.760 120.823  1.00  0.00    -0.042 A 
ATOM      3  C   UNL     1     109.520 121.072 121.826  1.00  0.00     0.008 A 
ATOM      4  C   UNL     1     110.817 120.560 121.768  1.00  0.00     0.050 A 
ATOM      5  C   UNL     1     111.209 119.725 120.715  1.00  0.00     0.157 A 
ATOM      6  C   UNL     1     108.975 119.916 119.771  1.00  0.00     0.054 A 
ATOM      7  C   UNL     1     110.274 119.396 119.704  1.00  0.00     0.157 A 
BRANCH   5   8
ATOM      8  O   UNL     1     112.521 119.248 120.714  1.00  0.00    -0.504 OA
ATOM      9  H   UNL     1     113.141 119.302 119.918  1.00  0.00     0.293 HD
ENDBRANCH   5   8
BRANCH   7  10
ATOM     10  O   UNL     1     110.589 118.566 118.626  1.00  0.00    -0.504 OA
ATOM     11  H   UNL     1     111.505 118.511 118.205  1.00  0.00     0.293 HD
ENDBRANCH   7  10
ENDBRANCH   1   2
BRANCH   1  12
ATOM     12  C   UNL     1     106.451 120.757 122.136  1.00  0.00     0.161 C 
BRANCH  12  13
ATOM     13  O   UNL     1     105.936 121.816 122.900  1.00  0.00    -0.396 OA
ATOM     14  H   UNL     1     104.952 121.695 122.930  1.00  0.00     0.210 HD
ENDBRANCH  12  13
ENDBRANCH   1  12
TORSDOF 5
ENDMDL
MODEL 5
REMARK VINA RESULT:    -4.612      2.120      3.241
REMARK INTER + INTRA:          -5.615
REMARK INTER:                  -5.540
REMARK INTRA:                  -0.075
REMARK UNBOUND:                -0.059
REMARK SMILES OCCc1ccc(O)c(O)c1
REMARK SMILES IDX 3 1 4 2 5 3 6 4 7 5 11 6 9 7 8 8 10 10 2 12 1 13
REMARK H PARENT 8 9 10 11 1 14
REMARK Flexibility Score: inf
ROOT
ATOM      1  C   UNL     1     106.960 120.613 119.184  1.00  0.00     0.064 C 
ENDROOT
BRANCH   1   2
ATOM      2  C   UNL     1     108.355 120.254 119.626  1.00  0.00    -0.042 A 
ATOM      3  C   UNL     1     109.146 119.398 118.848  1.00  0.00     0.008 A 
ATOM      4  C   UNL     1     110.448 119.089 119.245  1.00  0.00     0.050 A 
ATOM      5  C   UNL     1     110.985 119.633 120.419  1.00  0.00     0.157 A 
ATOM      6  C   UNL     1     108.890 120.810 120.797  1.00  0.00     0.054 A 
ATOM      7  C   UNL     1     110.196 120.507 121.204  1.00  0.00     0.157 A 
BRANCH   5   8
ATOM      8  O   UNL     1     112.292 119.282 120.762  1.00  0.00    -0.504 OA
ATOM      9  H   UNL     1     112.544 118.418 121.220  1.00  0.00     0.293 HD
ENDBRANCH   5   8
BRANCH   7  10
ATOM     10  O   UNL     1     110.663 121.092 122.382  1.00  0.00    -0.504 OA
ATOM     11  H   UNL     1     111.568 121.530 122.475  1.00  0.00     0.293 HD
ENDBRANCH   7  10
ENDBRANCH   1   2
BRANCH   1  12
ATOM     12  C   UNL     1     106.699 122.117 119.319  1.00  0.00     0.161 C 
BRANCH  12  13
ATOM     13  O   UNL     1     107.512 122.844 118.436  1.00  0.00    -0.396 OA
ATOM     14  H   UNL     1     107.862 123.622 118.944  1.00  0.00     0.210 HD
ENDBRANCH  12  13
ENDBRANCH   1  12
TORSDOF 5
ENDMDL
MODEL 6
REMARK VINA RESULT:    -4.456      4.253      5.410
REMARK INTER + INTRA:          -5.427
REMARK INTER:                  -5.360
REMARK INTRA:                  -0.067
REMARK UNBOUND:                -0.059
REMARK SMILES OCCc1ccc(O)c(O)c1
REMARK SMILES IDX 3 1 4 2 5 3 6 4 7 5 11 6 9 7 8 8 10 10 2 12 1 13
REMARK H PARENT 8 9 10 11 1 14
REMARK Flexibility Score: inf
ROOT
ATOM      1  C   UNL     1     109.271 121.336 119.640  1.00  0.00     0.064 C 
ENDROOT
BRANCH   1   2
ATOM      2  C   UNL     1     108.081 122.085 119.097  1.00  0.00    -0.042 A 
ATOM      3  C   UNL     1     106.781 121.630 119.354  1.00  0.00     0.008 A 
ATOM      4  C   UNL     1     105.680 122.341 118.873  1.00  0.00     0.050 A 
ATOM      5  C   UNL     1     105.856 123.519 118.137  1.00  0.00     0.157 A 
ATOM      6  C   UNL     1     108.265 123.269 118.369  1.00  0.00     0.054 A 
ATOM      7  C   UNL     1     107.167 123.990 117.883  1.00  0.00     0.157 A 
BRANCH   5   8
ATOM      8  O   UNL     1     104.715 124.181 117.682  1.00  0.00    -0.504 OA
ATOM      9  H   UNL     1     103.901 123.714 117.308  1.00  0.00     0.293 HD
ENDBRANCH   5   8
BRANCH   7  10
ATOM     10  O   UNL     1     107.422 125.158 117.162  1.00  0.00    -0.504 OA
ATOM     11  H   UNL     1     106.847 125.987 117.208  1.00  0.00     0.293 HD
ENDBRANCH   7  10
ENDBRANCH   1   2
BRANCH   1  12
ATOM     12  C   UNL     1     109.116 121.045 121.136  1.00  0.00     0.161 C 
BRANCH  12  13
ATOM     13  O   UNL     1     109.794 119.868 121.487  1.00  0.00    -0.396 OA
ATOM     14  H   UNL     1     109.101 119.190 121.697  1.00  0.00     0.210 HD
ENDBRANCH  12  13
ENDBRANCH   1  12
TORSDOF 5
ENDMDL
MODEL 7
REMARK VINA RESULT:    -4.437      2.528      4.461
REMARK INTER + INTRA:          -5.404
REMARK INTER:                  -5.290
REMARK INTRA:                  -0.114
REMARK UNBOUND:                -0.059
REMARK SMILES OCCc1ccc(O)c(O)c1
REMARK SMILES IDX 3 1 4 2 5 3 6 4 7 5 11 6 9 7 8 8 10 10 2 12 1 13
REMARK H PARENT 8 9 10 11 1 14
REMARK Flexibility Score: inf
ROOT
ATOM      1  C   UNL     1     111.198 121.184 121.028  1.00  0.00     0.064 C 
ENDROOT
BRANCH   1   2
ATOM      2  C   UNL     1     109.721 120.956 121.224  1.00  0.00    -0.042 A 
ATOM      3  C   UNL     1     109.251 120.302 122.371  1.00  0.00     0.008 A 
ATOM      4  C   UNL     1     107.881 120.117 122.563  1.00  0.00     0.050 A 
ATOM      5  C   UNL     1     106.958 120.586 121.620  1.00  0.00     0.157 A 
ATOM      6  C   UNL     1     108.802 121.437 120.281  1.00  0.00     0.054 A 
ATOM      7  C   UNL     1     107.425 121.258 120.465  1.00  0.00     0.157 A 
BRANCH   5   8
ATOM      8  O   UNL     1     105.602 120.367 121.870  1.00  0.00    -0.504 OA
ATOM      9  H   UNL     1     105.250 119.648 122.486  1.00  0.00     0.293 HD
ENDBRANCH   5   8
BRANCH   7  10
ATOM     10  O   UNL     1     106.566 121.758 119.484  1.00  0.00    -0.504 OA
ATOM     11  H   UNL     1     105.567 121.610 119.480  1.00  0.00     0.293 HD
ENDBRANCH   7  10
ENDBRANCH   1   2
BRANCH   1  12
ATOM     12  C   UNL     1     111.959 119.861 120.904  1.00  0.00     0.161 C 
BRANCH  12  13
ATOM     13  O   UNL     1     111.533 119.146 119.774  1.00  0.00    -0.396 OA
ATOM     14  H   UNL     1     111.246 119.817 119.102  1.00  0.00     0.210 HD
ENDBRANCH  12  13
ENDBRANCH   1  12
TORSDOF 5
ENDMDL
MODEL 8
REMARK VINA RESULT:    -4.428      2.520      4.153
REMARK INTER + INTRA:          -5.393
REMARK INTER:                  -5.286
REMARK INTRA:                  -0.108
REMARK UNBOUND:                -0.059
REMARK SMILES OCCc1ccc(O)c(O)c1
REMARK SMILES IDX 3 1 4 2 5 3 6 4 7 5 11 6 9 7 8 8 10 10 2 12 1 13
REMARK H PARENT 8 9 10 11 1 14
REMARK Flexibility Score: inf
ROOT
ATOM      1  C   UNL     1     111.196 121.121 120.948  1.00  0.00     0.064 C 
ENDROOT
BRANCH   1   2
ATOM      2  C   UNL     1     109.694 121.025 120.876  1.00  0.00    -0.042 A 
ATOM      3  C   UNL     1     109.001 121.546 119.775  1.00  0.00     0.008 A 
ATOM      4  C   UNL     1     107.612 121.429 119.698  1.00  0.00     0.050 A 
ATOM      5  C   UNL     1     106.893 120.787 120.713  1.00  0.00     0.157 A 
ATOM      6  C   UNL     1     108.980 120.371 121.891  1.00  0.00     0.054 A 
ATOM      7  C   UNL     1     107.587 120.248 121.824  1.00  0.00     0.157 A 
BRANCH   5   8
ATOM      8  O   UNL     1     105.505 120.706 120.578  1.00  0.00    -0.504 OA
ATOM      9  H   UNL     1     105.038 120.270 119.796  1.00  0.00     0.293 HD
ENDBRANCH   5   8
BRANCH   7  10
ATOM     10  O   UNL     1     106.939 119.590 122.871  1.00  0.00    -0.504 OA
ATOM     11  H   UNL     1     107.329 119.478 123.795  1.00  0.00     0.293 HD
ENDBRANCH   7  10
ENDBRANCH   1   2
BRANCH   1  12
ATOM     12  C   UNL     1     111.851 119.739 120.880  1.00  0.00     0.161 C 
BRANCH  12  13
ATOM     13  O   UNL     1     111.538 119.098 119.672  1.00  0.00    -0.396 OA
ATOM     14  H   UNL     1     112.394 118.773 119.289  1.00  0.00     0.210 HD
ENDBRANCH  12  13
ENDBRANCH   1  12
TORSDOF 5
ENDMDL
MODEL 9
REMARK VINA RESULT:    -4.339      3.185      4.267
REMARK INTER + INTRA:          -5.285
REMARK INTER:                  -5.221
REMARK INTRA:                  -0.064
REMARK UNBOUND:                -0.059
REMARK SMILES OCCc1ccc(O)c(O)c1
REMARK SMILES IDX 3 1 4 2 5 3 6 4 7 5 11 6 9 7 8 8 10 10 2 12 1 13
REMARK H PARENT 8 9 10 11 1 14
REMARK Flexibility Score: inf
ROOT
ATOM      1  C   UNL     1     107.328 122.707 118.464  1.00  0.00     0.064 C 
ENDROOT
BRANCH   1   2
ATOM      2  C   UNL     1     108.067 121.926 119.519  1.00  0.00    -0.042 A 
ATOM      3  C   UNL     1     109.461 121.798 119.461  1.00  0.00     0.008 A 
ATOM      4  C   UNL     1     110.145 121.097 120.456  1.00  0.00     0.050 A 
ATOM      5  C   UNL     1     109.453 120.519 121.527  1.00  0.00     0.157 A 
ATOM      6  C   UNL     1     107.368 121.358 120.595  1.00  0.00     0.054 A 
ATOM      7  C   UNL     1     108.045 120.654 121.598  1.00  0.00     0.157 A 
BRANCH   5   8
ATOM      8  O   UNL     1     110.195 119.829 122.488  1.00  0.00    -0.504 OA
ATOM      9  H   UNL     1     111.085 120.144 122.846  1.00  0.00     0.293 HD
ENDBRANCH   5   8
BRANCH   7  10
ATOM     10  O   UNL     1     107.287 120.110 122.638  1.00  0.00    -0.504 OA
ATOM     11  H   UNL     1     107.631 119.413 123.283  1.00  0.00     0.293 HD
ENDBRANCH   7  10
ENDBRANCH   1   2
BRANCH   1  12
ATOM     12  C   UNL     1     108.181 123.855 117.915  1.00  0.00     0.161 C 
BRANCH  12  13
ATOM     13  O   UNL     1     107.394 124.753 117.179  1.00  0.00    -0.396 OA
ATOM     14  H   UNL     1     106.641 124.229 116.800  1.00  0.00     0.210 HD
ENDBRANCH  12  13
ENDBRANCH   1  12
TORSDOF 5
ENDMDL
