MODEL 1
REMARK VINA RESULT:    -3.319      0.000      0.000
REMARK INTER + INTRA:          -5.229
REMARK INTER:                  -4.774
REMARK INTRA:                  -0.455
REMARK UNBOUND:                -0.455
REMARK SMILES CCCCCCCCCO
REMARK SMILES IDX 6 1 5 2 4 3 3 4 2 5 1 6 7 7 8 8 9 9 10 10
REMARK H PARENT 10 11
REMARK Flexibility Score: inf
ROOT
ATOM      1  C   UNL     1      36.533  -6.951  25.303  1.00  0.00     0.000 C 
ENDROOT
BRANCH   1   2
ATOM      2  C   UNL     1      35.739  -6.920  26.613  1.00  0.00     0.000 C 
BRANCH   2   3
ATOM      3  C   UNL     1      34.804  -8.131  26.722  1.00  0.00    -0.000 C 
BRANCH   3   4
ATOM      4  C   UNL     1      34.255  -8.527  25.343  1.00  0.00    -0.000 C 
BRANCH   4   5
ATOM      5  C   UNL     1      32.809  -8.057  25.126  1.00  0.00    -0.003 C 
ATOM      6  C   UNL     1      31.786  -9.172  25.345  1.00  0.00     0.004 C 
ENDBRANCH   4   5
ENDBRANCH   3   4
ENDBRANCH   2   3
ENDBRANCH   1   2
BRANCH   1   7
ATOM      7  C   UNL     1      36.573  -5.561  24.650  1.00  0.00     0.002 C 
BRANCH   7   8
ATOM      8  C   UNL     1      35.196  -5.110  24.137  1.00  0.00     0.028 C 
BRANCH   8   9
ATOM      9  C   UNL     1      35.269  -3.840  23.279  1.00  0.00     0.156 C 
BRANCH   9  10
ATOM     10  O   UNL     1      34.063  -3.652  22.592  1.00  0.00    -0.396 OA
ATOM     11  H   UNL     1      34.254  -3.025  21.847  1.00  0.00     0.210 HD
ENDBRANCH   9  10
ENDBRANCH   8   9
ENDBRANCH   7   8
ENDBRANCH   1   7
TORSDOF 8
ENDMDL
MODEL 2
REMARK VINA RESULT:    -3.028     16.976     19.178
REMARK INTER + INTRA:          -4.811
REMARK INTER:                  -4.370
REMARK INTRA:                  -0.442
REMARK UNBOUND:                -0.455
REMARK SMILES CCCCCCCCCO
REMARK SMILES IDX 6 1 5 2 4 3 3 4 2 5 1 6 7 7 8 8 9 9 10 10
REMARK H PARENT 10 11
REMARK Flexibility Score: inf
ROOT
ATOM      1  C   UNL     1      28.256 -21.152  34.420  1.00  0.00     0.000 C 
ENDROOT
BRANCH   1   2
ATOM      2  C   UNL     1      28.545 -19.764  35.005  1.00  0.00     0.000 C 
BRANCH   2   3
ATOM      3  C   UNL     1      27.525 -19.399  36.090  1.00  0.00    -0.000 C 
BRANCH   3   4
ATOM      4  C   UNL     1      27.871 -18.050  36.738  1.00  0.00    -0.000 C 
BRANCH   4   5
ATOM      5  C   UNL     1      29.069 -17.362  36.068  1.00  0.00    -0.003 C 
ATOM      6  C   UNL     1      29.437 -16.036  36.733  1.00  0.00     0.004 C 
ENDBRANCH   4   5
ENDBRANCH   3   4
ENDBRANCH   2   3
ENDBRANCH   1   2
BRANCH   1   7
ATOM      7  C   UNL     1      29.466 -22.083  34.589  1.00  0.00     0.002 C 
BRANCH   7   8
ATOM      8  C   UNL     1      29.811 -22.343  36.063  1.00  0.00     0.028 C 
BRANCH   8   9
ATOM      9  C   UNL     1      28.701 -23.094  36.810  1.00  0.00     0.156 C 
BRANCH   9  10
ATOM     10  O   UNL     1      28.295 -22.361  37.932  1.00  0.00    -0.396 OA
ATOM     11  H   UNL     1      27.465 -21.880  37.674  1.00  0.00     0.210 HD
ENDBRANCH   9  10
ENDBRANCH   8   9
ENDBRANCH   7   8
ENDBRANCH   1   7
TORSDOF 8
ENDMDL
MODEL 3
REMARK VINA RESULT:    -3.018     14.471     16.094
REMARK INTER + INTRA:          -4.797
REMARK INTER:                  -4.115
REMARK INTRA:                  -0.681
REMARK UNBOUND:                -0.455
REMARK SMILES CCCCCCCCCO
REMARK SMILES IDX 6 1 5 2 4 3 3 4 2 5 1 6 7 7 8 8 9 9 10 10
REMARK H PARENT 10 11
REMARK Flexibility Score: inf
ROOT
ATOM      1  C   UNL     1      28.462 -22.245  24.637  1.00  0.00     0.000 C 
ENDROOT
BRANCH   1   2
ATOM      2  C   UNL     1      27.688 -22.380  23.320  1.00  0.00     0.000 C 
BRANCH   2   3
ATOM      3  C   UNL     1      28.523 -21.880  22.135  1.00  0.00    -0.000 C 
BRANCH   3   4
ATOM      4  C   UNL     1      29.944 -22.460  22.179  1.00  0.00    -0.000 C 
BRANCH   4   5
ATOM      5  C   UNL     1      31.028 -21.375  22.095  1.00  0.00    -0.003 C 
ATOM      6  C   UNL     1      30.449 -19.978  21.876  1.00  0.00     0.004 C 
ENDBRANCH   4   5
ENDBRANCH   3   4
ENDBRANCH   2   3
ENDBRANCH   1   2
BRANCH   1   7
ATOM      7  C   UNL     1      28.246 -20.859  25.262  1.00  0.00     0.002 C 
BRANCH   7   8
ATOM      8  C   UNL     1      29.547 -20.048  25.367  1.00  0.00     0.028 C 
BRANCH   8   9
ATOM      9  C   UNL     1      29.960 -19.772  26.819  1.00  0.00     0.156 C 
BRANCH   9  10
ATOM     10  O   UNL     1      30.729 -20.835  27.311  1.00  0.00    -0.396 OA
ATOM     11  H   UNL     1      31.273 -21.169  26.551  1.00  0.00     0.210 HD
ENDBRANCH   9  10
ENDBRANCH   8   9
ENDBRANCH   7   8
ENDBRANCH   1   7
TORSDOF 8
ENDMDL
MODEL 4
REMARK VINA RESULT:    -2.927     17.597     19.800
REMARK INTER + INTRA:          -4.666
REMARK INTER:                  -4.041
REMARK INTRA:                  -0.625
REMARK UNBOUND:                -0.455
REMARK SMILES CCCCCCCCCO
REMARK SMILES IDX 6 1 5 2 4 3 3 4 2 5 1 6 7 7 8 8 9 9 10 10
REMARK H PARENT 10 11
REMARK Flexibility Score: inf
ROOT
ATOM      1  C   UNL     1      27.234 -22.352  36.369  1.00  0.00     0.000 C 
ENDROOT
BRANCH   1   2
ATOM      2  C   UNL     1      26.350 -21.432  37.219  1.00  0.00     0.000 C 
BRANCH   2   3
ATOM      3  C   UNL     1      26.619 -19.956  36.899  1.00  0.00    -0.000 C 
BRANCH   3   4
ATOM      4  C   UNL     1      27.211 -19.798  35.491  1.00  0.00    -0.000 C 
BRANCH   4   5
ATOM      5  C   UNL     1      28.518 -18.992  35.487  1.00  0.00    -0.003 C 
ATOM      6  C   UNL     1      28.469 -17.782  36.420  1.00  0.00     0.004 C 
ENDBRANCH   4   5
ENDBRANCH   3   4
ENDBRANCH   2   3
ENDBRANCH   1   2
BRANCH   1   7
ATOM      7  C   UNL     1      28.477 -22.798  37.154  1.00  0.00     0.002 C 
BRANCH   7   8
ATOM      8  C   UNL     1      29.757 -22.767  36.303  1.00  0.00     0.028 C 
BRANCH   8   9
ATOM      9  C   UNL     1      29.474 -22.899  34.801  1.00  0.00     0.156 C 
BRANCH   9  10
ATOM     10  O   UNL     1      30.233 -21.965  34.084  1.00  0.00    -0.396 OA
ATOM     11  H   UNL     1      30.213 -21.120  34.606  1.00  0.00     0.210 HD
ENDBRANCH   9  10
ENDBRANCH   8   9
ENDBRANCH   7   8
ENDBRANCH   1   7
TORSDOF 8
ENDMDL
MODEL 5
REMARK VINA RESULT:    -2.886     14.403     16.060
REMARK INTER + INTRA:          -4.607
REMARK INTER:                  -4.064
REMARK INTRA:                  -0.543
REMARK UNBOUND:                -0.455
REMARK SMILES CCCCCCCCCO
REMARK SMILES IDX 6 1 5 2 4 3 3 4 2 5 1 6 7 7 8 8 9 9 10 10
REMARK H PARENT 10 11
REMARK Flexibility Score: inf
ROOT
ATOM      1  C   UNL     1      28.341 -22.271  23.126  1.00  0.00     0.000 C 
ENDROOT
BRANCH   1   2
ATOM      2  C   UNL     1      29.746 -22.503  22.558  1.00  0.00     0.000 C 
BRANCH   2   3
ATOM      3  C   UNL     1      30.052 -21.522  21.420  1.00  0.00    -0.000 C 
BRANCH   3   4
ATOM      4  C   UNL     1      30.487 -20.157  21.973  1.00  0.00    -0.000 C 
BRANCH   4   5
ATOM      5  C   UNL     1      29.426 -19.067  21.759  1.00  0.00    -0.003 C 
ATOM      6  C   UNL     1      28.605 -19.283  20.487  1.00  0.00     0.004 C 
ENDBRANCH   4   5
ENDBRANCH   3   4
ENDBRANCH   2   3
ENDBRANCH   1   2
BRANCH   1   7
ATOM      7  C   UNL     1      28.367 -22.239  24.662  1.00  0.00     0.002 C 
BRANCH   7   8
ATOM      8  C   UNL     1      28.850 -20.890  25.217  1.00  0.00     0.028 C 
BRANCH   8   9
ATOM      9  C   UNL     1      29.071 -20.917  26.735  1.00  0.00     0.156 C 
BRANCH   9  10
ATOM     10  O   UNL     1      30.441 -20.862  27.023  1.00  0.00    -0.396 OA
ATOM     11  H   UNL     1      30.874 -20.393  26.262  1.00  0.00     0.210 HD
ENDBRANCH   9  10
ENDBRANCH   8   9
ENDBRANCH   7   8
ENDBRANCH   1   7
TORSDOF 8
ENDMDL
MODEL 6
REMARK VINA RESULT:    -2.881     14.787     16.108
REMARK INTER + INTRA:          -4.599
REMARK INTER:                  -4.286
REMARK INTRA:                  -0.313
REMARK UNBOUND:                -0.455
REMARK SMILES CCCCCCCCCO
REMARK SMILES IDX 6 1 5 2 4 3 3 4 2 5 1 6 7 7 8 8 9 9 10 10
REMARK H PARENT 10 11
REMARK Flexibility Score: inf
ROOT
ATOM      1  C   UNL     1      28.782 -21.428  23.417  1.00  0.00     0.000 C 
ENDROOT
BRANCH   1   2
ATOM      2  C   UNL     1      28.270 -22.306  24.565  1.00  0.00     0.000 C 
BRANCH   2   3
ATOM      3  C   UNL     1      28.358 -21.569  25.907  1.00  0.00    -0.000 C 
BRANCH   3   4
ATOM      4  C   UNL     1      29.288 -20.352  25.806  1.00  0.00    -0.000 C 
BRANCH   4   5
ATOM      5  C   UNL     1      30.147 -20.159  27.065  1.00  0.00    -0.003 C 
ATOM      6  C   UNL     1      29.559 -20.854  28.293  1.00  0.00     0.004 C 
ENDBRANCH   4   5
ENDBRANCH   3   4
ENDBRANCH   2   3
ENDBRANCH   1   2
BRANCH   1   7
ATOM      7  C   UNL     1      28.672 -22.161  22.072  1.00  0.00     0.002 C 
BRANCH   7   8
ATOM      8  C   UNL     1      30.040 -22.386  21.408  1.00  0.00     0.028 C 
BRANCH   8   9
ATOM      9  C   UNL     1      31.051 -21.281  21.742  1.00  0.00     0.156 C 
BRANCH   9  10
ATOM     10  O   UNL     1      32.328 -21.646  21.298  1.00  0.00    -0.396 OA
ATOM     11  H   UNL     1      32.683 -22.299  21.957  1.00  0.00     0.210 HD
ENDBRANCH   9  10
ENDBRANCH   8   9
ENDBRANCH   7   8
ENDBRANCH   1   7
TORSDOF 8
ENDMDL
MODEL 7
REMARK VINA RESULT:    -2.856     16.105     18.608
REMARK INTER + INTRA:          -4.563
REMARK INTER:                  -4.244
REMARK INTRA:                  -0.319
REMARK UNBOUND:                -0.455
REMARK SMILES CCCCCCCCCO
REMARK SMILES IDX 6 1 5 2 4 3 3 4 2 5 1 6 7 7 8 8 9 9 10 10
REMARK H PARENT 10 11
REMARK Flexibility Score: inf
ROOT
ATOM      1  C   UNL     1      28.135 -19.613  35.474  1.00  0.00     0.000 C 
ENDROOT
BRANCH   1   2
ATOM      2  C   UNL     1      28.607 -18.158  35.359  1.00  0.00     0.000 C 
BRANCH   2   3
ATOM      3  C   UNL     1      28.519 -17.440  36.711  1.00  0.00    -0.000 C 
BRANCH   3   4
ATOM      4  C   UNL     1      29.457 -16.225  36.751  1.00  0.00    -0.000 C 
BRANCH   4   5
ATOM      5  C   UNL     1      30.072 -15.908  35.379  1.00  0.00    -0.003 C 
ATOM      6  C   UNL     1      30.894 -14.620  35.384  1.00  0.00     0.004 C 
ENDBRANCH   4   5
ENDBRANCH   3   4
ENDBRANCH   2   3
ENDBRANCH   1   2
BRANCH   1   7
ATOM      7  C   UNL     1      27.231 -19.802  36.701  1.00  0.00     0.002 C 
BRANCH   7   8
ATOM      8  C   UNL     1      26.442 -21.120  36.655  1.00  0.00     0.028 C 
BRANCH   8   9
ATOM      9  C   UNL     1      27.338 -22.355  36.810  1.00  0.00     0.156 C 
BRANCH   9  10
ATOM     10  O   UNL     1      28.123 -22.239  37.964  1.00  0.00    -0.396 OA
ATOM     11  H   UNL     1      28.912 -21.689  37.719  1.00  0.00     0.210 HD
ENDBRANCH   9  10
ENDBRANCH   8   9
ENDBRANCH   7   8
ENDBRANCH   1   7
TORSDOF 8
ENDMDL
MODEL 8
REMARK VINA RESULT:    -2.835     13.344     14.810
REMARK INTER + INTRA:          -4.533
REMARK INTER:                  -3.879
REMARK INTRA:                  -0.655
REMARK UNBOUND:                -0.455
REMARK SMILES CCCCCCCCCO
REMARK SMILES IDX 6 1 5 2 4 3 3 4 2 5 1 6 7 7 8 8 9 9 10 10
REMARK H PARENT 10 11
REMARK Flexibility Score: inf
ROOT
ATOM      1  C   UNL     1      28.777 -18.302  22.704  1.00  0.00     0.000 C 
ENDROOT
BRANCH   1   2
ATOM      2  C   UNL     1      29.604 -18.192  23.990  1.00  0.00     0.000 C 
BRANCH   2   3
ATOM      3  C   UNL     1      28.838 -18.761  25.190  1.00  0.00    -0.000 C 
BRANCH   3   4
ATOM      4  C   UNL     1      29.657 -19.847  25.903  1.00  0.00    -0.000 C 
BRANCH   4   5
ATOM      5  C   UNL     1      28.845 -21.123  26.165  1.00  0.00    -0.003 C 
ATOM      6  C   UNL     1      28.355 -21.786  24.877  1.00  0.00     0.004 C 
ENDBRANCH   4   5
ENDBRANCH   3   4
ENDBRANCH   2   3
ENDBRANCH   1   2
BRANCH   1   7
ATOM      7  C   UNL     1      29.140 -19.573  21.923  1.00  0.00     0.002 C 
BRANCH   7   8
ATOM      8  C   UNL     1      30.600 -20.002  22.136  1.00  0.00     0.028 C 
BRANCH   8   9
ATOM      9  C   UNL     1      30.851 -21.466  21.752  1.00  0.00     0.156 C 
BRANCH   9  10
ATOM     10  O   UNL     1      32.180 -21.635  21.341  1.00  0.00    -0.396 OA
ATOM     11  H   UNL     1      32.724 -21.728  22.166  1.00  0.00     0.210 HD
ENDBRANCH   9  10
ENDBRANCH   8   9
ENDBRANCH   7   8
ENDBRANCH   1   7
TORSDOF 8
ENDMDL
MODEL 9
REMARK VINA RESULT:    -2.810     14.453     16.187
REMARK INTER + INTRA:          -4.498
REMARK INTER:                  -3.772
REMARK INTRA:                  -0.726
REMARK UNBOUND:                -0.455
REMARK SMILES CCCCCCCCCO
REMARK SMILES IDX 6 1 5 2 4 3 3 4 2 5 1 6 7 7 8 8 9 9 10 10
REMARK H PARENT 10 11
REMARK Flexibility Score: inf
ROOT
ATOM      1  C   UNL     1      28.089 -22.039  22.389  1.00  0.00     0.000 C 
ENDROOT
BRANCH   1   2
ATOM      2  C   UNL     1      27.107 -22.606  23.420  1.00  0.00     0.000 C 
BRANCH   2   3
ATOM      3  C   UNL     1      27.790 -22.814  24.778  1.00  0.00    -0.000 C 
BRANCH   3   4
ATOM      4  C   UNL     1      27.590 -21.593  25.686  1.00  0.00    -0.000 C 
BRANCH   4   5
ATOM      5  C   UNL     1      28.913 -21.057  26.255  1.00  0.00    -0.003 C 
ATOM      6  C   UNL     1      29.540 -19.976  25.374  1.00  0.00     0.004 C 
ENDBRANCH   4   5
ENDBRANCH   3   4
ENDBRANCH   2   3
ENDBRANCH   1   2
BRANCH   1   7
ATOM      7  C   UNL     1      29.516 -22.541  22.654  1.00  0.00     0.002 C 
BRANCH   7   8
ATOM      8  C   UNL     1      30.590 -21.583  22.114  1.00  0.00     0.028 C 
BRANCH   8   9
ATOM      9  C   UNL     1      30.005 -20.252  21.623  1.00  0.00     0.156 C 
BRANCH   9  10
ATOM     10  O   UNL     1      30.740 -19.181  22.147  1.00  0.00    -0.396 OA
ATOM     11  H   UNL     1      31.450 -19.575  22.719  1.00  0.00     0.210 HD
ENDBRANCH   9  10
ENDBRANCH   8   9
ENDBRANCH   7   8
ENDBRANCH   1   7
TORSDOF 8
ENDMDL
