MODEL 1
REMARK VINA RESULT:    -3.638      0.000      0.000
REMARK INTER + INTRA:          -8.108
REMARK INTER:                  -6.191
REMARK INTRA:                  -1.917
REMARK UNBOUND:                -1.917
REMARK SMILES CCCCCCCCCCCCCC(=O)[O-]
REMARK SMILES IDX 8 1 9 2 10 3 11 4 12 5 13 6 14 7 15 8 16 9 7 10 6 11 5 12
REMARK SMILES IDX 4 13 3 14 2 15 1 16
REMARK H PARENT
REMARK Flexibility Score: inf
ROOT
ATOM      1  C   UNL     1      19.997  -0.388  16.301  1.00  0.00     0.000 C 
ENDROOT
BRANCH   1   2
ATOM      2  C   UNL     1      21.213  -0.581  17.223  1.00  0.00     0.000 C 
BRANCH   2   3
ATOM      3  C   UNL     1      22.185   0.609  17.176  1.00  0.00     0.000 C 
BRANCH   3   4
ATOM      4  C   UNL     1      23.508   0.269  16.473  1.00  0.00     0.000 C 
BRANCH   4   5
ATOM      5  C   UNL     1      23.484   0.729  15.006  1.00  0.00     0.006 C 
BRANCH   5   6
ATOM      6  C   UNL     1      22.539   1.918  14.787  1.00  0.00     0.053 C 
BRANCH   6   7
ATOM      7  C   UNL     1      22.028   1.968  13.379  1.00  0.00     0.041 C 
ATOM      8  O   UNL     1      21.670   0.911  12.796  1.00  0.00    -0.550 OA
ATOM      9  O   UNL     1      21.918   3.187  12.723  1.00  0.00    -0.550 OA
ENDBRANCH   6   7
ENDBRANCH   5   6
ENDBRANCH   4   5
ENDBRANCH   3   4
ENDBRANCH   2   3
ENDBRANCH   1   2
BRANCH   1  10
ATOM     10  C   UNL     1      20.131  -1.162  14.980  1.00  0.00     0.000 C 
BRANCH  10  11
ATOM     11  C   UNL     1      20.914  -2.478  15.139  1.00  0.00    -0.000 C 
BRANCH  11  12
ATOM     12  C   UNL     1      22.160  -2.536  14.242  1.00  0.00    -0.000 C 
BRANCH  12  13
ATOM     13  C   UNL     1      23.381  -3.127  14.964  1.00  0.00    -0.000 C 
BRANCH  13  14
ATOM     14  C   UNL     1      23.001  -3.631  16.361  1.00  0.00    -0.000 C 
BRANCH  14  15
ATOM     15  C   UNL     1      24.235  -3.727  17.266  1.00  0.00    -0.003 C 
ATOM     16  C   UNL     1      24.384  -5.130  17.846  1.00  0.00     0.004 C 
ENDBRANCH  14  15
ENDBRANCH  13  14
ENDBRANCH  12  13
ENDBRANCH  11  12
ENDBRANCH  10  11
ENDBRANCH   1  10
TORSDOF 12
ENDMDL
MODEL 2
REMARK VINA RESULT:    -3.610      1.776      2.672
REMARK INTER + INTRA:          -8.060
REMARK INTER:                  -6.416
REMARK INTRA:                  -1.644
REMARK UNBOUND:                -1.917
REMARK SMILES CCCCCCCCCCCCCC(=O)[O-]
REMARK SMILES IDX 8 1 9 2 10 3 11 4 12 5 13 6 14 7 15 8 16 9 7 10 6 11 5 12
REMARK SMILES IDX 4 13 3 14 2 15 1 16
REMARK H PARENT
REMARK Flexibility Score: inf
ROOT
ATOM      1  C   UNL     1      21.303   0.790  16.335  1.00  0.00     0.000 C 
ENDROOT
BRANCH   1   2
ATOM      2  C   UNL     1      22.823   0.560  16.410  1.00  0.00     0.000 C 
BRANCH   2   3
ATOM      3  C   UNL     1      23.517   0.757  15.053  1.00  0.00     0.000 C 
BRANCH   3   4
ATOM      4  C   UNL     1      22.712   1.652  14.098  1.00  0.00     0.000 C 
BRANCH   4   5
ATOM      5  C   UNL     1      23.383   3.025  13.938  1.00  0.00     0.006 C 
BRANCH   5   6
ATOM      6  C   UNL     1      22.839   3.800  12.730  1.00  0.00     0.053 C 
BRANCH   6   7
ATOM      7  C   UNL     1      23.584   5.080  12.510  1.00  0.00     0.041 C 
ATOM      8  O   UNL     1      22.959   6.169  12.416  1.00  0.00    -0.550 OA
ATOM      9  O   UNL     1      24.972   5.075  12.443  1.00  0.00    -0.550 OA
ENDBRANCH   6   7
ENDBRANCH   5   6
ENDBRANCH   4   5
ENDBRANCH   3   4
ENDBRANCH   2   3
ENDBRANCH   1   2
BRANCH   1  10
ATOM     10  C   UNL     1      20.504  -0.521  16.424  1.00  0.00     0.000 C 
BRANCH  10  11
ATOM     11  C   UNL     1      20.243  -1.152  15.045  1.00  0.00    -0.000 C 
BRANCH  11  12
ATOM     12  C   UNL     1      20.899  -2.533  14.893  1.00  0.00    -0.000 C 
BRANCH  12  13
ATOM     13  C   UNL     1      22.086  -2.519  13.917  1.00  0.00    -0.000 C 
BRANCH  13  14
ATOM     14  C   UNL     1      23.383  -2.925  14.626  1.00  0.00    -0.000 C 
BRANCH  14  15
ATOM     15  C   UNL     1      23.095  -3.465  16.032  1.00  0.00    -0.003 C 
ATOM     16  C   UNL     1      24.027  -2.838  17.065  1.00  0.00     0.004 C 
ENDBRANCH  14  15
ENDBRANCH  13  14
ENDBRANCH  12  13
ENDBRANCH  11  12
ENDBRANCH  10  11
ENDBRANCH   1  10
TORSDOF 12
ENDMDL
MODEL 3
REMARK VINA RESULT:    -3.547      1.824      2.717
REMARK INTER + INTRA:          -7.953
REMARK INTER:                  -6.337
REMARK INTRA:                  -1.615
REMARK UNBOUND:                -1.917
REMARK SMILES CCCCCCCCCCCCCC(=O)[O-]
REMARK SMILES IDX 8 1 9 2 10 3 11 4 12 5 13 6 14 7 15 8 16 9 7 10 6 11 5 12
REMARK SMILES IDX 4 13 3 14 2 15 1 16
REMARK H PARENT
REMARK Flexibility Score: inf
ROOT
ATOM      1  C   UNL     1      21.251  -2.437  13.862  1.00  0.00     0.000 C 
ENDROOT
BRANCH   1   2
ATOM      2  C   UNL     1      20.492  -1.339  14.629  1.00  0.00     0.000 C 
BRANCH   2   3
ATOM      3  C   UNL     1      21.296  -0.033  14.737  1.00  0.00     0.000 C 
BRANCH   3   4
ATOM      4  C   UNL     1      21.524   0.404  16.193  1.00  0.00     0.000 C 
BRANCH   4   5
ATOM      5  C   UNL     1      22.980   0.846  16.410  1.00  0.00     0.006 C 
BRANCH   5   6
ATOM      6  C   UNL     1      23.675   1.222  15.095  1.00  0.00     0.053 C 
BRANCH   6   7
ATOM      7  C   UNL     1      24.593   2.393  15.268  1.00  0.00     0.041 C 
ATOM      8  O   UNL     1      25.521   2.351  16.118  1.00  0.00    -0.550 OA
ATOM      9  O   UNL     1      24.443   3.518  14.467  1.00  0.00    -0.550 OA
ENDBRANCH   6   7
ENDBRANCH   5   6
ENDBRANCH   4   5
ENDBRANCH   3   4
ENDBRANCH   2   3
ENDBRANCH   1   2
BRANCH   1  10
ATOM     10  C   UNL     1      22.769  -2.196  13.839  1.00  0.00     0.000 C 
BRANCH  10  11
ATOM     11  C   UNL     1      23.549  -3.247  14.649  1.00  0.00    -0.000 C 
BRANCH  11  12
ATOM     12  C   UNL     1      23.978  -2.728  16.031  1.00  0.00    -0.000 C 
BRANCH  12  13
ATOM     13  C   UNL     1      22.924  -2.998  17.116  1.00  0.00    -0.000 C 
BRANCH  13  14
ATOM     14  C   UNL     1      22.811  -4.498  17.411  1.00  0.00    -0.000 C 
BRANCH  14  15
ATOM     15  C   UNL     1      24.011  -4.988  18.231  1.00  0.00    -0.003 C 
ATOM     16  C   UNL     1      23.916  -6.486  18.504  1.00  0.00     0.004 C 
ENDBRANCH  14  15
ENDBRANCH  13  14
ENDBRANCH  12  13
ENDBRANCH  11  12
ENDBRANCH  10  11
ENDBRANCH   1  10
TORSDOF 12
ENDMDL
MODEL 4
REMARK VINA RESULT:    -3.535      4.394      6.783
REMARK INTER + INTRA:          -7.931
REMARK INTER:                  -6.316
REMARK INTRA:                  -1.615
REMARK UNBOUND:                -1.917
REMARK SMILES CCCCCCCCCCCCCC(=O)[O-]
REMARK SMILES IDX 8 1 9 2 10 3 11 4 12 5 13 6 14 7 15 8 16 9 7 10 6 11 5 12
REMARK SMILES IDX 4 13 3 14 2 15 1 16
REMARK H PARENT
REMARK Flexibility Score: inf
ROOT
ATOM      1  C   UNL     1      19.640  -2.967  12.008  1.00  0.00     0.000 C 
ENDROOT
BRANCH   1   2
ATOM      2  C   UNL     1      20.056  -1.648  11.333  1.00  0.00     0.000 C 
BRANCH   2   3
ATOM      3  C   UNL     1      21.423  -1.142  11.821  1.00  0.00     0.000 C 
BRANCH   3   4
ATOM      4  C   UNL     1      21.306   0.067  12.764  1.00  0.00     0.000 C 
BRANCH   4   5
ATOM      5  C   UNL     1      21.756  -0.303  14.186  1.00  0.00     0.006 C 
BRANCH   5   6
ATOM      6  C   UNL     1      20.585  -0.765  15.063  1.00  0.00     0.053 C 
BRANCH   6   7
ATOM      7  C   UNL     1      20.867  -2.084  15.716  1.00  0.00     0.041 C 
ATOM      8  O   UNL     1      20.466  -2.310  16.888  1.00  0.00    -0.550 OA
ATOM      9  O   UNL     1      21.546  -3.074  15.018  1.00  0.00    -0.550 OA
ENDBRANCH   6   7
ENDBRANCH   5   6
ENDBRANCH   4   5
ENDBRANCH   3   4
ENDBRANCH   2   3
ENDBRANCH   1   2
BRANCH   1  10
ATOM     10  C   UNL     1      18.427  -2.797  12.936  1.00  0.00     0.000 C 
BRANCH  10  11
ATOM     11  C   UNL     1      17.104  -3.209  12.265  1.00  0.00    -0.000 C 
BRANCH  11  12
ATOM     12  C   UNL     1      16.016  -2.131  12.393  1.00  0.00    -0.000 C 
BRANCH  12  13
ATOM     13  C   UNL     1      15.619  -1.529  11.036  1.00  0.00    -0.000 C 
BRANCH  13  14
ATOM     14  C   UNL     1      16.618  -0.449  10.602  1.00  0.00    -0.000 C 
BRANCH  14  15
ATOM     15  C   UNL     1      17.181  -0.750   9.208  1.00  0.00    -0.003 C 
ATOM     16  C   UNL     1      16.756  -2.134   8.729  1.00  0.00     0.004 C 
ENDBRANCH  14  15
ENDBRANCH  13  14
ENDBRANCH  12  13
ENDBRANCH  11  12
ENDBRANCH  10  11
ENDBRANCH   1  10
TORSDOF 12
ENDMDL
MODEL 5
REMARK VINA RESULT:    -3.530      2.878      3.685
REMARK INTER + INTRA:          -7.923
REMARK INTER:                  -7.110
REMARK INTRA:                  -0.812
REMARK UNBOUND:                -1.917
REMARK SMILES CCCCCCCCCCCCCC(=O)[O-]
REMARK SMILES IDX 8 1 9 2 10 3 11 4 12 5 13 6 14 7 15 8 16 9 7 10 6 11 5 12
REMARK SMILES IDX 4 13 3 14 2 15 1 16
REMARK H PARENT
REMARK Flexibility Score: inf
ROOT
ATOM      1  C   UNL     1      21.655   0.958  13.176  1.00  0.00     0.000 C 
ENDROOT
BRANCH   1   2
ATOM      2  C   UNL     1      22.232   1.127  14.592  1.00  0.00     0.000 C 
BRANCH   2   3
ATOM      3  C   UNL     1      23.533   1.947  14.605  1.00  0.00     0.000 C 
BRANCH   3   4
ATOM      4  C   UNL     1      23.417   3.255  13.808  1.00  0.00     0.000 C 
BRANCH   4   5
ATOM      5  C   UNL     1      24.541   4.231  14.191  1.00  0.00     0.006 C 
BRANCH   5   6
ATOM      6  C   UNL     1      24.945   5.139  13.022  1.00  0.00     0.053 C 
BRANCH   6   7
ATOM      7  C   UNL     1      24.965   6.583  13.422  1.00  0.00     0.041 C 
ATOM      8  O   UNL     1      23.929   7.289  13.303  1.00  0.00    -0.550 OA
ATOM      9  O   UNL     1      26.120   7.140  13.955  1.00  0.00    -0.550 OA
ENDBRANCH   6   7
ENDBRANCH   5   6
ENDBRANCH   4   5
ENDBRANCH   3   4
ENDBRANCH   2   3
ENDBRANCH   1   2
BRANCH   1  10
ATOM     10  C   UNL     1      21.614  -0.511  12.727  1.00  0.00     0.000 C 
BRANCH  10  11
ATOM     11  C   UNL     1      20.549  -1.332  13.478  1.00  0.00    -0.000 C 
BRANCH  11  12
ATOM     12  C   UNL     1      21.162  -2.447  14.339  1.00  0.00    -0.000 C 
BRANCH  12  13
ATOM     13  C   UNL     1      22.682  -2.572  14.150  1.00  0.00    -0.000 C 
BRANCH  13  14
ATOM     14  C   UNL     1      23.422  -2.304  15.466  1.00  0.00    -0.000 C 
BRANCH  14  15
ATOM     15  C   UNL     1      23.851  -3.616  16.132  1.00  0.00    -0.003 C 
ATOM     16  C   UNL     1      24.409  -3.367  17.530  1.00  0.00     0.004 C 
ENDBRANCH  14  15
ENDBRANCH  13  14
ENDBRANCH  12  13
ENDBRANCH  11  12
ENDBRANCH  10  11
ENDBRANCH   1  10
TORSDOF 12
ENDMDL
MODEL 6
REMARK VINA RESULT:    -3.469      2.576      6.067
REMARK INTER + INTRA:          -7.820
REMARK INTER:                  -6.029
REMARK INTRA:                  -1.791
REMARK UNBOUND:                -1.917
REMARK SMILES CCCCCCCCCCCCCC(=O)[O-]
REMARK SMILES IDX 8 1 9 2 10 3 11 4 12 5 13 6 14 7 15 8 16 9 7 10 6 11 5 12
REMARK SMILES IDX 4 13 3 14 2 15 1 16
REMARK H PARENT
REMARK Flexibility Score: inf
ROOT
ATOM      1  C   UNL     1      21.751   0.913  15.459  1.00  0.00     0.000 C 
ENDROOT
BRANCH   1   2
ATOM      2  C   UNL     1      21.977   0.734  13.948  1.00  0.00     0.000 C 
BRANCH   2   3
ATOM      3  C   UNL     1      21.092  -0.370  13.346  1.00  0.00     0.000 C 
BRANCH   3   4
ATOM      4  C   UNL     1      20.295  -1.139  14.411  1.00  0.00     0.000 C 
BRANCH   4   5
ATOM      5  C   UNL     1      20.668  -2.630  14.403  1.00  0.00     0.006 C 
BRANCH   5   6
ATOM      6  C   UNL     1      21.602  -3.001  15.562  1.00  0.00     0.053 C 
BRANCH   6   7
ATOM      7  C   UNL     1      23.040  -2.773  15.210  1.00  0.00     0.041 C 
ATOM      8  O   UNL     1      23.449  -2.993  14.039  1.00  0.00    -0.550 OA
ATOM      9  O   UNL     1      23.922  -2.288  16.167  1.00  0.00    -0.550 OA
ENDBRANCH   6   7
ENDBRANCH   5   6
ENDBRANCH   4   5
ENDBRANCH   3   4
ENDBRANCH   2   3
ENDBRANCH   1   2
BRANCH   1  10
ATOM     10  C   UNL     1      23.063   1.141  16.228  1.00  0.00     0.000 C 
BRANCH  10  11
ATOM     11  C   UNL     1      24.252   1.438  15.297  1.00  0.00    -0.000 C 
BRANCH  11  12
ATOM     12  C   UNL     1      24.807   2.859  15.482  1.00  0.00    -0.000 C 
BRANCH  12  13
ATOM     13  C   UNL     1      24.344   3.823  14.379  1.00  0.00    -0.000 C 
BRANCH  13  14
ATOM     14  C   UNL     1      23.078   4.575  14.806  1.00  0.00    -0.000 C 
BRANCH  14  15
ATOM     15  C   UNL     1      21.962   4.407  13.768  1.00  0.00    -0.003 C 
ATOM     16  C   UNL     1      22.530   4.014  12.408  1.00  0.00     0.004 C 
ENDBRANCH  14  15
ENDBRANCH  13  14
ENDBRANCH  12  13
ENDBRANCH  11  12
ENDBRANCH  10  11
ENDBRANCH   1  10
TORSDOF 12
ENDMDL
MODEL 7
REMARK VINA RESULT:    -3.463      3.530      6.973
REMARK INTER + INTRA:          -7.810
REMARK INTER:                  -5.824
REMARK INTRA:                  -1.987
REMARK UNBOUND:                -1.917
REMARK SMILES CCCCCCCCCCCCCC(=O)[O-]
REMARK SMILES IDX 8 1 9 2 10 3 11 4 12 5 13 6 14 7 15 8 16 9 7 10 6 11 5 12
REMARK SMILES IDX 4 13 3 14 2 15 1 16
REMARK H PARENT
REMARK Flexibility Score: inf
ROOT
ATOM      1  C   UNL     1      21.884   5.284  15.245  1.00  0.00     0.000 C 
ENDROOT
BRANCH   1   2
ATOM      2  C   UNL     1      22.219   3.873  15.760  1.00  0.00     0.000 C 
BRANCH   2   3
ATOM      3  C   UNL     1      23.690   3.735  16.186  1.00  0.00     0.000 C 
BRANCH   3   4
ATOM      4  C   UNL     1      24.444   2.667  15.377  1.00  0.00     0.000 C 
BRANCH   4   5
ATOM      5  C   UNL     1      23.463   1.772  14.604  1.00  0.00     0.006 C 
BRANCH   5   6
ATOM      6  C   UNL     1      23.478   0.323  15.108  1.00  0.00     0.053 C 
BRANCH   6   7
ATOM      7  C   UNL     1      22.485  -0.529  14.379  1.00  0.00     0.041 C 
ATOM      8  O   UNL     1      21.308  -0.119  14.199  1.00  0.00    -0.550 OA
ATOM      9  O   UNL     1      22.869  -1.763  13.869  1.00  0.00    -0.550 OA
ENDBRANCH   6   7
ENDBRANCH   5   6
ENDBRANCH   4   5
ENDBRANCH   3   4
ENDBRANCH   2   3
ENDBRANCH   1   2
BRANCH   1  10
ATOM     10  C   UNL     1      21.343   5.271  13.806  1.00  0.00     0.000 C 
BRANCH  10  11
ATOM     11  C   UNL     1      22.368   5.793  12.782  1.00  0.00    -0.000 C 
BRANCH  11  12
ATOM     12  C   UNL     1      23.430   4.742  12.422  1.00  0.00    -0.000 C 
BRANCH  12  13
ATOM     13  C   UNL     1      24.857   5.209  12.750  1.00  0.00    -0.000 C 
BRANCH  13  14
ATOM     14  C   UNL     1      24.849   6.628  13.331  1.00  0.00    -0.000 C 
BRANCH  14  15
ATOM     15  C   UNL     1      25.460   6.648  14.738  1.00  0.00    -0.003 C 
ATOM     16  C   UNL     1      24.701   7.603  15.654  1.00  0.00     0.004 C 
ENDBRANCH  14  15
ENDBRANCH  13  14
ENDBRANCH  12  13
ENDBRANCH  11  12
ENDBRANCH  10  11
ENDBRANCH   1  10
TORSDOF 12
ENDMDL
MODEL 8
REMARK VINA RESULT:    -3.453      3.369      5.976
REMARK INTER + INTRA:          -7.793
REMARK INTER:                  -6.084
REMARK INTRA:                  -1.709
REMARK UNBOUND:                -1.917
REMARK SMILES CCCCCCCCCCCCCC(=O)[O-]
REMARK SMILES IDX 8 1 9 2 10 3 11 4 12 5 13 6 14 7 15 8 16 9 7 10 6 11 5 12
REMARK SMILES IDX 4 13 3 14 2 15 1 16
REMARK H PARENT
REMARK Flexibility Score: inf
ROOT
ATOM      1  C   UNL     1      20.066  -0.748  15.912  1.00  0.00     0.000 C 
ENDROOT
BRANCH   1   2
ATOM      2  C   UNL     1      20.596  -1.904  15.047  1.00  0.00     0.000 C 
BRANCH   2   3
ATOM      3  C   UNL     1      21.609  -2.785  15.796  1.00  0.00     0.000 C 
BRANCH   3   4
ATOM      4  C   UNL     1      22.905  -3.009  15.000  1.00  0.00     0.000 C 
BRANCH   4   5
ATOM      5  C   UNL     1      24.125  -3.031  15.933  1.00  0.00     0.006 C 
BRANCH   5   6
ATOM      6  C   UNL     1      23.727  -2.927  17.411  1.00  0.00     0.053 C 
BRANCH   6   7
ATOM      7  C   UNL     1      24.219  -4.100  18.202  1.00  0.00     0.041 C 
ATOM      8  O   UNL     1      24.436  -3.986  19.437  1.00  0.00    -0.550 OA
ATOM      9  O   UNL     1      24.406  -5.328  17.581  1.00  0.00    -0.550 OA
ENDBRANCH   6   7
ENDBRANCH   5   6
ENDBRANCH   4   5
ENDBRANCH   3   4
ENDBRANCH   2   3
ENDBRANCH   1   2
BRANCH   1  10
ATOM     10  C   UNL     1      21.003  -0.412  17.084  1.00  0.00     0.000 C 
BRANCH  10  11
ATOM     11  C   UNL     1      21.810   0.877  16.849  1.00  0.00    -0.000 C 
BRANCH  11  12
ATOM     12  C   UNL     1      23.315   0.610  16.688  1.00  0.00    -0.000 C 
BRANCH  12  13
ATOM     13  C   UNL     1      23.843   1.016  15.303  1.00  0.00    -0.000 C 
BRANCH  13  14
ATOM     14  C   UNL     1      22.716   1.586  14.433  1.00  0.00    -0.000 C 
BRANCH  14  15
ATOM     15  C   UNL     1      23.132   2.918  13.798  1.00  0.00    -0.003 C 
ATOM     16  C   UNL     1      22.118   3.370  12.753  1.00  0.00     0.004 C 
ENDBRANCH  14  15
ENDBRANCH  13  14
ENDBRANCH  12  13
ENDBRANCH  11  12
ENDBRANCH  10  11
ENDBRANCH   1  10
TORSDOF 12
ENDMDL
MODEL 9
REMARK VINA RESULT:    -3.444      3.719      7.451
REMARK INTER + INTRA:          -7.777
REMARK INTER:                  -5.739
REMARK INTRA:                  -2.038
REMARK UNBOUND:                -1.917
REMARK SMILES CCCCCCCCCCCCCC(=O)[O-]
REMARK SMILES IDX 8 1 9 2 10 3 11 4 12 5 13 6 14 7 15 8 16 9 7 10 6 11 5 12
REMARK SMILES IDX 4 13 3 14 2 15 1 16
REMARK H PARENT
REMARK Flexibility Score: inf
ROOT
ATOM      1  C   UNL     1      24.607   6.198  15.991  1.00  0.00     0.000 C 
ENDROOT
BRANCH   1   2
ATOM      2  C   UNL     1      23.231   5.606  16.343  1.00  0.00     0.000 C 
BRANCH   2   3
ATOM      3  C   UNL     1      23.182   4.080  16.164  1.00  0.00     0.000 C 
BRANCH   3   4
ATOM      4  C   UNL     1      24.555   3.416  16.353  1.00  0.00     0.000 C 
BRANCH   4   5
ATOM      5  C   UNL     1      24.744   2.256  15.363  1.00  0.00     0.006 C 
BRANCH   5   6
ATOM      6  C   UNL     1      23.468   1.962  14.564  1.00  0.00     0.053 C 
BRANCH   6   7
ATOM      7  C   UNL     1      22.954   0.579  14.826  1.00  0.00     0.041 C 
ATOM      8  O   UNL     1      21.788   0.258  14.475  1.00  0.00    -0.550 OA
ATOM      9  O   UNL     1      23.776  -0.365  15.430  1.00  0.00    -0.550 OA
ENDBRANCH   6   7
ENDBRANCH   5   6
ENDBRANCH   4   5
ENDBRANCH   3   4
ENDBRANCH   2   3
ENDBRANCH   1   2
BRANCH   1  10
ATOM     10  C   UNL     1      24.577   7.032  14.700  1.00  0.00     0.000 C 
BRANCH  10  11
ATOM     11  C   UNL     1      25.495   6.462  13.604  1.00  0.00    -0.000 C 
BRANCH  11  12
ATOM     12  C   UNL     1      24.987   5.122  13.047  1.00  0.00    -0.000 C 
BRANCH  12  13
ATOM     13  C   UNL     1      23.845   5.299  12.033  1.00  0.00    -0.000 C 
BRANCH  13  14
ATOM     14  C   UNL     1      22.566   4.613  12.526  1.00  0.00    -0.000 C 
BRANCH  14  15
ATOM     15  C   UNL     1      21.548   5.644  13.029  1.00  0.00    -0.003 C 
ATOM     16  C   UNL     1      21.370   6.777  12.024  1.00  0.00     0.004 C 
ENDBRANCH  14  15
ENDBRANCH  13  14
ENDBRANCH  12  13
ENDBRANCH  11  12
ENDBRANCH  10  11
ENDBRANCH   1  10
TORSDOF 12
ENDMDL
