MODEL 1
REMARK VINA RESULT:    -3.419      0.000      0.000
REMARK INTER + INTRA:          -4.278
REMARK INTER:                  -4.219
REMARK INTRA:                  -0.059
REMARK UNBOUND:                -0.059
REMARK SMILES CCCCCC(=O)[O-]
REMARK SMILES IDX 4 1 5 2 6 3 7 4 8 5 3 6 2 7 1 8
REMARK H PARENT
REMARK Flexibility Score: inf
ROOT
ATOM      1  C   UNL     1     -46.092  13.651  -9.456  1.00  0.00     0.006 C 
ENDROOT
BRANCH   1   2
ATOM      2  C   UNL     1     -47.083  12.494  -9.237  1.00  0.00     0.053 C 
BRANCH   2   3
ATOM      3  C   UNL     1     -46.597  11.203  -9.822  1.00  0.00     0.041 C 
ATOM      4  O   UNL     1     -45.739  11.209 -10.744  1.00  0.00    -0.550 OA
ATOM      5  O   UNL     1     -47.116   9.993  -9.375  1.00  0.00    -0.550 OA
ENDBRANCH   2   3
ENDBRANCH   1   2
BRANCH   1   6
ATOM      6  C   UNL     1     -46.765  15.024  -9.631  1.00  0.00     0.000 C 
BRANCH   6   7
ATOM      7  C   UNL     1     -46.683  15.555 -11.069  1.00  0.00    -0.003 C 
ATOM      8  C   UNL     1     -46.999  17.047 -11.125  1.00  0.00     0.004 C 
ENDBRANCH   6   7
ENDBRANCH   1   6
TORSDOF 4
ENDMDL
MODEL 2
REMARK VINA RESULT:    -3.415     17.628     18.605
REMARK INTER + INTRA:          -4.272
REMARK INTER:                  -4.105
REMARK INTRA:                  -0.167
REMARK UNBOUND:                -0.059
REMARK SMILES CCCCCC(=O)[O-]
REMARK SMILES IDX 4 1 5 2 6 3 7 4 8 5 3 6 2 7 1 8
REMARK H PARENT
REMARK Flexibility Score: inf
ROOT
ATOM      1  C   UNL     1     -42.695  27.403   1.284  1.00  0.00     0.006 C 
ENDROOT
BRANCH   1   2
ATOM      2  C   UNL     1     -43.544  28.144   2.333  1.00  0.00     0.053 C 
BRANCH   2   3
ATOM      3  C   UNL     1     -44.574  27.261   2.967  1.00  0.00     0.041 C 
ATOM      4  O   UNL     1     -44.246  26.138   3.433  1.00  0.00    -0.550 OA
ATOM      5  O   UNL     1     -45.905  27.660   3.013  1.00  0.00    -0.550 OA
ENDBRANCH   2   3
ENDBRANCH   1   2
BRANCH   1   6
ATOM      6  C   UNL     1     -42.828  27.970  -0.141  1.00  0.00     0.000 C 
BRANCH   6   7
ATOM      7  C   UNL     1     -44.284  28.040  -0.627  1.00  0.00    -0.003 C 
ATOM      8  C   UNL     1     -44.799  26.660  -1.024  1.00  0.00     0.004 C 
ENDBRANCH   6   7
ENDBRANCH   1   6
TORSDOF 4
ENDMDL
MODEL 3
REMARK VINA RESULT:    -3.392     17.616     18.598
REMARK INTER + INTRA:          -4.245
REMARK INTER:                  -4.073
REMARK INTRA:                  -0.172
REMARK UNBOUND:                -0.059
REMARK SMILES CCCCCC(=O)[O-]
REMARK SMILES IDX 4 1 5 2 6 3 7 4 8 5 3 6 2 7 1 8
REMARK H PARENT
REMARK Flexibility Score: inf
ROOT
ATOM      1  C   UNL     1     -42.674  27.444   1.218  1.00  0.00     0.006 C 
ENDROOT
BRANCH   1   2
ATOM      2  C   UNL     1     -43.487  28.165   2.308  1.00  0.00     0.053 C 
BRANCH   2   3
ATOM      3  C   UNL     1     -44.552  27.294   2.901  1.00  0.00     0.041 C 
ATOM      4  O   UNL     1     -45.750  27.681   2.917  1.00  0.00    -0.550 OA
ATOM      5  O   UNL     1     -44.219  26.069   3.468  1.00  0.00    -0.550 OA
ENDBRANCH   2   3
ENDBRANCH   1   2
BRANCH   1   6
ATOM      6  C   UNL     1     -42.835  28.052  -0.186  1.00  0.00     0.000 C 
BRANCH   6   7
ATOM      7  C   UNL     1     -44.293  28.081  -0.666  1.00  0.00    -0.003 C 
ATOM      8  C   UNL     1     -44.777  26.684  -1.042  1.00  0.00     0.004 C 
ENDBRANCH   6   7
ENDBRANCH   1   6
TORSDOF 4
ENDMDL
MODEL 4
REMARK VINA RESULT:    -3.288     16.780     17.840
REMARK INTER + INTRA:          -4.116
REMARK INTER:                  -4.001
REMARK INTRA:                  -0.115
REMARK UNBOUND:                -0.059
REMARK SMILES CCCCCC(=O)[O-]
REMARK SMILES IDX 4 1 5 2 6 3 7 4 8 5 3 6 2 7 1 8
REMARK H PARENT
REMARK Flexibility Score: inf
ROOT
ATOM      1  C   UNL     1     -43.685  27.487  -0.301  1.00  0.00     0.006 C 
ENDROOT
BRANCH   1   2
ATOM      2  C   UNL     1     -43.174  27.159   1.114  1.00  0.00     0.053 C 
BRANCH   2   3
ATOM      3  C   UNL     1     -44.137  27.575   2.183  1.00  0.00     0.041 C 
ATOM      4  O   UNL     1     -44.669  26.710   2.928  1.00  0.00    -0.550 OA
ATOM      5  O   UNL     1     -44.475  28.915   2.338  1.00  0.00    -0.550 OA
ENDBRANCH   2   3
ENDBRANCH   1   2
BRANCH   1   6
ATOM      6  C   UNL     1     -45.104  26.967  -0.589  1.00  0.00     0.000 C 
BRANCH   6   7
ATOM      7  C   UNL     1     -45.160  25.997  -1.779  1.00  0.00    -0.003 C 
ATOM      8  C   UNL     1     -46.488  25.248  -1.817  1.00  0.00     0.004 C 
ENDBRANCH   6   7
ENDBRANCH   1   6
TORSDOF 4
ENDMDL
MODEL 5
REMARK VINA RESULT:    -3.228     13.976     14.993
REMARK INTER + INTRA:          -4.042
REMARK INTER:                  -3.990
REMARK INTRA:                  -0.052
REMARK UNBOUND:                -0.059
REMARK SMILES CCCCCC(=O)[O-]
REMARK SMILES IDX 4 1 5 2 6 3 7 4 8 5 3 6 2 7 1 8
REMARK H PARENT
REMARK Flexibility Score: inf
ROOT
ATOM      1  C   UNL     1     -46.623  26.414  -3.723  1.00  0.00     0.006 C 
ENDROOT
BRANCH   1   2
ATOM      2  C   UNL     1     -46.012  27.040  -2.457  1.00  0.00     0.053 C 
BRANCH   2   3
ATOM      3  C   UNL     1     -45.415  26.016  -1.540  1.00  0.00     0.041 C 
ATOM      4  O   UNL     1     -45.707  24.798  -1.675  1.00  0.00    -0.550 OA
ATOM      5  O   UNL     1     -44.564  26.408  -0.513  1.00  0.00    -0.550 OA
ENDBRANCH   2   3
ENDBRANCH   1   2
BRANCH   1   6
ATOM      6  C   UNL     1     -46.388  27.237  -5.002  1.00  0.00     0.000 C 
BRANCH   6   7
ATOM      7  C   UNL     1     -45.948  26.380  -6.198  1.00  0.00    -0.003 C 
ATOM      8  C   UNL     1     -45.476  27.252  -7.357  1.00  0.00     0.004 C 
ENDBRANCH   6   7
ENDBRANCH   1   6
TORSDOF 4
ENDMDL
MODEL 6
REMARK VINA RESULT:    -3.110     14.023     14.999
REMARK INTER + INTRA:          -3.896
REMARK INTER:                  -3.840
REMARK INTRA:                  -0.056
REMARK UNBOUND:                -0.059
REMARK SMILES CCCCCC(=O)[O-]
REMARK SMILES IDX 4 1 5 2 6 3 7 4 8 5 3 6 2 7 1 8
REMARK H PARENT
REMARK Flexibility Score: inf
ROOT
ATOM      1  C   UNL     1     -46.284  27.009  -4.033  1.00  0.00     0.006 C 
ENDROOT
BRANCH   1   2
ATOM      2  C   UNL     1     -46.744  26.552  -5.429  1.00  0.00     0.053 C 
BRANCH   2   3
ATOM      3  C   UNL     1     -45.787  26.953  -6.510  1.00  0.00     0.041 C 
ATOM      4  O   UNL     1     -45.351  26.094  -7.321  1.00  0.00    -0.550 OA
ATOM      5  O   UNL     1     -45.348  28.269  -6.603  1.00  0.00    -0.550 OA
ENDBRANCH   2   3
ENDBRANCH   1   2
BRANCH   1   6
ATOM      6  C   UNL     1     -46.723  26.074  -2.893  1.00  0.00     0.000 C 
BRANCH   6   7
ATOM      7  C   UNL     1     -45.542  25.501  -2.096  1.00  0.00    -0.003 C 
ATOM      8  C   UNL     1     -44.929  26.558  -1.184  1.00  0.00     0.004 C 
ENDBRANCH   6   7
ENDBRANCH   1   6
TORSDOF 4
ENDMDL
MODEL 7
REMARK VINA RESULT:    -3.041     15.590     16.788
REMARK INTER + INTRA:          -3.812
REMARK INTER:                  -3.705
REMARK INTRA:                  -0.106
REMARK UNBOUND:                -0.059
REMARK SMILES CCCCCC(=O)[O-]
REMARK SMILES IDX 4 1 5 2 6 3 7 4 8 5 3 6 2 7 1 8
REMARK H PARENT
REMARK Flexibility Score: inf
ROOT
ATOM      1  C   UNL     1     -44.868  27.202  -0.262  1.00  0.00     0.006 C 
ENDROOT
BRANCH   1   2
ATOM      2  C   UNL     1     -45.549  27.358  -1.634  1.00  0.00     0.053 C 
BRANCH   2   3
ATOM      3  C   UNL     1     -45.758  26.045  -2.325  1.00  0.00     0.041 C 
ATOM      4  O   UNL     1     -45.662  24.968  -1.680  1.00  0.00    -0.550 OA
ATOM      5  O   UNL     1     -46.024  26.007  -3.689  1.00  0.00    -0.550 OA
ENDBRANCH   2   3
ENDBRANCH   1   2
BRANCH   1   6
ATOM      6  C   UNL     1     -43.369  27.549  -0.266  1.00  0.00     0.000 C 
BRANCH   6   7
ATOM      7  C   UNL     1     -42.828  27.893   1.129  1.00  0.00    -0.003 C 
ATOM      8  C   UNL     1     -43.669  27.244   2.223  1.00  0.00     0.004 C 
ENDBRANCH   6   7
ENDBRANCH   1   6
TORSDOF 4
ENDMDL
MODEL 8
REMARK VINA RESULT:    -3.003     15.835     16.992
REMARK INTER + INTRA:          -3.765
REMARK INTER:                  -3.623
REMARK INTRA:                  -0.142
REMARK UNBOUND:                -0.059
REMARK SMILES CCCCCC(=O)[O-]
REMARK SMILES IDX 4 1 5 2 6 3 7 4 8 5 3 6 2 7 1 8
REMARK H PARENT
REMARK Flexibility Score: inf
ROOT
ATOM      1  C   UNL     1     -44.472  26.725  -0.974  1.00  0.00     0.006 C 
ENDROOT
BRANCH   1   2
ATOM      2  C   UNL     1     -45.135  27.922  -0.269  1.00  0.00     0.053 C 
BRANCH   2   3
ATOM      3  C   UNL     1     -45.721  27.555   1.060  1.00  0.00     0.041 C 
ATOM      4  O   UNL     1     -44.978  27.134   1.985  1.00  0.00    -0.550 OA
ATOM      5  O   UNL     1     -47.093  27.643   1.268  1.00  0.00    -0.550 OA
ENDBRANCH   2   3
ENDBRANCH   1   2
BRANCH   1   6
ATOM      6  C   UNL     1     -45.420  25.940  -1.897  1.00  0.00     0.000 C 
BRANCH   6   7
ATOM      7  C   UNL     1     -46.327  26.847  -2.740  1.00  0.00    -0.003 C 
ATOM      8  C   UNL     1     -46.285  26.452  -4.213  1.00  0.00     0.004 C 
ENDBRANCH   6   7
ENDBRANCH   1   6
TORSDOF 4
ENDMDL
MODEL 9
REMARK VINA RESULT:    -2.996     16.490     17.668
REMARK INTER + INTRA:          -3.755
REMARK INTER:                  -3.484
REMARK INTRA:                  -0.272
REMARK UNBOUND:                -0.059
REMARK SMILES CCCCCC(=O)[O-]
REMARK SMILES IDX 4 1 5 2 6 3 7 4 8 5 3 6 2 7 1 8
REMARK H PARENT
REMARK Flexibility Score: inf
ROOT
ATOM      1  C   UNL     1     -44.212  28.657  -0.450  1.00  0.00     0.006 C 
ENDROOT
BRANCH   1   2
ATOM      2  C   UNL     1     -45.278  28.027  -1.363  1.00  0.00     0.053 C 
BRANCH   2   3
ATOM      3  C   UNL     1     -45.830  26.750  -0.808  1.00  0.00     0.041 C 
ATOM      4  O   UNL     1     -46.577  26.770   0.206  1.00  0.00    -0.550 OA
ATOM      5  O   UNL     1     -45.493  25.532  -1.387  1.00  0.00    -0.550 OA
ENDBRANCH   2   3
ENDBRANCH   1   2
BRANCH   1   6
ATOM      6  C   UNL     1     -43.044  27.714  -0.110  1.00  0.00     0.000 C 
BRANCH   6   7
ATOM      7  C   UNL     1     -42.936  27.406   1.391  1.00  0.00    -0.003 C 
ATOM      8  C   UNL     1     -43.951  28.214   2.193  1.00  0.00     0.004 C 
ENDBRANCH   6   7
ENDBRANCH   1   6
TORSDOF 4
ENDMDL
