MODEL 1
REMARK VINA RESULT:    16.808      0.000      0.000
REMARK INTER + INTRA:          29.692
REMARK INTER:                  30.565
REMARK INTRA:                  -0.872
REMARK UNBOUND:                -0.872
REMARK SMILES CCCCCCCCCCCCCCCC(=O)[O-]
REMARK SMILES IDX 9 1 10 2 11 3 12 4 13 5 14 6 15 7 16 8 17 9 18 10 8 11 7 12
REMARK SMILES IDX 6 13 5 14 4 15 3 16 2 17 1 18
REMARK H PARENT
REMARK Flexibility Score: inf
ROOT
ATOM      1  C   UNL     1     -42.805  23.484 -14.554  1.00  0.00     0.000 C 
ENDROOT
BRANCH   1   2
ATOM      2  C   UNL     1     -42.291  23.153 -13.143  1.00  0.00     0.000 C 
BRANCH   2   3
ATOM      3  C   UNL     1     -41.385  24.256 -12.569  1.00  0.00     0.000 C 
BRANCH   3   4
ATOM      4  C   UNL     1     -41.731  24.588 -11.102  1.00  0.00     0.000 C 
BRANCH   4   5
ATOM      5  C   UNL     1     -43.228  24.865 -10.870  1.00  0.00     0.000 C 
BRANCH   5   6
ATOM      6  C   UNL     1     -43.601  24.919  -9.383  1.00  0.00     0.006 C 
BRANCH   6   7
ATOM      7  C   UNL     1     -45.119  24.834  -9.195  1.00  0.00     0.053 C 
BRANCH   7   8
ATOM      8  C   UNL     1     -45.552  25.684  -8.042  1.00  0.00     0.041 C 
ATOM      9  O   UNL     1     -44.973  25.585  -6.929  1.00  0.00    -0.550 OA
ATOM     10  O   UNL     1     -46.628  26.550  -8.182  1.00  0.00    -0.550 OA
ENDBRANCH   7   8
ENDBRANCH   6   7
ENDBRANCH   5   6
ENDBRANCH   4   5
ENDBRANCH   3   4
ENDBRANCH   2   3
ENDBRANCH   1   2
BRANCH   1  11
ATOM     11  C   UNL     1     -42.037  24.648 -15.203  1.00  0.00     0.000 C 
BRANCH  11  12
ATOM     12  C   UNL     1     -41.396  24.260 -16.545  1.00  0.00    -0.000 C 
BRANCH  12  13
ATOM     13  C   UNL     1     -41.956  22.941 -17.106  1.00  0.00    -0.000 C 
BRANCH  13  14
ATOM     14  C   UNL     1     -41.279  22.527 -18.423  1.00  0.00    -0.000 C 
BRANCH  14  15
ATOM     15  C   UNL     1     -40.498  21.207 -18.299  1.00  0.00    -0.000 C 
BRANCH  15  16
ATOM     16  C   UNL     1     -39.148  21.242 -19.039  1.00  0.00    -0.000 C 
BRANCH  16  17
ATOM     17  C   UNL     1     -38.206  22.380 -18.605  1.00  0.00    -0.003 C 
ATOM     18  C   UNL     1     -37.781  23.279 -19.766  1.00  0.00     0.004 C 
ENDBRANCH  16  17
ENDBRANCH  15  16
ENDBRANCH  14  15
ENDBRANCH  13  14
ENDBRANCH  12  13
ENDBRANCH  11  12
ENDBRANCH   1  11
TORSDOF 14
ENDMDL
MODEL 2
REMARK VINA RESULT:    17.339      0.986      1.545
REMARK INTER + INTRA:          30.659
REMARK INTER:                  30.972
REMARK INTRA:                  -0.314
REMARK UNBOUND:                -0.872
REMARK SMILES CCCCCCCCCCCCCCCC(=O)[O-]
REMARK SMILES IDX 9 1 10 2 11 3 12 4 13 5 14 6 15 7 16 8 17 9 18 10 8 11 7 12
REMARK SMILES IDX 6 13 5 14 4 15 3 16 2 17 1 18
REMARK H PARENT
REMARK Flexibility Score: inf
ROOT
ATOM      1  C   UNL     1     -39.536  24.634 -13.596  1.00  0.00     0.000 C 
ENDROOT
BRANCH   1   2
ATOM      2  C   UNL     1     -40.244  23.900 -12.446  1.00  0.00     0.000 C 
BRANCH   2   3
ATOM      3  C   UNL     1     -41.066  24.849 -11.556  1.00  0.00     0.000 C 
BRANCH   3   4
ATOM      4  C   UNL     1     -42.535  24.395 -11.423  1.00  0.00     0.000 C 
BRANCH   4   5
ATOM      5  C   UNL     1     -43.127  24.629 -10.022  1.00  0.00     0.000 C 
BRANCH   5   6
ATOM      6  C   UNL     1     -44.463  25.384 -10.056  1.00  0.00     0.006 C 
BRANCH   6   7
ATOM      7  C   UNL     1     -45.449  24.801  -9.039  1.00  0.00     0.053 C 
BRANCH   7   8
ATOM      8  C   UNL     1     -45.630  25.740  -7.888  1.00  0.00     0.041 C 
ATOM      9  O   UNL     1     -44.775  25.784  -6.966  1.00  0.00    -0.550 OA
ATOM     10  O   UNL     1     -46.769  26.530  -7.808  1.00  0.00    -0.550 OA
ENDBRANCH   7   8
ENDBRANCH   6   7
ENDBRANCH   5   6
ENDBRANCH   4   5
ENDBRANCH   3   4
ENDBRANCH   2   3
ENDBRANCH   1   2
BRANCH   1  11
ATOM     11  C   UNL     1     -40.428  24.778 -14.842  1.00  0.00     0.000 C 
BRANCH  11  12
ATOM     12  C   UNL     1     -41.782  24.069 -14.686  1.00  0.00    -0.000 C 
BRANCH  12  13
ATOM     13  C   UNL     1     -42.563  23.990 -16.009  1.00  0.00    -0.000 C 
BRANCH  13  14
ATOM     14  C   UNL     1     -42.120  22.807 -16.885  1.00  0.00    -0.000 C 
BRANCH  14  15
ATOM     15  C   UNL     1     -41.015  23.189 -17.885  1.00  0.00    -0.000 C 
BRANCH  15  16
ATOM     16  C   UNL     1     -40.379  21.965 -18.568  1.00  0.00    -0.000 C 
BRANCH  16  17
ATOM     17  C   UNL     1     -38.844  21.902 -18.476  1.00  0.00    -0.003 C 
ATOM     18  C   UNL     1     -38.150  22.973 -19.317  1.00  0.00     0.004 C 
ENDBRANCH  16  17
ENDBRANCH  15  16
ENDBRANCH  14  15
ENDBRANCH  13  14
ENDBRANCH  12  13
ENDBRANCH  11  12
ENDBRANCH   1  11
TORSDOF 14
ENDMDL
MODEL 3
REMARK VINA RESULT:    18.823      4.988      9.928
REMARK INTER + INTRA:          33.356
REMARK INTER:                  33.447
REMARK INTRA:                  -0.091
REMARK UNBOUND:                -0.872
REMARK SMILES CCCCCCCCCCCCCCCC(=O)[O-]
REMARK SMILES IDX 9 1 10 2 11 3 12 4 13 5 14 6 15 7 16 8 17 9 18 10 8 11 7 12
REMARK SMILES IDX 6 13 5 14 4 15 3 16 2 17 1 18
REMARK H PARENT
REMARK Flexibility Score: inf
ROOT
ATOM      1  C   UNL     1     -42.679  23.454 -14.635  1.00  0.00     0.000 C 
ENDROOT
BRANCH   1   2
ATOM      2  C   UNL     1     -41.804  24.607 -15.153  1.00  0.00     0.000 C 
BRANCH   2   3
ATOM      3  C   UNL     1     -40.949  24.201 -16.366  1.00  0.00     0.000 C 
BRANCH   3   4
ATOM      4  C   UNL     1     -41.814  23.760 -17.566  1.00  0.00     0.000 C 
BRANCH   4   5
ATOM      5  C   UNL     1     -41.798  22.241 -17.812  1.00  0.00     0.000 C 
BRANCH   5   6
ATOM      6  C   UNL     1     -40.542  21.770 -18.558  1.00  0.00     0.006 C 
BRANCH   6   7
ATOM      7  C   UNL     1     -39.405  22.786 -18.414  1.00  0.00     0.053 C 
BRANCH   7   8
ATOM      8  C   UNL     1     -38.136  22.236 -18.987  1.00  0.00     0.041 C 
ATOM      9  O   UNL     1     -37.541  22.848 -19.911  1.00  0.00    -0.550 OA
ATOM     10  O   UNL     1     -37.639  21.021 -18.534  1.00  0.00    -0.550 OA
ENDBRANCH   7   8
ENDBRANCH   6   7
ENDBRANCH   5   6
ENDBRANCH   4   5
ENDBRANCH   3   4
ENDBRANCH   2   3
ENDBRANCH   1   2
BRANCH   1  11
ATOM     11  C   UNL     1     -42.636  23.322 -13.103  1.00  0.00     0.000 C 
BRANCH  11  12
ATOM     12  C   UNL     1     -41.548  24.199 -12.463  1.00  0.00    -0.000 C 
BRANCH  12  13
ATOM     13  C   UNL     1     -41.913  24.646 -11.037  1.00  0.00    -0.000 C 
BRANCH  13  14
ATOM     14  C   UNL     1     -43.423  24.881 -10.863  1.00  0.00    -0.000 C 
BRANCH  14  15
ATOM     15  C   UNL     1     -43.844  24.960  -9.385  1.00  0.00    -0.000 C 
BRANCH  15  16
ATOM     16  C   UNL     1     -45.341  25.274  -9.208  1.00  0.00    -0.000 C 
BRANCH  16  17
ATOM     17  C   UNL     1     -45.774  25.546  -7.755  1.00  0.00    -0.003 C 
ATOM     18  C   UNL     1     -44.595  25.647  -6.789  1.00  0.00     0.004 C 
ENDBRANCH  16  17
ENDBRANCH  15  16
ENDBRANCH  14  15
ENDBRANCH  13  14
ENDBRANCH  12  13
ENDBRANCH  11  12
ENDBRANCH   1  11
TORSDOF 14
ENDMDL
MODEL 4
REMARK VINA RESULT:    19.458      7.043     10.192
REMARK INTER + INTRA:          34.512
REMARK INTER:                  35.193
REMARK INTRA:                  -0.681
REMARK UNBOUND:                -0.872
REMARK SMILES CCCCCCCCCCCCCCCC(=O)[O-]
REMARK SMILES IDX 9 1 10 2 11 3 12 4 13 5 14 6 15 7 16 8 17 9 18 10 8 11 7 12
REMARK SMILES IDX 6 13 5 14 4 15 3 16 2 17 1 18
REMARK H PARENT
REMARK Flexibility Score: inf
ROOT
ATOM      1  C   UNL     1     -37.452  27.687 -21.641  1.00  0.00     0.000 C 
ENDROOT
BRANCH   1   2
ATOM      2  C   UNL     1     -38.507  28.739 -22.021  1.00  0.00     0.000 C 
BRANCH   2   3
ATOM      3  C   UNL     1     -38.849  29.682 -20.854  1.00  0.00     0.000 C 
BRANCH   3   4
ATOM      4  C   UNL     1     -40.371  29.892 -20.702  1.00  0.00     0.000 C 
BRANCH   4   5
ATOM      5  C   UNL     1     -41.178  29.462 -21.940  1.00  0.00     0.000 C 
BRANCH   5   6
ATOM      6  C   UNL     1     -41.886  30.637 -22.629  1.00  0.00     0.006 C 
BRANCH   6   7
ATOM      7  C   UNL     1     -43.407  30.502 -22.516  1.00  0.00     0.053 C 
BRANCH   7   8
ATOM      8  C   UNL     1     -43.969  31.605 -21.675  1.00  0.00     0.041 C 
ATOM      9  O   UNL     1     -43.556  31.778 -20.500  1.00  0.00    -0.550 OA
ATOM     10  O   UNL     1     -44.986  32.410 -22.173  1.00  0.00    -0.550 OA
ENDBRANCH   7   8
ENDBRANCH   6   7
ENDBRANCH   5   6
ENDBRANCH   4   5
ENDBRANCH   3   4
ENDBRANCH   2   3
ENDBRANCH   1   2
BRANCH   1  11
ATOM     11  C   UNL     1     -37.963  26.247 -21.820  1.00  0.00     0.000 C 
BRANCH  11  12
ATOM     12  C   UNL     1     -37.378  25.277 -20.782  1.00  0.00    -0.000 C 
BRANCH  12  13
ATOM     13  C   UNL     1     -38.263  24.037 -20.568  1.00  0.00    -0.000 C 
BRANCH  13  14
ATOM     14  C   UNL     1     -38.205  23.516 -19.123  1.00  0.00    -0.000 C 
BRANCH  14  15
ATOM     15  C   UNL     1     -38.373  21.988 -19.036  1.00  0.00    -0.000 C 
BRANCH  15  16
ATOM     16  C   UNL     1     -39.740  21.569 -18.466  1.00  0.00    -0.000 C 
BRANCH  16  17
ATOM     17  C   UNL     1     -40.847  22.630 -18.606  1.00  0.00    -0.003 C 
ATOM     18  C   UNL     1     -41.578  22.907 -17.293  1.00  0.00     0.004 C 
ENDBRANCH  16  17
ENDBRANCH  15  16
ENDBRANCH  14  15
ENDBRANCH  13  14
ENDBRANCH  12  13
ENDBRANCH  11  12
ENDBRANCH   1  11
TORSDOF 14
ENDMDL
