MODEL 1
REMARK VINA RESULT:    -5.054      0.000      0.000
REMARK INTER + INTRA:          -8.619
REMARK INTER:                  -8.008
REMARK INTRA:                  -0.612
REMARK UNBOUND:                -0.612
REMARK SMILES CCCCCCCCCCCC(=O)[O-]
REMARK SMILES IDX 7 1 8 2 9 3 10 4 11 5 12 6 13 7 14 8 6 9 5 10 4 11 3 12 2 13
REMARK SMILES IDX 1 14
REMARK H PARENT
REMARK Flexibility Score: inf
ROOT
ATOM      1  C   UNL     1      14.609  17.023  62.591  1.00  0.00     0.000 C 
ENDROOT
BRANCH   1   2
ATOM      2  C   UNL     1      13.591  16.273  63.467  1.00  0.00     0.000 C 
BRANCH   2   3
ATOM      3  C   UNL     1      14.257  15.441  64.580  1.00  0.00     0.000 C 
BRANCH   3   4
ATOM      4  C   UNL     1      13.702  14.016  64.751  1.00  0.00     0.006 C 
BRANCH   4   5
ATOM      5  C   UNL     1      13.792  13.180  63.468  1.00  0.00     0.053 C 
BRANCH   5   6
ATOM      6  C   UNL     1      14.360  11.827  63.764  1.00  0.00     0.041 C 
ATOM      7  O   UNL     1      13.691  10.990  64.426  1.00  0.00    -0.550 OA
ATOM      8  O   UNL     1      15.608  11.473  63.267  1.00  0.00    -0.550 OA
ENDBRANCH   5   6
ENDBRANCH   4   5
ENDBRANCH   3   4
ENDBRANCH   2   3
ENDBRANCH   1   2
BRANCH   1   9
ATOM      9  C   UNL     1      15.177  16.146  61.463  1.00  0.00     0.000 C 
BRANCH   9  10
ATOM     10  C   UNL     1      15.507  16.949  60.196  1.00  0.00    -0.000 C 
BRANCH  10  11
ATOM     11  C   UNL     1      16.609  16.256  59.380  1.00  0.00    -0.000 C 
BRANCH  11  12
ATOM     12  C   UNL     1      17.961  16.981  59.474  1.00  0.00    -0.000 C 
BRANCH  12  13
ATOM     13  C   UNL     1      18.970  16.238  60.361  1.00  0.00    -0.003 C 
ATOM     14  C   UNL     1      19.537  17.160  61.437  1.00  0.00     0.004 C 
ENDBRANCH  12  13
ENDBRANCH  11  12
ENDBRANCH  10  11
ENDBRANCH   9  10
ENDBRANCH   1   9
TORSDOF 10
ENDMDL
MODEL 2
REMARK VINA RESULT:    -4.896      1.014      1.773
REMARK INTER + INTRA:          -8.370
REMARK INTER:                  -7.606
REMARK INTRA:                  -0.764
REMARK UNBOUND:                -0.612
REMARK SMILES CCCCCCCCCCCC(=O)[O-]
REMARK SMILES IDX 7 1 8 2 9 3 10 4 11 5 12 6 13 7 14 8 6 9 5 10 4 11 3 12 2 13
REMARK SMILES IDX 1 14
REMARK H PARENT
REMARK Flexibility Score: inf
ROOT
ATOM      1  C   UNL     1      15.494  14.786  60.878  1.00  0.00     0.000 C 
ENDROOT
BRANCH   1   2
ATOM      2  C   UNL     1      14.964  15.936  61.752  1.00  0.00     0.000 C 
BRANCH   2   3
ATOM      3  C   UNL     1      14.666  15.500  63.199  1.00  0.00     0.000 C 
BRANCH   3   4
ATOM      4  C   UNL     1      13.525  14.480  63.353  1.00  0.00     0.006 C 
BRANCH   4   5
ATOM      5  C   UNL     1      13.778  13.463  64.474  1.00  0.00     0.053 C 
BRANCH   5   6
ATOM      6  C   UNL     1      14.187  12.144  63.899  1.00  0.00     0.041 C 
ATOM      7  O   UNL     1      14.986  12.096  62.927  1.00  0.00    -0.550 OA
ATOM      8  O   UNL     1      13.724  10.964  64.469  1.00  0.00    -0.550 OA
ENDBRANCH   5   6
ENDBRANCH   4   5
ENDBRANCH   3   4
ENDBRANCH   2   3
ENDBRANCH   1   2
BRANCH   1   9
ATOM      9  C   UNL     1      15.445  15.115  59.377  1.00  0.00     0.000 C 
BRANCH   9  10
ATOM     10  C   UNL     1      16.515  16.135  58.958  1.00  0.00    -0.000 C 
BRANCH  10  11
ATOM     11  C   UNL     1      17.912  15.678  59.404  1.00  0.00    -0.000 C 
BRANCH  11  12
ATOM     12  C   UNL     1      18.675  16.768  60.175  1.00  0.00    -0.000 C 
BRANCH  12  13
ATOM     13  C   UNL     1      18.881  16.412  61.654  1.00  0.00    -0.003 C 
ATOM     14  C   UNL     1      20.009  17.239  62.265  1.00  0.00     0.004 C 
ENDBRANCH  12  13
ENDBRANCH  11  12
ENDBRANCH  10  11
ENDBRANCH   9  10
ENDBRANCH   1   9
TORSDOF 10
ENDMDL
MODEL 3
REMARK VINA RESULT:    -4.841     12.307     14.136
REMARK INTER + INTRA:          -8.283
REMARK INTER:                  -7.820
REMARK INTRA:                  -0.463
REMARK UNBOUND:                -0.612
REMARK SMILES CCCCCCCCCCCC(=O)[O-]
REMARK SMILES IDX 7 1 8 2 9 3 10 4 11 5 12 6 13 7 14 8 6 9 5 10 4 11 3 12 2 13
REMARK SMILES IDX 1 14
REMARK H PARENT
REMARK Flexibility Score: inf
ROOT
ATOM      1  C   UNL     1      18.073  24.686  70.561  1.00  0.00     0.000 C 
ENDROOT
BRANCH   1   2
ATOM      2  C   UNL     1      18.396  26.141  70.943  1.00  0.00     0.000 C 
BRANCH   2   3
ATOM      3  C   UNL     1      17.637  27.169  70.085  1.00  0.00     0.000 C 
BRANCH   3   4
ATOM      4  C   UNL     1      18.485  27.886  69.019  1.00  0.00     0.006 C 
BRANCH   4   5
ATOM      5  C   UNL     1      17.966  27.665  67.592  1.00  0.00     0.053 C 
BRANCH   5   6
ATOM      6  C   UNL     1      18.770  28.463  66.615  1.00  0.00     0.041 C 
ATOM      7  O   UNL     1      19.497  29.410  67.015  1.00  0.00    -0.550 OA
ATOM      8  O   UNL     1      18.754  28.129  65.266  1.00  0.00    -0.550 OA
ENDBRANCH   5   6
ENDBRANCH   4   5
ENDBRANCH   3   4
ENDBRANCH   2   3
ENDBRANCH   1   2
BRANCH   1   9
ATOM      9  C   UNL     1      17.144  24.001  71.577  1.00  0.00     0.000 C 
BRANCH   9  10
ATOM     10  C   UNL     1      17.524  22.535  71.832  1.00  0.00    -0.000 C 
BRANCH  10  11
ATOM     11  C   UNL     1      18.409  21.993  70.699  1.00  0.00    -0.000 C 
BRANCH  11  12
ATOM     12  C   UNL     1      18.069  20.542  70.323  1.00  0.00    -0.000 C 
BRANCH  12  13
ATOM     13  C   UNL     1      16.675  20.117  70.806  1.00  0.00    -0.003 C 
ATOM     14  C   UNL     1      16.347  18.697  70.353  1.00  0.00     0.004 C 
ENDBRANCH  12  13
ENDBRANCH  11  12
ENDBRANCH  10  11
ENDBRANCH   9  10
ENDBRANCH   1   9
TORSDOF 10
ENDMDL
MODEL 4
REMARK VINA RESULT:    -4.807      1.303      2.325
REMARK INTER + INTRA:          -8.228
REMARK INTER:                  -7.308
REMARK INTRA:                  -0.920
REMARK UNBOUND:                -0.612
REMARK SMILES CCCCCCCCCCCC(=O)[O-]
REMARK SMILES IDX 7 1 8 2 9 3 10 4 11 5 12 6 13 7 14 8 6 9 5 10 4 11 3 12 2 13
REMARK SMILES IDX 1 14
REMARK H PARENT
REMARK Flexibility Score: inf
ROOT
ATOM      1  C   UNL     1      15.428  16.646  61.779  1.00  0.00     0.000 C 
ENDROOT
BRANCH   1   2
ATOM      2  C   UNL     1      14.680  15.423  62.336  1.00  0.00     0.000 C 
BRANCH   2   3
ATOM      3  C   UNL     1      14.444  15.506  63.855  1.00  0.00     0.000 C 
BRANCH   3   4
ATOM      4  C   UNL     1      14.018  14.186  64.524  1.00  0.00     0.006 C 
BRANCH   4   5
ATOM      5  C   UNL     1      13.622  13.103  63.512  1.00  0.00     0.053 C 
BRANCH   5   6
ATOM      6  C   UNL     1      14.297  11.809  63.841  1.00  0.00     0.041 C 
ATOM      7  O   UNL     1      15.456  11.571  63.409  1.00  0.00    -0.550 OA
ATOM      8  O   UNL     1      13.667  10.886  64.667  1.00  0.00    -0.550 OA
ENDBRANCH   5   6
ENDBRANCH   4   5
ENDBRANCH   3   4
ENDBRANCH   2   3
ENDBRANCH   1   2
BRANCH   1   9
ATOM      9  C   UNL     1      16.956  16.482  61.842  1.00  0.00     0.000 C 
BRANCH   9  10
ATOM     10  C   UNL     1      17.610  16.484  60.451  1.00  0.00    -0.000 C 
BRANCH  10  11
ATOM     11  C   UNL     1      16.544  16.524  59.345  1.00  0.00    -0.000 C 
BRANCH  11  12
ATOM     12  C   UNL     1      16.690  15.369  58.340  1.00  0.00    -0.000 C 
BRANCH  12  13
ATOM     13  C   UNL     1      16.771  13.997  59.023  1.00  0.00    -0.003 C 
ATOM     14  C   UNL     1      15.389  13.522  59.464  1.00  0.00     0.004 C 
ENDBRANCH  12  13
ENDBRANCH  11  12
ENDBRANCH  10  11
ENDBRANCH   9  10
ENDBRANCH   1   9
TORSDOF 10
ENDMDL
MODEL 5
REMARK VINA RESULT:    -4.720      3.186      6.256
REMARK INTER + INTRA:          -8.091
REMARK INTER:                  -7.388
REMARK INTRA:                  -0.703
REMARK UNBOUND:                -0.612
REMARK SMILES CCCCCCCCCCCC(=O)[O-]
REMARK SMILES IDX 7 1 8 2 9 3 10 4 11 5 12 6 13 7 14 8 6 9 5 10 4 11 3 12 2 13
REMARK SMILES IDX 1 14
REMARK H PARENT
REMARK Flexibility Score: inf
ROOT
ATOM      1  C   UNL     1      15.389  16.921  62.896  1.00  0.00     0.000 C 
ENDROOT
BRANCH   1   2
ATOM      2  C   UNL     1      15.612  15.980  61.699  1.00  0.00     0.000 C 
BRANCH   2   3
ATOM      3  C   UNL     1      15.317  16.653  60.345  1.00  0.00     0.000 C 
BRANCH   3   4
ATOM      4  C   UNL     1      16.490  16.664  59.350  1.00  0.00     0.006 C 
BRANCH   4   5
ATOM      5  C   UNL     1      16.577  15.382  58.512  1.00  0.00     0.053 C 
BRANCH   5   6
ATOM      6  C   UNL     1      17.963  15.199  57.978  1.00  0.00     0.041 C 
ATOM      7  O   UNL     1      18.536  14.082  58.071  1.00  0.00    -0.550 OA
ATOM      8  O   UNL     1      18.603  16.250  57.333  1.00  0.00    -0.550 OA
ENDBRANCH   5   6
ENDBRANCH   4   5
ENDBRANCH   3   4
ENDBRANCH   2   3
ENDBRANCH   1   2
BRANCH   1   9
ATOM      9  C   UNL     1      13.903  17.237  63.129  1.00  0.00     0.000 C 
BRANCH   9  10
ATOM     10  C   UNL     1      13.143  16.070  63.778  1.00  0.00    -0.000 C 
BRANCH  10  11
ATOM     11  C   UNL     1      13.900  15.539  65.005  1.00  0.00    -0.000 C 
BRANCH  11  12
ATOM     12  C   UNL     1      13.845  14.007  65.118  1.00  0.00    -0.000 C 
BRANCH  12  13
ATOM     13  C   UNL     1      13.675  13.319  63.756  1.00  0.00    -0.003 C 
ATOM     14  C   UNL     1      13.605  11.802  63.912  1.00  0.00     0.004 C 
ENDBRANCH  12  13
ENDBRANCH  11  12
ENDBRANCH  10  11
ENDBRANCH   9  10
ENDBRANCH   1   9
TORSDOF 10
ENDMDL
MODEL 6
REMARK VINA RESULT:    -4.668      2.021      3.397
REMARK INTER + INTRA:          -8.009
REMARK INTER:                  -6.865
REMARK INTRA:                  -1.144
REMARK UNBOUND:                -0.612
REMARK SMILES CCCCCCCCCCCC(=O)[O-]
REMARK SMILES IDX 7 1 8 2 9 3 10 4 11 5 12 6 13 7 14 8 6 9 5 10 4 11 3 12 2 13
REMARK SMILES IDX 1 14
REMARK H PARENT
REMARK Flexibility Score: inf
ROOT
ATOM      1  C   UNL     1      16.805  14.074  59.997  1.00  0.00     0.000 C 
ENDROOT
BRANCH   1   2
ATOM      2  C   UNL     1      15.525  14.327  60.812  1.00  0.00     0.000 C 
BRANCH   2   3
ATOM      3  C   UNL     1      15.260  15.823  61.063  1.00  0.00     0.000 C 
BRANCH   3   4
ATOM      4  C   UNL     1      15.731  16.351  62.429  1.00  0.00     0.006 C 
BRANCH   4   5
ATOM      5  C   UNL     1      14.570  16.718  63.362  1.00  0.00     0.053 C 
BRANCH   5   6
ATOM      6  C   UNL     1      14.163  15.532  64.180  1.00  0.00     0.041 C 
ATOM      7  O   UNL     1      14.973  14.588  64.374  1.00  0.00    -0.550 OA
ATOM      8  O   UNL     1      12.906  15.493  64.770  1.00  0.00    -0.550 OA
ENDBRANCH   5   6
ENDBRANCH   4   5
ENDBRANCH   3   4
ENDBRANCH   2   3
ENDBRANCH   1   2
BRANCH   1   9
ATOM      9  C   UNL     1      16.895  14.967  58.748  1.00  0.00     0.000 C 
BRANCH   9  10
ATOM     10  C   UNL     1      18.230  15.720  58.653  1.00  0.00    -0.000 C 
BRANCH  10  11
ATOM     11  C   UNL     1      18.078  17.168  59.143  1.00  0.00    -0.000 C 
BRANCH  11  12
ATOM     12  C   UNL     1      19.128  17.550  60.199  1.00  0.00    -0.000 C 
BRANCH  12  13
ATOM     13  C   UNL     1      19.196  16.544  61.357  1.00  0.00    -0.003 C 
ATOM     14  C   UNL     1      20.073  17.071  62.490  1.00  0.00     0.004 C 
ENDBRANCH  12  13
ENDBRANCH  11  12
ENDBRANCH  10  11
ENDBRANCH   9  10
ENDBRANCH   1   9
TORSDOF 10
ENDMDL
MODEL 7
REMARK VINA RESULT:    -4.655      1.848      3.054
REMARK INTER + INTRA:          -7.989
REMARK INTER:                  -7.032
REMARK INTRA:                  -0.956
REMARK UNBOUND:                -0.612
REMARK SMILES CCCCCCCCCCCC(=O)[O-]
REMARK SMILES IDX 7 1 8 2 9 3 10 4 11 5 12 6 13 7 14 8 6 9 5 10 4 11 3 12 2 13
REMARK SMILES IDX 1 14
REMARK H PARENT
REMARK Flexibility Score: inf
ROOT
ATOM      1  C   UNL     1      16.334  14.715  58.612  1.00  0.00     0.000 C 
ENDROOT
BRANCH   1   2
ATOM      2  C   UNL     1      16.308  13.322  59.263  1.00  0.00     0.000 C 
BRANCH   2   3
ATOM      3  C   UNL     1      14.965  13.003  59.946  1.00  0.00     0.000 C 
BRANCH   3   4
ATOM      4  C   UNL     1      15.069  12.540  61.410  1.00  0.00     0.006 C 
BRANCH   4   5
ATOM      5  C   UNL     1      14.125  13.304  62.348  1.00  0.00     0.053 C 
BRANCH   5   6
ATOM      6  C   UNL     1      14.246  12.785  63.746  1.00  0.00     0.041 C 
ATOM      7  O   UNL     1      14.569  13.560  64.684  1.00  0.00    -0.550 OA
ATOM      8  O   UNL     1      13.954  11.454  64.022  1.00  0.00    -0.550 OA
ENDBRANCH   5   6
ENDBRANCH   4   5
ENDBRANCH   3   4
ENDBRANCH   2   3
ENDBRANCH   1   2
BRANCH   1   9
ATOM      9  C   UNL     1      15.461  15.734  59.364  1.00  0.00     0.000 C 
BRANCH   9  10
ATOM     10  C   UNL     1      16.291  16.784  60.117  1.00  0.00    -0.000 C 
BRANCH  10  11
ATOM     11  C   UNL     1      16.837  16.210  61.433  1.00  0.00    -0.000 C 
BRANCH  11  12
ATOM     12  C   UNL     1      18.314  15.796  61.332  1.00  0.00    -0.000 C 
BRANCH  12  13
ATOM     13  C   UNL     1      19.235  16.972  60.980  1.00  0.00    -0.003 C 
ATOM     14  C   UNL     1      20.195  17.280  62.127  1.00  0.00     0.004 C 
ENDBRANCH  12  13
ENDBRANCH  11  12
ENDBRANCH  10  11
ENDBRANCH   9  10
ENDBRANCH   1   9
TORSDOF 10
ENDMDL
MODEL 8
REMARK VINA RESULT:    -4.650      3.597      6.228
REMARK INTER + INTRA:          -7.980
REMARK INTER:                  -6.940
REMARK INTRA:                  -1.040
REMARK UNBOUND:                -0.612
REMARK SMILES CCCCCCCCCCCC(=O)[O-]
REMARK SMILES IDX 7 1 8 2 9 3 10 4 11 5 12 6 13 7 14 8 6 9 5 10 4 11 3 12 2 13
REMARK SMILES IDX 1 14
REMARK H PARENT
REMARK Flexibility Score: inf
ROOT
ATOM      1  C   UNL     1      15.994  15.324  58.918  1.00  0.00     0.000 C 
ENDROOT
BRANCH   1   2
ATOM      2  C   UNL     1      17.290  15.173  58.103  1.00  0.00     0.000 C 
BRANCH   2   3
ATOM      3  C   UNL     1      18.353  16.226  58.466  1.00  0.00     0.000 C 
BRANCH   3   4
ATOM      4  C   UNL     1      18.111  16.970  59.792  1.00  0.00     0.006 C 
BRANCH   4   5
ATOM      5  C   UNL     1      18.751  16.269  60.997  1.00  0.00     0.053 C 
BRANCH   5   6
ATOM      6  C   UNL     1      19.651  17.212  61.732  1.00  0.00     0.041 C 
ATOM      7  O   UNL     1      20.883  17.246  61.472  1.00  0.00    -0.550 OA
ATOM      8  O   UNL     1      19.122  18.089  62.670  1.00  0.00    -0.550 OA
ENDBRANCH   5   6
ENDBRANCH   4   5
ENDBRANCH   3   4
ENDBRANCH   2   3
ENDBRANCH   1   2
BRANCH   1   9
ATOM      9  C   UNL     1      15.667  14.069  59.744  1.00  0.00     0.000 C 
BRANCH   9  10
ATOM     10  C   UNL     1      15.323  14.395  61.206  1.00  0.00    -0.000 C 
BRANCH  10  11
ATOM     11  C   UNL     1      14.994  15.886  61.372  1.00  0.00    -0.000 C 
BRANCH  11  12
ATOM     12  C   UNL     1      15.463  16.450  62.723  1.00  0.00    -0.000 C 
BRANCH  12  13
ATOM     13  C   UNL     1      14.431  17.389  63.363  1.00  0.00    -0.003 C 
ATOM     14  C   UNL     1      13.106  16.667  63.599  1.00  0.00     0.004 C 
ENDBRANCH  12  13
ENDBRANCH  11  12
ENDBRANCH  10  11
ENDBRANCH   9  10
ENDBRANCH   1   9
TORSDOF 10
ENDMDL
MODEL 9
REMARK VINA RESULT:    -4.645      2.629      6.065
REMARK INTER + INTRA:          -7.972
REMARK INTER:                  -7.105
REMARK INTRA:                  -0.867
REMARK UNBOUND:                -0.612
REMARK SMILES CCCCCCCCCCCC(=O)[O-]
REMARK SMILES IDX 7 1 8 2 9 3 10 4 11 5 12 6 13 7 14 8 6 9 5 10 4 11 3 12 2 13
REMARK SMILES IDX 1 14
REMARK H PARENT
REMARK Flexibility Score: inf
ROOT
ATOM      1  C   UNL     1      15.121  15.951  61.636  1.00  0.00     0.000 C 
ENDROOT
BRANCH   1   2
ATOM      2  C   UNL     1      15.203  16.588  60.238  1.00  0.00     0.000 C 
BRANCH   2   3
ATOM      3  C   UNL     1      15.658  15.595  59.152  1.00  0.00     0.000 C 
BRANCH   3   4
ATOM      4  C   UNL     1      17.053  14.981  59.370  1.00  0.00     0.006 C 
BRANCH   4   5
ATOM      5  C   UNL     1      18.189  15.995  59.187  1.00  0.00     0.053 C 
BRANCH   5   6
ATOM      6  C   UNL     1      18.627  16.534  60.512  1.00  0.00     0.041 C 
ATOM      7  O   UNL     1      19.013  17.728  60.615  1.00  0.00    -0.550 OA
ATOM      8  O   UNL     1      18.563  15.731  61.644  1.00  0.00    -0.550 OA
ENDBRANCH   5   6
ENDBRANCH   4   5
ENDBRANCH   3   4
ENDBRANCH   2   3
ENDBRANCH   1   2
BRANCH   1   9
ATOM      9  C   UNL     1      15.302  16.979  62.764  1.00  0.00     0.000 C 
BRANCH   9  10
ATOM     10  C   UNL     1      14.009  17.223  63.557  1.00  0.00    -0.000 C 
BRANCH  10  11
ATOM     11  C   UNL     1      13.102  15.983  63.519  1.00  0.00    -0.000 C 
BRANCH  11  12
ATOM     12  C   UNL     1      12.844  15.394  64.915  1.00  0.00    -0.000 C 
BRANCH  12  13
ATOM     13  C   UNL     1      13.772  14.215  65.240  1.00  0.00    -0.003 C 
ATOM     14  C   UNL     1      13.883  13.261  64.053  1.00  0.00     0.004 C 
ENDBRANCH  12  13
ENDBRANCH  11  12
ENDBRANCH  10  11
ENDBRANCH   9  10
ENDBRANCH   1   9
TORSDOF 10
ENDMDL
