MODEL 1
REMARK VINA RESULT:    -0.715      0.000      0.000
REMARK INTER + INTRA:          -1.011
REMARK INTER:                  -0.756
REMARK INTRA:                  -0.255
REMARK UNBOUND:                -0.255
REMARK SMILES CC1=CC[C@@H](C(C)C)C=C1
REMARK SMILES IDX 1 1 2 2 3 3 4 4 5 5 9 6 10 7 6 8 7 9 8 10
REMARK H PARENT
REMARK Flexibility Score: inf
ROOT
ATOM      1  C   UNL     1     135.930 140.197 164.305  1.00  0.00     0.044 C 
ATOM      2  C   UNL     1     136.077 139.378 163.058  1.00  0.00    -0.055 C 
ATOM      3  C   UNL     1     137.297 139.051 162.601  1.00  0.00    -0.023 C 
ATOM      4  C   UNL     1     137.437 138.275 161.318  1.00  0.00     0.035 C 
ATOM      5  C   UNL     1     136.323 137.203 161.194  1.00  0.00     0.018 C 
ATOM      6  C   UNL     1     134.987 137.873 161.460  1.00  0.00    -0.023 C 
ATOM      7  C   UNL     1     134.875 138.845 162.375  1.00  0.00    -0.001 C 
ENDROOT
BRANCH   5   8
ATOM      8  C   UNL     1     136.528 135.986 162.151  1.00  0.00    -0.010 C 
ATOM      9  C   UNL     1     137.945 135.393 162.040  1.00  0.00     0.008 C 
ATOM     10  C   UNL     1     135.501 134.875 161.868  1.00  0.00     0.008 C 
ENDBRANCH   5   8
TORSDOF 1
ENDMDL
MODEL 2
REMARK VINA RESULT:    -0.666      1.239      1.963
REMARK INTER + INTRA:          -0.959
REMARK INTER:                  -1.183
REMARK INTRA:                   0.224
REMARK UNBOUND:                -0.255
REMARK SMILES CC1=CC[C@@H](C(C)C)C=C1
REMARK SMILES IDX 1 1 2 2 3 3 4 4 5 5 9 6 10 7 6 8 7 9 8 10
REMARK H PARENT
REMARK Flexibility Score: inf
ROOT
ATOM      1  C   UNL     1     136.210 141.408 162.620  1.00  0.00     0.044 C 
ATOM      2  C   UNL     1     135.740 139.984 162.640  1.00  0.00    -0.055 C 
ATOM      3  C   UNL     1     135.398 139.366 161.498  1.00  0.00    -0.023 C 
ATOM      4  C   UNL     1     134.875 137.954 161.534  1.00  0.00     0.035 C 
ATOM      5  C   UNL     1     135.626 137.112 162.598  1.00  0.00     0.018 C 
ATOM      6  C   UNL     1     135.628 137.887 163.903  1.00  0.00    -0.023 C 
ATOM      7  C   UNL     1     135.742 139.222 163.910  1.00  0.00    -0.001 C 
ENDROOT
BRANCH   5   8
ATOM      8  C   UNL     1     137.084 136.743 162.176  1.00  0.00    -0.010 C 
ATOM      9  C   UNL     1     137.412 137.215 160.748  1.00  0.00     0.008 C 
ATOM     10  C   UNL     1     137.321 135.224 162.265  1.00  0.00     0.008 C 
ENDBRANCH   5   8
TORSDOF 1
ENDMDL
MODEL 3
REMARK VINA RESULT:     0.100      1.010      4.000
REMARK INTER + INTRA:          -0.149
REMARK INTER:                   0.019
REMARK INTRA:                  -0.168
REMARK UNBOUND:                -0.255
REMARK SMILES CC1=CC[C@@H](C(C)C)C=C1
REMARK SMILES IDX 1 1 2 2 3 3 4 4 5 5 9 6 10 7 6 8 7 9 8 10
REMARK H PARENT
REMARK Flexibility Score: inf
ROOT
ATOM      1  C   UNL     1     138.055 134.875 162.276  1.00  0.00     0.044 C 
ATOM      2  C   UNL     1     137.104 135.961 161.870  1.00  0.00    -0.055 C 
ATOM      3  C   UNL     1     135.845 135.971 162.338  1.00  0.00    -0.023 C 
ATOM      4  C   UNL     1     134.882 137.034 161.882  1.00  0.00     0.035 C 
ATOM      5  C   UNL     1     135.595 138.404 161.737  1.00  0.00     0.018 C 
ATOM      6  C   UNL     1     136.851 138.202 160.909  1.00  0.00    -0.023 C 
ATOM      7  C   UNL     1     137.578 137.082 161.025  1.00  0.00    -0.001 C 
ENDROOT
BRANCH   5   8
ATOM      8  C   UNL     1     135.942 139.066 163.109  1.00  0.00    -0.010 C 
ATOM      9  C   UNL     1     134.875 138.776 164.180  1.00  0.00     0.008 C 
ATOM     10  C   UNL     1     136.101 140.591 162.966  1.00  0.00     0.008 C 
ENDBRANCH   5   8
TORSDOF 1
ENDMDL
MODEL 4
REMARK VINA RESULT:     0.463     12.254     14.233
REMARK INTER + INTRA:           0.235
REMARK INTER:                   0.443
REMARK INTRA:                  -0.208
REMARK UNBOUND:                -0.255
REMARK SMILES CC1=CC[C@@H](C(C)C)C=C1
REMARK SMILES IDX 1 1 2 2 3 3 4 4 5 5 9 6 10 7 6 8 7 9 8 10
REMARK H PARENT
REMARK Flexibility Score: inf
ROOT
ATOM      1  C   UNL     1     147.723 136.214 159.462  1.00  0.00     0.044 C 
ATOM      2  C   UNL     1     148.720 135.601 160.399  1.00  0.00    -0.055 C 
ATOM      3  C   UNL     1     150.021 135.551 160.068  1.00  0.00    -0.023 C 
ATOM      4  C   UNL     1     151.006 134.885 160.992  1.00  0.00     0.035 C 
ATOM      5  C   UNL     1     150.663 135.179 162.475  1.00  0.00     0.018 C 
ATOM      6  C   UNL     1     149.191 134.875 162.692  1.00  0.00    -0.023 C 
ATOM      7  C   UNL     1     148.288 135.133 161.737  1.00  0.00    -0.001 C 
ENDROOT
BRANCH   5   8
ATOM      8  C   UNL     1     150.991 136.644 162.906  1.00  0.00    -0.010 C 
ATOM      9  C   UNL     1     152.315 137.144 162.300  1.00  0.00     0.008 C 
ATOM     10  C   UNL     1     151.066 136.771 164.438  1.00  0.00     0.008 C 
ENDBRANCH   5   8
TORSDOF 1
ENDMDL
MODEL 5
REMARK VINA RESULT:     0.640      1.232      2.286
REMARK INTER + INTRA:           0.423
REMARK INTER:                   0.194
REMARK INTRA:                   0.229
REMARK UNBOUND:                -0.255
REMARK SMILES CC1=CC[C@@H](C(C)C)C=C1
REMARK SMILES IDX 1 1 2 2 3 3 4 4 5 5 9 6 10 7 6 8 7 9 8 10
REMARK H PARENT
REMARK Flexibility Score: inf
ROOT
ATOM      1  C   UNL     1     134.875 141.614 163.394  1.00  0.00     0.044 C 
ATOM      2  C   UNL     1     135.709 140.367 163.374  1.00  0.00    -0.055 C 
ATOM      3  C   UNL     1     135.571 139.444 164.340  1.00  0.00    -0.023 C 
ATOM      4  C   UNL     1     136.451 138.222 164.343  1.00  0.00     0.035 C 
ATOM      5  C   UNL     1     136.690 137.708 162.899  1.00  0.00     0.018 C 
ATOM      6  C   UNL     1     137.131 138.881 162.043  1.00  0.00    -0.023 C 
ATOM      7  C   UNL     1     136.621 140.104 162.237  1.00  0.00    -0.001 C 
ENDROOT
BRANCH   5   8
ATOM      8  C   UNL     1     135.436 137.013 162.276  1.00  0.00    -0.010 C 
ATOM      9  C   UNL     1     135.746 135.586 161.789  1.00  0.00     0.008 C 
ATOM     10  C   UNL     1     134.876 137.830 161.097  1.00  0.00     0.008 C 
ENDBRANCH   5   8
TORSDOF 1
ENDMDL
MODEL 6
REMARK VINA RESULT:     1.410     12.700     14.283
REMARK INTER + INTRA:           1.238
REMARK INTER:                   0.601
REMARK INTRA:                   0.636
REMARK UNBOUND:                -0.255
REMARK SMILES CC1=CC[C@@H](C(C)C)C=C1
REMARK SMILES IDX 1 1 2 2 3 3 4 4 5 5 9 6 10 7 6 8 7 9 8 10
REMARK H PARENT
REMARK Flexibility Score: inf
ROOT
ATOM      1  C   UNL     1     150.670 136.505 165.174  1.00  0.00     0.044 C 
ATOM      2  C   UNL     1     150.919 136.306 163.709  1.00  0.00    -0.055 C 
ATOM      3  C   UNL     1     150.962 135.068 163.190  1.00  0.00    -0.023 C 
ATOM      4  C   UNL     1     151.267 134.875 161.728  1.00  0.00     0.035 C 
ATOM      5  C   UNL     1     150.595 135.979 160.871  1.00  0.00     0.018 C 
ATOM      6  C   UNL     1     150.934 137.328 161.481  1.00  0.00    -0.023 C 
ATOM      7  C   UNL     1     151.023 137.478 162.809  1.00  0.00    -0.001 C 
ENDROOT
BRANCH   5   8
ATOM      8  C   UNL     1     149.047 135.806 160.746  1.00  0.00    -0.010 C 
ATOM      9  C   UNL     1     148.476 134.884 161.839  1.00  0.00     0.008 C 
ATOM     10  C   UNL     1     148.660 135.243 159.367  1.00  0.00     0.008 C 
ENDBRANCH   5   8
TORSDOF 1
ENDMDL
MODEL 7
REMARK VINA RESULT:     1.475     12.806     14.663
REMARK INTER + INTRA:           1.306
REMARK INTER:                   1.296
REMARK INTRA:                   0.010
REMARK UNBOUND:                -0.255
REMARK SMILES CC1=CC[C@@H](C(C)C)C=C1
REMARK SMILES IDX 1 1 2 2 3 3 4 4 5 5 9 6 10 7 6 8 7 9 8 10
REMARK H PARENT
REMARK Flexibility Score: inf
ROOT
ATOM      1  C   UNL     1     148.477 135.579 159.730  1.00  0.00     0.044 C 
ATOM      2  C   UNL     1     149.694 135.935 160.530  1.00  0.00    -0.055 C 
ATOM      3  C   UNL     1     149.888 137.197 160.947  1.00  0.00    -0.023 C 
ATOM      4  C   UNL     1     151.139 137.556 161.704  1.00  0.00     0.035 C 
ATOM      5  C   UNL     1     151.544 136.419 162.677  1.00  0.00     0.018 C 
ATOM      6  C   UNL     1     151.548 135.111 161.906  1.00  0.00    -0.023 C 
ATOM      7  C   UNL     1     150.642 134.875 160.948  1.00  0.00    -0.001 C 
ENDROOT
BRANCH   5   8
ATOM      8  C   UNL     1     150.613 136.316 163.928  1.00  0.00    -0.010 C 
ATOM      9  C   UNL     1     151.328 136.754 165.220  1.00  0.00     0.008 C 
ATOM     10  C   UNL     1     150.085 134.882 164.112  1.00  0.00     0.008 C 
ENDBRANCH   5   8
TORSDOF 1
ENDMDL
MODEL 8
REMARK VINA RESULT:     1.669     12.622     14.233
REMARK INTER + INTRA:           1.512
REMARK INTER:                   0.750
REMARK INTRA:                   0.762
REMARK UNBOUND:                -0.255
REMARK SMILES CC1=CC[C@@H](C(C)C)C=C1
REMARK SMILES IDX 1 1 2 2 3 3 4 4 5 5 9 6 10 7 6 8 7 9 8 10
REMARK H PARENT
REMARK Flexibility Score: inf
ROOT
ATOM      1  C   UNL     1     152.782 135.121 162.786  1.00  0.00     0.044 C 
ATOM      2  C   UNL     1     151.402 135.563 162.403  1.00  0.00    -0.055 C 
ATOM      3  C   UNL     1     151.228 136.524 161.481  1.00  0.00    -0.023 C 
ATOM      4  C   UNL     1     149.840 136.999 161.142  1.00  0.00     0.035 C 
ATOM      5  C   UNL     1     148.836 135.817 161.133  1.00  0.00     0.018 C 
ATOM      6  C   UNL     1     149.008 135.036 162.423  1.00  0.00    -0.023 C 
ATOM      7  C   UNL     1     150.219 134.875 162.972  1.00  0.00    -0.001 C 
ENDROOT
BRANCH   5   8
ATOM      8  C   UNL     1     149.000 134.878 159.895  1.00  0.00    -0.010 C 
ATOM      9  C   UNL     1     150.426 134.923 159.317  1.00  0.00     0.008 C 
ATOM     10  C   UNL     1     148.001 135.243 158.782  1.00  0.00     0.008 C 
ENDBRANCH   5   8
TORSDOF 1
ENDMDL
