MODEL 1
REMARK VINA RESULT:    -4.651      0.000      0.000
REMARK INTER + INTRA:          -6.495
REMARK INTER:                  -6.282
REMARK INTRA:                  -0.213
REMARK UNBOUND:                -0.213
REMARK SMILES CCCCCCC=CC(=O)[O-]
REMARK SMILES IDX 5 1 6 2 7 3 8 4 9 5 10 6 11 7 4 8 3 9 2 10 1 11
REMARK H PARENT
REMARK Flexibility Score: inf
ROOT
ATOM      1  C   UNL     1      -0.707  -4.143   6.642  1.00  0.00     0.004 C 
ENDROOT
BRANCH   1   2
ATOM      2  C   UNL     1      -0.146  -5.571   6.634  1.00  0.00     0.027 C 
BRANCH   2   3
ATOM      3  C   UNL     1      -0.980  -6.487   7.481  1.00  0.00    -0.025 C 
ATOM      4  C   UNL     1      -1.086  -7.792   7.205  1.00  0.00     0.020 C 
BRANCH   4   5
ATOM      5  C   UNL     1      -1.909  -8.706   8.013  1.00  0.00     0.064 C 
ATOM      6  O   UNL     1      -2.478  -8.310   9.066  1.00  0.00    -0.545 OA
ATOM      7  O   UNL     1      -2.061 -10.025   7.610  1.00  0.00    -0.545 OA
ENDBRANCH   4   5
ENDBRANCH   2   3
ENDBRANCH   1   2
BRANCH   1   8
ATOM      8  C   UNL     1      -1.396  -3.815   5.310  1.00  0.00     0.000 C 
BRANCH   8   9
ATOM      9  C   UNL     1      -1.474  -2.303   5.029  1.00  0.00    -0.000 C 
BRANCH   9  10
ATOM     10  C   UNL     1      -1.474  -1.922   3.539  1.00  0.00    -0.003 C 
ATOM     11  C   UNL     1      -1.297  -3.125   2.613  1.00  0.00     0.004 C 
ENDBRANCH   9  10
ENDBRANCH   8   9
ENDBRANCH   1   8
TORSDOF 6
ENDMDL
MODEL 2
REMARK VINA RESULT:    -4.439      4.299      6.498
REMARK INTER + INTRA:          -6.210
REMARK INTER:                  -5.886
REMARK INTRA:                  -0.323
REMARK UNBOUND:                -0.213
REMARK SMILES CCCCCCC=CC(=O)[O-]
REMARK SMILES IDX 5 1 6 2 7 3 8 4 9 5 10 6 11 7 4 8 3 9 2 10 1 11
REMARK H PARENT
REMARK Flexibility Score: inf
ROOT
ATOM      1  C   UNL     1      -1.460  -2.604   3.999  1.00  0.00     0.004 C 
ENDROOT
BRANCH   1   2
ATOM      2  C   UNL     1      -1.456  -1.135   4.441  1.00  0.00     0.027 C 
BRANCH   2   3
ATOM      3  C   UNL     1      -1.424  -1.018   5.937  1.00  0.00    -0.025 C 
ATOM      4  C   UNL     1      -1.214   0.156   6.543  1.00  0.00     0.020 C 
BRANCH   4   5
ATOM      5  C   UNL     1      -1.165   0.291   8.008  1.00  0.00     0.064 C 
ATOM      6  O   UNL     1      -0.069   0.257   8.629  1.00  0.00    -0.545 OA
ATOM      7  O   UNL     1      -2.345   0.460   8.718  1.00  0.00    -0.545 OA
ENDBRANCH   4   5
ENDBRANCH   2   3
ENDBRANCH   1   2
BRANCH   1   8
ATOM      8  C   UNL     1      -1.777  -3.532   5.180  1.00  0.00     0.000 C 
BRANCH   8   9
ATOM      9  C   UNL     1      -0.690  -4.596   5.417  1.00  0.00    -0.000 C 
BRANCH   9  10
ATOM     10  C   UNL     1      -0.427  -4.934   6.895  1.00  0.00    -0.003 C 
ATOM     11  C   UNL     1      -0.611  -6.418   7.211  1.00  0.00     0.004 C 
ENDBRANCH   9  10
ENDBRANCH   8   9
ENDBRANCH   1   8
TORSDOF 6
ENDMDL
MODEL 3
REMARK VINA RESULT:    -4.437      3.729      6.330
REMARK INTER + INTRA:          -6.207
REMARK INTER:                  -5.931
REMARK INTRA:                  -0.276
REMARK UNBOUND:                -0.213
REMARK SMILES CCCCCCC=CC(=O)[O-]
REMARK SMILES IDX 5 1 6 2 7 3 8 4 9 5 10 6 11 7 4 8 3 9 2 10 1 11
REMARK H PARENT
REMARK Flexibility Score: inf
ROOT
ATOM      1  C   UNL     1       0.037  -6.123   6.561  1.00  0.00     0.004 C 
ENDROOT
BRANCH   1   2
ATOM      2  C   UNL     1      -0.842  -4.894   6.826  1.00  0.00     0.027 C 
BRANCH   2   3
ATOM      3  C   UNL     1      -1.127  -4.147   5.556  1.00  0.00    -0.025 C 
ATOM      4  C   UNL     1      -1.232  -2.813   5.538  1.00  0.00     0.020 C 
BRANCH   4   5
ATOM      5  C   UNL     1      -1.525  -2.060   4.308  1.00  0.00     0.064 C 
ATOM      6  O   UNL     1      -1.912  -0.861   4.354  1.00  0.00    -0.545 OA
ATOM      7  O   UNL     1      -1.372  -2.680   3.076  1.00  0.00    -0.545 OA
ENDBRANCH   4   5
ENDBRANCH   2   3
ENDBRANCH   1   2
BRANCH   1   8
ATOM      8  C   UNL     1      -0.647  -7.406   7.056  1.00  0.00     0.000 C 
BRANCH   8   9
ATOM      9  C   UNL     1      -1.956  -7.132   7.819  1.00  0.00    -0.000 C 
BRANCH   9  10
ATOM     10  C   UNL     1      -2.509  -8.334   8.605  1.00  0.00    -0.003 C 
ATOM     11  C   UNL     1      -2.260  -9.671   7.907  1.00  0.00     0.004 C 
ENDBRANCH   9  10
ENDBRANCH   8   9
ENDBRANCH   1   8
TORSDOF 6
ENDMDL
MODEL 4
REMARK VINA RESULT:    -4.426      2.737      4.153
REMARK INTER + INTRA:          -6.192
REMARK INTER:                  -5.660
REMARK INTRA:                  -0.532
REMARK UNBOUND:                -0.213
REMARK SMILES CCCCCCC=CC(=O)[O-]
REMARK SMILES IDX 5 1 6 2 7 3 8 4 9 5 10 6 11 7 4 8 3 9 2 10 1 11
REMARK H PARENT
REMARK Flexibility Score: inf
ROOT
ATOM      1  C   UNL     1      -0.418  -4.895   7.562  1.00  0.00     0.004 C 
ENDROOT
BRANCH   1   2
ATOM      2  C   UNL     1       0.168  -6.139   6.883  1.00  0.00     0.027 C 
BRANCH   2   3
ATOM      3  C   UNL     1      -0.747  -7.320   7.030  1.00  0.00    -0.025 C 
ATOM      4  C   UNL     1      -1.740  -7.328   7.926  1.00  0.00     0.020 C 
BRANCH   4   5
ATOM      5  C   UNL     1      -2.640  -8.480   8.096  1.00  0.00     0.064 C 
ATOM      6  O   UNL     1      -3.858  -8.318   8.383  1.00  0.00    -0.545 OA
ATOM      7  O   UNL     1      -2.142  -9.765   7.938  1.00  0.00    -0.545 OA
ENDBRANCH   4   5
ENDBRANCH   2   3
ENDBRANCH   1   2
BRANCH   1   8
ATOM      8  C   UNL     1       0.543  -4.345   8.627  1.00  0.00     0.000 C 
BRANCH   8   9
ATOM      9  C   UNL     1       0.996  -5.415   9.637  1.00  0.00    -0.000 C 
BRANCH   9  10
ATOM     10  C   UNL     1       2.515  -5.482   9.870  1.00  0.00    -0.003 C 
ATOM     11  C   UNL     1       3.326  -5.291   8.588  1.00  0.00     0.004 C 
ENDBRANCH   9  10
ENDBRANCH   8   9
ENDBRANCH   1   8
TORSDOF 6
ENDMDL
MODEL 5
REMARK VINA RESULT:    -4.239      2.636      3.971
REMARK INTER + INTRA:          -5.940
REMARK INTER:                  -5.663
REMARK INTRA:                  -0.276
REMARK UNBOUND:                -0.213
REMARK SMILES CCCCCCC=CC(=O)[O-]
REMARK SMILES IDX 5 1 6 2 7 3 8 4 9 5 10 6 11 7 4 8 3 9 2 10 1 11
REMARK H PARENT
REMARK Flexibility Score: inf
ROOT
ATOM      1  C   UNL     1      -1.491  -1.836   4.818  1.00  0.00     0.004 C 
ENDROOT
BRANCH   1   2
ATOM      2  C   UNL     1      -1.521  -3.356   4.613  1.00  0.00     0.027 C 
BRANCH   2   3
ATOM      3  C   UNL     1      -1.295  -4.083   5.907  1.00  0.00    -0.025 C 
ATOM      4  C   UNL     1      -0.441  -5.110   5.993  1.00  0.00     0.020 C 
BRANCH   4   5
ATOM      5  C   UNL     1      -0.214  -5.845   7.247  1.00  0.00     0.064 C 
ATOM      6  O   UNL     1      -1.085  -6.632   7.708  1.00  0.00    -0.545 OA
ATOM      7  O   UNL     1       0.979  -5.671   7.935  1.00  0.00    -0.545 OA
ENDBRANCH   4   5
ENDBRANCH   2   3
ENDBRANCH   1   2
BRANCH   1   8
ATOM      8  C   UNL     1      -1.168  -1.485   6.278  1.00  0.00     0.000 C 
BRANCH   8   9
ATOM      9  C   UNL     1      -1.302   0.019   6.578  1.00  0.00    -0.000 C 
BRANCH   9  10
ATOM     10  C   UNL     1      -1.503   0.366   8.063  1.00  0.00    -0.003 C 
ATOM     11  C   UNL     1      -0.446  -0.261   8.973  1.00  0.00     0.004 C 
ENDBRANCH   9  10
ENDBRANCH   8   9
ENDBRANCH   1   8
TORSDOF 6
ENDMDL
MODEL 6
REMARK VINA RESULT:    -4.145      4.210      6.164
REMARK INTER + INTRA:          -5.813
REMARK INTER:                  -5.464
REMARK INTRA:                  -0.349
REMARK UNBOUND:                -0.213
REMARK SMILES CCCCCCC=CC(=O)[O-]
REMARK SMILES IDX 5 1 6 2 7 3 8 4 9 5 10 6 11 7 4 8 3 9 2 10 1 11
REMARK H PARENT
REMARK Flexibility Score: inf
ROOT
ATOM      1  C   UNL     1       0.521  -5.619   7.149  1.00  0.00     0.004 C 
ENDROOT
BRANCH   1   2
ATOM      2  C   UNL     1      -0.841  -4.995   6.819  1.00  0.00     0.027 C 
BRANCH   2   3
ATOM      3  C   UNL     1      -0.798  -4.257   5.513  1.00  0.00    -0.025 C 
ATOM      4  C   UNL     1      -1.546  -3.168   5.299  1.00  0.00     0.020 C 
BRANCH   4   5
ATOM      5  C   UNL     1      -1.530  -2.437   4.022  1.00  0.00     0.064 C 
ATOM      6  O   UNL     1      -1.384  -3.043   2.926  1.00  0.00    -0.545 OA
ATOM      7  O   UNL     1      -1.677  -1.057   4.023  1.00  0.00    -0.545 OA
ENDBRANCH   4   5
ENDBRANCH   2   3
ENDBRANCH   1   2
BRANCH   1   8
ATOM      8  C   UNL     1       0.786  -5.590   8.662  1.00  0.00     0.000 C 
BRANCH   8   9
ATOM      9  C   UNL     1       2.163  -5.003   9.020  1.00  0.00    -0.000 C 
BRANCH   9  10
ATOM     10  C   UNL     1       2.121  -3.618   9.688  1.00  0.00    -0.003 C 
ATOM     11  C   UNL     1       0.720  -3.006   9.710  1.00  0.00     0.004 C 
ENDBRANCH   9  10
ENDBRANCH   8   9
ENDBRANCH   1   8
TORSDOF 6
ENDMDL
MODEL 7
REMARK VINA RESULT:    -4.136      4.450      6.584
REMARK INTER + INTRA:          -5.800
REMARK INTER:                  -5.490
REMARK INTRA:                  -0.310
REMARK UNBOUND:                -0.213
REMARK SMILES CCCCCCC=CC(=O)[O-]
REMARK SMILES IDX 5 1 6 2 7 3 8 4 9 5 10 6 11 7 4 8 3 9 2 10 1 11
REMARK H PARENT
REMARK Flexibility Score: inf
ROOT
ATOM      1  C   UNL     1      -1.508  -4.223   6.065  1.00  0.00     0.004 C 
ENDROOT
BRANCH   1   2
ATOM      2  C   UNL     1      -1.374  -3.411   4.770  1.00  0.00     0.027 C 
BRANCH   2   3
ATOM      3  C   UNL     1      -1.480  -1.938   5.039  1.00  0.00    -0.025 C 
ATOM      4  C   UNL     1      -1.188  -1.423   6.238  1.00  0.00     0.020 C 
BRANCH   4   5
ATOM      5  C   UNL     1      -1.298   0.015   6.528  1.00  0.00     0.064 C 
ATOM      6  O   UNL     1      -1.563   0.427   7.690  1.00  0.00    -0.545 OA
ATOM      7  O   UNL     1      -1.107   0.935   5.507  1.00  0.00    -0.545 OA
ENDBRANCH   4   5
ENDBRANCH   2   3
ENDBRANCH   1   2
BRANCH   1   8
ATOM      8  C   UNL     1      -0.271  -5.105   6.290  1.00  0.00     0.000 C 
BRANCH   8   9
ATOM      9  C   UNL     1      -0.145  -5.604   7.741  1.00  0.00    -0.000 C 
BRANCH   9  10
ATOM     10  C   UNL     1       0.839  -4.807   8.615  1.00  0.00    -0.003 C 
ATOM     11  C   UNL     1       2.292  -5.247   8.434  1.00  0.00     0.004 C 
ENDBRANCH   9  10
ENDBRANCH   8   9
ENDBRANCH   1   8
TORSDOF 6
ENDMDL
MODEL 8
REMARK VINA RESULT:    -3.973     12.458     13.521
REMARK INTER + INTRA:          -5.580
REMARK INTER:                  -5.013
REMARK INTRA:                  -0.567
REMARK UNBOUND:                -0.213
REMARK SMILES CCCCCCC=CC(=O)[O-]
REMARK SMILES IDX 5 1 6 2 7 3 8 4 9 5 10 6 11 7 4 8 3 9 2 10 1 11
REMARK H PARENT
REMARK Flexibility Score: inf
ROOT
ATOM      1  C   UNL     1       6.517  -9.480  -3.780  1.00  0.00     0.004 C 
ENDROOT
BRANCH   1   2
ATOM      2  C   UNL     1       7.189  -9.285  -2.415  1.00  0.00     0.027 C 
BRANCH   2   3
ATOM      3  C   UNL     1       7.816  -7.926  -2.307  1.00  0.00    -0.025 C 
ATOM      4  C   UNL     1       7.410  -6.905  -3.070  1.00  0.00     0.020 C 
BRANCH   4   5
ATOM      5  C   UNL     1       8.019  -5.568  -2.991  1.00  0.00     0.064 C 
ATOM      6  O   UNL     1       7.336  -4.528  -3.190  1.00  0.00    -0.545 OA
ATOM      7  O   UNL     1       9.369  -5.450  -2.691  1.00  0.00    -0.545 OA
ENDBRANCH   4   5
ENDBRANCH   2   3
ENDBRANCH   1   2
BRANCH   1   8
ATOM      8  C   UNL     1       5.124 -10.106  -3.623  1.00  0.00     0.000 C 
BRANCH   8   9
ATOM      9  C   UNL     1       4.107  -9.575  -4.651  1.00  0.00    -0.000 C 
BRANCH   9  10
ATOM     10  C   UNL     1       4.303  -8.103  -5.053  1.00  0.00    -0.003 C 
ATOM     11  C   UNL     1       3.751  -7.122  -4.019  1.00  0.00     0.004 C 
ENDBRANCH   9  10
ENDBRANCH   8   9
ENDBRANCH   1   8
TORSDOF 6
ENDMDL
MODEL 9
REMARK VINA RESULT:    -3.856      4.080      6.130
REMARK INTER + INTRA:          -5.422
REMARK INTER:                  -5.149
REMARK INTRA:                  -0.273
REMARK UNBOUND:                -0.213
REMARK SMILES CCCCCCC=CC(=O)[O-]
REMARK SMILES IDX 5 1 6 2 7 3 8 4 9 5 10 6 11 7 4 8 3 9 2 10 1 11
REMARK H PARENT
REMARK Flexibility Score: inf
ROOT
ATOM      1  C   UNL     1      -0.735  -7.078   7.083  1.00  0.00     0.004 C 
ENDROOT
BRANCH   1   2
ATOM      2  C   UNL     1      -0.046  -5.720   6.888  1.00  0.00     0.027 C 
BRANCH   2   3
ATOM      3  C   UNL     1       0.648  -5.278   8.144  1.00  0.00    -0.025 C 
ATOM      4  C   UNL     1       1.978  -5.347   8.269  1.00  0.00     0.020 C 
BRANCH   4   5
ATOM      5  C   UNL     1       2.678  -4.932   9.495  1.00  0.00     0.064 C 
ATOM      6  O   UNL     1       3.419  -5.734  10.125  1.00  0.00    -0.545 OA
ATOM      7  O   UNL     1       2.521  -3.636   9.966  1.00  0.00    -0.545 OA
ENDBRANCH   4   5
ENDBRANCH   2   3
ENDBRANCH   1   2
BRANCH   1   8
ATOM      8  C   UNL     1      -1.598  -7.078   8.353  1.00  0.00     0.000 C 
BRANCH   8   9
ATOM      9  C   UNL     1      -2.982  -7.718   8.139  1.00  0.00    -0.000 C 
BRANCH   9  10
ATOM     10  C   UNL     1      -3.396  -8.737   9.216  1.00  0.00    -0.003 C 
ATOM     11  C   UNL     1      -2.458  -9.941   9.292  1.00  0.00     0.004 C 
ENDBRANCH   9  10
ENDBRANCH   8   9
ENDBRANCH   1   8
TORSDOF 6
ENDMDL
