MODEL 1
REMARK VINA RESULT:    10.085      0.000      0.000
REMARK INTER + INTRA:          17.068
REMARK INTER:                  13.623
REMARK INTRA:                   3.445
REMARK UNBOUND:                 3.445
REMARK SMILES O=c1c(-c2ccc(O)cc2)coc2c([C@@H]3O[C@H](CO)[C@@H](O)[C@@H](O)[C@H]3O)c(O)ccc12
REMARK SMILES IDX 3 1 11 2 12 3 13 4 30 5 2 6 1 7 29 8 28 9 26 10 14 11 4 12
REMARK SMILES IDX 5 13 6 14 7 15 10 16 9 17 8 18 15 20 24 21 16 22 22 23 17 24
REMARK SMILES IDX 20 25 25 26 23 28 18 30 19 31 21 33 27 35
REMARK H PARENT 8 19 25 27 23 29 19 32 21 34 27 36
REMARK Flexibility Score: inf
ROOT
ATOM      1  C   UNL     1       2.590 -14.605   9.417  1.00  0.00     0.065 A 
ATOM      2  C   UNL     1       1.587 -14.337  10.358  1.00  0.00     0.208 A 
ATOM      3  O   UNL     1       1.863 -14.291  11.656  1.00  0.00    -0.463 OA
ATOM      4  C   UNL     1       3.083 -14.495  12.148  1.00  0.00     0.147 A 
ATOM      5  C   UNL     1       4.154 -14.784  11.269  1.00  0.00     0.066 A 
ATOM      6  C   UNL     1       3.894 -14.841   9.888  1.00  0.00     0.200 A 
ATOM      7  O   UNL     1       4.820 -15.124   9.077  1.00  0.00    -0.288 OA
ATOM      8  C   UNL     1       5.436 -15.016  11.791  1.00  0.00     0.020 A 
ATOM      9  C   UNL     1       5.652 -14.972  13.166  1.00  0.00     0.047 A 
ATOM     10  C   UNL     1       4.600 -14.689  14.045  1.00  0.00     0.125 A 
ATOM     11  C   UNL     1       3.305 -14.428  13.544  1.00  0.00     0.069 A 
ENDROOT
BRANCH   1  12
ATOM     12  C   UNL     1       2.258 -14.642   7.970  1.00  0.00    -0.011 A 
ATOM     13  C   UNL     1       0.997 -15.083   7.535  1.00  0.00     0.013 A 
ATOM     14  C   UNL     1       0.693 -15.123   6.170  1.00  0.00     0.047 A 
ATOM     15  C   UNL     1       1.646 -14.729   5.225  1.00  0.00     0.115 A 
ATOM     16  C   UNL     1       3.214 -14.253   7.014  1.00  0.00     0.013 A 
ATOM     17  C   UNL     1       2.908 -14.295   5.651  1.00  0.00     0.047 A 
BRANCH  15  18
ATOM     18  O   UNL     1       1.329 -14.775   3.869  1.00  0.00    -0.508 OA
ATOM     19  H   UNL     1       0.950 -15.613   3.443  1.00  0.00     0.293 HD
ENDBRANCH  15  18
ENDBRANCH   1  12
BRANCH  11  20
ATOM     20  C   UNL     1       2.149 -14.142  14.493  1.00  0.00     0.188 C 
ATOM     21  C   UNL     1       2.678 -13.953  15.933  1.00  0.00     0.179 C 
ATOM     22  O   UNL     1       1.460 -12.982  14.054  1.00  0.00    -0.362 OA
ATOM     23  C   UNL     1       1.511 -13.613  16.882  1.00  0.00     0.177 C 
ATOM     24  C   UNL     1       0.304 -12.743  14.840  1.00  0.00     0.176 C 
ATOM     25  C   UNL     1       0.698 -12.442  16.308  1.00  0.00     0.177 C 
BRANCH  21  26
ATOM     26  O   UNL     1       3.328 -15.123  16.360  1.00  0.00    -0.387 OA
ATOM     27  H   UNL     1       2.770 -15.511  17.084  1.00  0.00     0.211 HD
ENDBRANCH  21  26
BRANCH  23  28
ATOM     28  O   UNL     1       0.674 -14.732  17.053  1.00  0.00    -0.387 OA
ATOM     29  H   UNL     1       1.239 -15.463  17.418  1.00  0.00     0.211 HD
ENDBRANCH  23  28
BRANCH  24  30
ATOM     30  C   UNL     1      -0.480 -11.580  14.211  1.00  0.00     0.191 C 
BRANCH  30  31
ATOM     31  O   UNL     1      -0.593 -10.501  15.101  1.00  0.00    -0.394 OA
ATOM     32  H   UNL     1      -1.292 -10.747  15.762  1.00  0.00     0.210 HD
ENDBRANCH  30  31
ENDBRANCH  24  30
BRANCH  25  33
ATOM     33  O   UNL     1      -0.449 -12.248  17.098  1.00  0.00    -0.388 OA
ATOM     34  H   UNL     1      -1.216 -12.138  16.478  1.00  0.00     0.211 HD
ENDBRANCH  25  33
ENDBRANCH  11  20
BRANCH  10  35
ATOM     35  O   UNL     1       4.843 -14.673  15.420  1.00  0.00    -0.507 OA
ATOM     36  H   UNL     1       5.557 -14.081  15.828  1.00  0.00     0.293 HD
ENDBRANCH  10  35
TORSDOF 9
ENDMDL
