MODEL 1
REMARK VINA RESULT:    -3.905      0.000      0.000
REMARK INTER + INTRA:          -4.884
REMARK INTER:                  -4.818
REMARK INTRA:                  -0.065
REMARK UNBOUND:                -0.065
REMARK SMILES CCCCCC(=O)[O-]
REMARK SMILES IDX 4 1 5 2 6 3 7 4 8 5 3 6 2 7 1 8
REMARK H PARENT
REMARK Flexibility Score: inf
ROOT
ATOM      1  C   UNL     1     -29.041  -8.972  33.744  1.00  0.00     0.006 C 
ENDROOT
BRANCH   1   2
ATOM      2  C   UNL     1     -28.377  -9.744  34.892  1.00  0.00     0.053 C 
BRANCH   2   3
ATOM      3  C   UNL     1     -27.629 -10.943  34.395  1.00  0.00     0.041 C 
ATOM      4  O   UNL     1     -27.653 -11.243  33.172  1.00  0.00    -0.550 OA
ATOM      5  O   UNL     1     -26.932 -11.749  35.286  1.00  0.00    -0.550 OA
ENDBRANCH   2   3
ENDBRANCH   1   2
BRANCH   1   6
ATOM      6  C   UNL     1     -30.526  -8.684  34.023  1.00  0.00     0.000 C 
BRANCH   6   7
ATOM      7  C   UNL     1     -31.146  -7.733  32.987  1.00  0.00    -0.003 C 
ATOM      8  C   UNL     1     -31.976  -6.622  33.629  1.00  0.00     0.004 C 
ENDBRANCH   6   7
ENDBRANCH   1   6
TORSDOF 4
ENDMDL
MODEL 2
REMARK VINA RESULT:    -3.789      3.342      5.092
REMARK INTER + INTRA:          -4.740
REMARK INTER:                  -4.687
REMARK INTRA:                  -0.053
REMARK UNBOUND:                -0.065
REMARK SMILES CCCCCC(=O)[O-]
REMARK SMILES IDX 4 1 5 2 6 3 7 4 8 5 3 6 2 7 1 8
REMARK H PARENT
REMARK Flexibility Score: inf
ROOT
ATOM      1  C   UNL     1     -30.195  -9.051  34.106  1.00  0.00     0.006 C 
ENDROOT
BRANCH   1   2
ATOM      2  C   UNL     1     -30.756  -7.887  33.278  1.00  0.00     0.053 C 
BRANCH   2   3
ATOM      3  C   UNL     1     -31.921  -7.234  33.956  1.00  0.00     0.041 C 
ATOM      4  O   UNL     1     -32.175  -6.018  33.748  1.00  0.00    -0.550 OA
ATOM      5  O   UNL     1     -32.706  -7.958  34.845  1.00  0.00    -0.550 OA
ENDBRANCH   2   3
ENDBRANCH   1   2
BRANCH   1   6
ATOM      6  C   UNL     1     -28.658  -9.108  34.060  1.00  0.00     0.000 C 
BRANCH   6   7
ATOM      7  C   UNL     1     -28.091 -10.323  34.809  1.00  0.00    -0.003 C 
ATOM      8  C   UNL     1     -27.449 -11.346  33.874  1.00  0.00     0.004 C 
ENDBRANCH   6   7
ENDBRANCH   1   6
TORSDOF 4
ENDMDL
MODEL 3
REMARK VINA RESULT:    -3.633      3.950      5.685
REMARK INTER + INTRA:          -4.549
REMARK INTER:                  -4.535
REMARK INTRA:                  -0.013
REMARK UNBOUND:                -0.065
REMARK SMILES CCCCCC(=O)[O-]
REMARK SMILES IDX 4 1 5 2 6 3 7 4 8 5 3 6 2 7 1 8
REMARK H PARENT
REMARK Flexibility Score: inf
ROOT
ATOM      1  C   UNL     1     -31.900  -7.146  33.594  1.00  0.00     0.006 C 
ENDROOT
BRANCH   1   2
ATOM      2  C   UNL     1     -32.828  -6.710  32.453  1.00  0.00     0.053 C 
BRANCH   2   3
ATOM      3  C   UNL     1     -33.942  -7.689  32.237  1.00  0.00     0.041 C 
ATOM      4  O   UNL     1     -35.102  -7.279  31.968  1.00  0.00    -0.550 OA
ATOM      5  O   UNL     1     -33.707  -9.051  32.368  1.00  0.00    -0.550 OA
ENDBRANCH   2   3
ENDBRANCH   1   2
BRANCH   1   6
ATOM      6  C   UNL     1     -30.682  -7.934  33.082  1.00  0.00     0.000 C 
BRANCH   6   7
ATOM      7  C   UNL     1     -30.161  -8.947  34.113  1.00  0.00    -0.003 C 
ATOM      8  C   UNL     1     -28.640  -9.092  34.081  1.00  0.00     0.004 C 
ENDBRANCH   6   7
ENDBRANCH   1   6
TORSDOF 4
ENDMDL
MODEL 4
REMARK VINA RESULT:    -3.605      3.257      4.507
REMARK INTER + INTRA:          -4.513
REMARK INTER:                  -4.457
REMARK INTRA:                  -0.056
REMARK UNBOUND:                -0.065
REMARK SMILES CCCCCC(=O)[O-]
REMARK SMILES IDX 4 1 5 2 6 3 7 4 8 5 3 6 2 7 1 8
REMARK H PARENT
REMARK Flexibility Score: inf
ROOT
ATOM      1  C   UNL     1     -32.341  -6.331  32.703  1.00  0.00     0.006 C 
ENDROOT
BRANCH   1   2
ATOM      2  C   UNL     1     -32.046  -6.882  34.105  1.00  0.00     0.053 C 
BRANCH   2   3
ATOM      3  C   UNL     1     -31.579  -8.304  34.055  1.00  0.00     0.041 C 
ATOM      4  O   UNL     1     -32.288  -9.221  34.547  1.00  0.00    -0.550 OA
ATOM      5  O   UNL     1     -30.345  -8.614  33.496  1.00  0.00    -0.550 OA
ENDBRANCH   2   3
ENDBRANCH   1   2
BRANCH   1   6
ATOM      6  C   UNL     1     -33.375  -7.186  31.950  1.00  0.00     0.000 C 
BRANCH   6   7
ATOM      7  C   UNL     1     -34.664  -7.398  32.759  1.00  0.00    -0.003 C 
ATOM      8  C   UNL     1     -35.909  -7.474  31.875  1.00  0.00     0.004 C 
ENDBRANCH   6   7
ENDBRANCH   1   6
TORSDOF 4
ENDMDL
MODEL 5
REMARK VINA RESULT:    -3.252      1.780      2.422
REMARK INTER + INTRA:          -4.078
REMARK INTER:                  -3.967
REMARK INTRA:                  -0.111
REMARK UNBOUND:                -0.065
REMARK SMILES CCCCCC(=O)[O-]
REMARK SMILES IDX 4 1 5 2 6 3 7 4 8 5 3 6 2 7 1 8
REMARK H PARENT
REMARK Flexibility Score: inf
ROOT
ATOM      1  C   UNL     1     -31.410  -8.534  34.177  1.00  0.00     0.006 C 
ENDROOT
BRANCH   1   2
ATOM      2  C   UNL     1     -30.191  -8.532  33.246  1.00  0.00     0.053 C 
BRANCH   2   3
ATOM      3  C   UNL     1     -28.959  -9.026  33.943  1.00  0.00     0.041 C 
ATOM      4  O   UNL     1     -27.820  -8.662  33.549  1.00  0.00    -0.550 OA
ATOM      5  O   UNL     1     -29.069  -9.914  35.005  1.00  0.00    -0.550 OA
ENDBRANCH   2   3
ENDBRANCH   1   2
BRANCH   1   6
ATOM      6  C   UNL     1     -32.015  -7.130  34.344  1.00  0.00     0.000 C 
BRANCH   6   7
ATOM      7  C   UNL     1     -32.537  -6.552  33.020  1.00  0.00    -0.003 C 
ATOM      8  C   UNL     1     -33.658  -7.393  32.410  1.00  0.00     0.004 C 
ENDBRANCH   6   7
ENDBRANCH   1   6
TORSDOF 4
ENDMDL
MODEL 6
REMARK VINA RESULT:    -3.204     18.775     19.775
REMARK INTER + INTRA:          -4.019
REMARK INTER:                  -3.845
REMARK INTRA:                  -0.174
REMARK UNBOUND:                -0.065
REMARK SMILES CCCCCC(=O)[O-]
REMARK SMILES IDX 4 1 5 2 6 3 7 4 8 5 3 6 2 7 1 8
REMARK H PARENT
REMARK Flexibility Score: inf
ROOT
ATOM      1  C   UNL     1     -36.704  -0.622  50.506  1.00  0.00     0.006 C 
ENDROOT
BRANCH   1   2
ATOM      2  C   UNL     1     -35.678  -1.435  51.307  1.00  0.00     0.053 C 
BRANCH   2   3
ATOM      3  C   UNL     1     -35.067  -2.527  50.482  1.00  0.00     0.041 C 
ATOM      4  O   UNL     1     -34.002  -2.317  49.843  1.00  0.00    -0.550 OA
ATOM      5  O   UNL     1     -35.692  -3.764  50.391  1.00  0.00    -0.550 OA
ENDBRANCH   2   3
ENDBRANCH   1   2
BRANCH   1   6
ATOM      6  C   UNL     1     -36.085   0.643  49.887  1.00  0.00     0.000 C 
BRANCH   6   7
ATOM      7  C   UNL     1     -34.931   1.207  50.730  1.00  0.00    -0.003 C 
ATOM      8  C   UNL     1     -35.051   2.713  50.962  1.00  0.00     0.004 C 
ENDBRANCH   6   7
ENDBRANCH   1   6
TORSDOF 4
ENDMDL
MODEL 7
REMARK VINA RESULT:    -3.111      8.407      9.539
REMARK INTER + INTRA:          -3.904
REMARK INTER:                  -3.666
REMARK INTRA:                  -0.238
REMARK UNBOUND:                -0.065
REMARK SMILES CCCCCC(=O)[O-]
REMARK SMILES IDX 4 1 5 2 6 3 7 4 8 5 3 6 2 7 1 8
REMARK H PARENT
REMARK Flexibility Score: inf
ROOT
ATOM      1  C   UNL     1     -22.802 -11.784  38.158  1.00  0.00     0.006 C 
ENDROOT
BRANCH   1   2
ATOM      2  C   UNL     1     -23.839 -12.888  38.405  1.00  0.00     0.053 C 
BRANCH   2   3
ATOM      3  C   UNL     1     -23.224 -14.095  39.044  1.00  0.00     0.041 C 
ATOM      4  O   UNL     1     -23.279 -14.247  40.293  1.00  0.00    -0.550 OA
ATOM      5  O   UNL     1     -22.560 -15.034  38.266  1.00  0.00    -0.550 OA
ENDBRANCH   2   3
ENDBRANCH   1   2
BRANCH   1   6
ATOM      6  C   UNL     1     -22.618 -10.876  39.386  1.00  0.00     0.000 C 
BRANCH   6   7
ATOM      7  C   UNL     1     -21.269 -11.099  40.087  1.00  0.00    -0.003 C 
ATOM      8  C   UNL     1     -20.217 -11.710  39.161  1.00  0.00     0.004 C 
ENDBRANCH   6   7
ENDBRANCH   1   6
TORSDOF 4
ENDMDL
MODEL 8
REMARK VINA RESULT:    -3.067      8.673      9.714
REMARK INTER + INTRA:          -3.850
REMARK INTER:                  -3.608
REMARK INTRA:                  -0.242
REMARK UNBOUND:                -0.065
REMARK SMILES CCCCCC(=O)[O-]
REMARK SMILES IDX 4 1 5 2 6 3 7 4 8 5 3 6 2 7 1 8
REMARK H PARENT
REMARK Flexibility Score: inf
ROOT
ATOM      1  C   UNL     1     -22.749 -11.927  38.265  1.00  0.00     0.006 C 
ENDROOT
BRANCH   1   2
ATOM      2  C   UNL     1     -22.677 -11.060  39.529  1.00  0.00     0.053 C 
BRANCH   2   3
ATOM      3  C   UNL     1     -21.525 -11.449  40.404  1.00  0.00     0.041 C 
ATOM      4  O   UNL     1     -20.462 -10.774  40.390  1.00  0.00    -0.550 OA
ATOM      5  O   UNL     1     -21.612 -12.577  41.211  1.00  0.00    -0.550 OA
ENDBRANCH   2   3
ENDBRANCH   1   2
BRANCH   1   6
ATOM      6  C   UNL     1     -24.014 -12.801  38.232  1.00  0.00     0.000 C 
BRANCH   6   7
ATOM      7  C   UNL     1     -23.816 -14.150  38.941  1.00  0.00    -0.003 C 
ATOM      8  C   UNL     1     -22.510 -14.838  38.546  1.00  0.00     0.004 C 
ENDBRANCH   6   7
ENDBRANCH   1   6
TORSDOF 4
ENDMDL
MODEL 9
REMARK VINA RESULT:    -3.059      8.134      9.664
REMARK INTER + INTRA:          -3.840
REMARK INTER:                  -3.593
REMARK INTRA:                  -0.247
REMARK UNBOUND:                -0.065
REMARK SMILES CCCCCC(=O)[O-]
REMARK SMILES IDX 4 1 5 2 6 3 7 4 8 5 3 6 2 7 1 8
REMARK H PARENT
REMARK Flexibility Score: inf
ROOT
ATOM      1  C   UNL     1     -24.085 -12.758  38.274  1.00  0.00     0.006 C 
ENDROOT
BRANCH   1   2
ATOM      2  C   UNL     1     -22.836 -11.874  38.156  1.00  0.00     0.053 C 
BRANCH   2   3
ATOM      3  C   UNL     1     -22.566 -11.123  39.424  1.00  0.00     0.041 C 
ATOM      4  O   UNL     1     -21.649 -11.500  40.200  1.00  0.00    -0.550 OA
ATOM      5  O   UNL     1     -23.349 -10.028  39.766  1.00  0.00    -0.550 OA
ENDBRANCH   2   3
ENDBRANCH   1   2
BRANCH   1   6
ATOM      6  C   UNL     1     -23.789 -14.089  38.985  1.00  0.00     0.000 C 
BRANCH   6   7
ATOM      7  C   UNL     1     -22.528 -14.779  38.444  1.00  0.00    -0.003 C 
ATOM      8  C   UNL     1     -21.533 -15.140  39.546  1.00  0.00     0.004 C 
ENDBRANCH   6   7
ENDBRANCH   1   6
TORSDOF 4
ENDMDL
