MODEL 1
REMARK VINA RESULT:    -4.486      0.000      0.000
REMARK INTER + INTRA:          -9.851
REMARK INTER:                  -8.420
REMARK INTRA:                  -1.431
REMARK UNBOUND:                -1.431
REMARK SMILES O=C([O-])CCCCCCCCCCCCCCC(=O)[O-]
REMARK SMILES IDX 10 1 9 2 8 3 7 4 6 5 5 6 4 7 2 8 1 9 3 10 11 11 12 12 13 13
REMARK SMILES IDX 14 14 15 15 16 16 17 17 18 18 19 19 20 20
REMARK H PARENT
REMARK Flexibility Score: inf
ROOT
ATOM      1  C   UNL     1      -1.737   0.665   5.015  1.00  0.00     0.000 C 
ENDROOT
BRANCH   1   2
ATOM      2  C   UNL     1      -2.459   0.801   6.367  1.00  0.00     0.000 C 
BRANCH   2   3
ATOM      3  C   UNL     1      -2.110  -0.332   7.346  1.00  0.00     0.000 C 
BRANCH   3   4
ATOM      4  C   UNL     1      -2.128   0.124   8.814  1.00  0.00     0.000 C 
BRANCH   4   5
ATOM      5  C   UNL     1      -1.211  -0.728   9.708  1.00  0.00     0.000 C 
BRANCH   5   6
ATOM      6  C   UNL     1      -0.335  -1.698   8.897  1.00  0.00     0.006 C 
BRANCH   6   7
ATOM      7  C   UNL     1      -0.119  -3.039   9.611  1.00  0.00     0.053 C 
BRANCH   7   8
ATOM      8  C   UNL     1       1.337  -3.260   9.876  1.00  0.00     0.041 C 
ATOM      9  O   UNL     1       1.785  -4.428  10.020  1.00  0.00    -0.550 OA
ATOM     10  O   UNL     1       2.210  -2.179   9.913  1.00  0.00    -0.550 OA
ENDBRANCH   7   8
ENDBRANCH   6   7
ENDBRANCH   5   6
ENDBRANCH   4   5
ENDBRANCH   3   4
ENDBRANCH   2   3
ENDBRANCH   1   2
BRANCH   1  11
ATOM     11  C   UNL     1      -0.631   1.720   4.798  1.00  0.00     0.000 C 
BRANCH  11  12
ATOM     12  C   UNL     1       0.742   1.233   5.293  1.00  0.00     0.000 C 
BRANCH  12  13
ATOM     13  C   UNL     1       1.406   2.220   6.266  1.00  0.00     0.000 C 
BRANCH  13  14
ATOM     14  C   UNL     1       0.727   2.239   7.644  1.00  0.00     0.000 C 
BRANCH  14  15
ATOM     15  C   UNL     1       1.078   3.520   8.411  1.00  0.00     0.000 C 
BRANCH  15  16
ATOM     16  C   UNL     1       2.224   4.276   7.723  1.00  0.00     0.006 C 
BRANCH  16  17
ATOM     17  C   UNL     1       3.040   5.119   8.711  1.00  0.00     0.053 C 
BRANCH  17  18
ATOM     18  C   UNL     1       2.793   6.585   8.526  1.00  0.00     0.041 C 
ATOM     19  O   UNL     1       1.937   6.984   7.694  1.00  0.00    -0.550 OA
ATOM     20  O   UNL     1       3.485   7.509   9.300  1.00  0.00    -0.550 OA
ENDBRANCH  17  18
ENDBRANCH  16  17
ENDBRANCH  15  16
ENDBRANCH  14  15
ENDBRANCH  13  14
ENDBRANCH  12  13
ENDBRANCH  11  12
ENDBRANCH   1  11
TORSDOF 15
ENDMDL
MODEL 2
REMARK VINA RESULT:    -4.481      1.282      1.754
REMARK INTER + INTRA:          -9.842
REMARK INTER:                  -8.660
REMARK INTRA:                  -1.182
REMARK UNBOUND:                -1.431
REMARK SMILES O=C([O-])CCCCCCCCCCCCCCC(=O)[O-]
REMARK SMILES IDX 10 1 9 2 8 3 7 4 6 5 5 6 4 7 2 8 1 9 3 10 11 11 12 12 13 13
REMARK SMILES IDX 14 14 15 15 16 16 17 17 18 18 19 19 20 20
REMARK H PARENT
REMARK Flexibility Score: inf
ROOT
ATOM      1  C   UNL     1      -0.855   1.265   4.958  1.00  0.00     0.000 C 
ENDROOT
BRANCH   1   2
ATOM      2  C   UNL     1      -2.083   1.038   5.856  1.00  0.00     0.000 C 
BRANCH   2   3
ATOM      3  C   UNL     1      -1.950  -0.212   6.742  1.00  0.00     0.000 C 
BRANCH   3   4
ATOM      4  C   UNL     1      -2.145   0.094   8.236  1.00  0.00     0.000 C 
BRANCH   4   5
ATOM      5  C   UNL     1      -2.503  -1.159   9.053  1.00  0.00     0.000 C 
BRANCH   5   6
ATOM      6  C   UNL     1      -1.563  -2.340   8.763  1.00  0.00     0.006 C 
BRANCH   6   7
ATOM      7  C   UNL     1      -0.468  -2.501   9.825  1.00  0.00     0.053 C 
BRANCH   7   8
ATOM      8  C   UNL     1       0.883  -2.280   9.220  1.00  0.00     0.041 C 
ATOM      9  O   UNL     1       1.795  -3.133   9.377  1.00  0.00    -0.550 OA
ATOM     10  O   UNL     1       1.119  -1.156   8.437  1.00  0.00    -0.550 OA
ENDBRANCH   7   8
ENDBRANCH   6   7
ENDBRANCH   5   6
ENDBRANCH   4   5
ENDBRANCH   3   4
ENDBRANCH   2   3
ENDBRANCH   1   2
BRANCH   1  11
ATOM     11  C   UNL     1       0.488   0.986   5.668  1.00  0.00     0.000 C 
BRANCH  11  12
ATOM     12  C   UNL     1       1.072   2.250   6.323  1.00  0.00     0.000 C 
BRANCH  12  13
ATOM     13  C   UNL     1       0.699   2.375   7.809  1.00  0.00     0.000 C 
BRANCH  13  14
ATOM     14  C   UNL     1       1.321   3.614   8.472  1.00  0.00     0.000 C 
BRANCH  14  15
ATOM     15  C   UNL     1       2.335   4.285   7.539  1.00  0.00     0.000 C 
BRANCH  15  16
ATOM     16  C   UNL     1       3.238   5.256   8.314  1.00  0.00     0.006 C 
BRANCH  16  17
ATOM     17  C   UNL     1       3.512   6.546   7.532  1.00  0.00     0.053 C 
BRANCH  17  18
ATOM     18  C   UNL     1       4.795   7.192   7.957  1.00  0.00     0.041 C 
ATOM     19  O   UNL     1       4.971   7.520   9.160  1.00  0.00    -0.550 OA
ATOM     20  O   UNL     1       5.809   7.399   7.030  1.00  0.00    -0.550 OA
ENDBRANCH  17  18
ENDBRANCH  16  17
ENDBRANCH  15  16
ENDBRANCH  14  15
ENDBRANCH  13  14
ENDBRANCH  12  13
ENDBRANCH  11  12
ENDBRANCH   1  11
TORSDOF 15
ENDMDL
MODEL 3
REMARK VINA RESULT:    -4.384      3.282      4.795
REMARK INTER + INTRA:          -9.659
REMARK INTER:                  -8.291
REMARK INTRA:                  -1.368
REMARK UNBOUND:                -1.431
REMARK SMILES O=C([O-])CCCCCCCCCCCCCCC(=O)[O-]
REMARK SMILES IDX 10 1 9 2 8 3 7 4 6 5 5 6 4 7 2 8 1 9 3 10 11 11 12 12 13 13
REMARK SMILES IDX 14 14 15 15 16 16 17 17 18 18 19 19 20 20
REMARK H PARENT
REMARK Flexibility Score: inf
ROOT
ATOM      1  C   UNL     1      -0.473   2.804   9.464  1.00  0.00     0.000 C 
ENDROOT
BRANCH   1   2
ATOM      2  C   UNL     1      -1.002   2.108   8.199  1.00  0.00     0.000 C 
BRANCH   2   3
ATOM      3  C   UNL     1      -1.678   0.760   8.500  1.00  0.00     0.000 C 
BRANCH   3   4
ATOM      4  C   UNL     1      -0.964  -0.425   7.829  1.00  0.00     0.000 C 
BRANCH   4   5
ATOM      5  C   UNL     1       0.422  -0.045   7.281  1.00  0.00     0.000 C 
BRANCH   5   6
ATOM      6  C   UNL     1       0.504  -0.166   5.751  1.00  0.00     0.006 C 
BRANCH   6   7
ATOM      7  C   UNL     1       1.216   1.027   5.099  1.00  0.00     0.053 C 
BRANCH   7   8
ATOM      8  C   UNL     1       0.231   1.891   4.375  1.00  0.00     0.041 C 
ATOM      9  O   UNL     1       0.595   2.568   3.378  1.00  0.00    -0.550 OA
ATOM     10  O   UNL     1      -1.101   1.907   4.770  1.00  0.00    -0.550 OA
ENDBRANCH   7   8
ENDBRANCH   6   7
ENDBRANCH   5   6
ENDBRANCH   4   5
ENDBRANCH   3   4
ENDBRANCH   2   3
ENDBRANCH   1   2
BRANCH   1  11
ATOM     11  C   UNL     1       0.783   3.667   9.213  1.00  0.00     0.000 C 
BRANCH  11  12
ATOM     12  C   UNL     1       1.427   3.371   7.847  1.00  0.00     0.000 C 
BRANCH  12  13
ATOM     13  C   UNL     1       2.471   4.424   7.443  1.00  0.00     0.000 C 
BRANCH  13  14
ATOM     14  C   UNL     1       2.756   5.435   8.564  1.00  0.00     0.000 C 
BRANCH  14  15
ATOM     15  C   UNL     1       2.393   6.859   8.124  1.00  0.00     0.000 C 
BRANCH  15  16
ATOM     16  C   UNL     1       3.577   7.816   8.328  1.00  0.00     0.006 C 
BRANCH  16  17
ATOM     17  C   UNL     1       3.970   8.539   7.033  1.00  0.00     0.053 C 
BRANCH  17  18
ATOM     18  C   UNL     1       5.179   7.923   6.399  1.00  0.00     0.041 C 
ATOM     19  O   UNL     1       6.127   7.505   7.114  1.00  0.00    -0.550 OA
ATOM     20  O   UNL     1       5.243   7.779   5.018  1.00  0.00    -0.550 OA
ENDBRANCH  17  18
ENDBRANCH  16  17
ENDBRANCH  15  16
ENDBRANCH  14  15
ENDBRANCH  13  14
ENDBRANCH  12  13
ENDBRANCH  11  12
ENDBRANCH   1  11
TORSDOF 15
ENDMDL
MODEL 4
REMARK VINA RESULT:    -4.383      2.213      3.088
REMARK INTER + INTRA:          -9.656
REMARK INTER:                  -7.664
REMARK INTRA:                  -1.992
REMARK UNBOUND:                -1.431
REMARK SMILES O=C([O-])CCCCCCCCCCCCCCC(=O)[O-]
REMARK SMILES IDX 10 1 9 2 8 3 7 4 6 5 5 6 4 7 2 8 1 9 3 10 11 11 12 12 13 13
REMARK SMILES IDX 14 14 15 15 16 16 17 17 18 18 19 19 20 20
REMARK H PARENT
REMARK Flexibility Score: inf
ROOT
ATOM      1  C   UNL     1      -0.181   1.504   5.256  1.00  0.00     0.000 C 
ENDROOT
BRANCH   1   2
ATOM      2  C   UNL     1       0.882   0.392   5.304  1.00  0.00     0.000 C 
BRANCH   2   3
ATOM      3  C   UNL     1       0.460  -0.798   6.182  1.00  0.00     0.000 C 
BRANCH   3   4
ATOM      4  C   UNL     1       0.612  -0.510   7.684  1.00  0.00     0.000 C 
BRANCH   4   5
ATOM      5  C   UNL     1      -0.098  -1.557   8.559  1.00  0.00     0.000 C 
BRANCH   5   6
ATOM      6  C   UNL     1      -1.569  -1.758   8.161  1.00  0.00     0.006 C 
BRANCH   6   7
ATOM      7  C   UNL     1      -2.382  -2.482   9.242  1.00  0.00     0.053 C 
BRANCH   7   8
ATOM      8  C   UNL     1      -2.382  -3.958   8.994  1.00  0.00     0.041 C 
ATOM      9  O   UNL     1      -1.387  -4.656   9.320  1.00  0.00    -0.550 OA
ATOM     10  O   UNL     1      -3.504  -4.571   8.450  1.00  0.00    -0.550 OA
ENDBRANCH   7   8
ENDBRANCH   6   7
ENDBRANCH   5   6
ENDBRANCH   4   5
ENDBRANCH   3   4
ENDBRANCH   2   3
ENDBRANCH   1   2
BRANCH   1  11
ATOM     11  C   UNL     1      -1.622   0.971   5.097  1.00  0.00     0.000 C 
BRANCH  11  12
ATOM     12  C   UNL     1      -2.484   1.249   6.342  1.00  0.00     0.000 C 
BRANCH  12  13
ATOM     13  C   UNL     1      -1.742   2.075   7.405  1.00  0.00     0.000 C 
BRANCH  13  14
ATOM     14  C   UNL     1      -2.318   1.878   8.815  1.00  0.00     0.000 C 
BRANCH  14  15
ATOM     15  C   UNL     1      -1.383   2.471   9.877  1.00  0.00     0.000 C 
BRANCH  15  16
ATOM     16  C   UNL     1      -0.007   2.796   9.278  1.00  0.00     0.006 C 
BRANCH  16  17
ATOM     17  C   UNL     1       0.680   3.962  10.000  1.00  0.00     0.053 C 
BRANCH  17  18
ATOM     18  C   UNL     1       1.646   4.678   9.106  1.00  0.00     0.041 C 
ATOM     19  O   UNL     1       2.059   4.129   8.051  1.00  0.00    -0.550 OA
ATOM     20  O   UNL     1       2.061   5.966   9.421  1.00  0.00    -0.550 OA
ENDBRANCH  17  18
ENDBRANCH  16  17
ENDBRANCH  15  16
ENDBRANCH  14  15
ENDBRANCH  13  14
ENDBRANCH  12  13
ENDBRANCH  11  12
ENDBRANCH   1  11
TORSDOF 15
ENDMDL
MODEL 5
REMARK VINA RESULT:    -4.354      2.985      6.938
REMARK INTER + INTRA:          -9.603
REMARK INTER:                  -8.261
REMARK INTRA:                  -1.342
REMARK UNBOUND:                -1.431
REMARK SMILES O=C([O-])CCCCCCCCCCCCCCC(=O)[O-]
REMARK SMILES IDX 10 1 9 2 8 3 7 4 6 5 5 6 4 7 2 8 1 9 3 10 11 11 12 12 13 13
REMARK SMILES IDX 14 14 15 15 16 16 17 17 18 18 19 19 20 20
REMARK H PARENT
REMARK Flexibility Score: inf
ROOT
ATOM      1  C   UNL     1      -1.241   2.213   9.036  1.00  0.00     0.000 C 
ENDROOT
BRANCH   1   2
ATOM      2  C   UNL     1      -0.533   3.099  10.077  1.00  0.00     0.000 C 
BRANCH   2   3
ATOM      3  C   UNL     1       0.737   3.767   9.525  1.00  0.00     0.000 C 
BRANCH   3   4
ATOM      4  C   UNL     1       1.048   3.348   8.079  1.00  0.00     0.000 C 
BRANCH   4   5
ATOM      5  C   UNL     1       2.292   4.056   7.515  1.00  0.00     0.000 C 
BRANCH   5   6
ATOM      6  C   UNL     1       2.621   5.356   8.268  1.00  0.00     0.006 C 
BRANCH   6   7
ATOM      7  C   UNL     1       4.068   5.398   8.774  1.00  0.00     0.053 C 
BRANCH   7   8
ATOM      8  C   UNL     1       4.806   6.544   8.156  1.00  0.00     0.041 C 
ATOM      9  O   UNL     1       6.016   6.745   8.436  1.00  0.00    -0.550 OA
ATOM     10  O   UNL     1       4.170   7.360   7.228  1.00  0.00    -0.550 OA
ENDBRANCH   7   8
ENDBRANCH   6   7
ENDBRANCH   5   6
ENDBRANCH   4   5
ENDBRANCH   3   4
ENDBRANCH   2   3
ENDBRANCH   1   2
BRANCH   1  11
ATOM     11  C   UNL     1      -1.717   0.858   9.603  1.00  0.00     0.000 C 
BRANCH  11  12
ATOM     12  C   UNL     1      -2.304  -0.053   8.510  1.00  0.00     0.000 C 
BRANCH  12  13
ATOM     13  C   UNL     1      -1.567  -1.397   8.399  1.00  0.00     0.000 C 
BRANCH  13  14
ATOM     14  C   UNL     1      -0.045  -1.228   8.269  1.00  0.00     0.000 C 
BRANCH  14  15
ATOM     15  C   UNL     1       0.366  -1.076   6.800  1.00  0.00     0.000 C 
BRANCH  15  16
ATOM     16  C   UNL     1       0.652   0.394   6.458  1.00  0.00     0.006 C 
BRANCH  16  17
ATOM     17  C   UNL     1       0.934   0.599   4.964  1.00  0.00     0.053 C 
BRANCH  17  18
ATOM     18  C   UNL     1       0.179   1.769   4.412  1.00  0.00     0.041 C 
ATOM     19  O   UNL     1       0.624   2.399   3.417  1.00  0.00    -0.550 OA
ATOM     20  O   UNL     1      -1.035   2.142   4.977  1.00  0.00    -0.550 OA
ENDBRANCH  17  18
ENDBRANCH  16  17
ENDBRANCH  15  16
ENDBRANCH  14  15
ENDBRANCH  13  14
ENDBRANCH  12  13
ENDBRANCH  11  12
ENDBRANCH   1  11
TORSDOF 15
ENDMDL
MODEL 6
REMARK VINA RESULT:    -4.293      3.610      5.926
REMARK INTER + INTRA:          -9.487
REMARK INTER:                  -8.464
REMARK INTRA:                  -1.023
REMARK UNBOUND:                -1.431
REMARK SMILES O=C([O-])CCCCCCCCCCCCCCC(=O)[O-]
REMARK SMILES IDX 10 1 9 2 8 3 7 4 6 5 5 6 4 7 2 8 1 9 3 10 11 11 12 12 13 13
REMARK SMILES IDX 14 14 15 15 16 16 17 17 18 18 19 19 20 20
REMARK H PARENT
REMARK Flexibility Score: inf
ROOT
ATOM      1  C   UNL     1       2.384   4.466   7.501  1.00  0.00     0.000 C 
ENDROOT
BRANCH   1   2
ATOM      2  C   UNL     1       1.404   3.285   7.603  1.00  0.00     0.000 C 
BRANCH   2   3
ATOM      3  C   UNL     1       0.481   3.380   8.829  1.00  0.00     0.000 C 
BRANCH   3   4
ATOM      4  C   UNL     1      -0.586   2.274   8.857  1.00  0.00     0.000 C 
BRANCH   4   5
ATOM      5  C   UNL     1      -0.547   1.386   7.601  1.00  0.00     0.000 C 
BRANCH   5   6
ATOM      6  C   UNL     1      -1.753   1.620   6.677  1.00  0.00     0.006 C 
BRANCH   6   7
ATOM      7  C   UNL     1      -1.623   0.887   5.336  1.00  0.00     0.053 C 
BRANCH   7   8
ATOM      8  C   UNL     1      -0.294   1.174   4.711  1.00  0.00     0.041 C 
ATOM      9  O   UNL     1       0.577   0.268   4.628  1.00  0.00    -0.550 OA
ATOM     10  O   UNL     1      -0.034   2.429   4.173  1.00  0.00    -0.550 OA
ENDBRANCH   7   8
ENDBRANCH   6   7
ENDBRANCH   5   6
ENDBRANCH   4   5
ENDBRANCH   3   4
ENDBRANCH   2   3
ENDBRANCH   1   2
BRANCH   1  11
ATOM     11  C   UNL     1       2.512   5.275   8.810  1.00  0.00     0.000 C 
BRANCH  11  12
ATOM     12  C   UNL     1       2.948   6.728   8.555  1.00  0.00     0.000 C 
BRANCH  12  13
ATOM     13  C   UNL     1       4.177   6.826   7.637  1.00  0.00     0.000 C 
BRANCH  13  14
ATOM     14  C   UNL     1       5.495   6.565   8.383  1.00  0.00     0.000 C 
BRANCH  14  15
ATOM     15  C   UNL     1       6.625   7.435   7.820  1.00  0.00     0.000 C 
BRANCH  15  16
ATOM     16  C   UNL     1       6.071   8.734   7.217  1.00  0.00     0.006 C 
BRANCH  16  17
ATOM     17  C   UNL     1       6.950   9.267   6.078  1.00  0.00     0.053 C 
BRANCH  17  18
ATOM     18  C   UNL     1       6.871   8.395   4.862  1.00  0.00     0.041 C 
ATOM     19  O   UNL     1       7.906   8.155   4.186  1.00  0.00    -0.550 OA
ATOM     20  O   UNL     1       5.661   7.819   4.496  1.00  0.00    -0.550 OA
ENDBRANCH  17  18
ENDBRANCH  16  17
ENDBRANCH  15  16
ENDBRANCH  14  15
ENDBRANCH  13  14
ENDBRANCH  12  13
ENDBRANCH  11  12
ENDBRANCH   1  11
TORSDOF 15
ENDMDL
MODEL 7
REMARK VINA RESULT:    -4.291      3.171      8.518
REMARK INTER + INTRA:          -9.485
REMARK INTER:                  -8.615
REMARK INTRA:                  -0.870
REMARK UNBOUND:                -1.431
REMARK SMILES O=C([O-])CCCCCCCCCCCCCCC(=O)[O-]
REMARK SMILES IDX 10 1 9 2 8 3 7 4 6 5 5 6 4 7 2 8 1 9 3 10 11 11 12 12 13 13
REMARK SMILES IDX 14 14 15 15 16 16 17 17 18 18 19 19 20 20
REMARK H PARENT
REMARK Flexibility Score: inf
ROOT
ATOM      1  C   UNL     1       1.800   3.507   7.419  1.00  0.00     0.000 C 
ENDROOT
BRANCH   1   2
ATOM      2  C   UNL     1       2.073   4.658   8.403  1.00  0.00     0.000 C 
BRANCH   2   3
ATOM      3  C   UNL     1       3.227   5.567   7.950  1.00  0.00     0.000 C 
BRANCH   3   4
ATOM      4  C   UNL     1       4.529   5.305   8.725  1.00  0.00     0.000 C 
BRANCH   4   5
ATOM      5  C   UNL     1       5.342   6.589   8.962  1.00  0.00     0.000 C 
BRANCH   5   6
ATOM      6  C   UNL     1       5.267   7.562   7.775  1.00  0.00     0.006 C 
BRANCH   6   7
ATOM      7  C   UNL     1       6.597   7.681   7.020  1.00  0.00     0.053 C 
BRANCH   7   8
ATOM      8  C   UNL     1       6.355   8.058   5.592  1.00  0.00     0.041 C 
ATOM      9  O   UNL     1       5.242   7.820   5.053  1.00  0.00    -0.550 OA
ATOM     10  O   UNL     1       7.341   8.720   4.871  1.00  0.00    -0.550 OA
ENDBRANCH   7   8
ENDBRANCH   6   7
ENDBRANCH   5   6
ENDBRANCH   4   5
ENDBRANCH   3   4
ENDBRANCH   2   3
ENDBRANCH   1   2
BRANCH   1  11
ATOM     11  C   UNL     1       0.612   2.611   7.833  1.00  0.00     0.000 C 
BRANCH  11  12
ATOM     12  C   UNL     1       0.053   2.991   9.216  1.00  0.00     0.000 C 
BRANCH  12  13
ATOM     13  C   UNL     1      -1.416   2.577   9.395  1.00  0.00     0.000 C 
BRANCH  13  14
ATOM     14  C   UNL     1      -2.052   2.071   8.092  1.00  0.00     0.000 C 
BRANCH  14  15
ATOM     15  C   UNL     1      -2.249   0.551   8.132  1.00  0.00     0.000 C 
BRANCH  15  16
ATOM     16  C   UNL     1      -1.913  -0.084   6.774  1.00  0.00     0.006 C 
BRANCH  16  17
ATOM     17  C   UNL     1      -1.968   0.933   5.628  1.00  0.00     0.053 C 
BRANCH  17  18
ATOM     18  C   UNL     1      -0.617   1.160   5.021  1.00  0.00     0.041 C 
ATOM     19  O   UNL     1       0.272   0.272   5.103  1.00  0.00    -0.550 OA
ATOM     20  O   UNL     1      -0.352   2.339   4.335  1.00  0.00    -0.550 OA
ENDBRANCH  17  18
ENDBRANCH  16  17
ENDBRANCH  15  16
ENDBRANCH  14  15
ENDBRANCH  13  14
ENDBRANCH  12  13
ENDBRANCH  11  12
ENDBRANCH   1  11
TORSDOF 15
ENDMDL
MODEL 8
REMARK VINA RESULT:    -4.279      2.901      4.233
REMARK INTER + INTRA:          -9.462
REMARK INTER:                  -8.102
REMARK INTRA:                  -1.360
REMARK UNBOUND:                -1.431
REMARK SMILES O=C([O-])CCCCCCCCCCCCCCC(=O)[O-]
REMARK SMILES IDX 10 1 9 2 8 3 7 4 6 5 5 6 4 7 2 8 1 9 3 10 11 11 12 12 13 13
REMARK SMILES IDX 14 14 15 15 16 16 17 17 18 18 19 19 20 20
REMARK H PARENT
REMARK Flexibility Score: inf
ROOT
ATOM      1  C   UNL     1      -2.325   1.806   8.586  1.00  0.00     0.000 C 
ENDROOT
BRANCH   1   2
ATOM      2  C   UNL     1      -2.439   0.424   9.252  1.00  0.00     0.000 C 
BRANCH   2   3
ATOM      3  C   UNL     1      -2.080  -0.728   8.298  1.00  0.00     0.000 C 
BRANCH   3   4
ATOM      4  C   UNL     1      -0.600  -1.136   8.391  1.00  0.00     0.000 C 
BRANCH   4   5
ATOM      5  C   UNL     1       0.108  -1.094   7.026  1.00  0.00     0.000 C 
BRANCH   5   6
ATOM      6  C   UNL     1       0.597   0.317   6.659  1.00  0.00     0.006 C 
BRANCH   6   7
ATOM      7  C   UNL     1       0.691   0.537   5.144  1.00  0.00     0.053 C 
BRANCH   7   8
ATOM      8  C   UNL     1      -0.302   1.567   4.704  1.00  0.00     0.041 C 
ATOM      9  O   UNL     1      -1.478   1.547   5.153  1.00  0.00    -0.550 OA
ATOM     10  O   UNL     1       0.086   2.581   3.837  1.00  0.00    -0.550 OA
ENDBRANCH   7   8
ENDBRANCH   6   7
ENDBRANCH   5   6
ENDBRANCH   4   5
ENDBRANCH   3   4
ENDBRANCH   2   3
ENDBRANCH   1   2
BRANCH   1  11
ATOM     11  C   UNL     1      -2.203   2.968   9.596  1.00  0.00     0.000 C 
BRANCH  11  12
ATOM     12  C   UNL     1      -0.767   3.129  10.125  1.00  0.00     0.000 C 
BRANCH  12  13
ATOM     13  C   UNL     1       0.290   3.014   9.015  1.00  0.00     0.000 C 
BRANCH  13  14
ATOM     14  C   UNL     1       1.362   4.112   9.103  1.00  0.00     0.000 C 
BRANCH  14  15
ATOM     15  C   UNL     1       2.118   4.247   7.777  1.00  0.00     0.000 C 
BRANCH  15  16
ATOM     16  C   UNL     1       2.974   5.523   7.759  1.00  0.00     0.006 C 
BRANCH  16  17
ATOM     17  C   UNL     1       2.279   6.698   8.458  1.00  0.00     0.053 C 
BRANCH  17  18
ATOM     18  C   UNL     1       2.114   7.871   7.540  1.00  0.00     0.041 C 
ATOM     19  O   UNL     1       0.963   8.284   7.241  1.00  0.00    -0.550 OA
ATOM     20  O   UNL     1       3.233   8.528   7.043  1.00  0.00    -0.550 OA
ENDBRANCH  17  18
ENDBRANCH  16  17
ENDBRANCH  15  16
ENDBRANCH  14  15
ENDBRANCH  13  14
ENDBRANCH  12  13
ENDBRANCH  11  12
ENDBRANCH   1  11
TORSDOF 15
ENDMDL
MODEL 9
REMARK VINA RESULT:    -4.193      2.770      7.214
REMARK INTER + INTRA:          -9.301
REMARK INTER:                  -7.803
REMARK INTRA:                  -1.497
REMARK UNBOUND:                -1.431
REMARK SMILES O=C([O-])CCCCCCCCCCCCCCC(=O)[O-]
REMARK SMILES IDX 10 1 9 2 8 3 7 4 6 5 5 6 4 7 2 8 1 9 3 10 11 11 12 12 13 13
REMARK SMILES IDX 14 14 15 15 16 16 17 17 18 18 19 19 20 20
REMARK H PARENT
REMARK Flexibility Score: inf
ROOT
ATOM      1  C   UNL     1      -1.009   2.130   9.322  1.00  0.00     0.000 C 
ENDROOT
BRANCH   1   2
ATOM      2  C   UNL     1      -0.533   3.415  10.021  1.00  0.00     0.000 C 
BRANCH   2   3
ATOM      3  C   UNL     1       0.860   3.866   9.554  1.00  0.00     0.000 C 
BRANCH   3   4
ATOM      4  C   UNL     1       1.211   3.352   8.148  1.00  0.00     0.000 C 
BRANCH   4   5
ATOM      5  C   UNL     1       2.227   4.254   7.427  1.00  0.00     0.000 C 
BRANCH   5   6
ATOM      6  C   UNL     1       3.087   5.072   8.405  1.00  0.00     0.006 C 
BRANCH   6   7
ATOM      7  C   UNL     1       3.224   6.541   7.987  1.00  0.00     0.053 C 
BRANCH   7   8
ATOM      8  C   UNL     1       1.994   7.307   8.359  1.00  0.00     0.041 C 
ATOM      9  O   UNL     1       1.674   7.446   9.569  1.00  0.00    -0.550 OA
ATOM     10  O   UNL     1       1.227   7.914   7.371  1.00  0.00    -0.550 OA
ENDBRANCH   7   8
ENDBRANCH   6   7
ENDBRANCH   5   6
ENDBRANCH   4   5
ENDBRANCH   3   4
ENDBRANCH   2   3
ENDBRANCH   1   2
BRANCH   1  11
ATOM     11  C   UNL     1      -2.475   1.763   9.639  1.00  0.00     0.000 C 
BRANCH  11  12
ATOM     12  C   UNL     1      -2.693   0.240   9.694  1.00  0.00     0.000 C 
BRANCH  12  13
ATOM     13  C   UNL     1      -1.390  -0.552   9.501  1.00  0.00     0.000 C 
BRANCH  13  14
ATOM     14  C   UNL     1      -1.345  -1.297   8.158  1.00  0.00     0.000 C 
BRANCH  14  15
ATOM     15  C   UNL     1       0.086  -1.352   7.609  1.00  0.00     0.000 C 
BRANCH  15  16
ATOM     16  C   UNL     1       0.502   0.004   7.020  1.00  0.00     0.006 C 
BRANCH  16  17
ATOM     17  C   UNL     1       0.162   0.119   5.529  1.00  0.00     0.053 C 
BRANCH  17  18
ATOM     18  C   UNL     1      -0.873   1.173   5.275  1.00  0.00     0.041 C 
ATOM     19  O   UNL     1      -0.546   2.267   4.744  1.00  0.00    -0.550 OA
ATOM     20  O   UNL     1      -2.203   0.931   5.593  1.00  0.00    -0.550 OA
ENDBRANCH  17  18
ENDBRANCH  16  17
ENDBRANCH  15  16
ENDBRANCH  14  15
ENDBRANCH  13  14
ENDBRANCH  12  13
ENDBRANCH  11  12
ENDBRANCH   1  11
TORSDOF 15
ENDMDL
