MODEL 1
REMARK VINA RESULT:    -3.637      0.000      0.000
REMARK INTER + INTRA:          -4.072
REMARK INTER:                  -4.062
REMARK INTRA:                  -0.009
REMARK UNBOUND:                -0.009
REMARK SMILES CCCC(=O)[O-]
REMARK SMILES IDX 3 1 4 2 5 3 6 4 2 5 1 6
REMARK H PARENT
REMARK Flexibility Score: inf
ROOT
ATOM      1  C   UNL     1      18.107 -30.125  12.001  1.00  0.00     0.052 C 
ENDROOT
BRANCH   1   2
ATOM      2  C   UNL     1      19.474 -29.579  11.720  1.00  0.00     0.041 C 
ATOM      3  O   UNL     1      20.123 -28.999  12.630  1.00  0.00    -0.550 OA
ATOM      4  O   UNL     1      20.016 -29.679  10.444  1.00  0.00    -0.550 OA
ENDBRANCH   1   2
BRANCH   1   5
ATOM      5  C   UNL     1      17.936 -30.497  13.479  1.00  0.00     0.003 C 
ATOM      6  C   UNL     1      16.557 -31.086  13.776  1.00  0.00     0.004 C 
ENDBRANCH   1   5
TORSDOF 2
ENDMDL
MODEL 2
REMARK VINA RESULT:    -3.461     20.785     21.303
REMARK INTER + INTRA:          -3.875
REMARK INTER:                  -3.840
REMARK INTRA:                  -0.034
REMARK UNBOUND:                -0.009
REMARK SMILES CCCC(=O)[O-]
REMARK SMILES IDX 3 1 4 2 5 3 6 4 2 5 1 6
REMARK H PARENT
REMARK Flexibility Score: inf
ROOT
ATOM      1  C   UNL     1       1.948 -29.894  23.561  1.00  0.00     0.052 C 
ENDROOT
BRANCH   1   2
ATOM      2  C   UNL     1       0.556 -30.373  23.839  1.00  0.00     0.041 C 
ATOM      3  O   UNL     1      -0.095 -30.977  22.947  1.00  0.00    -0.550 OA
ATOM      4  O   UNL     1      -0.035 -30.121  25.072  1.00  0.00    -0.550 OA
ENDBRANCH   1   2
BRANCH   1   5
ATOM      5  C   UNL     1       2.220 -28.529  24.207  1.00  0.00     0.003 C 
ATOM      6  C   UNL     1       3.149 -28.630  25.415  1.00  0.00     0.004 C 
ENDBRANCH   1   5
TORSDOF 2
ENDMDL
MODEL 3
REMARK VINA RESULT:    -3.453      9.458      9.902
REMARK INTER + INTRA:          -3.866
REMARK INTER:                  -3.824
REMARK INTRA:                  -0.041
REMARK UNBOUND:                -0.009
REMARK SMILES CCCC(=O)[O-]
REMARK SMILES IDX 3 1 4 2 5 3 6 4 2 5 1 6
REMARK H PARENT
REMARK Flexibility Score: inf
ROOT
ATOM      1  C   UNL     1      10.410 -25.801  11.027  1.00  0.00     0.052 C 
ENDROOT
BRANCH   1   2
ATOM      2  C   UNL     1      10.255 -26.991  11.926  1.00  0.00     0.041 C 
ATOM      3  O   UNL     1       9.844 -26.843  13.107  1.00  0.00    -0.550 OA
ATOM      4  O   UNL     1      10.597 -28.258  11.469  1.00  0.00    -0.550 OA
ENDBRANCH   1   2
BRANCH   1   5
ATOM      5  C   UNL     1       9.130 -25.522  10.228  1.00  0.00     0.003 C 
ATOM      6  C   UNL     1       9.096 -26.278   8.900  1.00  0.00     0.004 C 
ENDBRANCH   1   5
TORSDOF 2
ENDMDL
MODEL 4
REMARK VINA RESULT:    -3.372      1.901      3.431
REMARK INTER + INTRA:          -3.776
REMARK INTER:                  -3.761
REMARK INTRA:                  -0.016
REMARK UNBOUND:                -0.009
REMARK SMILES CCCC(=O)[O-]
REMARK SMILES IDX 3 1 4 2 5 3 6 4 2 5 1 6
REMARK H PARENT
REMARK Flexibility Score: inf
ROOT
ATOM      1  C   UNL     1      18.722 -29.722  10.819  1.00  0.00     0.052 C 
ENDROOT
BRANCH   1   2
ATOM      2  C   UNL     1      19.052 -29.670  12.280  1.00  0.00     0.041 C 
ATOM      3  O   UNL     1      20.124 -29.137  12.668  1.00  0.00    -0.550 OA
ATOM      4  O   UNL     1      18.192 -30.243  13.209  1.00  0.00    -0.550 OA
ENDBRANCH   1   2
BRANCH   1   5
ATOM      5  C   UNL     1      19.689 -28.870   9.987  1.00  0.00     0.003 C 
ATOM      6  C   UNL     1      18.990 -28.155   8.831  1.00  0.00     0.004 C 
ENDBRANCH   1   5
TORSDOF 2
ENDMDL
MODEL 5
REMARK VINA RESULT:    -3.357      2.627      3.744
REMARK INTER + INTRA:          -3.759
REMARK INTER:                  -3.751
REMARK INTRA:                  -0.008
REMARK UNBOUND:                -0.009
REMARK SMILES CCCC(=O)[O-]
REMARK SMILES IDX 3 1 4 2 5 3 6 4 2 5 1 6
REMARK H PARENT
REMARK Flexibility Score: inf
ROOT
ATOM      1  C   UNL     1      18.583 -30.124  13.316  1.00  0.00     0.052 C 
ENDROOT
BRANCH   1   2
ATOM      2  C   UNL     1      17.285 -30.791  13.659  1.00  0.00     0.041 C 
ATOM      3  O   UNL     1      16.231 -30.479  13.045  1.00  0.00    -0.550 OA
ATOM      4  O   UNL     1      17.234 -31.733  14.679  1.00  0.00    -0.550 OA
ENDBRANCH   1   2
BRANCH   1   5
ATOM      5  C   UNL     1      18.694 -29.834  11.814  1.00  0.00     0.003 C 
ATOM      6  C   UNL     1      20.125 -29.507  11.388  1.00  0.00     0.004 C 
ENDBRANCH   1   5
TORSDOF 2
ENDMDL
MODEL 6
REMARK VINA RESULT:    -3.353      2.921      3.720
REMARK INTER + INTRA:          -3.754
REMARK INTER:                  -3.742
REMARK INTRA:                  -0.013
REMARK UNBOUND:                -0.009
REMARK SMILES CCCC(=O)[O-]
REMARK SMILES IDX 3 1 4 2 5 3 6 4 2 5 1 6
REMARK H PARENT
REMARK Flexibility Score: inf
ROOT
ATOM      1  C   UNL     1      18.913 -29.442   9.602  1.00  0.00     0.052 C 
ENDROOT
BRANCH   1   2
ATOM      2  C   UNL     1      18.671 -28.266   8.706  1.00  0.00     0.041 C 
ATOM      3  O   UNL     1      17.564 -28.133   8.121  1.00  0.00    -0.550 OA
ATOM      4  O   UNL     1      19.680 -27.335   8.490  1.00  0.00    -0.550 OA
ENDBRANCH   1   2
BRANCH   1   5
ATOM      5  C   UNL     1      19.957 -29.130  10.682  1.00  0.00     0.003 C 
ATOM      6  C   UNL     1      19.458 -29.461  12.088  1.00  0.00     0.004 C 
ENDBRANCH   1   5
TORSDOF 2
ENDMDL
MODEL 7
REMARK VINA RESULT:    -3.339      9.276      9.747
REMARK INTER + INTRA:          -3.739
REMARK INTER:                  -3.702
REMARK INTRA:                  -0.036
REMARK UNBOUND:                -0.009
REMARK SMILES CCCC(=O)[O-]
REMARK SMILES IDX 3 1 4 2 5 3 6 4 2 5 1 6
REMARK H PARENT
REMARK Flexibility Score: inf
ROOT
ATOM      1  C   UNL     1       9.617 -25.630  10.973  1.00  0.00     0.052 C 
ENDROOT
BRANCH   1   2
ATOM      2  C   UNL     1       9.804 -26.522   9.784  1.00  0.00     0.041 C 
ATOM      3  O   UNL     1       8.930 -26.561   8.878  1.00  0.00    -0.550 OA
ATOM      4  O   UNL     1      10.926 -27.336   9.693  1.00  0.00    -0.550 OA
ENDBRANCH   1   2
BRANCH   1   5
ATOM      5  C   UNL     1      10.605 -25.966  12.098  1.00  0.00     0.003 C 
ATOM      6  C   UNL     1      10.033 -26.975  13.094  1.00  0.00     0.004 C 
ENDBRANCH   1   5
TORSDOF 2
ENDMDL
MODEL 8
REMARK VINA RESULT:    -3.334      9.001      9.432
REMARK INTER + INTRA:          -3.733
REMARK INTER:                  -3.680
REMARK INTRA:                  -0.053
REMARK UNBOUND:                -0.009
REMARK SMILES CCCC(=O)[O-]
REMARK SMILES IDX 3 1 4 2 5 3 6 4 2 5 1 6
REMARK H PARENT
REMARK Flexibility Score: inf
ROOT
ATOM      1  C   UNL     1      10.889 -25.628  12.246  1.00  0.00     0.052 C 
ENDROOT
BRANCH   1   2
ATOM      2  C   UNL     1      10.457 -25.452  10.822  1.00  0.00     0.041 C 
ATOM      3  O   UNL     1      11.311 -25.233   9.923  1.00  0.00    -0.550 OA
ATOM      4  O   UNL     1       9.107 -25.495  10.493  1.00  0.00    -0.550 OA
ENDBRANCH   1   2
BRANCH   1   5
ATOM      5  C   UNL     1      10.015 -26.650  12.984  1.00  0.00     0.003 C 
ATOM      6  C   UNL     1      10.358 -28.091  12.606  1.00  0.00     0.004 C 
ENDBRANCH   1   5
TORSDOF 2
ENDMDL
MODEL 9
REMARK VINA RESULT:    -3.320      8.973      9.449
REMARK INTER + INTRA:          -3.717
REMARK INTER:                  -3.679
REMARK INTRA:                  -0.038
REMARK UNBOUND:                -0.009
REMARK SMILES CCCC(=O)[O-]
REMARK SMILES IDX 3 1 4 2 5 3 6 4 2 5 1 6
REMARK H PARENT
REMARK Flexibility Score: inf
ROOT
ATOM      1  C   UNL     1      10.791 -25.335  11.640  1.00  0.00     0.052 C 
ENDROOT
BRANCH   1   2
ATOM      2  C   UNL     1      10.379 -26.682  12.150  1.00  0.00     0.041 C 
ATOM      3  O   UNL     1       9.906 -26.802  13.311  1.00  0.00    -0.550 OA
ATOM      4  O   UNL     1      10.549 -27.810  11.356  1.00  0.00    -0.550 OA
ENDBRANCH   1   2
BRANCH   1   5
ATOM      5  C   UNL     1      10.714 -25.258  10.109  1.00  0.00     0.003 C 
ATOM      6  C   UNL     1      12.095 -25.202   9.458  1.00  0.00     0.004 C 
ENDBRANCH   1   5
TORSDOF 2
ENDMDL
