MODEL 1
REMARK VINA RESULT:     7.286      0.000      0.000
REMARK INTER + INTRA:          10.871
REMARK INTER:                  10.267
REMARK INTRA:                   0.604
REMARK UNBOUND:                 0.604
REMARK SMILES C[C@H](CO)CCC(=O)[C@H](C)[C@H]1C(=O)C[C@@H]2[C@@H]3CC=C4C[C@H](O)CC[C@]4(C)[C@@H]3CC[C@@]21C
REMARK SMILES IDX 6 1 5 2 2 3 1 4 3 5 4 6 7 8 8 9 9 10 10 11 11 12 12 13 30 14
REMARK SMILES IDX 13 15 14 16 15 17 29 18 31 19 16 20 28 21 27 22 17 23 25 24
REMARK SMILES IDX 18 25 19 26 24 27 26 28 20 29 23 30 21 31 22 32
REMARK H PARENT 4 7 22 33
REMARK Flexibility Score: inf
ROOT
ATOM      1  C   UNL     1      80.600  35.183  52.109  1.00  0.00     0.076 C 
ENDROOT
BRANCH   1   2
ATOM      2  C   UNL     1      81.306  33.808  52.119  1.00  0.00     0.013 C 
BRANCH   2   3
ATOM      3  C   UNL     1      80.550  32.719  51.322  1.00  0.00     0.012 C 
ATOM      4  C   UNL     1      80.208  31.533  52.235  1.00  0.00     0.010 C 
BRANCH   3   5
ATOM      5  C   UNL     1      81.331  32.236  50.085  1.00  0.00     0.159 C 
BRANCH   5   6
ATOM      6  O   UNL     1      80.672  31.164  49.468  1.00  0.00    -0.396 OA
ATOM      7  H   UNL     1      79.710  31.406  49.450  1.00  0.00     0.210 HD
ENDBRANCH   5   6
ENDBRANCH   3   5
ENDBRANCH   2   3
ENDBRANCH   1   2
BRANCH   1   8
ATOM      8  C   UNL     1      79.818  35.407  50.834  1.00  0.00     0.136 C 
ATOM      9  O   UNL     1      80.352  36.000  49.910  1.00  0.00    -0.299 OA
BRANCH   8  10
ATOM     10  C   UNL     1      78.374  34.957  50.683  1.00  0.00     0.064 C 
ATOM     11  C   UNL     1      77.570  36.125  50.079  1.00  0.00     0.017 C 
BRANCH  10  12
ATOM     12  C   UNL     1      77.770  34.422  52.033  1.00  0.00     0.072 C 
ATOM     13  C   UNL     1      77.519  35.550  52.988  1.00  0.00     0.137 C 
ATOM     14  C   UNL     1      76.335  33.781  51.952  1.00  0.00    -0.019 C 
ATOM     15  O   UNL     1      78.393  36.051  53.678  1.00  0.00    -0.299 OA
ATOM     16  C   UNL     1      76.095  35.956  53.087  1.00  0.00     0.080 C 
ATOM     17  C   UNL     1      75.387  35.006  52.104  1.00  0.00     0.007 C 
ATOM     18  C   UNL     1      76.162  32.759  53.138  1.00  0.00     0.008 C 
ATOM     19  C   UNL     1      76.039  33.046  50.623  1.00  0.00     0.012 C 
ATOM     20  C   UNL     1      73.895  34.656  52.422  1.00  0.00     0.001 C 
ATOM     21  C   UNL     1      74.976  33.023  54.077  1.00  0.00     0.005 C 
ATOM     22  C   UNL     1      73.686  33.359  53.299  1.00  0.00     0.003 C 
ATOM     23  C   UNL     1      73.105  35.911  52.899  1.00  0.00     0.031 C 
ATOM     24  C   UNL     1      72.401  33.429  54.216  1.00  0.00    -0.008 C 
ATOM     25  C   UNL     1      72.809  35.886  54.368  1.00  0.00    -0.027 C 
ATOM     26  C   UNL     1      72.448  34.754  55.004  1.00  0.00    -0.065 C 
ATOM     27  C   UNL     1      72.275  32.164  55.146  1.00  0.00     0.014 C 
ATOM     28  C   UNL     1      71.130  33.408  53.321  1.00  0.00     0.016 C 
ATOM     29  C   UNL     1      72.280  34.848  56.511  1.00  0.00     0.063 C 
ATOM     30  C   UNL     1      72.729  32.387  56.589  1.00  0.00     0.033 C 
ATOM     31  C   UNL     1      71.919  33.526  57.195  1.00  0.00     0.118 C 
BRANCH  31  32
ATOM     32  O   UNL     1      72.196  33.608  58.570  1.00  0.00    -0.393 OA
ATOM     33  H   UNL     1      72.030  32.705  58.949  1.00  0.00     0.210 HD
ENDBRANCH  31  32
ENDBRANCH  10  12
ENDBRANCH   8  10
ENDBRANCH   1   8
TORSDOF 8
ENDMDL
MODEL 2
REMARK VINA RESULT:     7.468      1.772      8.235
REMARK INTER + INTRA:          11.128
REMARK INTER:                  11.037
REMARK INTRA:                   0.090
REMARK UNBOUND:                 0.604
REMARK SMILES C[C@H](CO)CCC(=O)[C@H](C)[C@H]1C(=O)C[C@@H]2[C@@H]3CC=C4C[C@H](O)CC[C@]4(C)[C@@H]3CC[C@@]21C
REMARK SMILES IDX 6 1 5 2 2 3 1 4 3 5 4 6 7 8 8 9 9 10 10 11 11 12 12 13 30 14
REMARK SMILES IDX 13 15 14 16 15 17 29 18 31 19 16 20 28 21 27 22 17 23 25 24
REMARK SMILES IDX 18 25 19 26 24 27 26 28 20 29 23 30 21 31 22 32
REMARK H PARENT 4 7 22 33
REMARK Flexibility Score: inf
ROOT
ATOM      1  C   UNL     1      72.501  34.176  55.913  1.00  0.00     0.076 C 
ENDROOT
BRANCH   1   2
ATOM      2  C   UNL     1      72.490  32.739  56.486  1.00  0.00     0.013 C 
BRANCH   2   3
ATOM      3  C   UNL     1      71.767  32.624  57.849  1.00  0.00     0.012 C 
ATOM      4  C   UNL     1      70.445  33.403  57.817  1.00  0.00     0.010 C 
BRANCH   3   5
ATOM      5  C   UNL     1      72.641  33.096  59.026  1.00  0.00     0.159 C 
BRANCH   5   6
ATOM      6  O   UNL     1      72.090  32.686  60.249  1.00  0.00    -0.396 OA
ATOM      7  H   UNL     1      71.226  32.251  60.029  1.00  0.00     0.210 HD
ENDBRANCH   5   6
ENDBRANCH   3   5
ENDBRANCH   2   3
ENDBRANCH   1   2
BRANCH   1   8
ATOM      8  C   UNL     1      72.384  34.183  54.405  1.00  0.00     0.136 C 
ATOM      9  O   UNL     1      71.686  33.340  53.862  1.00  0.00    -0.299 OA
BRANCH   8  10
ATOM     10  C   UNL     1      73.143  35.177  53.541  1.00  0.00     0.064 C 
ATOM     11  C   UNL     1      72.116  36.114  52.878  1.00  0.00     0.017 C 
BRANCH  10  12
ATOM     12  C   UNL     1      74.094  34.469  52.509  1.00  0.00     0.072 C 
ATOM     13  C   UNL     1      74.566  35.439  51.468  1.00  0.00     0.137 C 
ATOM     14  C   UNL     1      75.470  33.948  53.069  1.00  0.00    -0.019 C 
ATOM     15  O   UNL     1      73.895  35.761  50.499  1.00  0.00    -0.299 OA
ATOM     16  C   UNL     1      75.956  35.918  51.669  1.00  0.00     0.080 C 
ATOM     17  C   UNL     1      76.398  35.192  52.953  1.00  0.00     0.007 C 
ATOM     18  C   UNL     1      75.974  32.759  52.166  1.00  0.00     0.008 C 
ATOM     19  C   UNL     1      75.419  33.462  54.537  1.00  0.00     0.012 C 
ATOM     20  C   UNL     1      77.928  34.896  53.097  1.00  0.00     0.001 C 
ATOM     21  C   UNL     1      77.360  32.945  51.533  1.00  0.00     0.005 C 
ATOM     22  C   UNL     1      78.390  33.490  52.546  1.00  0.00     0.003 C 
ATOM     23  C   UNL     1      78.789  36.106  52.626  1.00  0.00     0.031 C 
ATOM     24  C   UNL     1      79.871  33.495  51.993  1.00  0.00    -0.008 C 
ATOM     25  C   UNL     1      79.465  35.860  51.312  1.00  0.00    -0.027 C 
ATOM     26  C   UNL     1      80.006  34.667  50.999  1.00  0.00    -0.065 C 
ATOM     27  C   UNL     1      80.266  32.106  51.364  1.00  0.00     0.014 C 
ATOM     28  C   UNL     1      80.859  33.706  53.174  1.00  0.00     0.016 C 
ATOM     29  C   UNL     1      80.566  34.523  49.595  1.00  0.00     0.063 C 
ATOM     30  C   UNL     1      80.207  32.058  49.837  1.00  0.00     0.033 C 
ATOM     31  C   UNL     1      81.124  33.134  49.270  1.00  0.00     0.118 C 
BRANCH  31  32
ATOM     32  O   UNL     1      81.220  32.970  47.878  1.00  0.00    -0.393 OA
ATOM     33  H   UNL     1      82.180  33.069  47.644  1.00  0.00     0.210 HD
ENDBRANCH  31  32
ENDBRANCH  10  12
ENDBRANCH   8  10
ENDBRANCH   1   8
TORSDOF 8
ENDMDL
MODEL 3
REMARK VINA RESULT:    10.269      1.905      8.323
REMARK INTER + INTRA:          15.075
REMARK INTER:                  13.319
REMARK INTRA:                   1.756
REMARK UNBOUND:                 0.604
REMARK SMILES C[C@H](CO)CCC(=O)[C@H](C)[C@H]1C(=O)C[C@@H]2[C@@H]3CC=C4C[C@H](O)CC[C@]4(C)[C@@H]3CC[C@@]21C
REMARK SMILES IDX 6 1 5 2 2 3 1 4 3 5 4 6 7 8 8 9 9 10 10 11 11 12 12 13 30 14
REMARK SMILES IDX 13 15 14 16 15 17 29 18 31 19 16 20 28 21 27 22 17 23 25 24
REMARK SMILES IDX 18 25 19 26 24 27 26 28 20 29 23 30 21 31 22 32
REMARK H PARENT 4 7 22 33
REMARK Flexibility Score: inf
ROOT
ATOM      1  C   UNL     1      71.956  32.630  57.396  1.00  0.00     0.076 C 
ENDROOT
BRANCH   1   2
ATOM      2  C   UNL     1      71.392  32.543  58.833  1.00  0.00     0.013 C 
BRANCH   2   3
ATOM      3  C   UNL     1      72.369  33.063  59.913  1.00  0.00     0.012 C 
ATOM      4  C   UNL     1      73.802  33.097  59.361  1.00  0.00     0.010 C 
BRANCH   3   5
ATOM      5  C   UNL     1      72.314  32.236  61.211  1.00  0.00     0.159 C 
BRANCH   5   6
ATOM      6  O   UNL     1      71.956  33.044  62.300  1.00  0.00    -0.396 OA
ATOM      7  H   UNL     1      72.705  32.980  62.947  1.00  0.00     0.210 HD
ENDBRANCH   5   6
ENDBRANCH   3   5
ENDBRANCH   2   3
ENDBRANCH   1   2
BRANCH   1   8
ATOM      8  C   UNL     1      71.166  33.592  56.536  1.00  0.00     0.136 C 
ATOM      9  O   UNL     1      70.026  33.879  56.865  1.00  0.00    -0.299 OA
BRANCH   8  10
ATOM     10  C   UNL     1      71.731  34.176  55.252  1.00  0.00     0.064 C 
ATOM     11  C   UNL     1      71.331  33.250  54.088  1.00  0.00     0.017 C 
BRANCH  10  12
ATOM     12  C   UNL     1      73.281  34.427  55.340  1.00  0.00     0.072 C 
ATOM     13  C   UNL     1      74.029  33.128  55.379  1.00  0.00     0.137 C 
ATOM     14  C   UNL     1      73.951  35.112  54.092  1.00  0.00    -0.019 C 
ATOM     15  O   UNL     1      74.165  32.464  56.395  1.00  0.00    -0.299 OA
ATOM     16  C   UNL     1      74.663  32.752  54.092  1.00  0.00     0.080 C 
ATOM     17  C   UNL     1      74.276  33.912  53.155  1.00  0.00     0.007 C 
ATOM     18  C   UNL     1      75.258  35.860  54.556  1.00  0.00     0.008 C 
ATOM     19  C   UNL     1      73.041  36.125  53.355  1.00  0.00     0.012 C 
ATOM     20  C   UNL     1      75.271  34.230  51.989  1.00  0.00     0.001 C 
ATOM     21  C   UNL     1      76.554  35.436  53.853  1.00  0.00     0.005 C 
ATOM     22  C   UNL     1      76.369  35.313  52.325  1.00  0.00     0.003 C 
ATOM     23  C   UNL     1      75.808  32.926  51.328  1.00  0.00     0.031 C 
ATOM     24  C   UNL     1      77.726  35.086  51.546  1.00  0.00    -0.008 C 
ATOM     25  C   UNL     1      77.237  32.643  51.681  1.00  0.00    -0.027 C 
ATOM     26  C   UNL     1      78.160  33.622  51.760  1.00  0.00    -0.065 C 
ATOM     27  C   UNL     1      78.829  36.124  51.975  1.00  0.00     0.014 C 
ATOM     28  C   UNL     1      77.495  35.337  50.029  1.00  0.00     0.016 C 
ATOM     29  C   UNL     1      79.545  33.211  52.230  1.00  0.00     0.063 C 
ATOM     30  C   UNL     1      79.864  35.583  52.963  1.00  0.00     0.033 C 
ATOM     31  C   UNL     1      80.545  34.365  52.352  1.00  0.00     0.118 C 
BRANCH  31  32
ATOM     32  O   UNL     1      81.621  33.981  53.169  1.00  0.00    -0.393 OA
ATOM     33  H   UNL     1      81.630  34.605  53.942  1.00  0.00     0.210 HD
ENDBRANCH  31  32
ENDBRANCH  10  12
ENDBRANCH   8  10
ENDBRANCH   1   8
TORSDOF 8
ENDMDL
