MODEL 1
REMARK VINA RESULT:    -5.376      0.000      0.000
REMARK INTER + INTRA:          -8.902
REMARK INTER:                  -8.361
REMARK INTRA:                  -0.541
REMARK UNBOUND:                -0.541
REMARK SMILES COc1cc(CNC(=O)CCCCC=CC(C)C)ccc1O
REMARK SMILES IDX 11 1 12 2 13 3 14 4 15 5 16 6 17 7 18 8 10 9 8 10 9 11 7 12
REMARK SMILES IDX 6 14 5 15 4 16 19 17 3 18 20 19 21 20 2 21 1 22 22 23
REMARK H PARENT 7 13 22 24
REMARK Flexibility Score: inf
ROOT
ATOM      1  C   UNL     1     114.640 255.870 336.771  1.00  0.00     0.010 C 
ENDROOT
BRANCH   1   2
ATOM      2  C   UNL     1     113.853 257.157 336.477  1.00  0.00     0.005 C 
BRANCH   2   3
ATOM      3  C   UNL     1     112.581 256.895 335.657  1.00  0.00     0.027 C 
BRANCH   3   4
ATOM      4  C   UNL     1     112.771 257.303 334.223  1.00  0.00    -0.031 C 
ATOM      5  C   UNL     1     112.984 256.396 333.256  1.00  0.00    -0.028 C 
BRANCH   5   6
ATOM      6  C   UNL     1     113.153 256.809 331.813  1.00  0.00     0.005 C 
ATOM      7  C   UNL     1     114.368 256.108 331.192  1.00  0.00     0.012 C 
ATOM      8  C   UNL     1     111.885 256.493 331.011  1.00  0.00     0.012 C 
ENDBRANCH   5   6
ENDBRANCH   3   4
ENDBRANCH   2   3
ENDBRANCH   1   2
BRANCH   1   9
ATOM      9  C   UNL     1     116.022 256.152 337.376  1.00  0.00     0.100 C 
BRANCH   9  10
ATOM     10  C   UNL     1     116.372 255.094 338.378  1.00  0.00     0.220 C 
ATOM     11  O   UNL     1     117.475 254.490 338.281  1.00  0.00    -0.275 OA
ATOM     12  N   UNL     1     115.479 254.808 339.463  1.00  0.00    -0.352 N 
ATOM     13  H   UNL     1     114.560 255.304 339.506  1.00  0.00     0.163 HD
BRANCH  12  14
ATOM     14  C   UNL     1     115.883 254.011 340.618  1.00  0.00     0.151 C 
BRANCH  14  15
ATOM     15  C   UNL     1     114.748 253.929 341.601  1.00  0.00    -0.025 A 
ATOM     16  C   UNL     1     114.739 254.743 342.745  1.00  0.00     0.056 A 
ATOM     17  C   UNL     1     113.649 253.097 341.338  1.00  0.00     0.009 A 
ATOM     18  C   UNL     1     113.648 254.715 343.637  1.00  0.00     0.160 A 
ATOM     19  C   UNL     1     112.569 253.059 342.220  1.00  0.00     0.050 A 
ATOM     20  C   UNL     1     112.563 253.860 343.367  1.00  0.00     0.157 A 
BRANCH  18  21
ATOM     21  O   UNL     1     113.609 255.517 344.788  1.00  0.00    -0.493 OA
ATOM     22  C   UNL     1     114.681 256.338 345.238  1.00  0.00     0.278 C 
ENDBRANCH  18  21
BRANCH  20  23
ATOM     23  O   UNL     1     111.464 253.797 344.225  1.00  0.00    -0.504 OA
ATOM     24  H   UNL     1     110.576 253.402 343.936  1.00  0.00     0.293 HD
ENDBRANCH  20  23
ENDBRANCH  14  15
ENDBRANCH  12  14
ENDBRANCH   9  10
ENDBRANCH   1   9
TORSDOF 10
ENDMDL
MODEL 2
REMARK VINA RESULT:    -5.287      2.739     10.496
REMARK INTER + INTRA:          -8.764
REMARK INTER:                  -8.245
REMARK INTRA:                  -0.519
REMARK UNBOUND:                -0.541
REMARK SMILES COc1cc(CNC(=O)CCCCC=CC(C)C)ccc1O
REMARK SMILES IDX 11 1 12 2 13 3 14 4 15 5 16 6 17 7 18 8 10 9 8 10 9 11 7 12
REMARK SMILES IDX 6 14 5 15 4 16 19 17 3 18 20 19 21 20 2 21 1 22 22 23
REMARK H PARENT 7 13 22 24
REMARK Flexibility Score: inf
ROOT
ATOM      1  C   UNL     1     114.883 255.905 345.144  1.00  0.00     0.010 C 
ENDROOT
BRANCH   1   2
ATOM      2  C   UNL     1     115.068 257.391 345.490  1.00  0.00     0.005 C 
BRANCH   2   3
ATOM      3  C   UNL     1     116.365 257.657 346.270  1.00  0.00     0.027 C 
BRANCH   3   4
ATOM      4  C   UNL     1     116.065 258.110 347.672  1.00  0.00    -0.031 C 
ATOM      5  C   UNL     1     116.065 257.249 348.703  1.00  0.00    -0.028 C 
BRANCH   5   6
ATOM      6  C   UNL     1     115.785 257.713 350.113  1.00  0.00     0.005 C 
ATOM      7  C   UNL     1     115.000 256.644 350.884  1.00  0.00     0.012 C 
ATOM      8  C   UNL     1     117.093 258.044 350.840  1.00  0.00     0.012 C 
ENDBRANCH   5   6
ENDBRANCH   3   4
ENDBRANCH   2   3
ENDBRANCH   1   2
BRANCH   1   9
ATOM      9  C   UNL     1     113.572 255.635 344.395  1.00  0.00     0.100 C 
BRANCH   9  10
ATOM     10  C   UNL     1     113.751 254.499 343.435  1.00  0.00     0.220 C 
ATOM     11  O   UNL     1     113.031 253.469 343.552  1.00  0.00    -0.275 OA
ATOM     12  N   UNL     1     114.699 254.605 342.363  1.00  0.00    -0.352 N 
ATOM     13  H   UNL     1     115.301 255.458 342.304  1.00  0.00     0.163 HD
BRANCH  12  14
ATOM     14  C   UNL     1     114.717 253.672 341.241  1.00  0.00     0.151 C 
BRANCH  14  15
ATOM     15  C   UNL     1     115.750 254.105 340.237  1.00  0.00    -0.025 A 
ATOM     16  C   UNL     1     115.372 254.822 339.091  1.00  0.00     0.056 A 
ATOM     17  C   UNL     1     117.111 253.864 340.482  1.00  0.00     0.009 A 
ATOM     18  C   UNL     1     116.344 255.283 338.180  1.00  0.00     0.160 A 
ATOM     19  C   UNL     1     118.077 254.311 339.581  1.00  0.00     0.050 A 
ATOM     20  C   UNL     1     117.702 255.017 338.433  1.00  0.00     0.157 A 
BRANCH  18  21
ATOM     21  O   UNL     1     115.998 256.005 337.027  1.00  0.00    -0.493 OA
ATOM     22  C   UNL     1     114.679 256.101 336.499  1.00  0.00     0.278 C 
ENDBRANCH  18  21
BRANCH  20  23
ATOM     23  O   UNL     1     118.697 255.450 337.556  1.00  0.00    -0.504 OA
ATOM     24  H   UNL     1     119.329 254.804 337.096  1.00  0.00     0.293 HD
ENDBRANCH  20  23
ENDBRANCH  14  15
ENDBRANCH  12  14
ENDBRANCH   9  10
ENDBRANCH   1   9
TORSDOF 10
ENDMDL
MODEL 3
REMARK VINA RESULT:    -5.086      3.072      9.189
REMARK INTER + INTRA:          -8.451
REMARK INTER:                  -8.010
REMARK INTRA:                  -0.441
REMARK UNBOUND:                -0.541
REMARK SMILES COc1cc(CNC(=O)CCCCC=CC(C)C)ccc1O
REMARK SMILES IDX 11 1 12 2 13 3 14 4 15 5 16 6 17 7 18 8 10 9 8 10 9 11 7 12
REMARK SMILES IDX 6 14 5 15 4 16 19 17 3 18 20 19 21 20 2 21 1 22 22 23
REMARK H PARENT 7 13 22 24
REMARK Flexibility Score: inf
ROOT
ATOM      1  C   UNL     1     116.441 254.813 338.331  1.00  0.00     0.010 C 
ENDROOT
BRANCH   1   2
ATOM      2  C   UNL     1     115.907 255.214 339.715  1.00  0.00     0.005 C 
BRANCH   2   3
ATOM      3  C   UNL     1     115.560 253.998 340.587  1.00  0.00     0.027 C 
BRANCH   3   4
ATOM      4  C   UNL     1     114.637 254.386 341.709  1.00  0.00    -0.031 C 
ATOM      5  C   UNL     1     113.644 253.577 342.113  1.00  0.00    -0.028 C 
BRANCH   5   6
ATOM      6  C   UNL     1     112.732 253.962 343.254  1.00  0.00     0.005 C 
ATOM      7  C   UNL     1     113.444 254.931 344.207  1.00  0.00     0.012 C 
ATOM      8  C   UNL     1     111.439 254.589 342.721  1.00  0.00     0.012 C 
ENDBRANCH   5   6
ENDBRANCH   3   4
ENDBRANCH   2   3
ENDBRANCH   1   2
BRANCH   1   9
ATOM      9  C   UNL     1     116.417 255.977 337.332  1.00  0.00     0.100 C 
BRANCH   9  10
ATOM     10  C   UNL     1     115.032 256.165 336.792  1.00  0.00     0.220 C 
ATOM     11  O   UNL     1     114.346 255.153 336.480  1.00  0.00    -0.275 OA
ATOM     12  N   UNL     1     114.477 257.483 336.677  1.00  0.00    -0.352 N 
ATOM     13  H   UNL     1     115.075 258.305 336.918  1.00  0.00     0.163 HD
BRANCH  12  14
ATOM     14  C   UNL     1     113.056 257.714 336.438  1.00  0.00     0.151 C 
BRANCH  14  15
ATOM     15  C   UNL     1     112.710 257.335 335.025  1.00  0.00    -0.025 A 
ATOM     16  C   UNL     1     113.375 257.937 333.944  1.00  0.00     0.056 A 
ATOM     17  C   UNL     1     111.776 256.317 334.779  1.00  0.00     0.009 A 
ATOM     18  C   UNL     1     113.098 257.540 332.620  1.00  0.00     0.160 A 
ATOM     19  C   UNL     1     111.492 255.924 333.471  1.00  0.00     0.050 A 
ATOM     20  C   UNL     1     112.146 256.529 332.392  1.00  0.00     0.157 A 
BRANCH  18  21
ATOM     21  O   UNL     1     113.747 258.121 331.520  1.00  0.00    -0.493 OA
ATOM     22  C   UNL     1     115.109 257.893 331.171  1.00  0.00     0.278 C 
ENDBRANCH  18  21
BRANCH  20  23
ATOM     23  O   UNL     1     111.837 256.109 331.098  1.00  0.00    -0.504 OA
ATOM     24  H   UNL     1     111.011 255.559 330.892  1.00  0.00     0.293 HD
ENDBRANCH  20  23
ENDBRANCH  14  15
ENDBRANCH  12  14
ENDBRANCH   9  10
ENDBRANCH   1   9
TORSDOF 10
ENDMDL
MODEL 4
REMARK VINA RESULT:    -4.263      4.090      7.257
REMARK INTER + INTRA:          -7.172
REMARK INTER:                  -6.638
REMARK INTRA:                  -0.534
REMARK UNBOUND:                -0.541
REMARK SMILES COc1cc(CNC(=O)CCCCC=CC(C)C)ccc1O
REMARK SMILES IDX 11 1 12 2 13 3 14 4 15 5 16 6 17 7 18 8 10 9 8 10 9 11 7 12
REMARK SMILES IDX 6 14 5 15 4 16 19 17 3 18 20 19 21 20 2 21 1 22 22 23
REMARK H PARENT 7 13 22 24
REMARK Flexibility Score: inf
ROOT
ATOM      1  C   UNL     1     113.595 253.393 342.549  1.00  0.00     0.010 C 
ENDROOT
BRANCH   1   2
ATOM      2  C   UNL     1     114.251 254.291 341.489  1.00  0.00     0.005 C 
BRANCH   2   3
ATOM      3  C   UNL     1     115.667 253.826 341.118  1.00  0.00     0.027 C 
BRANCH   3   4
ATOM      4  C   UNL     1     116.183 254.575 339.921  1.00  0.00    -0.031 C 
ATOM      5  C   UNL     1     117.464 254.476 339.529  1.00  0.00    -0.028 C 
BRANCH   5   6
ATOM      6  C   UNL     1     117.973 255.213 338.313  1.00  0.00     0.005 C 
ATOM      7  C   UNL     1     116.806 255.821 337.526  1.00  0.00     0.012 C 
ATOM      8  C   UNL     1     118.967 256.306 338.725  1.00  0.00     0.012 C 
ENDBRANCH   5   6
ENDBRANCH   3   4
ENDBRANCH   2   3
ENDBRANCH   1   2
BRANCH   1   9
ATOM      9  C   UNL     1     114.066 253.723 343.972  1.00  0.00     0.100 C 
BRANCH   9  10
ATOM     10  C   UNL     1     113.833 255.173 344.269  1.00  0.00     0.220 C 
ATOM     11  O   UNL     1     112.704 255.682 344.025  1.00  0.00    -0.275 OA
ATOM     12  N   UNL     1     114.871 255.961 344.869  1.00  0.00    -0.352 N 
ATOM     13  H   UNL     1     115.805 255.523 345.036  1.00  0.00     0.163 HD
BRANCH  12  14
ATOM     14  C   UNL     1     114.619 257.280 345.442  1.00  0.00     0.151 C 
BRANCH  14  15
ATOM     15  C   UNL     1     115.458 257.466 346.676  1.00  0.00    -0.025 A 
ATOM     16  C   UNL     1     114.852 257.740 347.913  1.00  0.00     0.056 A 
ATOM     17  C   UNL     1     116.848 257.288 346.613  1.00  0.00     0.009 A 
ATOM     18  C   UNL     1     115.631 257.854 349.083  1.00  0.00     0.160 A 
ATOM     19  C   UNL     1     117.625 257.407 347.765  1.00  0.00     0.050 A 
ATOM     20  C   UNL     1     117.026 257.689 348.997  1.00  0.00     0.157 A 
BRANCH  18  21
ATOM     21  O   UNL     1     115.055 258.125 350.334  1.00  0.00    -0.493 OA
ATOM     22  C   UNL     1     113.754 257.706 350.733  1.00  0.00     0.278 C 
ENDBRANCH  18  21
BRANCH  20  23
ATOM     23  O   UNL     1     117.835 257.799 350.129  1.00  0.00    -0.504 OA
ATOM     24  H   UNL     1     117.616 257.325 350.997  1.00  0.00     0.293 HD
ENDBRANCH  20  23
ENDBRANCH  14  15
ENDBRANCH  12  14
ENDBRANCH   9  10
ENDBRANCH   1   9
TORSDOF 10
ENDMDL
