MODEL 1
REMARK VINA RESULT:    -2.263      0.000      0.000
REMARK INTER + INTRA:          -2.263
REMARK INTER:                  -2.263
REMARK INTRA:                   0.000
REMARK UNBOUND:                 0.000
REMARK SMILES CC(=O)[O-]
REMARK SMILES IDX 1 1 2 2 3 3 4 4
REMARK H PARENT
REMARK Flexibility Score: inf
ROOT
ATOM      1  C   UNL     1       9.766   5.835  -7.630  1.00  0.00     0.063 C 
ATOM      2  C   UNL     1       8.634   5.151  -8.319  1.00  0.00     0.038 C 
ATOM      3  O   UNL     1       8.095   5.682  -9.326  1.00  0.00    -0.550 OA
ATOM      4  O   UNL     1       8.206   3.904  -7.885  1.00  0.00    -0.550 OA
ENDROOT
TORSDOF 0
ENDMDL
MODEL 2
REMARK VINA RESULT:    -2.261      1.429      1.777
REMARK INTER + INTRA:          -2.261
REMARK INTER:                  -2.261
REMARK INTRA:                   0.000
REMARK UNBOUND:                 0.000
REMARK SMILES CC(=O)[O-]
REMARK SMILES IDX 1 1 2 2 3 3 4 4
REMARK H PARENT
REMARK Flexibility Score: inf
ROOT
ATOM      1  C   UNL     1       8.699   3.770  -7.575  1.00  0.00     0.063 C 
ATOM      2  C   UNL     1       8.825   5.123  -8.187  1.00  0.00     0.038 C 
ATOM      3  O   UNL     1       7.936   5.547  -8.971  1.00  0.00    -0.550 OA
ATOM      4  O   UNL     1       9.896   5.941  -7.852  1.00  0.00    -0.550 OA
ENDROOT
TORSDOF 0
ENDMDL
MODEL 3
REMARK VINA RESULT:    -2.243     19.601     19.903
REMARK INTER + INTRA:          -2.243
REMARK INTER:                  -2.243
REMARK INTRA:                   0.000
REMARK UNBOUND:                 0.000
REMARK SMILES CC(=O)[O-]
REMARK SMILES IDX 1 1 2 2 3 3 4 4
REMARK H PARENT
REMARK Flexibility Score: inf
ROOT
ATOM      1  C   UNL     1      -8.488  -3.463  -7.253  1.00  0.00     0.063 C 
ATOM      2  C   UNL     1      -8.865  -4.309  -8.421  1.00  0.00     0.038 C 
ATOM      3  O   UNL     1      -9.762  -3.925  -9.216  1.00  0.00    -0.550 OA
ATOM      4  O   UNL     1      -8.191  -5.499  -8.664  1.00  0.00    -0.550 OA
ENDROOT
TORSDOF 0
ENDMDL
MODEL 4
REMARK VINA RESULT:    -2.233     18.454     19.013
REMARK INTER + INTRA:          -2.233
REMARK INTER:                  -2.233
REMARK INTRA:                   0.000
REMARK UNBOUND:                 0.000
REMARK SMILES CC(=O)[O-]
REMARK SMILES IDX 1 1 2 2 3 3 4 4
REMARK H PARENT
REMARK Flexibility Score: inf
ROOT
ATOM      1  C   UNL     1      10.026  -3.792   8.592  1.00  0.00     0.063 C 
ATOM      2  C   UNL     1       8.672  -4.255   8.173  1.00  0.00     0.038 C 
ATOM      3  O   UNL     1       8.226  -5.358   8.586  1.00  0.00    -0.550 OA
ATOM      4  O   UNL     1       7.878  -3.448   7.370  1.00  0.00    -0.550 OA
ENDROOT
TORSDOF 0
ENDMDL
MODEL 5
REMARK VINA RESULT:    -2.227     18.735     19.121
REMARK INTER + INTRA:          -2.227
REMARK INTER:                  -2.227
REMARK INTRA:                   0.000
REMARK UNBOUND:                 0.000
REMARK SMILES CC(=O)[O-]
REMARK SMILES IDX 1 1 2 2 3 3 4 4
REMARK H PARENT
REMARK Flexibility Score: inf
ROOT
ATOM      1  C   UNL     1       8.492  -3.401   7.148  1.00  0.00     0.063 C 
ATOM      2  C   UNL     1       8.856  -4.244   8.323  1.00  0.00     0.038 C 
ATOM      3  O   UNL     1       9.740  -3.854   9.129  1.00  0.00    -0.550 OA
ATOM      4  O   UNL     1       8.183  -5.436   8.559  1.00  0.00    -0.550 OA
ENDROOT
TORSDOF 0
ENDMDL
MODEL 6
REMARK VINA RESULT:    -2.214      1.608      2.113
REMARK INTER + INTRA:          -2.214
REMARK INTER:                  -2.214
REMARK INTRA:                   0.000
REMARK UNBOUND:                 0.000
REMARK SMILES CC(=O)[O-]
REMARK SMILES IDX 1 1 2 2 3 3 4 4
REMARK H PARENT
REMARK Flexibility Score: inf
ROOT
ATOM      1  C   UNL     1       8.579   3.372  -7.138  1.00  0.00     0.063 C 
ATOM      2  C   UNL     1       8.911   4.185  -8.343  1.00  0.00     0.038 C 
ATOM      3  O   UNL     1       9.815   3.804  -9.132  1.00  0.00    -0.550 OA
ATOM      4  O   UNL     1       8.189   5.337  -8.626  1.00  0.00    -0.550 OA
ENDROOT
TORSDOF 0
ENDMDL
MODEL 7
REMARK VINA RESULT:    -2.207     23.902     24.279
REMARK INTER + INTRA:          -2.207
REMARK INTER:                  -2.207
REMARK INTRA:                   0.000
REMARK UNBOUND:                 0.000
REMARK SMILES CC(=O)[O-]
REMARK SMILES IDX 1 1 2 2 3 3 4 4
REMARK H PARENT
REMARK Flexibility Score: inf
ROOT
ATOM      1  C   UNL     1      -8.592   3.418   7.142  1.00  0.00     0.063 C 
ATOM      2  C   UNL     1      -8.941   4.246   8.332  1.00  0.00     0.038 C 
ATOM      3  O   UNL     1      -9.866   3.881   9.104  1.00  0.00    -0.550 OA
ATOM      4  O   UNL     1      -8.214   5.392   8.620  1.00  0.00    -0.550 OA
ENDROOT
TORSDOF 0
ENDMDL
MODEL 8
REMARK VINA RESULT:    -2.087     20.519     20.869
REMARK INTER + INTRA:          -2.087
REMARK INTER:                  -2.087
REMARK INTRA:                   0.000
REMARK UNBOUND:                 0.000
REMARK SMILES CC(=O)[O-]
REMARK SMILES IDX 1 1 2 2 3 3 4 4
REMARK H PARENT
REMARK Flexibility Score: inf
ROOT
ATOM      1  C   UNL     1      -8.918  -3.745  -7.053  1.00  0.00     0.063 C 
ATOM      2  C   UNL     1      -9.393  -5.158  -7.075  1.00  0.00     0.038 C 
ATOM      3  O   UNL     1      -9.710  -5.734  -6.000  1.00  0.00    -0.550 OA
ATOM      4  O   UNL     1      -9.538  -5.825  -8.283  1.00  0.00    -0.550 OA
ENDROOT
TORSDOF 0
ENDMDL
MODEL 9
REMARK VINA RESULT:    -2.042     16.297     16.714
REMARK INTER + INTRA:          -2.042
REMARK INTER:                  -2.042
REMARK INTRA:                   0.000
REMARK UNBOUND:                 0.000
REMARK SMILES CC(=O)[O-]
REMARK SMILES IDX 1 1 2 2 3 3 4 4
REMARK H PARENT
REMARK Flexibility Score: inf
ROOT
ATOM      1  C   UNL     1       7.150   4.744   8.991  1.00  0.00     0.063 C 
ATOM      2  C   UNL     1       6.715   5.928   8.196  1.00  0.00     0.038 C 
ATOM      3  O   UNL     1       7.539   6.531   7.459  1.00  0.00    -0.550 OA
ATOM      4  O   UNL     1       5.389   6.337   8.225  1.00  0.00    -0.550 OA
ENDROOT
TORSDOF 0
ENDMDL
