MODEL 1
REMARK VINA RESULT:    -4.374      0.000      0.000
REMARK INTER + INTRA:          -7.085
REMARK INTER:                  -6.675
REMARK INTRA:                  -0.410
REMARK UNBOUND:                -0.410
REMARK SMILES CCCCCCCCCCC(=O)[O-]
REMARK SMILES IDX 7 1 8 2 9 3 10 4 11 5 12 6 13 7 6 8 5 9 4 10 3 11 2 12 1 13
REMARK H PARENT
REMARK Flexibility Score: inf
ROOT
ATOM      1  C   UNL     1      -0.327  20.543  30.807  1.00  0.00     0.000 C 
ENDROOT
BRANCH   1   2
ATOM      2  C   UNL     1      -0.510  21.436  32.044  1.00  0.00     0.000 C 
BRANCH   2   3
ATOM      3  C   UNL     1       0.691  21.317  32.988  1.00  0.00     0.006 C 
BRANCH   3   4
ATOM      4  C   UNL     1       1.680  20.259  32.489  1.00  0.00     0.053 C 
BRANCH   4   5
ATOM      5  C   UNL     1       2.821  20.114  33.447  1.00  0.00     0.041 C 
ATOM      6  O   UNL     1       2.693  20.482  34.643  1.00  0.00    -0.550 OA
ATOM      7  O   UNL     1       4.041  19.619  33.004  1.00  0.00    -0.550 OA
ENDBRANCH   4   5
ENDBRANCH   3   4
ENDBRANCH   2   3
ENDBRANCH   1   2
BRANCH   1   8
ATOM      8  C   UNL     1      -1.630  20.352  30.010  1.00  0.00     0.000 C 
BRANCH   8   9
ATOM      9  C   UNL     1      -1.593  19.220  28.964  1.00  0.00    -0.000 C 
BRANCH   9  10
ATOM     10  C   UNL     1      -2.783  19.196  27.982  1.00  0.00    -0.000 C 
BRANCH  10  11
ATOM     11  C   UNL     1      -2.716  20.241  26.855  1.00  0.00    -0.000 C 
BRANCH  11  12
ATOM     12  C   UNL     1      -1.285  20.494  26.362  1.00  0.00    -0.003 C 
ATOM     13  C   UNL     1      -1.190  21.818  25.610  1.00  0.00     0.004 C 
ENDBRANCH  11  12
ENDBRANCH  10  11
ENDBRANCH   9  10
ENDBRANCH   8   9
ENDBRANCH   1   8
TORSDOF 9
ENDMDL
MODEL 2
REMARK VINA RESULT:    -4.340      4.259      6.076
REMARK INTER + INTRA:          -7.034
REMARK INTER:                  -6.727
REMARK INTRA:                  -0.307
REMARK UNBOUND:                -0.410
REMARK SMILES CCCCCCCCCCC(=O)[O-]
REMARK SMILES IDX 7 1 8 2 9 3 10 4 11 5 12 6 13 7 6 8 5 9 4 10 3 11 2 12 1 13
REMARK H PARENT
REMARK Flexibility Score: inf
ROOT
ATOM      1  C   UNL     1       3.324  19.370  32.954  1.00  0.00     0.000 C 
ENDROOT
BRANCH   1   2
ATOM      2  C   UNL     1       4.158  19.028  34.198  1.00  0.00     0.000 C 
BRANCH   2   3
ATOM      3  C   UNL     1       4.365  17.515  34.320  1.00  0.00     0.006 C 
BRANCH   3   4
ATOM      4  C   UNL     1       5.853  17.173  34.449  1.00  0.00     0.053 C 
BRANCH   4   5
ATOM      5  C   UNL     1       6.497  17.121  33.099  1.00  0.00     0.041 C 
ATOM      6  O   UNL     1       6.497  16.051  32.438  1.00  0.00    -0.550 OA
ATOM      7  O   UNL     1       7.143  18.243  32.594  1.00  0.00    -0.550 OA
ENDBRANCH   4   5
ENDBRANCH   3   4
ENDBRANCH   2   3
ENDBRANCH   1   2
BRANCH   1   8
ATOM      8  C   UNL     1       2.230  20.415  33.236  1.00  0.00     0.000 C 
BRANCH   8   9
ATOM      9  C   UNL     1       0.953  20.269  32.383  1.00  0.00    -0.000 C 
BRANCH   9  10
ATOM     10  C   UNL     1      -0.011  21.472  32.435  1.00  0.00    -0.000 C 
BRANCH  10  11
ATOM     11  C   UNL     1       0.095  22.334  33.705  1.00  0.00    -0.000 C 
BRANCH  11  12
ATOM     12  C   UNL     1      -0.879  23.521  33.703  1.00  0.00    -0.003 C 
ATOM     13  C   UNL     1      -1.256  23.924  35.125  1.00  0.00     0.004 C 
ENDBRANCH  11  12
ENDBRANCH  10  11
ENDBRANCH   9  10
ENDBRANCH   8   9
ENDBRANCH   1   8
TORSDOF 9
ENDMDL
MODEL 3
REMARK VINA RESULT:    -4.334      4.759      6.071
REMARK INTER + INTRA:          -7.024
REMARK INTER:                  -6.780
REMARK INTRA:                  -0.245
REMARK UNBOUND:                -0.410
REMARK SMILES CCCCCCCCCCC(=O)[O-]
REMARK SMILES IDX 7 1 8 2 9 3 10 4 11 5 12 6 13 7 6 8 5 9 4 10 3 11 2 12 1 13
REMARK H PARENT
REMARK Flexibility Score: inf
ROOT
ATOM      1  C   UNL     1       3.344  19.878  32.828  1.00  0.00     0.000 C 
ENDROOT
BRANCH   1   2
ATOM      2  C   UNL     1       3.626  19.084  34.112  1.00  0.00     0.000 C 
BRANCH   2   3
ATOM      3  C   UNL     1       4.231  17.713  33.788  1.00  0.00     0.006 C 
BRANCH   3   4
ATOM      4  C   UNL     1       5.456  17.855  32.879  1.00  0.00     0.053 C 
BRANCH   4   5
ATOM      5  C   UNL     1       6.430  16.748  33.135  1.00  0.00     0.041 C 
ATOM      6  O   UNL     1       6.846  16.039  32.182  1.00  0.00    -0.550 OA
ATOM      7  O   UNL     1       6.838  16.468  34.433  1.00  0.00    -0.550 OA
ENDBRANCH   4   5
ENDBRANCH   3   4
ENDBRANCH   2   3
ENDBRANCH   1   2
BRANCH   1   8
ATOM      8  C   UNL     1       1.921  19.654  32.286  1.00  0.00     0.000 C 
BRANCH   8   9
ATOM      9  C   UNL     1       0.843  20.578  32.887  1.00  0.00    -0.000 C 
BRANCH   9  10
ATOM     10  C   UNL     1       1.306  21.434  34.084  1.00  0.00    -0.000 C 
BRANCH  10  11
ATOM     11  C   UNL     1       0.350  22.574  34.475  1.00  0.00    -0.000 C 
BRANCH  11  12
ATOM     12  C   UNL     1      -0.586  22.986  33.330  1.00  0.00    -0.003 C 
ATOM     13  C   UNL     1      -1.599  24.027  33.796  1.00  0.00     0.004 C 
ENDBRANCH  11  12
ENDBRANCH  10  11
ENDBRANCH   9  10
ENDBRANCH   8   9
ENDBRANCH   1   8
TORSDOF 9
ENDMDL
MODEL 4
REMARK VINA RESULT:    -4.238     17.274     18.377
REMARK INTER + INTRA:          -6.878
REMARK INTER:                  -6.501
REMARK INTRA:                  -0.376
REMARK UNBOUND:                -0.410
REMARK SMILES CCCCCCCCCCC(=O)[O-]
REMARK SMILES IDX 7 1 8 2 9 3 10 4 11 5 12 6 13 7 6 8 5 9 4 10 3 11 2 12 1 13
REMARK H PARENT
REMARK Flexibility Score: inf
ROOT
ATOM      1  C   UNL     1       6.671  10.123  15.574  1.00  0.00     0.000 C 
ENDROOT
BRANCH   1   2
ATOM      2  C   UNL     1       7.268  11.396  14.958  1.00  0.00     0.000 C 
BRANCH   2   3
ATOM      3  C   UNL     1       8.367  11.977  15.855  1.00  0.00     0.006 C 
BRANCH   3   4
ATOM      4  C   UNL     1       7.826  12.287  17.255  1.00  0.00     0.053 C 
BRANCH   4   5
ATOM      5  C   UNL     1       8.940  12.310  18.254  1.00  0.00     0.041 C 
ATOM      6  O   UNL     1       9.555  11.250  18.541  1.00  0.00    -0.550 OA
ATOM      7  O   UNL     1       9.264  13.493  18.906  1.00  0.00    -0.550 OA
ENDBRANCH   4   5
ENDBRANCH   3   4
ENDBRANCH   2   3
ENDBRANCH   1   2
BRANCH   1   8
ATOM      8  C   UNL     1       5.185   9.929  15.225  1.00  0.00     0.000 C 
BRANCH   8   9
ATOM      9  C   UNL     1       4.267   9.629  16.427  1.00  0.00    -0.000 C 
BRANCH   9  10
ATOM     10  C   UNL     1       2.763   9.539  16.097  1.00  0.00    -0.000 C 
BRANCH  10  11
ATOM     11  C   UNL     1       2.416   8.649  14.891  1.00  0.00    -0.000 C 
BRANCH  11  12
ATOM     12  C   UNL     1       1.149   7.811  15.114  1.00  0.00    -0.003 C 
ATOM     13  C   UNL     1       0.319   8.366  16.267  1.00  0.00     0.004 C 
ENDBRANCH  11  12
ENDBRANCH  10  11
ENDBRANCH   9  10
ENDBRANCH   8   9
ENDBRANCH   1   8
TORSDOF 9
ENDMDL
MODEL 5
REMARK VINA RESULT:    -4.220     15.558     17.779
REMARK INTER + INTRA:          -6.851
REMARK INTER:                  -6.602
REMARK INTRA:                  -0.249
REMARK UNBOUND:                -0.410
REMARK SMILES CCCCCCCCCCC(=O)[O-]
REMARK SMILES IDX 7 1 8 2 9 3 10 4 11 5 12 6 13 7 6 8 5 9 4 10 3 11 2 12 1 13
REMARK H PARENT
REMARK Flexibility Score: inf
ROOT
ATOM      1  C   UNL     1       2.440   9.411  16.544  1.00  0.00     0.000 C 
ENDROOT
BRANCH   1   2
ATOM      2  C   UNL     1       3.545   9.813  15.556  1.00  0.00     0.000 C 
BRANCH   2   3
ATOM      3  C   UNL     1       4.911   9.857  16.249  1.00  0.00     0.006 C 
BRANCH   3   4
ATOM      4  C   UNL     1       6.016  10.251  15.263  1.00  0.00     0.053 C 
BRANCH   4   5
ATOM      5  C   UNL     1       6.974  11.205  15.903  1.00  0.00     0.041 C 
ATOM      6  O   UNL     1       6.931  11.409  17.144  1.00  0.00    -0.550 OA
ATOM      7  O   UNL     1       7.881  11.909  15.120  1.00  0.00    -0.550 OA
ENDBRANCH   4   5
ENDBRANCH   3   4
ENDBRANCH   2   3
ENDBRANCH   1   2
BRANCH   1   8
ATOM      8  C   UNL     1       1.224   8.770  15.853  1.00  0.00     0.000 C 
BRANCH   8   9
ATOM      9  C   UNL     1      -0.049   8.687  16.719  1.00  0.00    -0.000 C 
BRANCH   9  10
ATOM     10  C   UNL     1      -0.265   9.873  17.683  1.00  0.00    -0.000 C 
BRANCH  10  11
ATOM     11  C   UNL     1      -1.495   9.750  18.598  1.00  0.00    -0.000 C 
BRANCH  11  12
ATOM     12  C   UNL     1      -1.297  10.433  19.959  1.00  0.00    -0.003 C 
ATOM     13  C   UNL     1      -1.519   9.450  21.104  1.00  0.00     0.004 C 
ENDBRANCH  11  12
ENDBRANCH  10  11
ENDBRANCH   9  10
ENDBRANCH   8   9
ENDBRANCH   1   8
TORSDOF 9
ENDMDL
MODEL 6
REMARK VINA RESULT:    -4.214      4.603      7.336
REMARK INTER + INTRA:          -6.841
REMARK INTER:                  -6.413
REMARK INTRA:                  -0.428
REMARK UNBOUND:                -0.410
REMARK SMILES CCCCCCCCCCC(=O)[O-]
REMARK SMILES IDX 7 1 8 2 9 3 10 4 11 5 12 6 13 7 6 8 5 9 4 10 3 11 2 12 1 13
REMARK H PARENT
REMARK Flexibility Score: inf
ROOT
ATOM      1  C   UNL     1       2.861  19.820  32.780  1.00  0.00     0.000 C 
ENDROOT
BRANCH   1   2
ATOM      2  C   UNL     1       1.415  20.228  32.464  1.00  0.00     0.000 C 
BRANCH   2   3
ATOM      3  C   UNL     1       0.910  21.275  33.463  1.00  0.00     0.006 C 
BRANCH   3   4
ATOM      4  C   UNL     1      -0.174  22.157  32.834  1.00  0.00     0.053 C 
BRANCH   4   5
ATOM      5  C   UNL     1      -0.564  23.257  33.771  1.00  0.00     0.041 C 
ATOM      6  O   UNL     1       0.164  23.534  34.760  1.00  0.00    -0.550 OA
ATOM      7  O   UNL     1      -1.757  23.942  33.580  1.00  0.00    -0.550 OA
ENDBRANCH   4   5
ENDBRANCH   3   4
ENDBRANCH   2   3
ENDBRANCH   1   2
BRANCH   1   8
ATOM      8  C   UNL     1       3.055  19.390  34.245  1.00  0.00     0.000 C 
BRANCH   8   9
ATOM      9  C   UNL     1       3.468  17.917  34.443  1.00  0.00    -0.000 C 
BRANCH   9  10
ATOM     10  C   UNL     1       4.915  17.703  34.932  1.00  0.00    -0.000 C 
BRANCH  10  11
ATOM     11  C   UNL     1       5.992  17.809  33.838  1.00  0.00    -0.000 C 
BRANCH  11  12
ATOM     12  C   UNL     1       5.716  16.892  32.639  1.00  0.00    -0.003 C 
ATOM     13  C   UNL     1       6.975  16.137  32.224  1.00  0.00     0.004 C 
ENDBRANCH  11  12
ENDBRANCH  10  11
ENDBRANCH   9  10
ENDBRANCH   8   9
ENDBRANCH   1   8
TORSDOF 9
ENDMDL
MODEL 7
REMARK VINA RESULT:    -4.199     17.014     19.386
REMARK INTER + INTRA:          -6.819
REMARK INTER:                  -6.544
REMARK INTRA:                  -0.275
REMARK UNBOUND:                -0.410
REMARK SMILES CCCCCCCCCCC(=O)[O-]
REMARK SMILES IDX 7 1 8 2 9 3 10 4 11 5 12 6 13 7 6 8 5 9 4 10 3 11 2 12 1 13
REMARK H PARENT
REMARK Flexibility Score: inf
ROOT
ATOM      1  C   UNL     1       5.592   9.881  16.172  1.00  0.00     0.000 C 
ENDROOT
BRANCH   1   2
ATOM      2  C   UNL     1       4.362   9.985  15.258  1.00  0.00     0.000 C 
BRANCH   2   3
ATOM      3  C   UNL     1       3.130   9.363  15.924  1.00  0.00     0.006 C 
BRANCH   3   4
ATOM      4  C   UNL     1       2.092   8.944  14.877  1.00  0.00     0.053 C 
BRANCH   4   5
ATOM      5  C   UNL     1       1.113   7.978  15.466  1.00  0.00     0.041 C 
ATOM      6  O   UNL     1       1.034   6.804  15.019  1.00  0.00    -0.550 OA
ATOM      7  O   UNL     1       0.252   8.390  16.476  1.00  0.00    -0.550 OA
ENDBRANCH   4   5
ENDBRANCH   3   4
ENDBRANCH   2   3
ENDBRANCH   1   2
BRANCH   1   8
ATOM      8  C   UNL     1       6.917  10.100  15.420  1.00  0.00     0.000 C 
BRANCH   8   9
ATOM      9  C   UNL     1       7.345  11.574  15.271  1.00  0.00    -0.000 C 
BRANCH   9  10
ATOM     10  C   UNL     1       8.499  12.018  16.193  1.00  0.00    -0.000 C 
BRANCH  10  11
ATOM     11  C   UNL     1       8.118  12.185  17.674  1.00  0.00    -0.000 C 
BRANCH  11  12
ATOM     12  C   UNL     1       9.311  12.581  18.556  1.00  0.00    -0.003 C 
ATOM     13  C   UNL     1       9.075  13.930  19.227  1.00  0.00     0.004 C 
ENDBRANCH  11  12
ENDBRANCH  10  11
ENDBRANCH   9  10
ENDBRANCH   8   9
ENDBRANCH   1   8
TORSDOF 9
ENDMDL
MODEL 8
REMARK VINA RESULT:    -4.153      4.523      7.615
REMARK INTER + INTRA:          -6.748
REMARK INTER:                  -6.220
REMARK INTRA:                  -0.528
REMARK UNBOUND:                -0.410
REMARK SMILES CCCCCCCCCCC(=O)[O-]
REMARK SMILES IDX 7 1 8 2 9 3 10 4 11 5 12 6 13 7 6 8 5 9 4 10 3 11 2 12 1 13
REMARK H PARENT
REMARK Flexibility Score: inf
ROOT
ATOM      1  C   UNL     1       3.850  19.169  33.230  1.00  0.00     0.000 C 
ENDROOT
BRANCH   1   2
ATOM      2  C   UNL     1       2.765  19.998  32.527  1.00  0.00     0.000 C 
BRANCH   2   3
ATOM      3  C   UNL     1       1.429  19.897  33.272  1.00  0.00     0.006 C 
BRANCH   3   4
ATOM      4  C   UNL     1       0.942  21.280  33.718  1.00  0.00     0.053 C 
BRANCH   4   5
ATOM      5  C   UNL     1      -0.110  21.791  32.785  1.00  0.00     0.041 C 
ATOM      6  O   UNL     1      -0.674  22.894  33.010  1.00  0.00    -0.550 OA
ATOM      7  O   UNL     1      -0.504  21.026  31.695  1.00  0.00    -0.550 OA
ENDBRANCH   4   5
ENDBRANCH   3   4
ENDBRANCH   2   3
ENDBRANCH   1   2
BRANCH   1   8
ATOM      8  C   UNL     1       3.307  18.361  34.422  1.00  0.00     0.000 C 
BRANCH   8   9
ATOM      9  C   UNL     1       4.333  17.432  35.101  1.00  0.00    -0.000 C 
BRANCH   9  10
ATOM     10  C   UNL     1       5.804  17.683  34.709  1.00  0.00    -0.000 C 
BRANCH  10  11
ATOM     11  C   UNL     1       6.494  16.508  33.994  1.00  0.00    -0.000 C 
BRANCH  11  12
ATOM     12  C   UNL     1       6.312  16.549  32.470  1.00  0.00    -0.003 C 
ATOM     13  C   UNL     1       7.343  15.668  31.770  1.00  0.00     0.004 C 
ENDBRANCH  11  12
ENDBRANCH  10  11
ENDBRANCH   9  10
ENDBRANCH   8   9
ENDBRANCH   1   8
TORSDOF 9
ENDMDL
MODEL 9
REMARK VINA RESULT:    -4.097     15.261     17.421
REMARK INTER + INTRA:          -6.663
REMARK INTER:                  -6.378
REMARK INTRA:                  -0.285
REMARK UNBOUND:                -0.410
REMARK SMILES CCCCCCCCCCC(=O)[O-]
REMARK SMILES IDX 7 1 8 2 9 3 10 4 11 5 12 6 13 7 6 8 5 9 4 10 3 11 2 12 1 13
REMARK H PARENT
REMARK Flexibility Score: inf
ROOT
ATOM      1  C   UNL     1       0.415   9.557  17.092  1.00  0.00     0.000 C 
ENDROOT
BRANCH   1   2
ATOM      2  C   UNL     1      -0.900   9.391  17.869  1.00  0.00     0.000 C 
BRANCH   2   3
ATOM      3  C   UNL     1      -1.269  10.683  18.606  1.00  0.00     0.006 C 
BRANCH   3   4
ATOM      4  C   UNL     1      -1.070  10.531  20.117  1.00  0.00     0.053 C 
BRANCH   4   5
ATOM      5  C   UNL     1      -2.074   9.577  20.684  1.00  0.00     0.041 C 
ATOM      6  O   UNL     1      -1.750   8.796  21.616  1.00  0.00    -0.550 OA
ATOM      7  O   UNL     1      -3.355   9.516  20.148  1.00  0.00    -0.550 OA
ENDBRANCH   4   5
ENDBRANCH   3   4
ENDBRANCH   2   3
ENDBRANCH   1   2
BRANCH   1   8
ATOM      8  C   UNL     1       0.616   8.472  16.019  1.00  0.00     0.000 C 
BRANCH   8   9
ATOM      9  C   UNL     1       2.000   8.479  15.338  1.00  0.00    -0.000 C 
BRANCH   9  10
ATOM     10  C   UNL     1       3.050   9.398  15.996  1.00  0.00    -0.000 C 
BRANCH  10  11
ATOM     11  C   UNL     1       4.001  10.102  15.013  1.00  0.00    -0.000 C 
BRANCH  11  12
ATOM     12  C   UNL     1       5.477   9.765  15.268  1.00  0.00    -0.003 C 
ATOM     13  C   UNL     1       5.983  10.440  16.539  1.00  0.00     0.004 C 
ENDBRANCH  11  12
ENDBRANCH  10  11
ENDBRANCH   9  10
ENDBRANCH   8   9
ENDBRANCH   1   8
TORSDOF 9
ENDMDL
