MODEL 1
REMARK VINA RESULT:    -4.653      0.000      0.000
REMARK INTER + INTRA:          -4.789
REMARK INTER:                  -4.789
REMARK INTRA:                   0.000
REMARK UNBOUND:                 0.000
REMARK SMILES Cc1cccc(O)c1C
REMARK SMILES IDX 1 1 2 2 8 3 6 4 5 5 4 6 3 7 9 8 7 9
REMARK H PARENT 7 10
REMARK Flexibility Score: inf
ROOT
ATOM      1  C   UNL     1      44.062   6.641  14.252  1.00  0.00     0.045 C 
ATOM      2  C   UNL     1      45.024   6.649  15.411  1.00  0.00    -0.045 A 
ATOM      3  C   UNL     1      46.249   5.936  15.363  1.00  0.00    -0.006 A 
ATOM      4  C   UNL     1      47.107   5.958  16.485  1.00  0.00     0.118 A 
ATOM      5  C   UNL     1      46.766   6.713  17.613  1.00  0.00     0.046 A 
ATOM      6  C   UNL     1      45.577   7.438  17.643  1.00  0.00     0.004 A 
ATOM      7  C   UNL     1      44.711   7.409  16.551  1.00  0.00     0.004 A 
ATOM      8  C   UNL     1      46.613   5.111  14.151  1.00  0.00     0.048 C 
ENDROOT
BRANCH   4   9
ATOM      9  O   UNL     1      48.297   5.230  16.479  1.00  0.00    -0.508 OA
ATOM     10  H   UNL     1      48.996   5.359  15.757  1.00  0.00     0.293 HD
ENDBRANCH   4   9
TORSDOF 1
ENDMDL
MODEL 2
REMARK VINA RESULT:    -4.633      0.793      2.625
REMARK INTER + INTRA:          -4.768
REMARK INTER:                  -4.768
REMARK INTRA:                   0.000
REMARK UNBOUND:                 0.000
REMARK SMILES Cc1cccc(O)c1C
REMARK SMILES IDX 1 1 2 2 8 3 6 4 5 5 4 6 3 7 9 8 7 9
REMARK H PARENT 7 10
REMARK Flexibility Score: inf
ROOT
ATOM      1  C   UNL     1      44.292   8.111  17.451  1.00  0.00     0.045 C 
ATOM      2  C   UNL     1      45.170   7.264  16.567  1.00  0.00    -0.045 A 
ATOM      3  C   UNL     1      46.317   6.602  17.077  1.00  0.00    -0.006 A 
ATOM      4  C   UNL     1      47.119   5.837  16.201  1.00  0.00     0.118 A 
ATOM      5  C   UNL     1      46.756   5.702  14.855  1.00  0.00     0.046 A 
ATOM      6  C   UNL     1      45.612   6.328  14.368  1.00  0.00     0.004 A 
ATOM      7  C   UNL     1      44.822   7.103  15.216  1.00  0.00     0.004 A 
ATOM      8  C   UNL     1      46.715   6.756  18.525  1.00  0.00     0.048 C 
ENDROOT
BRANCH   4   9
ATOM      9  O   UNL     1      48.275   5.211  16.668  1.00  0.00    -0.508 OA
ATOM     10  H   UNL     1      49.103   5.121  16.089  1.00  0.00     0.293 HD
ENDBRANCH   4   9
TORSDOF 1
ENDMDL
MODEL 3
REMARK VINA RESULT:    -4.407      1.978      3.810
REMARK INTER + INTRA:          -4.536
REMARK INTER:                  -4.536
REMARK INTRA:                   0.000
REMARK UNBOUND:                 0.000
REMARK SMILES Cc1cccc(O)c1C
REMARK SMILES IDX 1 1 2 2 8 3 6 4 5 5 4 6 3 7 9 8 7 9
REMARK H PARENT 7 10
REMARK Flexibility Score: inf
ROOT
ATOM      1  C   UNL     1      46.685   7.137  18.765  1.00  0.00     0.045 C 
ATOM      2  C   UNL     1      46.281   6.786  17.357  1.00  0.00    -0.045 A 
ATOM      3  C   UNL     1      45.065   7.252  16.797  1.00  0.00    -0.006 A 
ATOM      4  C   UNL     1      44.722   6.876  15.479  1.00  0.00     0.118 A 
ATOM      5  C   UNL     1      45.599   6.088  14.724  1.00  0.00     0.046 A 
ATOM      6  C   UNL     1      46.808   5.659  15.268  1.00  0.00     0.004 A 
ATOM      7  C   UNL     1      47.149   6.006  16.574  1.00  0.00     0.004 A 
ATOM      8  C   UNL     1      44.112   8.093  17.613  1.00  0.00     0.048 C 
ENDROOT
BRANCH   4   9
ATOM      9  O   UNL     1      43.512   7.286  14.919  1.00  0.00    -0.508 OA
ATOM     10  H   UNL     1      43.449   7.606  13.960  1.00  0.00     0.293 HD
ENDBRANCH   4   9
TORSDOF 1
ENDMDL
MODEL 4
REMARK VINA RESULT:    -4.378      4.687      6.682
REMARK INTER + INTRA:          -4.506
REMARK INTER:                  -4.506
REMARK INTRA:                   0.000
REMARK UNBOUND:                 0.000
REMARK SMILES Cc1cccc(O)c1C
REMARK SMILES IDX 1 1 2 2 8 3 6 4 5 5 4 6 3 7 9 8 7 9
REMARK H PARENT 7 10
REMARK Flexibility Score: inf
ROOT
ATOM      1  C   UNL     1      47.871   6.867  22.124  1.00  0.00     0.045 C 
ATOM      2  C   UNL     1      46.761   7.526  21.347  1.00  0.00    -0.045 A 
ATOM      3  C   UNL     1      45.778   8.321  21.990  1.00  0.00    -0.006 A 
ATOM      4  C   UNL     1      44.745   8.900  21.219  1.00  0.00     0.118 A 
ATOM      5  C   UNL     1      44.723   8.722  19.830  1.00  0.00     0.046 A 
ATOM      6  C   UNL     1      45.710   7.967  19.200  1.00  0.00     0.004 A 
ATOM      7  C   UNL     1      46.723   7.373  19.951  1.00  0.00     0.004 A 
ATOM      8  C   UNL     1      45.793   8.504  23.489  1.00  0.00     0.048 C 
ENDROOT
BRANCH   4   9
ATOM      9  O   UNL     1      43.742   9.650  21.832  1.00  0.00    -0.508 OA
ATOM     10  H   UNL     1      43.174   9.270  22.580  1.00  0.00     0.293 HD
ENDBRANCH   4   9
TORSDOF 1
ENDMDL
MODEL 5
REMARK VINA RESULT:    -4.371      2.406      3.522
REMARK INTER + INTRA:          -4.499
REMARK INTER:                  -4.499
REMARK INTRA:                   0.000
REMARK UNBOUND:                 0.000
REMARK SMILES Cc1cccc(O)c1C
REMARK SMILES IDX 1 1 2 2 8 3 6 4 5 5 4 6 3 7 9 8 7 9
REMARK H PARENT 7 10
REMARK Flexibility Score: inf
ROOT
ATOM      1  C   UNL     1      47.138   5.884  16.511  1.00  0.00     0.045 C 
ATOM      2  C   UNL     1      46.327   6.830  17.357  1.00  0.00    -0.045 A 
ATOM      3  C   UNL     1      45.140   7.432  16.867  1.00  0.00    -0.006 A 
ATOM      4  C   UNL     1      44.428   8.329  17.694  1.00  0.00     0.118 A 
ATOM      5  C   UNL     1      44.871   8.585  18.997  1.00  0.00     0.046 A 
ATOM      6  C   UNL     1      46.020   7.966  19.485  1.00  0.00     0.004 A 
ATOM      7  C   UNL     1      46.744   7.095  18.673  1.00  0.00     0.004 A 
ATOM      8  C   UNL     1      44.667   7.166  15.458  1.00  0.00     0.048 C 
ENDROOT
BRANCH   4   9
ATOM      9  O   UNL     1      43.281   8.967  17.220  1.00  0.00    -0.508 OA
ATOM     10  H   UNL     1      43.167   9.972  17.280  1.00  0.00     0.293 HD
ENDBRANCH   4   9
TORSDOF 1
ENDMDL
MODEL 6
REMARK VINA RESULT:    -4.257      2.570      4.566
REMARK INTER + INTRA:          -4.381
REMARK INTER:                  -4.381
REMARK INTRA:                   0.000
REMARK UNBOUND:                 0.000
REMARK SMILES Cc1cccc(O)c1C
REMARK SMILES IDX 1 1 2 2 8 3 6 4 5 5 4 6 3 7 9 8 7 9
REMARK H PARENT 7 10
REMARK Flexibility Score: inf
ROOT
ATOM      1  C   UNL     1      46.758   7.351  20.163  1.00  0.00     0.045 C 
ATOM      2  C   UNL     1      46.146   7.398  18.787  1.00  0.00    -0.045 A 
ATOM      3  C   UNL     1      45.032   8.227  18.500  1.00  0.00    -0.006 A 
ATOM      4  C   UNL     1      44.482   8.219  17.199  1.00  0.00     0.118 A 
ATOM      5  C   UNL     1      45.061   7.430  16.197  1.00  0.00     0.046 A 
ATOM      6  C   UNL     1      46.175   6.641  16.477  1.00  0.00     0.004 A 
ATOM      7  C   UNL     1      46.716   6.625  17.762  1.00  0.00     0.004 A 
ATOM      8  C   UNL     1      44.399   9.070  19.581  1.00  0.00     0.048 C 
ENDROOT
BRANCH   4   9
ATOM      9  O   UNL     1      43.360   8.993  16.901  1.00  0.00    -0.508 OA
ATOM     10  H   UNL     1      43.392   9.734  16.211  1.00  0.00     0.293 HD
ENDBRANCH   4   9
TORSDOF 1
ENDMDL
MODEL 7
REMARK VINA RESULT:    -4.193      4.179      5.715
REMARK INTER + INTRA:          -4.315
REMARK INTER:                  -4.315
REMARK INTRA:                   0.000
REMARK UNBOUND:                 0.000
REMARK SMILES Cc1cccc(O)c1C
REMARK SMILES IDX 1 1 2 2 8 3 6 4 5 5 4 6 3 7 9 8 7 9
REMARK H PARENT 7 10
REMARK Flexibility Score: inf
ROOT
ATOM      1  C   UNL     1      46.728   7.340  18.574  1.00  0.00     0.045 C 
ATOM      2  C   UNL     1      45.968   7.968  19.714  1.00  0.00    -0.045 A 
ATOM      3  C   UNL     1      46.325   7.727  21.065  1.00  0.00    -0.006 A 
ATOM      4  C   UNL     1      45.567   8.323  22.097  1.00  0.00     0.118 A 
ATOM      5  C   UNL     1      44.502   9.176  21.782  1.00  0.00     0.046 A 
ATOM      6  C   UNL     1      44.176   9.435  20.453  1.00  0.00     0.004 A 
ATOM      7  C   UNL     1      44.903   8.838  19.425  1.00  0.00     0.004 A 
ATOM      8  C   UNL     1      47.465   6.798  21.406  1.00  0.00     0.048 C 
ENDROOT
BRANCH   4   9
ATOM      9  O   UNL     1      45.870   8.067  23.435  1.00  0.00    -0.508 OA
ATOM     10  H   UNL     1      45.151   7.831  24.108  1.00  0.00     0.293 HD
ENDBRANCH   4   9
TORSDOF 1
ENDMDL
MODEL 8
REMARK VINA RESULT:    -4.182      4.076      5.404
REMARK INTER + INTRA:          -4.305
REMARK INTER:                  -4.305
REMARK INTRA:                   0.000
REMARK UNBOUND:                 0.000
REMARK SMILES Cc1cccc(O)c1C
REMARK SMILES IDX 1 1 2 2 8 3 6 4 5 5 4 6 3 7 9 8 7 9
REMARK H PARENT 7 10
REMARK Flexibility Score: inf
ROOT
ATOM      1  C   UNL     1      44.474   8.945  19.284  1.00  0.00     0.045 C 
ATOM      2  C   UNL     1      45.314   8.633  20.496  1.00  0.00    -0.045 A 
ATOM      3  C   UNL     1      46.389   7.711  20.435  1.00  0.00    -0.006 A 
ATOM      4  C   UNL     1      47.132   7.438  21.604  1.00  0.00     0.118 A 
ATOM      5  C   UNL     1      46.833   8.107  22.798  1.00  0.00     0.046 A 
ATOM      6  C   UNL     1      45.796   9.035  22.844  1.00  0.00     0.004 A 
ATOM      7  C   UNL     1      45.041   9.299  21.702  1.00  0.00     0.004 A 
ATOM      8  C   UNL     1      46.706   6.980  19.152  1.00  0.00     0.048 C 
ENDROOT
BRANCH   4   9
ATOM      9  O   UNL     1      48.167   6.503  21.582  1.00  0.00    -0.508 OA
ATOM     10  H   UNL     1      48.797   6.385  22.367  1.00  0.00     0.293 HD
ENDBRANCH   4   9
TORSDOF 1
ENDMDL
MODEL 9
REMARK VINA RESULT:    -4.151      3.622      5.505
REMARK INTER + INTRA:          -4.272
REMARK INTER:                  -4.272
REMARK INTRA:                   0.000
REMARK UNBOUND:                 0.000
REMARK SMILES Cc1cccc(O)c1C
REMARK SMILES IDX 1 1 2 2 8 3 6 4 5 5 4 6 3 7 9 8 7 9
REMARK H PARENT 7 10
REMARK Flexibility Score: inf
ROOT
ATOM      1  C   UNL     1      44.609  10.229  21.011  1.00  0.00     0.045 C 
ATOM      2  C   UNL     1      45.365   9.059  20.436  1.00  0.00    -0.045 A 
ATOM      3  C   UNL     1      46.074   8.155  21.268  1.00  0.00    -0.006 A 
ATOM      4  C   UNL     1      46.786   7.087  20.678  1.00  0.00     0.118 A 
ATOM      5  C   UNL     1      46.752   6.903  19.290  1.00  0.00     0.046 A 
ATOM      6  C   UNL     1      46.027   7.776  18.481  1.00  0.00     0.004 A 
ATOM      7  C   UNL     1      45.338   8.846  19.048  1.00  0.00     0.004 A 
ATOM      8  C   UNL     1      46.121   8.358  22.763  1.00  0.00     0.048 C 
ENDROOT
BRANCH   4   9
ATOM      9  O   UNL     1      47.526   6.209  21.469  1.00  0.00    -0.508 OA
ATOM     10  H   UNL     1      48.208   6.542  22.140  1.00  0.00     0.293 HD
ENDBRANCH   4   9
TORSDOF 1
ENDMDL
