MODEL 1
REMARK VINA RESULT:    -5.060      0.000      0.000
REMARK INTER + INTRA:         -16.787
REMARK INTER:                 -12.750
REMARK INTRA:                  -4.037
REMARK UNBOUND:                -4.037
REMARK SMILES CCCCCCCCCCCCCCCCCCCCCCCCCCCC(=O)[O-]
REMARK SMILES IDX 15 1 16 2 17 3 18 4 19 5 20 6 21 7 22 8 23 9 24 10 25 11
REMARK SMILES IDX 26 12 27 13 28 14 29 15 30 16 14 17 13 18 12 19 11 20 10 21
REMARK SMILES IDX 9 22 8 23 7 24 6 25 5 26 4 27 3 28 2 29 1 30
REMARK H PARENT
REMARK Flexibility Score: inf
ROOT
ATOM      1  C   UNL     1       4.063  43.867   9.137  1.00  0.00     0.000 C 
ENDROOT
BRANCH   1   2
ATOM      2  C   UNL     1       3.040  42.874   8.564  1.00  0.00     0.000 C 
BRANCH   2   3
ATOM      3  C   UNL     1       1.612  43.221   9.012  1.00  0.00     0.000 C 
BRANCH   3   4
ATOM      4  C   UNL     1       0.819  44.011   7.948  1.00  0.00     0.000 C 
BRANCH   4   5
ATOM      5  C   UNL     1      -0.065  45.140   8.513  1.00  0.00     0.000 C 
BRANCH   5   6
ATOM      6  C   UNL     1       0.294  45.629   9.929  1.00  0.00     0.000 C 
BRANCH   6   7
ATOM      7  C   UNL     1      -0.872  45.651  10.934  1.00  0.00     0.000 C 
BRANCH   7   8
ATOM      8  C   UNL     1      -0.676  44.679  12.108  1.00  0.00     0.000 C 
BRANCH   8   9
ATOM      9  C   UNL     1       0.681  43.972  12.004  1.00  0.00     0.000 C 
BRANCH   9  10
ATOM     10  C   UNL     1       0.616  42.558  12.597  1.00  0.00     0.000 C 
BRANCH  10  11
ATOM     11  C   UNL     1       1.884  41.734  12.315  1.00  0.00     0.000 C 
BRANCH  11  12
ATOM     12  C   UNL     1       1.946  40.403  13.097  1.00  0.00     0.006 C 
BRANCH  12  13
ATOM     13  C   UNL     1       3.010  39.449  12.540  1.00  0.00     0.053 C 
BRANCH  13  14
ATOM     14  C   UNL     1       4.377  39.879  12.973  1.00  0.00     0.041 C 
ATOM     15  O   UNL     1       4.858  40.973  12.571  1.00  0.00    -0.550 OA
ATOM     16  O   UNL     1       5.136  39.052  13.793  1.00  0.00    -0.550 OA
ENDBRANCH  13  14
ENDBRANCH  12  13
ENDBRANCH  11  12
ENDBRANCH  10  11
ENDBRANCH   9  10
ENDBRANCH   8   9
ENDBRANCH   7   8
ENDBRANCH   6   7
ENDBRANCH   5   6
ENDBRANCH   4   5
ENDBRANCH   3   4
ENDBRANCH   2   3
ENDBRANCH   1   2
BRANCH   1  17
ATOM     17  C   UNL     1       4.117  43.856  10.678  1.00  0.00     0.000 C 
BRANCH  17  18
ATOM     18  C   UNL     1       3.904  45.224  11.353  1.00  0.00     0.000 C 
BRANCH  18  19
ATOM     19  C   UNL     1       4.480  46.393  10.541  1.00  0.00     0.000 C 
BRANCH  19  20
ATOM     20  C   UNL     1       3.505  47.581  10.531  1.00  0.00     0.000 C 
BRANCH  20  21
ATOM     21  C   UNL     1       2.665  47.657   9.246  1.00  0.00     0.000 C 
BRANCH  21  22
ATOM     22  C   UNL     1       3.507  47.451   7.975  1.00  0.00    -0.000 C 
BRANCH  22  23
ATOM     23  C   UNL     1       3.655  48.735   7.139  1.00  0.00    -0.000 C 
BRANCH  23  24
ATOM     24  C   UNL     1       2.611  49.827   7.435  1.00  0.00    -0.000 C 
BRANCH  24  25
ATOM     25  C   UNL     1       3.237  51.114   8.003  1.00  0.00    -0.000 C 
BRANCH  25  26
ATOM     26  C   UNL     1       4.747  50.980   8.255  1.00  0.00    -0.000 C 
BRANCH  26  27
ATOM     27  C   UNL     1       5.099  51.006   9.752  1.00  0.00    -0.000 C 
BRANCH  27  28
ATOM     28  C   UNL     1       6.097  49.903  10.151  1.00  0.00    -0.000 C 
BRANCH  28  29
ATOM     29  C   UNL     1       6.752  49.162   8.972  1.00  0.00    -0.003 C 
ATOM     30  C   UNL     1       7.202  47.747   9.333  1.00  0.00     0.004 C 
ENDBRANCH  28  29
ENDBRANCH  27  28
ENDBRANCH  26  27
ENDBRANCH  25  26
ENDBRANCH  24  25
ENDBRANCH  23  24
ENDBRANCH  22  23
ENDBRANCH  21  22
ENDBRANCH  20  21
ENDBRANCH  19  20
ENDBRANCH  18  19
ENDBRANCH  17  18
ENDBRANCH   1  17
TORSDOF 26
ENDMDL
MODEL 2
REMARK VINA RESULT:    -4.801      1.336      2.689
REMARK INTER + INTRA:         -16.135
REMARK INTER:                 -11.205
REMARK INTRA:                  -4.930
REMARK UNBOUND:                -4.037
REMARK SMILES CCCCCCCCCCCCCCCCCCCCCCCCCCCC(=O)[O-]
REMARK SMILES IDX 15 1 16 2 17 3 18 4 19 5 20 6 21 7 22 8 23 9 24 10 25 11
REMARK SMILES IDX 26 12 27 13 28 14 29 15 30 16 14 17 13 18 12 19 11 20 10 21
REMARK SMILES IDX 9 22 8 23 7 24 6 25 5 26 4 27 3 28 2 29 1 30
REMARK H PARENT
REMARK Flexibility Score: inf
ROOT
ATOM      1  C   UNL     1       4.351  46.261  10.316  1.00  0.00     0.000 C 
ENDROOT
BRANCH   1   2
ATOM      2  C   UNL     1       4.267  45.134  11.356  1.00  0.00     0.000 C 
BRANCH   2   3
ATOM      3  C   UNL     1       4.343  43.750  10.689  1.00  0.00     0.000 C 
BRANCH   3   4
ATOM      4  C   UNL     1       4.205  43.813   9.152  1.00  0.00     0.000 C 
BRANCH   4   5
ATOM      5  C   UNL     1       2.823  43.394   8.615  1.00  0.00     0.000 C 
BRANCH   5   6
ATOM      6  C   UNL     1       1.781  42.997   9.677  1.00  0.00     0.000 C 
BRANCH   6   7
ATOM      7  C   UNL     1       0.858  44.135  10.152  1.00  0.00     0.000 C 
BRANCH   7   8
ATOM      8  C   UNL     1       0.692  44.179  11.678  1.00  0.00     0.000 C 
BRANCH   8   9
ATOM      9  C   UNL     1       1.492  43.052  12.343  1.00  0.00     0.000 C 
BRANCH   9  10
ATOM     10  C   UNL     1       0.573  42.120  13.146  1.00  0.00     0.000 C 
BRANCH  10  11
ATOM     11  C   UNL     1       1.107  40.679  13.226  1.00  0.00     0.000 C 
BRANCH  11  12
ATOM     12  C   UNL     1       2.325  40.417  12.312  1.00  0.00     0.006 C 
BRANCH  12  13
ATOM     13  C   UNL     1       3.182  39.245  12.807  1.00  0.00     0.053 C 
BRANCH  13  14
ATOM     14  C   UNL     1       4.566  39.711  13.138  1.00  0.00     0.041 C 
ATOM     15  O   UNL     1       5.328  38.994  13.841  1.00  0.00    -0.550 OA
ATOM     16  O   UNL     1       5.001  40.957  12.701  1.00  0.00    -0.550 OA
ENDBRANCH  13  14
ENDBRANCH  12  13
ENDBRANCH  11  12
ENDBRANCH  10  11
ENDBRANCH   9  10
ENDBRANCH   8   9
ENDBRANCH   7   8
ENDBRANCH   6   7
ENDBRANCH   5   6
ENDBRANCH   4   5
ENDBRANCH   3   4
ENDBRANCH   2   3
ENDBRANCH   1   2
BRANCH   1  17
ATOM     17  C   UNL     1       3.460  47.471  10.662  1.00  0.00     0.000 C 
BRANCH  17  18
ATOM     18  C   UNL     1       2.196  47.625   9.795  1.00  0.00     0.000 C 
BRANCH  18  19
ATOM     19  C   UNL     1       2.389  47.130   8.354  1.00  0.00     0.000 C 
BRANCH  19  20
ATOM     20  C   UNL     1       1.038  46.770   7.718  1.00  0.00     0.000 C 
BRANCH  20  21
ATOM     21  C   UNL     1      -0.156  47.420   8.437  1.00  0.00     0.000 C 
BRANCH  21  22
ATOM     22  C   UNL     1      -0.959  48.359   7.521  1.00  0.00    -0.000 C 
BRANCH  22  23
ATOM     23  C   UNL     1      -0.718  49.848   7.829  1.00  0.00    -0.000 C 
BRANCH  23  24
ATOM     24  C   UNL     1       0.502  50.468   7.123  1.00  0.00    -0.000 C 
BRANCH  24  25
ATOM     25  C   UNL     1       1.614  50.880   8.106  1.00  0.00    -0.000 C 
BRANCH  25  26
ATOM     26  C   UNL     1       3.023  50.713   7.514  1.00  0.00    -0.000 C 
BRANCH  26  27
ATOM     27  C   UNL     1       4.104  50.571   8.598  1.00  0.00    -0.000 C 
BRANCH  27  28
ATOM     28  C   UNL     1       5.190  49.544   8.228  1.00  0.00    -0.000 C 
BRANCH  28  29
ATOM     29  C   UNL     1       6.372  49.463   9.211  1.00  0.00    -0.003 C 
ATOM     30  C   UNL     1       6.113  50.211  10.518  1.00  0.00     0.004 C 
ENDBRANCH  28  29
ENDBRANCH  27  28
ENDBRANCH  26  27
ENDBRANCH  25  26
ENDBRANCH  24  25
ENDBRANCH  23  24
ENDBRANCH  22  23
ENDBRANCH  21  22
ENDBRANCH  20  21
ENDBRANCH  19  20
ENDBRANCH  18  19
ENDBRANCH  17  18
ENDBRANCH   1  17
TORSDOF 26
ENDMDL
MODEL 3
REMARK VINA RESULT:    -4.767      1.336      3.798
REMARK INTER + INTRA:         -16.049
REMARK INTER:                 -12.344
REMARK INTRA:                  -3.705
REMARK UNBOUND:                -4.037
REMARK SMILES CCCCCCCCCCCCCCCCCCCCCCCCCCCC(=O)[O-]
REMARK SMILES IDX 15 1 16 2 17 3 18 4 19 5 20 6 21 7 22 8 23 9 24 10 25 11
REMARK SMILES IDX 26 12 27 13 28 14 29 15 30 16 14 17 13 18 12 19 11 20 10 21
REMARK SMILES IDX 9 22 8 23 7 24 6 25 5 26 4 27 3 28 2 29 1 30
REMARK H PARENT
REMARK Flexibility Score: inf
ROOT
ATOM      1  C   UNL     1       3.594  46.207   9.340  1.00  0.00     0.000 C 
ENDROOT
BRANCH   1   2
ATOM      2  C   UNL     1       3.740  46.064  10.863  1.00  0.00     0.000 C 
BRANCH   2   3
ATOM      3  C   UNL     1       4.078  44.618  11.259  1.00  0.00     0.000 C 
BRANCH   3   4
ATOM      4  C   UNL     1       3.865  43.611  10.107  1.00  0.00     0.000 C 
BRANCH   4   5
ATOM      5  C   UNL     1       2.532  42.840  10.168  1.00  0.00     0.000 C 
BRANCH   5   6
ATOM      6  C   UNL     1       1.417  43.490  11.010  1.00  0.00     0.000 C 
BRANCH   6   7
ATOM      7  C   UNL     1       1.221  42.895  12.416  1.00  0.00     0.000 C 
BRANCH   7   8
ATOM      8  C   UNL     1      -0.254  42.799  12.830  1.00  0.00     0.000 C 
BRANCH   8   9
ATOM      9  C   UNL     1      -0.509  41.518  13.633  1.00  0.00     0.000 C 
BRANCH   9  10
ATOM     10  C   UNL     1       0.809  40.821  13.998  1.00  0.00     0.000 C 
BRANCH  10  11
ATOM     11  C   UNL     1       0.829  39.335  13.599  1.00  0.00     0.000 C 
BRANCH  11  12
ATOM     12  C   UNL     1       2.111  38.912  12.849  1.00  0.00     0.006 C 
BRANCH  12  13
ATOM     13  C   UNL     1       2.919  40.117  12.350  1.00  0.00     0.053 C 
BRANCH  13  14
ATOM     14  C   UNL     1       4.328  40.048  12.851  1.00  0.00     0.041 C 
ATOM     15  O   UNL     1       5.126  41.000  12.639  1.00  0.00    -0.550 OA
ATOM     16  O   UNL     1       4.769  38.914  13.523  1.00  0.00    -0.550 OA
ENDBRANCH  13  14
ENDBRANCH  12  13
ENDBRANCH  11  12
ENDBRANCH  10  11
ENDBRANCH   9  10
ENDBRANCH   8   9
ENDBRANCH   7   8
ENDBRANCH   6   7
ENDBRANCH   5   6
ENDBRANCH   4   5
ENDBRANCH   3   4
ENDBRANCH   2   3
ENDBRANCH   1   2
BRANCH   1  17
ATOM     17  C   UNL     1       4.794  46.918   8.682  1.00  0.00     0.000 C 
BRANCH  17  18
ATOM     18  C   UNL     1       6.036  47.076   9.579  1.00  0.00     0.000 C 
BRANCH  18  19
ATOM     19  C   UNL     1       7.056  48.082   9.025  1.00  0.00     0.000 C 
BRANCH  19  20
ATOM     20  C   UNL     1       6.424  49.476   8.886  1.00  0.00     0.000 C 
BRANCH  20  21
ATOM     21  C   UNL     1       5.983  50.071  10.233  1.00  0.00     0.000 C 
BRANCH  21  22
ATOM     22  C   UNL     1       4.560  50.656  10.184  1.00  0.00    -0.000 C 
BRANCH  22  23
ATOM     23  C   UNL     1       3.509  49.729  10.820  1.00  0.00    -0.000 C 
BRANCH  23  24
ATOM     24  C   UNL     1       2.273  49.452   9.945  1.00  0.00    -0.000 C 
BRANCH  24  25
ATOM     25  C   UNL     1       2.460  49.905   8.486  1.00  0.00    -0.000 C 
BRANCH  25  26
ATOM     26  C   UNL     1       1.648  49.060   7.491  1.00  0.00    -0.000 C 
BRANCH  26  27
ATOM     27  C   UNL     1       0.157  48.990   7.858  1.00  0.00    -0.000 C 
BRANCH  27  28
ATOM     28  C   UNL     1      -0.448  47.591   7.636  1.00  0.00    -0.000 C 
BRANCH  28  29
ATOM     29  C   UNL     1       0.574  46.441   7.578  1.00  0.00    -0.003 C 
ATOM     30  C   UNL     1       0.023  45.126   8.125  1.00  0.00     0.004 C 
ENDBRANCH  28  29
ENDBRANCH  27  28
ENDBRANCH  26  27
ENDBRANCH  25  26
ENDBRANCH  24  25
ENDBRANCH  23  24
ENDBRANCH  22  23
ENDBRANCH  21  22
ENDBRANCH  20  21
ENDBRANCH  19  20
ENDBRANCH  18  19
ENDBRANCH  17  18
ENDBRANCH   1  17
TORSDOF 26
ENDMDL
MODEL 4
REMARK VINA RESULT:    -4.757      1.087      2.703
REMARK INTER + INTRA:         -16.024
REMARK INTER:                 -12.639
REMARK INTRA:                  -3.384
REMARK UNBOUND:                -4.037
REMARK SMILES CCCCCCCCCCCCCCCCCCCCCCCCCCCC(=O)[O-]
REMARK SMILES IDX 15 1 16 2 17 3 18 4 19 5 20 6 21 7 22 8 23 9 24 10 25 11
REMARK SMILES IDX 26 12 27 13 28 14 29 15 30 16 14 17 13 18 12 19 11 20 10 21
REMARK SMILES IDX 9 22 8 23 7 24 6 25 5 26 4 27 3 28 2 29 1 30
REMARK H PARENT
REMARK Flexibility Score: inf
ROOT
ATOM      1  C   UNL     1       1.383  43.774   9.074  1.00  0.00     0.000 C 
ENDROOT
BRANCH   1   2
ATOM      2  C   UNL     1       2.545  42.877   8.620  1.00  0.00     0.000 C 
BRANCH   2   3
ATOM      3  C   UNL     1       3.886  43.368   9.189  1.00  0.00     0.000 C 
BRANCH   3   4
ATOM      4  C   UNL     1       3.941  44.901   9.369  1.00  0.00     0.000 C 
BRANCH   4   5
ATOM      5  C   UNL     1       4.563  45.368  10.699  1.00  0.00     0.000 C 
BRANCH   5   6
ATOM      6  C   UNL     1       4.232  44.510  11.934  1.00  0.00     0.000 C 
BRANCH   6   7
ATOM      7  C   UNL     1       2.733  44.351  12.244  1.00  0.00     0.000 C 
BRANCH   7   8
ATOM      8  C   UNL     1       2.318  42.892  12.483  1.00  0.00     0.000 C 
BRANCH   8   9
ATOM      9  C   UNL     1       0.790  42.762  12.518  1.00  0.00     0.000 C 
BRANCH   9  10
ATOM     10  C   UNL     1       0.360  41.462  13.210  1.00  0.00     0.000 C 
BRANCH  10  11
ATOM     11  C   UNL     1       1.552  40.571  13.602  1.00  0.00     0.000 C 
BRANCH  11  12
ATOM     12  C   UNL     1       2.267  39.925  12.395  1.00  0.00     0.006 C 
BRANCH  12  13
ATOM     13  C   UNL     1       3.332  38.908  12.826  1.00  0.00     0.053 C 
BRANCH  13  14
ATOM     14  C   UNL     1       4.617  39.602  13.156  1.00  0.00     0.041 C 
ATOM     15  O   UNL     1       5.384  39.134  14.040  1.00  0.00    -0.550 OA
ATOM     16  O   UNL     1       4.949  40.788  12.511  1.00  0.00    -0.550 OA
ENDBRANCH  13  14
ENDBRANCH  12  13
ENDBRANCH  11  12
ENDBRANCH  10  11
ENDBRANCH   9  10
ENDBRANCH   8   9
ENDBRANCH   7   8
ENDBRANCH   6   7
ENDBRANCH   5   6
ENDBRANCH   4   5
ENDBRANCH   3   4
ENDBRANCH   2   3
ENDBRANCH   1   2
BRANCH   1  17
ATOM     17  C   UNL     1       0.484  44.234   7.908  1.00  0.00     0.000 C 
BRANCH  17  18
ATOM     18  C   UNL     1      -0.183  45.609   8.097  1.00  0.00     0.000 C 
BRANCH  18  19
ATOM     19  C   UNL     1       0.194  46.286   9.423  1.00  0.00     0.000 C 
BRANCH  19  20
ATOM     20  C   UNL     1       1.365  47.260   9.222  1.00  0.00     0.000 C 
BRANCH  20  21
ATOM     21  C   UNL     1       1.708  47.489   7.742  1.00  0.00     0.000 C 
BRANCH  21  22
ATOM     22  C   UNL     1       2.981  48.332   7.553  1.00  0.00    -0.000 C 
BRANCH  22  23
ATOM     23  C   UNL     1       2.680  49.800   7.198  1.00  0.00    -0.000 C 
BRANCH  23  24
ATOM     24  C   UNL     1       2.182  50.662   8.372  1.00  0.00    -0.000 C 
BRANCH  24  25
ATOM     25  C   UNL     1       3.285  50.964   9.403  1.00  0.00    -0.000 C 
BRANCH  25  26
ATOM     26  C   UNL     1       3.200  50.066  10.647  1.00  0.00    -0.000 C 
BRANCH  26  27
ATOM     27  C   UNL     1       4.325  49.019  10.696  1.00  0.00    -0.000 C 
BRANCH  27  28
ATOM     28  C   UNL     1       5.676  49.571  10.206  1.00  0.00    -0.000 C 
BRANCH  28  29
ATOM     29  C   UNL     1       6.265  48.855   8.977  1.00  0.00    -0.003 C 
ATOM     30  C   UNL     1       7.137  47.656   9.347  1.00  0.00     0.004 C 
ENDBRANCH  28  29
ENDBRANCH  27  28
ENDBRANCH  26  27
ENDBRANCH  25  26
ENDBRANCH  24  25
ENDBRANCH  23  24
ENDBRANCH  22  23
ENDBRANCH  21  22
ENDBRANCH  20  21
ENDBRANCH  19  20
ENDBRANCH  18  19
ENDBRANCH  17  18
ENDBRANCH   1  17
TORSDOF 26
ENDMDL
MODEL 5
REMARK VINA RESULT:    -4.638      1.548      3.605
REMARK INTER + INTRA:         -15.724
REMARK INTER:                 -11.408
REMARK INTRA:                  -4.315
REMARK UNBOUND:                -4.037
REMARK SMILES CCCCCCCCCCCCCCCCCCCCCCCCCCCC(=O)[O-]
REMARK SMILES IDX 15 1 16 2 17 3 18 4 19 5 20 6 21 7 22 8 23 9 24 10 25 11
REMARK SMILES IDX 26 12 27 13 28 14 29 15 30 16 14 17 13 18 12 19 11 20 10 21
REMARK SMILES IDX 9 22 8 23 7 24 6 25 5 26 4 27 3 28 2 29 1 30
REMARK H PARENT
REMARK Flexibility Score: inf
ROOT
ATOM      1  C   UNL     1      -0.298  45.995   9.199  1.00  0.00     0.000 C 
ENDROOT
BRANCH   1   2
ATOM      2  C   UNL     1       0.564  44.829   9.705  1.00  0.00     0.000 C 
BRANCH   2   3
ATOM      3  C   UNL     1       1.011  43.921   8.548  1.00  0.00     0.000 C 
BRANCH   3   4
ATOM      4  C   UNL     1       2.142  42.947   8.947  1.00  0.00     0.000 C 
BRANCH   4   5
ATOM      5  C   UNL     1       3.565  43.508   8.765  1.00  0.00     0.000 C 
BRANCH   5   6
ATOM      6  C   UNL     1       4.397  43.662  10.053  1.00  0.00     0.000 C 
BRANCH   6   7
ATOM      7  C   UNL     1       3.829  42.949  11.293  1.00  0.00     0.000 C 
BRANCH   7   8
ATOM      8  C   UNL     1       3.361  43.921  12.387  1.00  0.00     0.000 C 
BRANCH   8   9
ATOM      9  C   UNL     1       1.843  43.828  12.580  1.00  0.00     0.000 C 
BRANCH   9  10
ATOM     10  C   UNL     1       1.311  42.458  12.140  1.00  0.00     0.000 C 
BRANCH  10  11
ATOM     11  C   UNL     1       0.931  41.555  13.327  1.00  0.00     0.000 C 
BRANCH  11  12
ATOM     12  C   UNL     1       1.508  40.126  13.229  1.00  0.00     0.006 C 
BRANCH  12  13
ATOM     13  C   UNL     1       2.824  40.082  12.441  1.00  0.00     0.053 C 
BRANCH  13  14
ATOM     14  C   UNL     1       3.465  38.735  12.566  1.00  0.00     0.041 C 
ATOM     15  O   UNL     1       4.678  38.635  12.897  1.00  0.00    -0.550 OA
ATOM     16  O   UNL     1       2.731  37.589  12.282  1.00  0.00    -0.550 OA
ENDBRANCH  13  14
ENDBRANCH  12  13
ENDBRANCH  11  12
ENDBRANCH  10  11
ENDBRANCH   9  10
ENDBRANCH   8   9
ENDBRANCH   7   8
ENDBRANCH   6   7
ENDBRANCH   5   6
ENDBRANCH   4   5
ENDBRANCH   3   4
ENDBRANCH   2   3
ENDBRANCH   1   2
BRANCH   1  17
ATOM     17  C   UNL     1      -0.321  46.107   7.662  1.00  0.00     0.000 C 
BRANCH  17  18
ATOM     18  C   UNL     1      -0.355  47.544   7.108  1.00  0.00     0.000 C 
BRANCH  18  19
ATOM     19  C   UNL     1      -0.745  48.588   8.164  1.00  0.00     0.000 C 
BRANCH  19  20
ATOM     20  C   UNL     1      -0.638  50.009   7.590  1.00  0.00     0.000 C 
BRANCH  20  21
ATOM     21  C   UNL     1       0.781  50.358   7.113  1.00  0.00     0.000 C 
BRANCH  21  22
ATOM     22  C   UNL     1       1.678  50.876   8.251  1.00  0.00    -0.000 C 
BRANCH  22  23
ATOM     23  C   UNL     1       2.597  49.786   8.833  1.00  0.00    -0.000 C 
BRANCH  23  24
ATOM     24  C   UNL     1       3.208  48.829   7.794  1.00  0.00    -0.000 C 
BRANCH  24  25
ATOM     25  C   UNL     1       3.204  47.361   8.260  1.00  0.00    -0.000 C 
BRANCH  25  26
ATOM     26  C   UNL     1       3.174  47.222   9.790  1.00  0.00    -0.000 C 
BRANCH  26  27
ATOM     27  C   UNL     1       4.571  47.344  10.421  1.00  0.00    -0.000 C 
BRANCH  27  28
ATOM     28  C   UNL     1       5.695  46.879   9.477  1.00  0.00    -0.000 C 
BRANCH  28  29
ATOM     29  C   UNL     1       6.809  47.912   9.231  1.00  0.00    -0.003 C 
ATOM     30  C   UNL     1       6.427  49.320   9.684  1.00  0.00     0.004 C 
ENDBRANCH  28  29
ENDBRANCH  27  28
ENDBRANCH  26  27
ENDBRANCH  25  26
ENDBRANCH  24  25
ENDBRANCH  23  24
ENDBRANCH  22  23
ENDBRANCH  21  22
ENDBRANCH  20  21
ENDBRANCH  19  20
ENDBRANCH  18  19
ENDBRANCH  17  18
ENDBRANCH   1  17
TORSDOF 26
ENDMDL
MODEL 6
REMARK VINA RESULT:    -4.595      2.379      8.092
REMARK INTER + INTRA:         -15.616
REMARK INTER:                 -11.725
REMARK INTRA:                  -3.891
REMARK UNBOUND:                -4.037
REMARK SMILES CCCCCCCCCCCCCCCCCCCCCCCCCCCC(=O)[O-]
REMARK SMILES IDX 15 1 16 2 17 3 18 4 19 5 20 6 21 7 22 8 23 9 24 10 25 11
REMARK SMILES IDX 26 12 27 13 28 14 29 15 30 16 14 17 13 18 12 19 11 20 10 21
REMARK SMILES IDX 9 22 8 23 7 24 6 25 5 26 4 27 3 28 2 29 1 30
REMARK H PARENT
REMARK Flexibility Score: inf
ROOT
ATOM      1  C   UNL     1       5.640  47.015  10.045  1.00  0.00     0.000 C 
ENDROOT
BRANCH   1   2
ATOM      2  C   UNL     1       6.673  47.499   9.017  1.00  0.00     0.000 C 
BRANCH   2   3
ATOM      3  C   UNL     1       6.507  48.998   8.721  1.00  0.00     0.000 C 
BRANCH   3   4
ATOM      4  C   UNL     1       6.128  49.822   9.972  1.00  0.00     0.000 C 
BRANCH   4   5
ATOM      5  C   UNL     1       5.353  51.120   9.673  1.00  0.00     0.000 C 
BRANCH   5   6
ATOM      6  C   UNL     1       3.829  50.970   9.507  1.00  0.00     0.000 C 
BRANCH   6   7
ATOM      7  C   UNL     1       3.154  49.988  10.481  1.00  0.00     0.000 C 
BRANCH   7   8
ATOM      8  C   UNL     1       2.209  48.999   9.782  1.00  0.00     0.000 C 
BRANCH   8   9
ATOM      9  C   UNL     1       2.598  48.828   8.308  1.00  0.00     0.000 C 
BRANCH   9  10
ATOM     10  C   UNL     1       1.607  47.914   7.576  1.00  0.00     0.000 C 
BRANCH  10  11
ATOM     11  C   UNL     1       0.153  48.116   8.039  1.00  0.00     0.000 C 
BRANCH  11  12
ATOM     12  C   UNL     1      -0.640  46.799   8.189  1.00  0.00     0.006 C 
BRANCH  12  13
ATOM     13  C   UNL     1       0.064  45.616   7.511  1.00  0.00     0.053 C 
BRANCH  13  14
ATOM     14  C   UNL     1       0.467  44.593   8.528  1.00  0.00     0.041 C 
ATOM     15  O   UNL     1       0.243  44.792   9.753  1.00  0.00    -0.550 OA
ATOM     16  O   UNL     1       1.123  43.436   8.125  1.00  0.00    -0.550 OA
ENDBRANCH  13  14
ENDBRANCH  12  13
ENDBRANCH  11  12
ENDBRANCH  10  11
ENDBRANCH   9  10
ENDBRANCH   8   9
ENDBRANCH   7   8
ENDBRANCH   6   7
ENDBRANCH   5   6
ENDBRANCH   4   5
ENDBRANCH   3   4
ENDBRANCH   2   3
ENDBRANCH   1   2
BRANCH   1  17
ATOM     17  C   UNL     1       4.485  46.213   9.411  1.00  0.00     0.000 C 
BRANCH  17  18
ATOM     18  C   UNL     1       3.485  45.601  10.409  1.00  0.00     0.000 C 
BRANCH  18  19
ATOM     19  C   UNL     1       4.167  44.866  11.573  1.00  0.00     0.000 C 
BRANCH  19  20
ATOM     20  C   UNL     1       4.144  43.347  11.344  1.00  0.00     0.000 C 
BRANCH  20  21
ATOM     21  C   UNL     1       2.721  42.777  11.235  1.00  0.00     0.000 C 
BRANCH  21  22
ATOM     22  C   UNL     1       2.048  42.599  12.607  1.00  0.00    -0.000 C 
BRANCH  22  23
ATOM     23  C   UNL     1       0.512  42.542  12.518  1.00  0.00    -0.000 C 
BRANCH  23  24
ATOM     24  C   UNL     1      -0.168  41.664  13.584  1.00  0.00    -0.000 C 
BRANCH  24  25
ATOM     25  C   UNL     1       0.730  40.511  14.070  1.00  0.00    -0.000 C 
BRANCH  25  26
ATOM     26  C   UNL     1       0.465  39.195  13.322  1.00  0.00    -0.000 C 
BRANCH  26  27
ATOM     27  C   UNL     1       1.751  38.386  13.081  1.00  0.00    -0.000 C 
BRANCH  27  28
ATOM     28  C   UNL     1       2.831  39.190  12.333  1.00  0.00    -0.000 C 
BRANCH  28  29
ATOM     29  C   UNL     1       4.272  38.957  12.822  1.00  0.00    -0.003 C 
ATOM     30  C   UNL     1       4.950  40.237  13.310  1.00  0.00     0.004 C 
ENDBRANCH  28  29
ENDBRANCH  27  28
ENDBRANCH  26  27
ENDBRANCH  25  26
ENDBRANCH  24  25
ENDBRANCH  23  24
ENDBRANCH  22  23
ENDBRANCH  21  22
ENDBRANCH  20  21
ENDBRANCH  19  20
ENDBRANCH  18  19
ENDBRANCH  17  18
ENDBRANCH   1  17
TORSDOF 26
ENDMDL
MODEL 7
REMARK VINA RESULT:    -4.577      2.609      8.577
REMARK INTER + INTRA:         -15.571
REMARK INTER:                 -12.092
REMARK INTRA:                  -3.480
REMARK UNBOUND:                -4.037
REMARK SMILES CCCCCCCCCCCCCCCCCCCCCCCCCCCC(=O)[O-]
REMARK SMILES IDX 15 1 16 2 17 3 18 4 19 5 20 6 21 7 22 8 23 9 24 10 25 11
REMARK SMILES IDX 26 12 27 13 28 14 29 15 30 16 14 17 13 18 12 19 11 20 10 21
REMARK SMILES IDX 9 22 8 23 7 24 6 25 5 26 4 27 3 28 2 29 1 30
REMARK H PARENT
REMARK Flexibility Score: inf
ROOT
ATOM      1  C   UNL     1       3.647  45.786  10.856  1.00  0.00     0.000 C 
ENDROOT
BRANCH   1   2
ATOM      2  C   UNL     1       4.129  47.139  10.312  1.00  0.00     0.000 C 
BRANCH   2   3
ATOM      3  C   UNL     1       5.451  46.993   9.541  1.00  0.00     0.000 C 
BRANCH   3   4
ATOM      4  C   UNL     1       6.066  48.350   9.135  1.00  0.00     0.000 C 
BRANCH   4   5
ATOM      5  C   UNL     1       5.855  49.482  10.158  1.00  0.00     0.000 C 
BRANCH   5   6
ATOM      6  C   UNL     1       5.732  50.903   9.574  1.00  0.00     0.000 C 
BRANCH   6   7
ATOM      7  C   UNL     1       4.946  51.007   8.255  1.00  0.00     0.000 C 
BRANCH   7   8
ATOM      8  C   UNL     1       3.454  50.680   8.415  1.00  0.00     0.000 C 
BRANCH   8   9
ATOM      9  C   UNL     1       2.928  49.935   7.182  1.00  0.00     0.000 C 
BRANCH   9  10
ATOM     10  C   UNL     1       2.226  48.630   7.581  1.00  0.00     0.000 C 
BRANCH  10  11
ATOM     11  C   UNL     1       1.517  48.725   8.943  1.00  0.00     0.000 C 
BRANCH  11  12
ATOM     12  C   UNL     1       0.213  47.900   9.023  1.00  0.00     0.006 C 
BRANCH  12  13
ATOM     13  C   UNL     1       0.473  46.391   8.926  1.00  0.00     0.053 C 
BRANCH  13  14
ATOM     14  C   UNL     1      -0.099  45.842   7.656  1.00  0.00     0.041 C 
ATOM     15  O   UNL     1      -0.816  46.567   6.914  1.00  0.00    -0.550 OA
ATOM     16  O   UNL     1       0.130  44.515   7.310  1.00  0.00    -0.550 OA
ENDBRANCH  13  14
ENDBRANCH  12  13
ENDBRANCH  11  12
ENDBRANCH  10  11
ENDBRANCH   9  10
ENDBRANCH   8   9
ENDBRANCH   7   8
ENDBRANCH   6   7
ENDBRANCH   5   6
ENDBRANCH   4   5
ENDBRANCH   3   4
ENDBRANCH   2   3
ENDBRANCH   1   2
BRANCH   1  17
ATOM     17  C   UNL     1       4.559  44.611  10.450  1.00  0.00     0.000 C 
BRANCH  17  18
ATOM     18  C   UNL     1       3.944  43.619   9.445  1.00  0.00     0.000 C 
BRANCH  18  19
ATOM     19  C   UNL     1       2.458  43.335   9.710  1.00  0.00     0.000 C 
BRANCH  19  20
ATOM     20  C   UNL     1       2.295  42.278  10.813  1.00  0.00     0.000 C 
BRANCH  20  21
ATOM     21  C   UNL     1       1.941  42.886  12.180  1.00  0.00     0.000 C 
BRANCH  21  22
ATOM     22  C   UNL     1       0.486  42.606  12.594  1.00  0.00    -0.000 C 
BRANCH  22  23
ATOM     23  C   UNL     1       0.380  41.721  13.849  1.00  0.00    -0.000 C 
BRANCH  23  24
ATOM     24  C   UNL     1      -0.634  40.567  13.747  1.00  0.00    -0.000 C 
BRANCH  24  25
ATOM     25  C   UNL     1       0.030  39.212  13.443  1.00  0.00    -0.000 C 
BRANCH  25  26
ATOM     26  C   UNL     1       1.566  39.289  13.441  1.00  0.00    -0.000 C 
BRANCH  26  27
ATOM     27  C   UNL     1       2.207  38.230  12.529  1.00  0.00    -0.000 C 
BRANCH  27  28
ATOM     28  C   UNL     1       3.716  38.455  12.322  1.00  0.00    -0.000 C 
BRANCH  28  29
ATOM     29  C   UNL     1       4.386  39.373  13.359  1.00  0.00    -0.003 C 
ATOM     30  C   UNL     1       4.915  40.672  12.754  1.00  0.00     0.004 C 
ENDBRANCH  28  29
ENDBRANCH  27  28
ENDBRANCH  26  27
ENDBRANCH  25  26
ENDBRANCH  24  25
ENDBRANCH  23  24
ENDBRANCH  22  23
ENDBRANCH  21  22
ENDBRANCH  20  21
ENDBRANCH  19  20
ENDBRANCH  18  19
ENDBRANCH  17  18
ENDBRANCH   1  17
TORSDOF 26
ENDMDL
MODEL 8
REMARK VINA RESULT:    -4.556      2.589      8.049
REMARK INTER + INTRA:         -15.517
REMARK INTER:                 -12.064
REMARK INTRA:                  -3.453
REMARK UNBOUND:                -4.037
REMARK SMILES CCCCCCCCCCCCCCCCCCCCCCCCCCCC(=O)[O-]
REMARK SMILES IDX 15 1 16 2 17 3 18 4 19 5 20 6 21 7 22 8 23 9 24 10 25 11
REMARK SMILES IDX 26 12 27 13 28 14 29 15 30 16 14 17 13 18 12 19 11 20 10 21
REMARK SMILES IDX 9 22 8 23 7 24 6 25 5 26 4 27 3 28 2 29 1 30
REMARK H PARENT
REMARK Flexibility Score: inf
ROOT
ATOM      1  C   UNL     1       2.361  42.912   8.899  1.00  0.00     0.000 C 
ENDROOT
BRANCH   1   2
ATOM      2  C   UNL     1       1.254  43.942   9.170  1.00  0.00     0.000 C 
BRANCH   2   3
ATOM      3  C   UNL     1       0.458  44.256   7.893  1.00  0.00     0.000 C 
BRANCH   3   4
ATOM      4  C   UNL     1       0.073  45.748   7.773  1.00  0.00     0.000 C 
BRANCH   4   5
ATOM      5  C   UNL     1       0.958  46.706   8.593  1.00  0.00     0.000 C 
BRANCH   5   6
ATOM      6  C   UNL     1       0.426  48.143   8.751  1.00  0.00     0.000 C 
BRANCH   6   7
ATOM      7  C   UNL     1       0.601  49.050   7.519  1.00  0.00     0.000 C 
BRANCH   7   8
ATOM      8  C   UNL     1       1.044  50.476   7.878  1.00  0.00     0.000 C 
BRANCH   8   9
ATOM      9  C   UNL     1       2.348  50.835   7.155  1.00  0.00     0.000 C 
BRANCH   9  10
ATOM     10  C   UNL     1       3.539  50.823   8.122  1.00  0.00     0.000 C 
BRANCH  10  11
ATOM     11  C   UNL     1       3.146  50.406   9.550  1.00  0.00     0.000 C 
BRANCH  11  12
ATOM     12  C   UNL     1       3.997  49.247  10.114  1.00  0.00     0.006 C 
BRANCH  12  13
ATOM     13  C   UNL     1       4.564  48.348   9.008  1.00  0.00     0.053 C 
BRANCH  13  14
ATOM     14  C   UNL     1       6.060  48.340   9.055  1.00  0.00     0.041 C 
ATOM     15  O   UNL     1       6.676  47.362   9.558  1.00  0.00    -0.550 OA
ATOM     16  O   UNL     1       6.774  49.431   8.574  1.00  0.00    -0.550 OA
ENDBRANCH  13  14
ENDBRANCH  12  13
ENDBRANCH  11  12
ENDBRANCH  10  11
ENDBRANCH   9  10
ENDBRANCH   8   9
ENDBRANCH   7   8
ENDBRANCH   6   7
ENDBRANCH   5   6
ENDBRANCH   4   5
ENDBRANCH   3   4
ENDBRANCH   2   3
ENDBRANCH   1   2
BRANCH   1  17
ATOM     17  C   UNL     1       3.775  43.456   9.181  1.00  0.00     0.000 C 
BRANCH  17  18
ATOM     18  C   UNL     1       3.829  44.903   9.708  1.00  0.00     0.000 C 
BRANCH  18  19
ATOM     19  C   UNL     1       4.478  45.016  11.095  1.00  0.00     0.000 C 
BRANCH  19  20
ATOM     20  C   UNL     1       4.053  43.843  11.991  1.00  0.00     0.000 C 
BRANCH  20  21
ATOM     21  C   UNL     1       2.608  43.968  12.499  1.00  0.00     0.000 C 
BRANCH  21  22
ATOM     22  C   UNL     1       1.848  42.631  12.458  1.00  0.00    -0.000 C 
BRANCH  22  23
ATOM     23  C   UNL     1       0.327  42.801  12.631  1.00  0.00    -0.000 C 
BRANCH  23  24
ATOM     24  C   UNL     1      -0.355  41.714  13.483  1.00  0.00    -0.000 C 
BRANCH  24  25
ATOM     25  C   UNL     1       0.637  40.664  14.017  1.00  0.00    -0.000 C 
BRANCH  25  26
ATOM     26  C   UNL     1       0.382  39.260  13.445  1.00  0.00    -0.000 C 
BRANCH  26  27
ATOM     27  C   UNL     1       1.667  38.591  12.931  1.00  0.00    -0.000 C 
BRANCH  27  28
ATOM     28  C   UNL     1       2.799  39.600  12.662  1.00  0.00    -0.000 C 
BRANCH  28  29
ATOM     29  C   UNL     1       4.211  39.106  13.023  1.00  0.00    -0.003 C 
ATOM     30  C   UNL     1       5.210  40.245  13.218  1.00  0.00     0.004 C 
ENDBRANCH  28  29
ENDBRANCH  27  28
ENDBRANCH  26  27
ENDBRANCH  25  26
ENDBRANCH  24  25
ENDBRANCH  23  24
ENDBRANCH  22  23
ENDBRANCH  21  22
ENDBRANCH  20  21
ENDBRANCH  19  20
ENDBRANCH  18  19
ENDBRANCH  17  18
ENDBRANCH   1  17
TORSDOF 26
ENDMDL
MODEL 9
REMARK VINA RESULT:    -4.529      1.641      4.350
REMARK INTER + INTRA:         -15.449
REMARK INTER:                 -12.738
REMARK INTRA:                  -2.711
REMARK UNBOUND:                -4.037
REMARK SMILES CCCCCCCCCCCCCCCCCCCCCCCCCCCC(=O)[O-]
REMARK SMILES IDX 15 1 16 2 17 3 18 4 19 5 20 6 21 7 22 8 23 9 24 10 25 11
REMARK SMILES IDX 26 12 27 13 28 14 29 15 30 16 14 17 13 18 12 19 11 20 10 21
REMARK SMILES IDX 9 22 8 23 7 24 6 25 5 26 4 27 3 28 2 29 1 30
REMARK H PARENT
REMARK Flexibility Score: inf
ROOT
ATOM      1  C   UNL     1       5.015  46.873   9.314  1.00  0.00     0.000 C 
ENDROOT
BRANCH   1   2
ATOM      2  C   UNL     1       4.478  46.167  10.568  1.00  0.00     0.000 C 
BRANCH   2   3
ATOM      3  C   UNL     1       4.582  44.639  10.437  1.00  0.00     0.000 C 
BRANCH   3   4
ATOM      4  C   UNL     1       4.110  44.117   9.062  1.00  0.00     0.000 C 
BRANCH   4   5
ATOM      5  C   UNL     1       3.010  43.040   9.128  1.00  0.00     0.000 C 
BRANCH   5   6
ATOM      6  C   UNL     1       1.559  43.559   9.125  1.00  0.00     0.000 C 
BRANCH   6   7
ATOM      7  C   UNL     1       1.203  44.527  10.267  1.00  0.00     0.000 C 
BRANCH   7   8
ATOM      8  C   UNL     1       0.708  43.811  11.532  1.00  0.00     0.000 C 
BRANCH   8   9
ATOM      9  C   UNL     1       1.891  43.299  12.363  1.00  0.00     0.000 C 
BRANCH   9  10
ATOM     10  C   UNL     1       1.715  41.818  12.724  1.00  0.00     0.000 C 
BRANCH  10  11
ATOM     11  C   UNL     1       2.662  40.895  11.937  1.00  0.00     0.000 C 
BRANCH  11  12
ATOM     12  C   UNL     1       4.006  40.631  12.651  1.00  0.00     0.006 C 
BRANCH  12  13
ATOM     13  C   UNL     1       4.179  39.156  13.039  1.00  0.00     0.053 C 
BRANCH  13  14
ATOM     14  C   UNL     1       3.015  38.348  12.556  1.00  0.00     0.041 C 
ATOM     15  O   UNL     1       1.871  38.516  13.059  1.00  0.00    -0.550 OA
ATOM     16  O   UNL     1       3.202  37.381  11.575  1.00  0.00    -0.550 OA
ENDBRANCH  13  14
ENDBRANCH  12  13
ENDBRANCH  11  12
ENDBRANCH  10  11
ENDBRANCH   9  10
ENDBRANCH   8   9
ENDBRANCH   7   8
ENDBRANCH   6   7
ENDBRANCH   5   6
ENDBRANCH   4   5
ENDBRANCH   3   4
ENDBRANCH   2   3
ENDBRANCH   1   2
BRANCH   1  17
ATOM     17  C   UNL     1       6.531  47.152   9.379  1.00  0.00     0.000 C 
BRANCH  17  18
ATOM     18  C   UNL     1       6.927  48.640   9.353  1.00  0.00     0.000 C 
BRANCH  18  19
ATOM     19  C   UNL     1       6.096  49.468   8.361  1.00  0.00     0.000 C 
BRANCH  19  20
ATOM     20  C   UNL     1       5.885  50.896   8.887  1.00  0.00     0.000 C 
BRANCH  20  21
ATOM     21  C   UNL     1       4.483  51.117   9.475  1.00  0.00     0.000 C 
BRANCH  21  22
ATOM     22  C   UNL     1       4.120  50.078  10.550  1.00  0.00    -0.000 C 
BRANCH  22  23
ATOM     23  C   UNL     1       2.621  49.727  10.563  1.00  0.00    -0.000 C 
BRANCH  23  24
ATOM     24  C   UNL     1       2.070  49.182   9.234  1.00  0.00    -0.000 C 
BRANCH  24  25
ATOM     25  C   UNL     1       1.473  47.768   9.369  1.00  0.00    -0.000 C 
BRANCH  25  26
ATOM     26  C   UNL     1      -0.056  47.750   9.211  1.00  0.00    -0.000 C 
BRANCH  26  27
ATOM     27  C   UNL     1      -0.507  48.170   7.802  1.00  0.00    -0.000 C 
BRANCH  27  28
ATOM     28  C   UNL     1      -0.555  46.989   6.814  1.00  0.00    -0.000 C 
BRANCH  28  29
ATOM     29  C   UNL     1      -0.918  45.631   7.440  1.00  0.00    -0.003 C 
ATOM     30  C   UNL     1      -0.971  44.498   6.416  1.00  0.00     0.004 C 
ENDBRANCH  28  29
ENDBRANCH  27  28
ENDBRANCH  26  27
ENDBRANCH  25  26
ENDBRANCH  24  25
ENDBRANCH  23  24
ENDBRANCH  22  23
ENDBRANCH  21  22
ENDBRANCH  20  21
ENDBRANCH  19  20
ENDBRANCH  18  19
ENDBRANCH  17  18
ENDBRANCH   1  17
TORSDOF 26
ENDMDL
