MODEL 1
REMARK VINA RESULT:    -3.345      0.000      0.000
REMARK INTER + INTRA:          -4.209
REMARK INTER:                  -4.128
REMARK INTRA:                  -0.081
REMARK UNBOUND:                -0.081
REMARK SMILES CCCCCC(=O)[O-]
REMARK SMILES IDX 4 1 5 2 6 3 7 4 8 5 3 6 2 7 1 8
REMARK H PARENT
REMARK Flexibility Score: inf
ROOT
ATOM      1  C   UNL     1      -4.806  -8.333 -15.452  1.00  0.00     0.006 C 
ENDROOT
BRANCH   1   2
ATOM      2  C   UNL     1      -5.947  -8.677 -14.486  1.00  0.00     0.053 C 
BRANCH   2   3
ATOM      3  C   UNL     1      -6.709  -9.888 -14.933  1.00  0.00     0.041 C 
ATOM      4  O   UNL     1      -7.787 -10.203 -14.363  1.00  0.00    -0.550 OA
ATOM      5  O   UNL     1      -6.247 -10.646 -16.001  1.00  0.00    -0.550 OA
ENDBRANCH   2   3
ENDBRANCH   1   2
BRANCH   1   6
ATOM      6  C   UNL     1      -5.202  -7.231 -16.450  1.00  0.00     0.000 C 
BRANCH   6   7
ATOM      7  C   UNL     1      -4.046  -6.837 -17.382  1.00  0.00    -0.003 C 
ATOM      8  C   UNL     1      -4.109  -7.548 -18.734  1.00  0.00     0.004 C 
ENDBRANCH   6   7
ENDBRANCH   1   6
TORSDOF 4
ENDMDL
MODEL 2
REMARK VINA RESULT:    -3.307      2.946      4.356
REMARK INTER + INTRA:          -4.162
REMARK INTER:                  -4.077
REMARK INTRA:                  -0.085
REMARK UNBOUND:                -0.081
REMARK SMILES CCCCCC(=O)[O-]
REMARK SMILES IDX 4 1 5 2 6 3 7 4 8 5 3 6 2 7 1 8
REMARK H PARENT
REMARK Flexibility Score: inf
ROOT
ATOM      1  C   UNL     1      -4.676  -8.263 -15.626  1.00  0.00     0.006 C 
ENDROOT
BRANCH   1   2
ATOM      2  C   UNL     1      -4.991  -7.136 -16.618  1.00  0.00     0.053 C 
BRANCH   2   3
ATOM      3  C   UNL     1      -3.904  -6.970 -17.636  1.00  0.00     0.041 C 
ATOM      4  O   UNL     1      -4.149  -7.152 -18.858  1.00  0.00    -0.550 OA
ATOM      5  O   UNL     1      -2.632  -6.581 -17.239  1.00  0.00    -0.550 OA
ENDBRANCH   2   3
ENDBRANCH   1   2
BRANCH   1   6
ATOM      6  C   UNL     1      -5.842  -8.526 -14.656  1.00  0.00     0.000 C 
BRANCH   6   7
ATOM      7  C   UNL     1      -6.649  -9.779 -15.031  1.00  0.00    -0.003 C 
ATOM      8  C   UNL     1      -5.939 -10.648 -16.069  1.00  0.00     0.004 C 
ENDBRANCH   6   7
ENDBRANCH   1   6
TORSDOF 4
ENDMDL
MODEL 3
REMARK VINA RESULT:    -3.302     15.854     16.406
REMARK INTER + INTRA:          -4.156
REMARK INTER:                  -4.093
REMARK INTRA:                  -0.063
REMARK UNBOUND:                -0.081
REMARK SMILES CCCCCC(=O)[O-]
REMARK SMILES IDX 4 1 5 2 6 3 7 4 8 5 3 6 2 7 1 8
REMARK H PARENT
REMARK Flexibility Score: inf
ROOT
ATOM      1  C   UNL     1     -17.446  -1.217 -22.774  1.00  0.00     0.006 C 
ENDROOT
BRANCH   1   2
ATOM      2  C   UNL     1     -18.921  -1.548 -23.035  1.00  0.00     0.053 C 
BRANCH   2   3
ATOM      3  C   UNL     1     -19.435  -0.866 -24.266  1.00  0.00     0.041 C 
ATOM      4  O   UNL     1     -19.500   0.391 -24.312  1.00  0.00    -0.550 OA
ATOM      5  O   UNL     1     -19.807  -1.615 -25.374  1.00  0.00    -0.550 OA
ENDBRANCH   2   3
ENDBRANCH   1   2
BRANCH   1   6
ATOM      6  C   UNL     1     -17.182  -0.864 -21.299  1.00  0.00     0.000 C 
BRANCH   6   7
ATOM      7  C   UNL     1     -16.507  -2.011 -20.531  1.00  0.00    -0.003 C 
ATOM      8  C   UNL     1     -15.597  -1.513 -19.408  1.00  0.00     0.004 C 
ENDBRANCH   6   7
ENDBRANCH   1   6
TORSDOF 4
ENDMDL
MODEL 4
REMARK VINA RESULT:    -3.170      1.820      2.686
REMARK INTER + INTRA:          -3.992
REMARK INTER:                  -3.819
REMARK INTRA:                  -0.173
REMARK UNBOUND:                -0.081
REMARK SMILES CCCCCC(=O)[O-]
REMARK SMILES IDX 4 1 5 2 6 3 7 4 8 5 3 6 2 7 1 8
REMARK H PARENT
REMARK Flexibility Score: inf
ROOT
ATOM      1  C   UNL     1      -4.338  -6.815 -16.999  1.00  0.00     0.006 C 
ENDROOT
BRANCH   1   2
ATOM      2  C   UNL     1      -5.511  -7.525 -16.309  1.00  0.00     0.053 C 
BRANCH   2   3
ATOM      3  C   UNL     1      -5.073  -8.248 -15.072  1.00  0.00     0.041 C 
ATOM      4  O   UNL     1      -3.847  -8.407 -14.832  1.00  0.00    -0.550 OA
ATOM      5  O   UNL     1      -6.018  -8.714 -14.166  1.00  0.00    -0.550 OA
ENDBRANCH   2   3
ENDBRANCH   1   2
BRANCH   1   6
ATOM      6  C   UNL     1      -4.123  -7.313 -18.439  1.00  0.00     0.000 C 
BRANCH   6   7
ATOM      7  C   UNL     1      -2.637  -7.376 -18.824  1.00  0.00    -0.003 C 
ATOM      8  C   UNL     1      -1.721  -7.553 -17.613  1.00  0.00     0.004 C 
ENDBRANCH   6   7
ENDBRANCH   1   6
TORSDOF 4
ENDMDL
MODEL 5
REMARK VINA RESULT:    -3.144      2.326      2.901
REMARK INTER + INTRA:          -3.961
REMARK INTER:                  -3.683
REMARK INTRA:                  -0.278
REMARK UNBOUND:                -0.081
REMARK SMILES CCCCCC(=O)[O-]
REMARK SMILES IDX 4 1 5 2 6 3 7 4 8 5 3 6 2 7 1 8
REMARK H PARENT
REMARK Flexibility Score: inf
ROOT
ATOM      1  C   UNL     1      -5.339  -7.933 -16.151  1.00  0.00     0.006 C 
ENDROOT
BRANCH   1   2
ATOM      2  C   UNL     1      -4.691  -8.240 -14.794  1.00  0.00     0.053 C 
BRANCH   2   3
ATOM      3  C   UNL     1      -3.327  -8.838 -14.951  1.00  0.00     0.041 C 
ATOM      4  O   UNL     1      -3.176  -9.907 -15.599  1.00  0.00    -0.550 OA
ATOM      5  O   UNL     1      -2.219  -8.197 -14.413  1.00  0.00    -0.550 OA
ENDBRANCH   2   3
ENDBRANCH   1   2
BRANCH   1   6
ATOM      6  C   UNL     1      -4.514  -6.931 -16.976  1.00  0.00     0.000 C 
BRANCH   6   7
ATOM      7  C   UNL     1      -4.188  -7.454 -18.384  1.00  0.00    -0.003 C 
ATOM      8  C   UNL     1      -4.734  -8.860 -18.631  1.00  0.00     0.004 C 
ENDBRANCH   6   7
ENDBRANCH   1   6
TORSDOF 4
ENDMDL
MODEL 6
REMARK VINA RESULT:    -3.074     14.675     15.293
REMARK INTER + INTRA:          -3.874
REMARK INTER:                  -3.821
REMARK INTRA:                  -0.054
REMARK UNBOUND:                -0.081
REMARK SMILES CCCCCC(=O)[O-]
REMARK SMILES IDX 4 1 5 2 6 3 7 4 8 5 3 6 2 7 1 8
REMARK H PARENT
REMARK Flexibility Score: inf
ROOT
ATOM      1  C   UNL     1     -16.964  -0.849 -21.016  1.00  0.00     0.006 C 
ENDROOT
BRANCH   1   2
ATOM      2  C   UNL     1     -18.027  -1.361 -21.996  1.00  0.00     0.053 C 
BRANCH   2   3
ATOM      3  C   UNL     1     -18.027  -0.580 -23.275  1.00  0.00     0.041 C 
ATOM      4  O   UNL     1     -17.121   0.265 -23.500  1.00  0.00    -0.550 OA
ATOM      5  O   UNL     1     -19.005  -0.812 -24.233  1.00  0.00    -0.550 OA
ENDBRANCH   2   3
ENDBRANCH   1   2
BRANCH   1   6
ATOM      6  C   UNL     1     -16.442  -1.963 -20.091  1.00  0.00     0.000 C 
BRANCH   6   7
ATOM      7  C   UNL     1     -15.237  -1.515 -19.251  1.00  0.00    -0.003 C 
ATOM      8  C   UNL     1     -15.465  -1.693 -17.750  1.00  0.00     0.004 C 
ENDBRANCH   6   7
ENDBRANCH   1   6
TORSDOF 4
ENDMDL
MODEL 7
REMARK VINA RESULT:    -3.073      2.263      3.913
REMARK INTER + INTRA:          -3.873
REMARK INTER:                  -3.651
REMARK INTRA:                  -0.222
REMARK UNBOUND:                -0.081
REMARK SMILES CCCCCC(=O)[O-]
REMARK SMILES IDX 4 1 5 2 6 3 7 4 8 5 3 6 2 7 1 8
REMARK H PARENT
REMARK Flexibility Score: inf
ROOT
ATOM      1  C   UNL     1      -4.830  -7.184 -16.980  1.00  0.00     0.006 C 
ENDROOT
BRANCH   1   2
ATOM      2  C   UNL     1      -4.069  -7.541 -18.264  1.00  0.00     0.053 C 
BRANCH   2   3
ATOM      3  C   UNL     1      -4.163  -9.002 -18.579  1.00  0.00     0.041 C 
ATOM      4  O   UNL     1      -5.267  -9.507 -18.918  1.00  0.00    -0.550 OA
ATOM      5  O   UNL     1      -3.027  -9.799 -18.535  1.00  0.00    -0.550 OA
ENDBRANCH   2   3
ENDBRANCH   1   2
BRANCH   1   6
ATOM      6  C   UNL     1      -4.388  -8.046 -15.785  1.00  0.00     0.000 C 
BRANCH   6   7
ATOM      7  C   UNL     1      -5.553  -8.385 -14.841  1.00  0.00    -0.003 C 
ATOM      8  C   UNL     1      -6.321  -9.633 -15.277  1.00  0.00     0.004 C 
ENDBRANCH   6   7
ENDBRANCH   1   6
TORSDOF 4
ENDMDL
MODEL 8
REMARK VINA RESULT:    -3.071      2.201      3.155
REMARK INTER + INTRA:          -3.871
REMARK INTER:                  -3.641
REMARK INTRA:                  -0.229
REMARK UNBOUND:                -0.081
REMARK SMILES CCCCCC(=O)[O-]
REMARK SMILES IDX 4 1 5 2 6 3 7 4 8 5 3 6 2 7 1 8
REMARK H PARENT
REMARK Flexibility Score: inf
ROOT
ATOM      1  C   UNL     1      -3.505  -7.189 -17.761  1.00  0.00     0.006 C 
ENDROOT
BRANCH   1   2
ATOM      2  C   UNL     1      -4.712  -6.989 -16.834  1.00  0.00     0.053 C 
BRANCH   2   3
ATOM      3  C   UNL     1      -4.977  -8.201 -15.995  1.00  0.00     0.041 C 
ATOM      4  O   UNL     1      -5.321  -8.074 -14.790  1.00  0.00    -0.550 OA
ATOM      5  O   UNL     1      -4.878  -9.470 -16.552  1.00  0.00    -0.550 OA
ENDBRANCH   2   3
ENDBRANCH   1   2
BRANCH   1   6
ATOM      6  C   UNL     1      -2.204  -6.645 -17.145  1.00  0.00     0.000 C 
BRANCH   6   7
ATOM      7  C   UNL     1      -1.310  -7.760 -16.579  1.00  0.00    -0.003 C 
ATOM      8  C   UNL     1      -1.339  -7.819 -15.051  1.00  0.00     0.004 C 
ENDBRANCH   6   7
ENDBRANCH   1   6
TORSDOF 4
ENDMDL
MODEL 9
REMARK VINA RESULT:    -3.045     18.101     18.583
REMARK INTER + INTRA:          -3.838
REMARK INTER:                  -3.703
REMARK INTRA:                  -0.134
REMARK UNBOUND:                -0.081
REMARK SMILES CCCCCC(=O)[O-]
REMARK SMILES IDX 4 1 5 2 6 3 7 4 8 5 3 6 2 7 1 8
REMARK H PARENT
REMARK Flexibility Score: inf
ROOT
ATOM      1  C   UNL     1     -19.380   2.232 -23.369  1.00  0.00     0.006 C 
ENDROOT
BRANCH   1   2
ATOM      2  C   UNL     1     -19.716   0.875 -24.003  1.00  0.00     0.053 C 
BRANCH   2   3
ATOM      3  C   UNL     1     -18.625  -0.128 -23.784  1.00  0.00     0.041 C 
ATOM      4  O   UNL     1     -18.873  -1.360 -23.861  1.00  0.00    -0.550 OA
ATOM      5  O   UNL     1     -17.328   0.299 -23.530  1.00  0.00    -0.550 OA
ENDBRANCH   2   3
ENDBRANCH   1   2
BRANCH   1   6
ATOM      6  C   UNL     1     -19.179   3.333 -24.425  1.00  0.00     0.000 C 
BRANCH   6   7
ATOM      7  C   UNL     1     -17.698   3.673 -24.648  1.00  0.00    -0.003 C 
ATOM      8  C   UNL     1     -17.467   5.161 -24.911  1.00  0.00     0.004 C 
ENDBRANCH   6   7
ENDBRANCH   1   6
TORSDOF 4
ENDMDL
