MODEL 1
REMARK VINA RESULT:    -4.419      0.000      0.000
REMARK INTER + INTRA:          -4.710
REMARK INTER:                  -4.677
REMARK INTRA:                  -0.033
REMARK UNBOUND:                -0.033
REMARK SMILES COc1ccc2ccc(=O)oc2c1
REMARK SMILES IDX 3 1 13 2 12 3 6 4 5 5 4 6 7 7 8 8 9 9 10 10 11 11 2 12 1 13
REMARK H PARENT
REMARK Flexibility Score: inf
ROOT
ATOM      1  C   UNL     1       2.341  38.583   5.608  1.00  0.00     0.122 A 
ATOM      2  C   UNL     1       1.155  38.491   6.349  1.00  0.00     0.094 A 
ATOM      3  C   UNL     1       0.434  37.293   6.391  1.00  0.00     0.142 A 
ATOM      4  C   UNL     1       0.902  36.167   5.679  1.00  0.00     0.018 A 
ATOM      5  C   UNL     1       2.087  36.254   4.936  1.00  0.00     0.016 A 
ATOM      6  C   UNL     1       2.803  37.455   4.900  1.00  0.00     0.047 A 
ATOM      7  C   UNL     1       0.159  34.984   5.739  1.00  0.00     0.019 A 
ATOM      8  C   UNL     1      -1.014  34.950   6.493  1.00  0.00     0.094 A 
ATOM      9  C   UNL     1      -1.416  36.105   7.172  1.00  0.00     0.336 A 
ATOM     10  O   UNL     1      -2.473  36.094   7.858  1.00  0.00    -0.246 OA
ATOM     11  O   UNL     1      -0.691  37.218   7.098  1.00  0.00    -0.423 OA
ENDROOT
BRANCH   1  12
ATOM     12  O   UNL     1       3.026  39.807   5.601  1.00  0.00    -0.497 OA
ATOM     13  C   UNL     1       4.136  40.112   6.438  1.00  0.00     0.278 C 
ENDBRANCH   1  12
TORSDOF 1
ENDMDL
MODEL 2
REMARK VINA RESULT:    -4.367      1.155      4.747
REMARK INTER + INTRA:          -4.655
REMARK INTER:                  -4.624
REMARK INTRA:                  -0.031
REMARK UNBOUND:                -0.033
REMARK SMILES COc1ccc2ccc(=O)oc2c1
REMARK SMILES IDX 3 1 13 2 12 3 6 4 5 5 4 6 7 7 8 8 9 9 10 10 11 11 2 12 1 13
REMARK H PARENT
REMARK Flexibility Score: inf
ROOT
ATOM      1  C   UNL     1      -1.430  35.982   7.080  1.00  0.00     0.122 A 
ATOM      2  C   UNL     1      -0.795  37.212   6.857  1.00  0.00     0.094 A 
ATOM      3  C   UNL     1       0.371  37.281   6.087  1.00  0.00     0.142 A 
ATOM      4  C   UNL     1       0.914  36.103   5.530  1.00  0.00     0.018 A 
ATOM      5  C   UNL     1       0.284  34.871   5.750  1.00  0.00     0.016 A 
ATOM      6  C   UNL     1      -0.882  34.810   6.520  1.00  0.00     0.047 A 
ATOM      7  C   UNL     1       2.081  36.203   4.766  1.00  0.00     0.019 A 
ATOM      8  C   UNL     1       2.670  37.454   4.577  1.00  0.00     0.094 A 
ATOM      9  C   UNL     1       2.074  38.578   5.160  1.00  0.00     0.336 A 
ATOM     10  O   UNL     1       2.591  39.715   5.002  1.00  0.00    -0.246 OA
ATOM     11  O   UNL     1       0.965  38.454   5.883  1.00  0.00    -0.423 OA
ENDROOT
BRANCH   1  12
ATOM     12  O   UNL     1      -2.596  35.969   7.859  1.00  0.00    -0.497 OA
ATOM     13  C   UNL     1      -2.775  35.173   9.026  1.00  0.00     0.278 C 
ENDBRANCH   1  12
TORSDOF 1
ENDMDL
MODEL 3
REMARK VINA RESULT:    -4.258      1.310      1.787
REMARK INTER + INTRA:          -4.540
REMARK INTER:                  -4.500
REMARK INTRA:                  -0.039
REMARK UNBOUND:                -0.033
REMARK SMILES COc1ccc2ccc(=O)oc2c1
REMARK SMILES IDX 3 1 13 2 12 3 6 4 5 5 4 6 7 7 8 8 9 9 10 10 11 11 2 12 1 13
REMARK H PARENT
REMARK Flexibility Score: inf
ROOT
ATOM      1  C   UNL     1       1.915  36.880   5.578  1.00  0.00     0.122 A 
ATOM      2  C   UNL     1       0.901  37.629   6.191  1.00  0.00     0.094 A 
ATOM      3  C   UNL     1      -0.318  37.031   6.531  1.00  0.00     0.142 A 
ATOM      4  C   UNL     1      -0.529  35.663   6.254  1.00  0.00     0.018 A 
ATOM      5  C   UNL     1       0.482  34.910   5.642  1.00  0.00     0.016 A 
ATOM      6  C   UNL     1       1.697  35.514   5.306  1.00  0.00     0.047 A 
ATOM      7  C   UNL     1      -1.757  35.094   6.605  1.00  0.00     0.019 A 
ATOM      8  C   UNL     1      -2.730  35.888   7.212  1.00  0.00     0.094 A 
ATOM      9  C   UNL     1      -2.450  37.236   7.455  1.00  0.00     0.336 A 
ATOM     10  O   UNL     1      -3.316  37.969   8.002  1.00  0.00    -0.246 OA
ATOM     11  O   UNL     1      -1.274  37.753   7.111  1.00  0.00    -0.423 OA
ENDROOT
BRANCH   1  12
ATOM     12  O   UNL     1       3.118  37.528   5.259  1.00  0.00    -0.497 OA
ATOM     13  C   UNL     1       3.758  38.489   6.091  1.00  0.00     0.278 C 
ENDBRANCH   1  12
TORSDOF 1
ENDMDL
MODEL 4
REMARK VINA RESULT:    -4.114      1.869      4.568
REMARK INTER + INTRA:          -4.387
REMARK INTER:                  -4.354
REMARK INTRA:                  -0.033
REMARK UNBOUND:                -0.033
REMARK SMILES COc1ccc2ccc(=O)oc2c1
REMARK SMILES IDX 3 1 13 2 12 3 6 4 5 5 4 6 7 7 8 8 9 9 10 10 11 11 2 12 1 13
REMARK H PARENT
REMARK Flexibility Score: inf
ROOT
ATOM      1  C   UNL     1      -2.398  37.669   7.216  1.00  0.00     0.122 A 
ATOM      2  C   UNL     1      -1.120  38.138   6.879  1.00  0.00     0.094 A 
ATOM      3  C   UNL     1      -0.159  37.267   6.356  1.00  0.00     0.142 A 
ATOM      4  C   UNL     1      -0.476  35.905   6.166  1.00  0.00     0.018 A 
ATOM      5  C   UNL     1      -1.751  35.431   6.501  1.00  0.00     0.016 A 
ATOM      6  C   UNL     1      -2.707  36.308   7.022  1.00  0.00     0.047 A 
ATOM      7  C   UNL     1       0.506  35.058   5.642  1.00  0.00     0.019 A 
ATOM      8  C   UNL     1       1.761  35.580   5.325  1.00  0.00     0.094 A 
ATOM      9  C   UNL     1       2.003  36.940   5.540  1.00  0.00     0.336 A 
ATOM     10  O   UNL     1       3.129  37.430   5.261  1.00  0.00    -0.246 OA
ATOM     11  O   UNL     1       1.051  37.724   6.041  1.00  0.00    -0.423 OA
ENDROOT
BRANCH   1  12
ATOM     12  O   UNL     1      -3.325  38.585   7.736  1.00  0.00    -0.497 OA
ATOM     13  C   UNL     1      -3.545  38.804   9.126  1.00  0.00     0.278 C 
ENDBRANCH   1  12
TORSDOF 1
ENDMDL
MODEL 5
REMARK VINA RESULT:    -4.109      3.527      5.939
REMARK INTER + INTRA:          -4.382
REMARK INTER:                  -4.346
REMARK INTRA:                  -0.036
REMARK UNBOUND:                -0.033
REMARK SMILES COc1ccc2ccc(=O)oc2c1
REMARK SMILES IDX 3 1 13 2 12 3 6 4 5 5 4 6 7 7 8 8 9 9 10 10 11 11 2 12 1 13
REMARK H PARENT
REMARK Flexibility Score: inf
ROOT
ATOM      1  C   UNL     1       2.960  39.625   5.828  1.00  0.00     0.122 A 
ATOM      2  C   UNL     1       4.095  40.220   6.395  1.00  0.00     0.094 A 
ATOM      3  C   UNL     1       4.926  39.493   7.254  1.00  0.00     0.142 A 
ATOM      4  C   UNL     1       4.618  38.149   7.554  1.00  0.00     0.018 A 
ATOM      5  C   UNL     1       3.485  37.549   6.991  1.00  0.00     0.016 A 
ATOM      6  C   UNL     1       2.660  38.281   6.132  1.00  0.00     0.047 A 
ATOM      7  C   UNL     1       5.467  37.447   8.417  1.00  0.00     0.019 A 
ATOM      8  C   UNL     1       6.583  38.092   8.952  1.00  0.00     0.094 A 
ATOM      9  C   UNL     1       6.824  39.426   8.609  1.00  0.00     0.336 A 
ATOM     10  O   UNL     1       7.826  40.025   9.082  1.00  0.00    -0.246 OA
ATOM     11  O   UNL     1       6.000  40.070   7.786  1.00  0.00    -0.423 OA
ENDROOT
BRANCH   1  12
ATOM     12  O   UNL     1       2.161  40.398   4.973  1.00  0.00    -0.497 OA
ATOM     13  C   UNL     1       1.060  39.892   4.225  1.00  0.00     0.278 C 
ENDBRANCH   1  12
TORSDOF 1
ENDMDL
MODEL 6
REMARK VINA RESULT:    -4.081      2.494      3.746
REMARK INTER + INTRA:          -4.352
REMARK INTER:                  -4.314
REMARK INTRA:                  -0.038
REMARK UNBOUND:                -0.033
REMARK SMILES COc1ccc2ccc(=O)oc2c1
REMARK SMILES IDX 3 1 13 2 12 3 6 4 5 5 4 6 7 7 8 8 9 9 10 10 11 11 2 12 1 13
REMARK H PARENT
REMARK Flexibility Score: inf
ROOT
ATOM      1  C   UNL     1       5.123  39.142   7.139  1.00  0.00     0.122 A 
ATOM      2  C   UNL     1       4.202  38.091   7.240  1.00  0.00     0.094 A 
ATOM      3  C   UNL     1       3.388  37.752   6.155  1.00  0.00     0.142 A 
ATOM      4  C   UNL     1       3.493  38.475   4.947  1.00  0.00     0.018 A 
ATOM      5  C   UNL     1       4.412  39.527   4.840  1.00  0.00     0.016 A 
ATOM      6  C   UNL     1       5.223  39.859   5.929  1.00  0.00     0.047 A 
ATOM      7  C   UNL     1       2.665  38.113   3.879  1.00  0.00     0.019 A 
ATOM      8  C   UNL     1       1.767  37.058   4.037  1.00  0.00     0.094 A 
ATOM      9  C   UNL     1       1.718  36.388   5.263  1.00  0.00     0.336 A 
ATOM     10  O   UNL     1       0.913  35.433   5.426  1.00  0.00    -0.246 OA
ATOM     11  O   UNL     1       2.516  36.752   6.264  1.00  0.00    -0.423 OA
ENDROOT
BRANCH   1  12
ATOM     12  O   UNL     1       5.916  39.441   8.257  1.00  0.00    -0.497 OA
ATOM     13  C   UNL     1       6.651  38.475   9.002  1.00  0.00     0.278 C 
ENDBRANCH   1  12
TORSDOF 1
ENDMDL
MODEL 7
REMARK VINA RESULT:    -3.947     12.476     14.016
REMARK INTER + INTRA:          -4.211
REMARK INTER:                  -4.181
REMARK INTRA:                  -0.030
REMARK UNBOUND:                -0.033
REMARK SMILES COc1ccc2ccc(=O)oc2c1
REMARK SMILES IDX 3 1 13 2 12 3 6 4 5 5 4 6 7 7 8 8 9 9 10 10 11 11 2 12 1 13
REMARK H PARENT
REMARK Flexibility Score: inf
ROOT
ATOM      1  C   UNL     1      -4.270  47.035   8.810  1.00  0.00     0.122 A 
ATOM      2  C   UNL     1      -3.544  47.769   9.757  1.00  0.00     0.094 A 
ATOM      3  C   UNL     1      -3.889  49.094  10.047  1.00  0.00     0.142 A 
ATOM      4  C   UNL     1      -4.977  49.696   9.381  1.00  0.00     0.018 A 
ATOM      5  C   UNL     1      -5.707  48.967   8.433  1.00  0.00     0.016 A 
ATOM      6  C   UNL     1      -5.356  47.643   8.149  1.00  0.00     0.047 A 
ATOM      7  C   UNL     1      -5.298  51.022   9.691  1.00  0.00     0.019 A 
ATOM      8  C   UNL     1      -4.539  51.704  10.643  1.00  0.00     0.094 A 
ATOM      9  C   UNL     1      -3.475  51.042  11.262  1.00  0.00     0.336 A 
ATOM     10  O   UNL     1      -2.778  51.642  12.123  1.00  0.00    -0.246 OA
ATOM     11  O   UNL     1      -3.190  49.781  10.948  1.00  0.00    -0.423 OA
ENDROOT
BRANCH   1  12
ATOM     12  O   UNL     1      -3.883  45.711   8.557  1.00  0.00    -0.497 OA
ATOM     13  C   UNL     1      -4.674  44.568   8.869  1.00  0.00     0.278 C 
ENDBRANCH   1  12
TORSDOF 1
ENDMDL
MODEL 8
REMARK VINA RESULT:    -3.890     13.488     14.669
REMARK INTER + INTRA:          -4.151
REMARK INTER:                  -4.115
REMARK INTRA:                  -0.036
REMARK UNBOUND:                -0.033
REMARK SMILES COc1ccc2ccc(=O)oc2c1
REMARK SMILES IDX 3 1 13 2 12 3 6 4 5 5 4 6 7 7 8 8 9 9 10 10 11 11 2 12 1 13
REMARK H PARENT
REMARK Flexibility Score: inf
ROOT
ATOM      1  C   UNL     1      -3.674  51.884  11.193  1.00  0.00     0.122 A 
ATOM      2  C   UNL     1      -3.305  50.532  11.162  1.00  0.00     0.094 A 
ATOM      3  C   UNL     1      -3.893  49.655  10.244  1.00  0.00     0.142 A 
ATOM      4  C   UNL     1      -4.868  50.135   9.342  1.00  0.00     0.018 A 
ATOM      5  C   UNL     1      -5.240  51.485   9.369  1.00  0.00     0.016 A 
ATOM      6  C   UNL     1      -4.647  52.355  10.289  1.00  0.00     0.047 A 
ATOM      7  C   UNL     1      -5.438  49.235   8.436  1.00  0.00     0.019 A 
ATOM      8  C   UNL     1      -5.032  47.900   8.451  1.00  0.00     0.094 A 
ATOM      9  C   UNL     1      -4.062  47.497   9.373  1.00  0.00     0.336 A 
ATOM     10  O   UNL     1      -3.683  46.296   9.402  1.00  0.00    -0.246 OA
ATOM     11  O   UNL     1      -3.535  48.374  10.225  1.00  0.00    -0.423 OA
ENDROOT
BRANCH   1  12
ATOM     12  O   UNL     1      -3.053  52.720  12.133  1.00  0.00    -0.497 OA
ATOM     13  C   UNL     1      -3.116  52.530  13.543  1.00  0.00     0.278 C 
ENDBRANCH   1  12
TORSDOF 1
ENDMDL
MODEL 9
REMARK VINA RESULT:    -3.856      2.719      5.421
REMARK INTER + INTRA:          -4.114
REMARK INTER:                  -4.081
REMARK INTRA:                  -0.033
REMARK UNBOUND:                -0.033
REMARK SMILES COc1ccc2ccc(=O)oc2c1
REMARK SMILES IDX 3 1 13 2 12 3 6 4 5 5 4 6 7 7 8 8 9 9 10 10 11 11 2 12 1 13
REMARK H PARENT
REMARK Flexibility Score: inf
ROOT
ATOM      1  C   UNL     1       1.907  38.528   5.835  1.00  0.00     0.122 A 
ATOM      2  C   UNL     1       2.576  37.861   6.870  1.00  0.00     0.094 A 
ATOM      3  C   UNL     1       3.930  38.111   7.119  1.00  0.00     0.142 A 
ATOM      4  C   UNL     1       4.630  39.041   6.320  1.00  0.00     0.018 A 
ATOM      5  C   UNL     1       3.966  39.710   5.283  1.00  0.00     0.016 A 
ATOM      6  C   UNL     1       2.613  39.456   5.042  1.00  0.00     0.047 A 
ATOM      7  C   UNL     1       5.982  39.268   6.592  1.00  0.00     0.019 A 
ATOM      8  C   UNL     1       6.596  38.575   7.636  1.00  0.00     0.094 A 
ATOM      9  C   UNL     1       5.839  37.669   8.385  1.00  0.00     0.336 A 
ATOM     10  O   UNL     1       6.376  37.034   9.331  1.00  0.00    -0.246 OA
ATOM     11  O   UNL     1       4.554  37.470   8.105  1.00  0.00    -0.423 OA
ENDROOT
BRANCH   1  12
ATOM     12  O   UNL     1       0.550  38.242   5.629  1.00  0.00    -0.497 OA
ATOM     13  C   UNL     1      -0.524  38.997   6.181  1.00  0.00     0.278 C 
ENDBRANCH   1  12
TORSDOF 1
ENDMDL
