MODEL 1
REMARK VINA RESULT:    -3.244      0.000      0.000
REMARK INTER + INTRA:          -4.937
REMARK INTER:                  -4.381
REMARK INTRA:                  -0.555
REMARK UNBOUND:                -0.555
REMARK SMILES CCCCCCC=CC(=O)[O-]
REMARK SMILES IDX 5 1 6 2 7 3 8 4 9 5 10 6 11 7 4 8 3 9 2 10 1 11
REMARK H PARENT
REMARK Flexibility Score: inf
ROOT
ATOM      1  C   UNL     1       8.920  -5.259  -2.163  1.00  0.00     0.004 C 
ENDROOT
BRANCH   1   2
ATOM      2  C   UNL     1       9.872  -4.975  -0.995  1.00  0.00     0.027 C 
BRANCH   2   3
ATOM      3  C   UNL     1      11.158  -4.368  -1.477  1.00  0.00    -0.025 C 
ATOM      4  C   UNL     1      11.718  -4.742  -2.633  1.00  0.00     0.020 C 
BRANCH   4   5
ATOM      5  C   UNL     1      12.985  -4.172  -3.117  1.00  0.00     0.064 C 
ATOM      6  O   UNL     1      12.997  -3.220  -3.943  1.00  0.00    -0.545 OA
ATOM      7  O   UNL     1      14.187  -4.693  -2.659  1.00  0.00    -0.545 OA
ENDBRANCH   4   5
ENDBRANCH   2   3
ENDBRANCH   1   2
BRANCH   1   8
ATOM      8  C   UNL     1       7.736  -4.285  -2.157  1.00  0.00     0.000 C 
BRANCH   8   9
ATOM      9  C   UNL     1       8.047  -3.036  -2.996  1.00  0.00    -0.000 C 
BRANCH   9  10
ATOM     10  C   UNL     1       8.794  -3.368  -4.296  1.00  0.00    -0.003 C 
ATOM     11  C   UNL     1       7.866  -3.874  -5.399  1.00  0.00     0.004 C 
ENDBRANCH   9  10
ENDBRANCH   8   9
ENDBRANCH   1   8
TORSDOF 6
ENDMDL
MODEL 2
REMARK VINA RESULT:    -2.974      1.837      3.053
REMARK INTER + INTRA:          -4.572
REMARK INTER:                  -4.208
REMARK INTRA:                  -0.365
REMARK UNBOUND:                -0.555
REMARK SMILES CCCCCCC=CC(=O)[O-]
REMARK SMILES IDX 5 1 6 2 7 3 8 4 9 5 10 6 11 7 4 8 3 9 2 10 1 11
REMARK H PARENT
REMARK Flexibility Score: inf
ROOT
ATOM      1  C   UNL     1       9.029  -4.824  -1.530  1.00  0.00     0.004 C 
ENDROOT
BRANCH   1   2
ATOM      2  C   UNL     1      10.217  -5.341  -0.709  1.00  0.00     0.027 C 
BRANCH   2   3
ATOM      3  C   UNL     1      11.519  -4.835  -1.260  1.00  0.00    -0.025 C 
ATOM      4  C   UNL     1      11.663  -4.541  -2.557  1.00  0.00     0.020 C 
BRANCH   4   5
ATOM      5  C   UNL     1      12.933  -4.060  -3.121  1.00  0.00     0.064 C 
ATOM      6  O   UNL     1      12.954  -3.163  -4.007  1.00  0.00    -0.545 OA
ATOM      7  O   UNL     1      14.129  -4.603  -2.672  1.00  0.00    -0.545 OA
ENDBRANCH   4   5
ENDBRANCH   2   3
ENDBRANCH   1   2
BRANCH   1   8
ATOM      8  C   UNL     1       7.732  -5.535  -1.128  1.00  0.00     0.000 C 
BRANCH   8   9
ATOM      9  C   UNL     1       7.820  -6.071   0.309  1.00  0.00    -0.000 C 
BRANCH   9  10
ATOM     10  C   UNL     1       6.844  -5.366   1.264  1.00  0.00    -0.003 C 
ATOM     11  C   UNL     1       5.844  -4.473   0.532  1.00  0.00     0.004 C 
ENDBRANCH   9  10
ENDBRANCH   8   9
ENDBRANCH   1   8
TORSDOF 6
ENDMDL
MODEL 3
REMARK VINA RESULT:    -2.938      2.438      4.496
REMARK INTER + INTRA:          -4.524
REMARK INTER:                  -3.910
REMARK INTRA:                  -0.614
REMARK UNBOUND:                -0.555
REMARK SMILES CCCCCCC=CC(=O)[O-]
REMARK SMILES IDX 5 1 6 2 7 3 8 4 9 5 10 6 11 7 4 8 3 9 2 10 1 11
REMARK H PARENT
REMARK Flexibility Score: inf
ROOT
ATOM      1  C   UNL     1      11.415  -5.827  -1.013  1.00  0.00     0.004 C 
ENDROOT
BRANCH   1   2
ATOM      2  C   UNL     1       9.989  -5.361  -0.693  1.00  0.00     0.027 C 
BRANCH   2   3
ATOM      3  C   UNL     1       9.237  -5.015  -1.946  1.00  0.00    -0.025 C 
ATOM      4  C   UNL     1       9.150  -3.753  -2.383  1.00  0.00     0.020 C 
BRANCH   4   5
ATOM      5  C   UNL     1       8.405  -3.389  -3.599  1.00  0.00     0.064 C 
ATOM      6  O   UNL     1       9.006  -3.073  -4.661  1.00  0.00    -0.545 OA
ATOM      7  O   UNL     1       7.017  -3.391  -3.575  1.00  0.00    -0.545 OA
ENDBRANCH   4   5
ENDBRANCH   2   3
ENDBRANCH   1   2
BRANCH   1   8
ATOM      8  C   UNL     1      12.451  -4.818  -0.504  1.00  0.00     0.000 C 
BRANCH   8   9
ATOM      9  C   UNL     1      13.606  -4.662  -1.505  1.00  0.00    -0.000 C 
BRANCH   9  10
ATOM     10  C   UNL     1      13.186  -4.989  -2.947  1.00  0.00    -0.003 C 
ATOM     11  C   UNL     1      12.593  -3.785  -3.677  1.00  0.00     0.004 C 
ENDBRANCH   9  10
ENDBRANCH   8   9
ENDBRANCH   1   8
TORSDOF 6
ENDMDL
MODEL 4
REMARK VINA RESULT:    -2.902      1.375      3.039
REMARK INTER + INTRA:          -4.476
REMARK INTER:                  -3.976
REMARK INTRA:                  -0.499
REMARK UNBOUND:                -0.555
REMARK SMILES CCCCCCC=CC(=O)[O-]
REMARK SMILES IDX 5 1 6 2 7 3 8 4 9 5 10 6 11 7 4 8 3 9 2 10 1 11
REMARK H PARENT
REMARK Flexibility Score: inf
ROOT
ATOM      1  C   UNL     1       7.909  -3.390  -2.411  1.00  0.00     0.004 C 
ENDROOT
BRANCH   1   2
ATOM      2  C   UNL     1       8.570  -3.758  -3.746  1.00  0.00     0.027 C 
BRANCH   2   3
ATOM      3  C   UNL     1      10.045  -3.482  -3.716  1.00  0.00    -0.025 C 
ATOM      4  C   UNL     1      10.938  -4.468  -3.575  1.00  0.00     0.020 C 
BRANCH   4   5
ATOM      5  C   UNL     1      12.388  -4.219  -3.528  1.00  0.00     0.064 C 
ATOM      6  O   UNL     1      12.871  -3.114  -3.894  1.00  0.00    -0.545 OA
ATOM      7  O   UNL     1      13.237  -5.219  -3.074  1.00  0.00    -0.545 OA
ENDBRANCH   4   5
ENDBRANCH   2   3
ENDBRANCH   1   2
BRANCH   1   8
ATOM      8  C   UNL     1       7.017  -4.530  -1.906  1.00  0.00     0.000 C 
BRANCH   8   9
ATOM      9  C   UNL     1       7.848  -5.787  -1.607  1.00  0.00    -0.000 C 
BRANCH   9  10
ATOM     10  C   UNL     1       8.588  -5.700  -0.263  1.00  0.00    -0.003 C 
ATOM     11  C   UNL     1       7.645  -5.774   0.937  1.00  0.00     0.004 C 
ENDBRANCH   9  10
ENDBRANCH   8   9
ENDBRANCH   1   8
TORSDOF 6
ENDMDL
MODEL 5
REMARK VINA RESULT:    -2.841     10.656     12.302
REMARK INTER + INTRA:          -4.393
REMARK INTER:                  -3.750
REMARK INTRA:                  -0.643
REMARK UNBOUND:                -0.555
REMARK SMILES CCCCCCC=CC(=O)[O-]
REMARK SMILES IDX 5 1 6 2 7 3 8 4 9 5 10 6 11 7 4 8 3 9 2 10 1 11
REMARK H PARENT
REMARK Flexibility Score: inf
ROOT
ATOM      1  C   UNL     1       9.007   5.527 -10.280  1.00  0.00     0.004 C 
ENDROOT
BRANCH   1   2
ATOM      2  C   UNL     1      10.279   6.101  -9.643  1.00  0.00     0.027 C 
BRANCH   2   3
ATOM      3  C   UNL     1       9.973   7.323  -8.826  1.00  0.00    -0.025 C 
ATOM      4  C   UNL     1       9.253   7.250  -7.701  1.00  0.00     0.020 C 
BRANCH   4   5
ATOM      5  C   UNL     1       8.928   8.436  -6.893  1.00  0.00     0.064 C 
ATOM      6  O   UNL     1       7.733   8.799  -6.721  1.00  0.00    -0.545 OA
ATOM      7  O   UNL     1       9.954   9.169  -6.314  1.00  0.00    -0.545 OA
ENDBRANCH   4   5
ENDBRANCH   2   3
ENDBRANCH   1   2
BRANCH   1   8
ATOM      8  C   UNL     1       8.958   4.002 -10.132  1.00  0.00     0.000 C 
BRANCH   8   9
ATOM      9  C   UNL     1       8.442   3.600  -8.741  1.00  0.00    -0.000 C 
BRANCH   9  10
ATOM     10  C   UNL     1       9.495   2.842  -7.918  1.00  0.00    -0.003 C 
ATOM     11  C   UNL     1       9.884   3.576  -6.636  1.00  0.00     0.004 C 
ENDBRANCH   9  10
ENDBRANCH   8   9
ENDBRANCH   1   8
TORSDOF 6
ENDMDL
MODEL 6
REMARK VINA RESULT:    -2.832     12.194     13.915
REMARK INTER + INTRA:          -4.381
REMARK INTER:                  -3.766
REMARK INTRA:                  -0.615
REMARK UNBOUND:                -0.555
REMARK SMILES CCCCCCC=CC(=O)[O-]
REMARK SMILES IDX 5 1 6 2 7 3 8 4 9 5 10 6 11 7 4 8 3 9 2 10 1 11
REMARK H PARENT
REMARK Flexibility Score: inf
ROOT
ATOM      1  C   UNL     1      16.478   2.018   8.909  1.00  0.00     0.004 C 
ENDROOT
BRANCH   1   2
ATOM      2  C   UNL     1      16.097   1.926   7.426  1.00  0.00     0.027 C 
BRANCH   2   3
ATOM      3  C   UNL     1      15.818   0.507   7.024  1.00  0.00    -0.025 C 
ATOM      4  C   UNL     1      16.808  -0.359   6.782  1.00  0.00     0.020 C 
BRANCH   4   5
ATOM      5  C   UNL     1      16.557  -1.750   6.371  1.00  0.00     0.064 C 
ATOM      6  O   UNL     1      17.503  -2.577   6.261  1.00  0.00    -0.545 OA
ATOM      7  O   UNL     1      15.259  -2.157   6.097  1.00  0.00    -0.545 OA
ENDBRANCH   4   5
ENDBRANCH   2   3
ENDBRANCH   1   2
BRANCH   1   8
ATOM      8  C   UNL     1      17.709   2.910   9.107  1.00  0.00     0.000 C 
BRANCH   8   9
ATOM      9  C   UNL     1      18.064   3.653   7.810  1.00  0.00    -0.000 C 
BRANCH   9  10
ATOM     10  C   UNL     1      19.542   3.491   7.422  1.00  0.00    -0.003 C 
ATOM     11  C   UNL     1      19.867   2.091   6.904  1.00  0.00     0.004 C 
ENDBRANCH   9  10
ENDBRANCH   8   9
ENDBRANCH   1   8
TORSDOF 6
ENDMDL
MODEL 7
REMARK VINA RESULT:    -2.829     12.340     14.095
REMARK INTER + INTRA:          -4.377
REMARK INTER:                  -3.742
REMARK INTRA:                  -0.635
REMARK UNBOUND:                -0.555
REMARK SMILES CCCCCCC=CC(=O)[O-]
REMARK SMILES IDX 5 1 6 2 7 3 8 4 9 5 10 6 11 7 4 8 3 9 2 10 1 11
REMARK H PARENT
REMARK Flexibility Score: inf
ROOT
ATOM      1  C   UNL     1      17.526   2.774   8.891  1.00  0.00     0.004 C 
ENDROOT
BRANCH   1   2
ATOM      2  C   UNL     1      16.262   1.976   8.545  1.00  0.00     0.027 C 
BRANCH   2   3
ATOM      3  C   UNL     1      16.606   0.685   7.859  1.00  0.00    -0.025 C 
ATOM      4  C   UNL     1      15.913   0.249   6.801  1.00  0.00     0.020 C 
BRANCH   4   5
ATOM      5  C   UNL     1      16.222  -1.020   6.123  1.00  0.00     0.064 C 
ATOM      6  O   UNL     1      17.324  -1.193   5.536  1.00  0.00    -0.545 OA
ATOM      7  O   UNL     1      15.283  -2.042   6.128  1.00  0.00    -0.545 OA
ENDBRANCH   4   5
ENDBRANCH   2   3
ENDBRANCH   1   2
BRANCH   1   8
ATOM      8  C   UNL     1      17.987   3.619   7.698  1.00  0.00     0.000 C 
BRANCH   8   9
ATOM      9  C   UNL     1      19.512   3.542   7.525  1.00  0.00    -0.000 C 
BRANCH   9  10
ATOM     10  C   UNL     1      20.059   2.122   7.734  1.00  0.00    -0.003 C 
ATOM     11  C   UNL     1      20.012   1.277   6.462  1.00  0.00     0.004 C 
ENDBRANCH   9  10
ENDBRANCH   8   9
ENDBRANCH   1   8
TORSDOF 6
ENDMDL
MODEL 8
REMARK VINA RESULT:    -2.822     10.092     11.754
REMARK INTER + INTRA:          -4.368
REMARK INTER:                  -3.768
REMARK INTRA:                  -0.599
REMARK UNBOUND:                -0.555
REMARK SMILES CCCCCCC=CC(=O)[O-]
REMARK SMILES IDX 5 1 6 2 7 3 8 4 9 5 10 6 11 7 4 8 3 9 2 10 1 11
REMARK H PARENT
REMARK Flexibility Score: inf
ROOT
ATOM      1  C   UNL     1       9.811   6.089 -10.716  1.00  0.00     0.004 C 
ENDROOT
BRANCH   1   2
ATOM      2  C   UNL     1       8.628   5.113 -10.718  1.00  0.00     0.027 C 
BRANCH   2   3
ATOM      3  C   UNL     1       8.861   3.975  -9.767  1.00  0.00    -0.025 C 
ATOM      4  C   UNL     1       9.439   4.167  -8.575  1.00  0.00     0.020 C 
BRANCH   4   5
ATOM      5  C   UNL     1       9.691   3.064  -7.634  1.00  0.00     0.064 C 
ATOM      6  O   UNL     1       9.572   1.862  -7.992  1.00  0.00    -0.545 OA
ATOM      7  O   UNL     1      10.065   3.354  -6.329  1.00  0.00    -0.545 OA
ENDBRANCH   4   5
ENDBRANCH   2   3
ENDBRANCH   1   2
BRANCH   1   8
ATOM      8  C   UNL     1       9.429   7.416 -10.050  1.00  0.00     0.000 C 
BRANCH   8   9
ATOM      9  C   UNL     1      10.293   7.676  -8.806  1.00  0.00    -0.000 C 
BRANCH   9  10
ATOM     10  C   UNL     1       9.481   7.622  -7.502  1.00  0.00    -0.003 C 
ATOM     11  C   UNL     1       7.975   7.537  -7.746  1.00  0.00     0.004 C 
ENDBRANCH   9  10
ENDBRANCH   8   9
ENDBRANCH   1   8
TORSDOF 6
ENDMDL
MODEL 9
REMARK VINA RESULT:    -2.759      9.988     11.562
REMARK INTER + INTRA:          -4.282
REMARK INTER:                  -3.556
REMARK INTRA:                  -0.726
REMARK UNBOUND:                -0.555
REMARK SMILES CCCCCCC=CC(=O)[O-]
REMARK SMILES IDX 5 1 6 2 7 3 8 4 9 5 10 6 11 7 4 8 3 9 2 10 1 11
REMARK H PARENT
REMARK Flexibility Score: inf
ROOT
ATOM      1  C   UNL     1       9.941   7.324  -9.123  1.00  0.00     0.004 C 
ENDROOT
BRANCH   1   2
ATOM      2  C   UNL     1      10.207   5.956  -9.764  1.00  0.00     0.027 C 
BRANCH   2   3
ATOM      3  C   UNL     1       9.786   4.839  -8.854  1.00  0.00    -0.025 C 
ATOM      4  C   UNL     1       8.984   3.855  -9.278  1.00  0.00     0.020 C 
BRANCH   4   5
ATOM      5  C   UNL     1       8.547   2.759  -8.400  1.00  0.00     0.064 C 
ATOM      6  O   UNL     1       7.381   2.735  -7.919  1.00  0.00    -0.545 OA
ATOM      7  O   UNL     1       9.432   1.735  -8.093  1.00  0.00    -0.545 OA
ENDBRANCH   4   5
ENDBRANCH   2   3
ENDBRANCH   1   2
BRANCH   1   8
ATOM      8  C   UNL     1       9.663   7.183  -7.622  1.00  0.00     0.000 C 
BRANCH   8   9
ATOM      9  C   UNL     1       8.297   7.783  -7.256  1.00  0.00    -0.000 C 
BRANCH   9  10
ATOM     10  C   UNL     1       7.228   6.708  -7.005  1.00  0.00    -0.003 C 
ATOM     11  C   UNL     1       6.393   6.403  -8.247  1.00  0.00     0.004 C 
ENDBRANCH   9  10
ENDBRANCH   8   9
ENDBRANCH   1   8
TORSDOF 6
ENDMDL
