MODEL 1
REMARK VINA RESULT:    -3.993      0.000      0.000
REMARK INTER + INTRA:          -5.061
REMARK INTER:                  -4.926
REMARK INTRA:                  -0.134
REMARK UNBOUND:                -0.134
REMARK SMILES CCCCCC(=O)[O-]
REMARK SMILES IDX 4 1 5 2 6 3 7 4 8 5 3 6 2 7 1 8
REMARK H PARENT
REMARK Flexibility Score: inf
ROOT
ATOM      1  C   UNL     1      -6.436  60.790  54.044  1.00  0.00     0.006 C 
ENDROOT
BRANCH   1   2
ATOM      2  C   UNL     1      -6.191  61.044  55.534  1.00  0.00     0.053 C 
BRANCH   2   3
ATOM      3  C   UNL     1      -5.815  59.773  56.229  1.00  0.00     0.041 C 
ATOM      4  O   UNL     1      -6.569  58.766  56.160  1.00  0.00    -0.550 OA
ATOM      5  O   UNL     1      -4.659  59.716  56.995  1.00  0.00    -0.550 OA
ENDBRANCH   2   3
ENDBRANCH   1   2
BRANCH   1   6
ATOM      6  C   UNL     1      -7.704  61.510  53.565  1.00  0.00     0.000 C 
BRANCH   6   7
ATOM      7  C   UNL     1      -7.988  62.797  54.355  1.00  0.00    -0.003 C 
ATOM      8  C   UNL     1      -7.770  64.061  53.525  1.00  0.00     0.004 C 
ENDBRANCH   6   7
ENDBRANCH   1   6
TORSDOF 4
ENDMDL
MODEL 2
REMARK VINA RESULT:    -3.972     16.119     17.138
REMARK INTER + INTRA:          -5.035
REMARK INTER:                  -4.866
REMARK INTRA:                  -0.169
REMARK UNBOUND:                -0.134
REMARK SMILES CCCCCC(=O)[O-]
REMARK SMILES IDX 4 1 5 2 6 3 7 4 8 5 3 6 2 7 1 8
REMARK H PARENT
REMARK Flexibility Score: inf
ROOT
ATOM      1  C   UNL     1     -13.995  60.506  39.901  1.00  0.00     0.006 C 
ENDROOT
BRANCH   1   2
ATOM      2  C   UNL     1     -12.572  59.945  39.963  1.00  0.00     0.053 C 
BRANCH   2   3
ATOM      3  C   UNL     1     -11.571  61.056  40.016  1.00  0.00     0.041 C 
ATOM      4  O   UNL     1     -10.730  61.108  40.952  1.00  0.00    -0.550 OA
ATOM      5  O   UNL     1     -11.599  62.063  39.060  1.00  0.00    -0.550 OA
ENDBRANCH   2   3
ENDBRANCH   1   2
BRANCH   1   6
ATOM      6  C   UNL     1     -14.589  60.344  38.494  1.00  0.00     0.000 C 
BRANCH   6   7
ATOM      7  C   UNL     1     -15.556  61.480  38.125  1.00  0.00    -0.003 C 
ATOM      8  C   UNL     1     -14.960  62.866  38.370  1.00  0.00     0.004 C 
ENDBRANCH   6   7
ENDBRANCH   1   6
TORSDOF 4
ENDMDL
MODEL 3
REMARK VINA RESULT:    -3.969      3.319      4.609
REMARK INTER + INTRA:          -5.031
REMARK INTER:                  -4.959
REMARK INTRA:                  -0.072
REMARK UNBOUND:                -0.134
REMARK SMILES CCCCCC(=O)[O-]
REMARK SMILES IDX 4 1 5 2 6 3 7 4 8 5 3 6 2 7 1 8
REMARK H PARENT
REMARK Flexibility Score: inf
ROOT
ATOM      1  C   UNL     1      -7.650  61.421  53.620  1.00  0.00     0.006 C 
ENDROOT
BRANCH   1   2
ATOM      2  C   UNL     1      -7.832  62.814  54.228  1.00  0.00     0.053 C 
BRANCH   2   3
ATOM      3  C   UNL     1      -7.405  63.870  53.258  1.00  0.00     0.041 C 
ATOM      4  O   UNL     1      -8.175  64.829  52.985  1.00  0.00    -0.550 OA
ATOM      5  O   UNL     1      -6.178  63.770  52.616  1.00  0.00    -0.550 OA
ENDBRANCH   2   3
ENDBRANCH   1   2
BRANCH   1   6
ATOM      6  C   UNL     1      -6.364  60.760  54.136  1.00  0.00     0.000 C 
BRANCH   6   7
ATOM      7  C   UNL     1      -6.332  60.643  55.668  1.00  0.00    -0.003 C 
ATOM      8  C   UNL     1      -6.176  59.200  56.148  1.00  0.00     0.004 C 
ENDBRANCH   6   7
ENDBRANCH   1   6
TORSDOF 4
ENDMDL
MODEL 4
REMARK VINA RESULT:    -3.955     16.148     17.142
REMARK INTER + INTRA:          -5.014
REMARK INTER:                  -4.830
REMARK INTRA:                  -0.184
REMARK UNBOUND:                -0.134
REMARK SMILES CCCCCC(=O)[O-]
REMARK SMILES IDX 4 1 5 2 6 3 7 4 8 5 3 6 2 7 1 8
REMARK H PARENT
REMARK Flexibility Score: inf
ROOT
ATOM      1  C   UNL     1     -13.469  60.060  38.848  1.00  0.00     0.006 C 
ENDROOT
BRANCH   1   2
ATOM      2  C   UNL     1     -12.519  60.052  40.048  1.00  0.00     0.053 C 
BRANCH   2   3
ATOM      3  C   UNL     1     -11.514  61.155  39.931  1.00  0.00     0.041 C 
ATOM      4  O   UNL     1     -11.671  62.067  39.077  1.00  0.00    -0.550 OA
ATOM      5  O   UNL     1     -10.378  61.148  40.729  1.00  0.00    -0.550 OA
ENDBRANCH   2   3
ENDBRANCH   1   2
BRANCH   1   6
ATOM      6  C   UNL     1     -14.884  60.482  39.270  1.00  0.00     0.000 C 
BRANCH   6   7
ATOM      7  C   UNL     1     -15.553  61.413  38.247  1.00  0.00    -0.003 C 
ATOM      8  C   UNL     1     -15.027  62.847  38.319  1.00  0.00     0.004 C 
ENDBRANCH   6   7
ENDBRANCH   1   6
TORSDOF 4
ENDMDL
MODEL 5
REMARK VINA RESULT:    -3.921     16.672     17.711
REMARK INTER + INTRA:          -4.972
REMARK INTER:                  -4.847
REMARK INTRA:                  -0.125
REMARK UNBOUND:                -0.134
REMARK SMILES CCCCCC(=O)[O-]
REMARK SMILES IDX 4 1 5 2 6 3 7 4 8 5 3 6 2 7 1 8
REMARK H PARENT
REMARK Flexibility Score: inf
ROOT
ATOM      1  C   UNL     1     -14.779  60.389  38.763  1.00  0.00     0.006 C 
ENDROOT
BRANCH   1   2
ATOM      2  C   UNL     1     -13.312  59.958  38.702  1.00  0.00     0.053 C 
BRANCH   2   3
ATOM      3  C   UNL     1     -12.664  60.111  40.043  1.00  0.00     0.041 C 
ATOM      4  O   UNL     1     -13.304  59.834  41.091  1.00  0.00    -0.550 OA
ATOM      5  O   UNL     1     -11.371  60.608  40.137  1.00  0.00    -0.550 OA
ENDBRANCH   2   3
ENDBRANCH   1   2
BRANCH   1   6
ATOM      6  C   UNL     1     -14.918  61.902  38.538  1.00  0.00     0.000 C 
BRANCH   6   7
ATOM      7  C   UNL     1     -16.272  62.287  37.922  1.00  0.00    -0.003 C 
ATOM      8  C   UNL     1     -17.282  61.140  37.951  1.00  0.00     0.004 C 
ENDBRANCH   6   7
ENDBRANCH   1   6
TORSDOF 4
ENDMDL
MODEL 6
REMARK VINA RESULT:    -3.847     11.687     12.900
REMARK INTER + INTRA:          -4.881
REMARK INTER:                  -4.764
REMARK INTRA:                  -0.118
REMARK UNBOUND:                -0.134
REMARK SMILES CCCCCC(=O)[O-]
REMARK SMILES IDX 4 1 5 2 6 3 7 4 8 5 3 6 2 7 1 8
REMARK H PARENT
REMARK Flexibility Score: inf
ROOT
ATOM      1  C   UNL     1     -11.399  51.114  53.625  1.00  0.00     0.006 C 
ENDROOT
BRANCH   1   2
ATOM      2  C   UNL     1     -12.271  49.885  53.895  1.00  0.00     0.053 C 
BRANCH   2   3
ATOM      3  C   UNL     1     -13.375  49.793  52.889  1.00  0.00     0.041 C 
ATOM      4  O   UNL     1     -13.234  50.302  51.745  1.00  0.00    -0.550 OA
ATOM      5  O   UNL     1     -14.579  49.192  53.231  1.00  0.00    -0.550 OA
ENDBRANCH   2   3
ENDBRANCH   1   2
BRANCH   1   6
ATOM      6  C   UNL     1     -10.000  50.939  54.234  1.00  0.00     0.000 C 
BRANCH   6   7
ATOM      7  C   UNL     1      -9.754  49.513  54.750  1.00  0.00    -0.003 C 
ATOM      8  C   UNL     1      -8.274  49.131  54.750  1.00  0.00     0.004 C 
ENDBRANCH   6   7
ENDBRANCH   1   6
TORSDOF 4
ENDMDL
MODEL 7
REMARK VINA RESULT:    -3.826     16.789     17.649
REMARK INTER + INTRA:          -4.855
REMARK INTER:                  -4.702
REMARK INTRA:                  -0.153
REMARK UNBOUND:                -0.134
REMARK SMILES CCCCCC(=O)[O-]
REMARK SMILES IDX 4 1 5 2 6 3 7 4 8 5 3 6 2 7 1 8
REMARK H PARENT
REMARK Flexibility Score: inf
ROOT
ATOM      1  C   UNL     1     -13.047  60.082  40.088  1.00  0.00     0.006 C 
ENDROOT
BRANCH   1   2
ATOM      2  C   UNL     1     -13.522  60.012  38.634  1.00  0.00     0.053 C 
BRANCH   2   3
ATOM      3  C   UNL     1     -14.865  60.655  38.488  1.00  0.00     0.041 C 
ATOM      4  O   UNL     1     -14.956  61.894  38.285  1.00  0.00    -0.550 OA
ATOM      5  O   UNL     1     -16.019  59.894  38.627  1.00  0.00    -0.550 OA
ENDBRANCH   2   3
ENDBRANCH   1   2
BRANCH   1   6
ATOM      6  C   UNL     1     -11.636  60.680  40.176  1.00  0.00     0.000 C 
BRANCH   6   7
ATOM      7  C   UNL     1     -11.471  61.940  39.312  1.00  0.00    -0.003 C 
ATOM      8  C   UNL     1     -10.011  62.362  39.154  1.00  0.00     0.004 C 
ENDBRANCH   6   7
ENDBRANCH   1   6
TORSDOF 4
ENDMDL
MODEL 8
REMARK VINA RESULT:    -3.746     11.628     12.545
REMARK INTER + INTRA:          -4.756
REMARK INTER:                  -4.640
REMARK INTRA:                  -0.116
REMARK UNBOUND:                -0.134
REMARK SMILES CCCCCC(=O)[O-]
REMARK SMILES IDX 4 1 5 2 6 3 7 4 8 5 3 6 2 7 1 8
REMARK H PARENT
REMARK Flexibility Score: inf
ROOT
ATOM      1  C   UNL     1     -12.188  49.861  54.366  1.00  0.00     0.006 C 
ENDROOT
BRANCH   1   2
ATOM      2  C   UNL     1     -10.841  49.290  54.817  1.00  0.00     0.053 C 
BRANCH   2   3
ATOM      3  C   UNL     1      -9.720  50.179  54.378  1.00  0.00     0.041 C 
ATOM      4  O   UNL     1      -8.534  49.755  54.385  1.00  0.00    -0.550 OA
ATOM      5  O   UNL     1      -9.978  51.493  54.009  1.00  0.00    -0.550 OA
ENDBRANCH   2   3
ENDBRANCH   1   2
BRANCH   1   6
ATOM      6  C   UNL     1     -13.136  48.740  53.916  1.00  0.00     0.000 C 
BRANCH   6   7
ATOM      7  C   UNL     1     -13.952  49.120  52.670  1.00  0.00    -0.003 C 
ATOM      8  C   UNL     1     -13.309  50.249  51.864  1.00  0.00     0.004 C 
ENDBRANCH   6   7
ENDBRANCH   1   6
TORSDOF 4
ENDMDL
MODEL 9
REMARK VINA RESULT:    -3.744     15.497     16.549
REMARK INTER + INTRA:          -4.753
REMARK INTER:                  -4.635
REMARK INTRA:                  -0.118
REMARK UNBOUND:                -0.134
REMARK SMILES CCCCCC(=O)[O-]
REMARK SMILES IDX 4 1 5 2 6 3 7 4 8 5 3 6 2 7 1 8
REMARK H PARENT
REMARK Flexibility Score: inf
ROOT
ATOM      1  C   UNL     1     -11.851  60.797  40.400  1.00  0.00     0.006 C 
ENDROOT
BRANCH   1   2
ATOM      2  C   UNL     1     -11.384  61.786  39.329  1.00  0.00     0.053 C 
BRANCH   2   3
ATOM      3  C   UNL     1     -10.082  62.410  39.723  1.00  0.00     0.041 C 
ATOM      4  O   UNL     1      -9.531  62.094  40.810  1.00  0.00    -0.550 OA
ATOM      5  O   UNL     1      -9.502  63.378  38.913  1.00  0.00    -0.550 OA
ENDBRANCH   2   3
ENDBRANCH   1   2
BRANCH   1   6
ATOM      6  C   UNL     1     -12.629  59.632  39.771  1.00  0.00     0.000 C 
BRANCH   6   7
ATOM      7  C   UNL     1     -13.636  60.099  38.707  1.00  0.00    -0.003 C 
ATOM      8  C   UNL     1     -14.974  60.528  39.308  1.00  0.00     0.004 C 
ENDBRANCH   6   7
ENDBRANCH   1   6
TORSDOF 4
ENDMDL
