MODEL 1
REMARK VINA RESULT:    -5.444      0.000      0.000
REMARK INTER + INTRA:         -18.865
REMARK INTER:                 -14.355
REMARK INTRA:                  -4.509
REMARK UNBOUND:                -4.509
REMARK SMILES CCCCCCCCCCCCCCCCCCCCCCCCCCCCCC(=O)[O-]
REMARK SMILES IDX 16 1 17 2 18 3 19 4 20 5 21 6 22 7 23 8 24 9 25 10 26 11
REMARK SMILES IDX 27 12 28 13 29 14 30 15 31 16 32 17 15 18 14 19 13 20 12 21
REMARK SMILES IDX 11 22 10 23 9 24 8 25 7 26 6 27 5 28 4 29 3 30 2 31 1 32
REMARK H PARENT
REMARK Flexibility Score: inf
ROOT
ATOM      1  C   UNL     1      18.573  -0.008  20.197  1.00  0.00     0.000 C 
ENDROOT
BRANCH   1   2
ATOM      2  C   UNL     1      17.396  -0.221  21.162  1.00  0.00     0.000 C 
BRANCH   2   3
ATOM      3  C   UNL     1      16.148  -0.782  20.462  1.00  0.00     0.000 C 
BRANCH   3   4
ATOM      4  C   UNL     1      16.315  -0.875  18.938  1.00  0.00     0.000 C 
BRANCH   4   5
ATOM      5  C   UNL     1      15.211  -1.741  18.317  1.00  0.00     0.000 C 
BRANCH   5   6
ATOM      6  C   UNL     1      15.544  -3.233  18.444  1.00  0.00     0.000 C 
BRANCH   6   7
ATOM      7  C   UNL     1      16.029  -3.807  17.107  1.00  0.00     0.000 C 
BRANCH   7   8
ATOM      8  C   UNL     1      15.527  -5.245  16.913  1.00  0.00     0.000 C 
BRANCH   8   9
ATOM      9  C   UNL     1      16.345  -6.024  15.872  1.00  0.00     0.000 C 
BRANCH   9  10
ATOM     10  C   UNL     1      15.530  -7.124  15.177  1.00  0.00     0.000 C 
BRANCH  10  11
ATOM     11  C   UNL     1      16.448  -8.063  14.380  1.00  0.00     0.000 C 
BRANCH  11  12
ATOM     12  C   UNL     1      17.936  -7.861  14.705  1.00  0.00     0.000 C 
BRANCH  12  13
ATOM     13  C   UNL     1      18.857  -8.717  13.820  1.00  0.00     0.006 C 
BRANCH  13  14
ATOM     14  C   UNL     1      18.461 -10.196  13.883  1.00  0.00     0.053 C 
BRANCH  14  15
ATOM     15  C   UNL     1      19.361 -11.029  13.024  1.00  0.00     0.041 C 
ATOM     16  O   UNL     1      18.961 -12.130  12.564  1.00  0.00    -0.550 OA
ATOM     17  O   UNL     1      20.649 -10.593  12.739  1.00  0.00    -0.550 OA
ENDBRANCH  14  15
ENDBRANCH  13  14
ENDBRANCH  12  13
ENDBRANCH  11  12
ENDBRANCH  10  11
ENDBRANCH   9  10
ENDBRANCH   8   9
ENDBRANCH   7   8
ENDBRANCH   6   7
ENDBRANCH   5   6
ENDBRANCH   4   5
ENDBRANCH   3   4
ENDBRANCH   2   3
ENDBRANCH   1   2
BRANCH   1  18
ATOM     18  C   UNL     1      19.725   0.729  20.897  1.00  0.00     0.000 C 
BRANCH  18  19
ATOM     19  C   UNL     1      21.097   0.093  20.620  1.00  0.00     0.000 C 
BRANCH  19  20
ATOM     20  C   UNL     1      21.509  -0.924  21.698  1.00  0.00     0.000 C 
BRANCH  20  21
ATOM     21  C   UNL     1      21.903  -2.288  21.106  1.00  0.00     0.000 C 
BRANCH  21  22
ATOM     22  C   UNL     1      21.109  -3.452  21.732  1.00  0.00     0.000 C 
BRANCH  22  23
ATOM     23  C   UNL     1      19.669  -3.064  22.115  1.00  0.00     0.000 C 
BRANCH  23  24
ATOM     24  C   UNL     1      18.582  -3.545  21.136  1.00  0.00    -0.000 C 
BRANCH  24  25
ATOM     25  C   UNL     1      18.955  -4.857  20.424  1.00  0.00    -0.000 C 
BRANCH  25  26
ATOM     26  C   UNL     1      18.975  -4.722  18.894  1.00  0.00    -0.000 C 
BRANCH  26  27
ATOM     27  C   UNL     1      19.340  -3.302  18.432  1.00  0.00    -0.000 C 
BRANCH  27  28
ATOM     28  C   UNL     1      20.690  -3.243  17.700  1.00  0.00    -0.000 C 
BRANCH  28  29
ATOM     29  C   UNL     1      21.642  -4.378  18.117  1.00  0.00    -0.000 C 
BRANCH  29  30
ATOM     30  C   UNL     1      22.025  -5.285  16.927  1.00  0.00    -0.000 C 
BRANCH  30  31
ATOM     31  C   UNL     1      20.979  -6.371  16.623  1.00  0.00    -0.003 C 
ATOM     32  C   UNL     1      21.582  -7.622  15.988  1.00  0.00     0.004 C 
ENDBRANCH  30  31
ENDBRANCH  29  30
ENDBRANCH  28  29
ENDBRANCH  27  28
ENDBRANCH  26  27
ENDBRANCH  25  26
ENDBRANCH  24  25
ENDBRANCH  23  24
ENDBRANCH  22  23
ENDBRANCH  21  22
ENDBRANCH  20  21
ENDBRANCH  19  20
ENDBRANCH  18  19
ENDBRANCH   1  18
TORSDOF 28
ENDMDL
MODEL 2
REMARK VINA RESULT:    -5.320      3.987      7.489
REMARK INTER + INTRA:         -18.537
REMARK INTER:                 -14.940
REMARK INTRA:                  -3.596
REMARK UNBOUND:                -4.509
REMARK SMILES CCCCCCCCCCCCCCCCCCCCCCCCCCCCCC(=O)[O-]
REMARK SMILES IDX 16 1 17 2 18 3 19 4 20 5 21 6 22 7 23 8 24 9 25 10 26 11
REMARK SMILES IDX 27 12 28 13 29 14 30 15 31 16 32 17 15 18 14 19 13 20 12 21
REMARK SMILES IDX 11 22 10 23 9 24 8 25 7 26 6 27 5 28 4 29 3 30 2 31 1 32
REMARK H PARENT
REMARK Flexibility Score: inf
ROOT
ATOM      1  C   UNL     1      20.573  -6.788  16.610  1.00  0.00     0.000 C 
ENDROOT
BRANCH   1   2
ATOM      2  C   UNL     1      20.585  -7.861  15.510  1.00  0.00     0.000 C 
BRANCH   2   3
ATOM      3  C   UNL     1      19.173  -8.282  15.074  1.00  0.00     0.000 C 
BRANCH   3   4
ATOM      4  C   UNL     1      19.115  -8.725  13.605  1.00  0.00     0.000 C 
BRANCH   4   5
ATOM      5  C   UNL     1      20.206  -9.760  13.300  1.00  0.00     0.000 C 
BRANCH   5   6
ATOM      6  C   UNL     1      19.592 -11.122  12.953  1.00  0.00     0.000 C 
BRANCH   6   7
ATOM      7  C   UNL     1      18.158 -10.965  12.432  1.00  0.00     0.000 C 
BRANCH   7   8
ATOM      8  C   UNL     1      17.983 -11.677  11.083  1.00  0.00     0.000 C 
BRANCH   8   9
ATOM      9  C   UNL     1      18.069 -13.206  11.203  1.00  0.00     0.000 C 
BRANCH   9  10
ATOM     10  C   UNL     1      17.925 -13.919   9.851  1.00  0.00     0.000 C 
BRANCH  10  11
ATOM     11  C   UNL     1      17.721 -12.902   8.718  1.00  0.00     0.000 C 
BRANCH  11  12
ATOM     12  C   UNL     1      18.775 -13.026   7.607  1.00  0.00     0.000 C 
BRANCH  12  13
ATOM     13  C   UNL     1      18.196 -13.589   6.300  1.00  0.00     0.006 C 
BRANCH  13  14
ATOM     14  C   UNL     1      18.652 -15.035   6.074  1.00  0.00     0.053 C 
BRANCH  14  15
ATOM     15  C   UNL     1      18.974 -15.277   4.632  1.00  0.00     0.041 C 
ATOM     16  O   UNL     1      18.660 -16.365   4.083  1.00  0.00    -0.550 OA
ATOM     17  O   UNL     1      19.635 -14.302   3.895  1.00  0.00    -0.550 OA
ENDBRANCH  14  15
ENDBRANCH  13  14
ENDBRANCH  12  13
ENDBRANCH  11  12
ENDBRANCH  10  11
ENDBRANCH   9  10
ENDBRANCH   8   9
ENDBRANCH   7   8
ENDBRANCH   6   7
ENDBRANCH   5   6
ENDBRANCH   4   5
ENDBRANCH   3   4
ENDBRANCH   2   3
ENDBRANCH   1   2
BRANCH   1  18
ATOM     18  C   UNL     1      21.887  -5.991  16.609  1.00  0.00     0.000 C 
BRANCH  18  19
ATOM     19  C   UNL     1      21.745  -4.604  17.259  1.00  0.00     0.000 C 
BRANCH  19  20
ATOM     20  C   UNL     1      21.094  -4.666  18.652  1.00  0.00     0.000 C 
BRANCH  20  21
ATOM     21  C   UNL     1      21.713  -3.662  19.639  1.00  0.00     0.000 C 
BRANCH  21  22
ATOM     22  C   UNL     1      20.685  -3.125  20.654  1.00  0.00     0.000 C 
BRANCH  22  23
ATOM     23  C   UNL     1      19.483  -4.067  20.853  1.00  0.00     0.000 C 
BRANCH  23  24
ATOM     24  C   UNL     1      18.127  -3.363  21.044  1.00  0.00    -0.000 C 
BRANCH  24  25
ATOM     25  C   UNL     1      17.091  -3.760  19.977  1.00  0.00    -0.000 C 
BRANCH  25  26
ATOM     26  C   UNL     1      17.601  -4.854  19.026  1.00  0.00    -0.000 C 
BRANCH  26  27
ATOM     27  C   UNL     1      17.424  -4.477  17.546  1.00  0.00    -0.000 C 
BRANCH  27  28
ATOM     28  C   UNL     1      17.372  -2.958  17.322  1.00  0.00    -0.000 C 
BRANCH  28  29
ATOM     29  C   UNL     1      18.738  -2.366  16.932  1.00  0.00    -0.000 C 
BRANCH  29  30
ATOM     30  C   UNL     1      19.209  -1.282  17.925  1.00  0.00    -0.000 C 
BRANCH  30  31
ATOM     31  C   UNL     1      18.054  -0.501  18.573  1.00  0.00    -0.003 C 
ATOM     32  C   UNL     1      18.427   0.112  19.921  1.00  0.00     0.004 C 
ENDBRANCH  30  31
ENDBRANCH  29  30
ENDBRANCH  28  29
ENDBRANCH  27  28
ENDBRANCH  26  27
ENDBRANCH  25  26
ENDBRANCH  24  25
ENDBRANCH  23  24
ENDBRANCH  22  23
ENDBRANCH  21  22
ENDBRANCH  20  21
ENDBRANCH  19  20
ENDBRANCH  18  19
ENDBRANCH   1  18
TORSDOF 28
ENDMDL
MODEL 3
REMARK VINA RESULT:    -5.185      3.123      6.390
REMARK INTER + INTRA:         -18.180
REMARK INTER:                 -14.945
REMARK INTRA:                  -3.235
REMARK UNBOUND:                -4.509
REMARK SMILES CCCCCCCCCCCCCCCCCCCCCCCCCCCCCC(=O)[O-]
REMARK SMILES IDX 16 1 17 2 18 3 19 4 20 5 21 6 22 7 23 8 24 9 25 10 26 11
REMARK SMILES IDX 27 12 28 13 29 14 30 15 31 16 32 17 15 18 14 19 13 20 12 21
REMARK SMILES IDX 11 22 10 23 9 24 8 25 7 26 6 27 5 28 4 29 3 30 2 31 1 32
REMARK H PARENT
REMARK Flexibility Score: inf
ROOT
ATOM      1  C   UNL     1      21.930  -4.495  17.193  1.00  0.00     0.000 C 
ENDROOT
BRANCH   1   2
ATOM      2  C   UNL     1      22.141  -5.850  16.500  1.00  0.00     0.000 C 
BRANCH   2   3
ATOM      3  C   UNL     1      20.925  -6.780  16.631  1.00  0.00     0.000 C 
BRANCH   3   4
ATOM      4  C   UNL     1      20.892  -7.868  15.547  1.00  0.00     0.000 C 
BRANCH   4   5
ATOM      5  C   UNL     1      19.448  -8.213  15.160  1.00  0.00     0.000 C 
BRANCH   5   6
ATOM      6  C   UNL     1      19.413  -9.175  13.966  1.00  0.00     0.000 C 
BRANCH   6   7
ATOM      7  C   UNL     1      18.033  -9.180  13.299  1.00  0.00     0.000 C 
BRANCH   7   8
ATOM      8  C   UNL     1      17.880 -10.386  12.362  1.00  0.00     0.000 C 
BRANCH   8   9
ATOM      9  C   UNL     1      18.953 -11.461  12.597  1.00  0.00     0.000 C 
BRANCH   9  10
ATOM     10  C   UNL     1      18.764 -12.696  11.705  1.00  0.00     0.000 C 
BRANCH  10  11
ATOM     11  C   UNL     1      18.112 -12.310  10.369  1.00  0.00     0.000 C 
BRANCH  11  12
ATOM     12  C   UNL     1      18.154 -13.444   9.333  1.00  0.00     0.000 C 
BRANCH  12  13
ATOM     13  C   UNL     1      17.343 -13.122   8.068  1.00  0.00     0.006 C 
BRANCH  13  14
ATOM     14  C   UNL     1      17.789 -13.997   6.891  1.00  0.00     0.053 C 
BRANCH  14  15
ATOM     15  C   UNL     1      18.638 -13.218   5.935  1.00  0.00     0.041 C 
ATOM     16  O   UNL     1      18.409 -13.264   4.698  1.00  0.00    -0.550 OA
ATOM     17  O   UNL     1      19.692 -12.448   6.410  1.00  0.00    -0.550 OA
ENDBRANCH  14  15
ENDBRANCH  13  14
ENDBRANCH  12  13
ENDBRANCH  11  12
ENDBRANCH  10  11
ENDBRANCH   9  10
ENDBRANCH   8   9
ENDBRANCH   7   8
ENDBRANCH   6   7
ENDBRANCH   5   6
ENDBRANCH   4   5
ENDBRANCH   3   4
ENDBRANCH   2   3
ENDBRANCH   1   2
BRANCH   1  18
ATOM     18  C   UNL     1      21.179  -4.673  18.522  1.00  0.00     0.000 C 
BRANCH  18  19
ATOM     19  C   UNL     1      21.759  -3.811  19.656  1.00  0.00     0.000 C 
BRANCH  19  20
ATOM     20  C   UNL     1      21.120  -2.414  19.726  1.00  0.00     0.000 C 
BRANCH  20  21
ATOM     21  C   UNL     1      20.042  -2.311  20.818  1.00  0.00     0.000 C 
BRANCH  21  22
ATOM     22  C   UNL     1      20.058  -3.517  21.777  1.00  0.00     0.000 C 
BRANCH  22  23
ATOM     23  C   UNL     1      18.763  -4.350  21.722  1.00  0.00     0.000 C 
BRANCH  23  24
ATOM     24  C   UNL     1      17.689  -3.823  20.752  1.00  0.00    -0.000 C 
BRANCH  24  25
ATOM     25  C   UNL     1      17.674  -4.574  19.410  1.00  0.00    -0.000 C 
BRANCH  25  26
ATOM     26  C   UNL     1      16.505  -4.158  18.505  1.00  0.00    -0.000 C 
BRANCH  26  27
ATOM     27  C   UNL     1      16.966  -3.352  17.279  1.00  0.00    -0.000 C 
BRANCH  27  28
ATOM     28  C   UNL     1      18.379  -2.771  17.447  1.00  0.00    -0.000 C 
BRANCH  28  29
ATOM     29  C   UNL     1      18.399  -1.233  17.392  1.00  0.00    -0.000 C 
BRANCH  29  30
ATOM     30  C   UNL     1      17.125  -0.610  18.003  1.00  0.00    -0.000 C 
BRANCH  30  31
ATOM     31  C   UNL     1      17.264  -0.273  19.498  1.00  0.00    -0.003 C 
ATOM     32  C   UNL     1      16.019  -0.625  20.309  1.00  0.00     0.004 C 
ENDBRANCH  30  31
ENDBRANCH  29  30
ENDBRANCH  28  29
ENDBRANCH  27  28
ENDBRANCH  26  27
ENDBRANCH  25  26
ENDBRANCH  24  25
ENDBRANCH  23  24
ENDBRANCH  22  23
ENDBRANCH  21  22
ENDBRANCH  20  21
ENDBRANCH  19  20
ENDBRANCH  18  19
ENDBRANCH   1  18
TORSDOF 28
ENDMDL
MODEL 4
REMARK VINA RESULT:    -5.171      2.284      5.344
REMARK INTER + INTRA:         -18.145
REMARK INTER:                 -15.301
REMARK INTRA:                  -2.844
REMARK UNBOUND:                -4.509
REMARK SMILES CCCCCCCCCCCCCCCCCCCCCCCCCCCCCC(=O)[O-]
REMARK SMILES IDX 16 1 17 2 18 3 19 4 20 5 21 6 22 7 23 8 24 9 25 10 26 11
REMARK SMILES IDX 27 12 28 13 29 14 30 15 31 16 32 17 15 18 14 19 13 20 12 21
REMARK SMILES IDX 11 22 10 23 9 24 8 25 7 26 6 27 5 28 4 29 3 30 2 31 1 32
REMARK H PARENT
REMARK Flexibility Score: inf
ROOT
ATOM      1  C   UNL     1      21.375  -3.971  19.740  1.00  0.00     0.000 C 
ENDROOT
BRANCH   1   2
ATOM      2  C   UNL     1      20.929  -4.875  18.580  1.00  0.00     0.000 C 
BRANCH   2   3
ATOM      3  C   UNL     1      21.765  -4.663  17.307  1.00  0.00     0.000 C 
BRANCH   3   4
ATOM      4  C   UNL     1      21.933  -5.952  16.488  1.00  0.00     0.000 C 
BRANCH   4   5
ATOM      5  C   UNL     1      20.694  -6.848  16.616  1.00  0.00     0.000 C 
BRANCH   5   6
ATOM      6  C   UNL     1      20.631  -7.865  15.470  1.00  0.00     0.000 C 
BRANCH   6   7
ATOM      7  C   UNL     1      19.179  -8.172  15.082  1.00  0.00     0.000 C 
BRANCH   7   8
ATOM      8  C   UNL     1      19.078  -8.562  13.601  1.00  0.00     0.000 C 
BRANCH   8   9
ATOM      9  C   UNL     1      19.768  -9.899  13.290  1.00  0.00     0.000 C 
BRANCH   9  10
ATOM     10  C   UNL     1      18.817 -10.929  12.664  1.00  0.00     0.000 C 
BRANCH  10  11
ATOM     11  C   UNL     1      19.460 -12.324  12.642  1.00  0.00     0.000 C 
BRANCH  11  12
ATOM     12  C   UNL     1      18.776 -13.282  11.655  1.00  0.00     0.000 C 
BRANCH  12  13
ATOM     13  C   UNL     1      18.319 -12.580  10.367  1.00  0.00     0.006 C 
BRANCH  13  14
ATOM     14  C   UNL     1      17.772 -13.591   9.353  1.00  0.00     0.053 C 
BRANCH  14  15
ATOM     15  C   UNL     1      18.845 -14.036   8.408  1.00  0.00     0.041 C 
ATOM     16  O   UNL     1      18.775 -15.162   7.851  1.00  0.00    -0.550 OA
ATOM     17  O   UNL     1      19.932 -13.209   8.151  1.00  0.00    -0.550 OA
ENDBRANCH  14  15
ENDBRANCH  13  14
ENDBRANCH  12  13
ENDBRANCH  11  12
ENDBRANCH  10  11
ENDBRANCH   9  10
ENDBRANCH   8   9
ENDBRANCH   7   8
ENDBRANCH   6   7
ENDBRANCH   5   6
ENDBRANCH   4   5
ENDBRANCH   3   4
ENDBRANCH   2   3
ENDBRANCH   1   2
BRANCH   1  18
ATOM     18  C   UNL     1      20.176  -3.216  20.334  1.00  0.00     0.000 C 
BRANCH  18  19
ATOM     19  C   UNL     1      20.050  -3.398  21.856  1.00  0.00     0.000 C 
BRANCH  19  20
ATOM     20  C   UNL     1      21.310  -2.947  22.614  1.00  0.00     0.000 C 
BRANCH  20  21
ATOM     21  C   UNL     1      21.053  -1.728  23.517  1.00  0.00     0.000 C 
BRANCH  21  22
ATOM     22  C   UNL     1      19.882  -0.861  23.016  1.00  0.00     0.000 C 
BRANCH  22  23
ATOM     23  C   UNL     1      20.321   0.230  22.021  1.00  0.00     0.000 C 
BRANCH  23  24
ATOM     24  C   UNL     1      19.437   0.362  20.767  1.00  0.00    -0.000 C 
BRANCH  24  25
ATOM     25  C   UNL     1      17.991  -0.108  21.001  1.00  0.00    -0.000 C 
BRANCH  25  26
ATOM     26  C   UNL     1      17.379  -0.795  19.771  1.00  0.00    -0.000 C 
BRANCH  26  27
ATOM     27  C   UNL     1      18.304  -0.740  18.545  1.00  0.00    -0.000 C 
BRANCH  27  28
ATOM     28  C   UNL     1      18.148  -1.964  17.628  1.00  0.00    -0.000 C 
BRANCH  28  29
ATOM     29  C   UNL     1      17.212  -3.033  18.218  1.00  0.00    -0.000 C 
BRANCH  29  30
ATOM     30  C   UNL     1      17.301  -4.372  17.453  1.00  0.00    -0.000 C 
BRANCH  30  31
ATOM     31  C   UNL     1      16.032  -4.705  16.650  1.00  0.00    -0.003 C 
ATOM     32  C   UNL     1      14.946  -5.368  17.496  1.00  0.00     0.004 C 
ENDBRANCH  30  31
ENDBRANCH  29  30
ENDBRANCH  28  29
ENDBRANCH  27  28
ENDBRANCH  26  27
ENDBRANCH  25  26
ENDBRANCH  24  25
ENDBRANCH  23  24
ENDBRANCH  22  23
ENDBRANCH  21  22
ENDBRANCH  20  21
ENDBRANCH  19  20
ENDBRANCH  18  19
ENDBRANCH   1  18
TORSDOF 28
ENDMDL
MODEL 5
REMARK VINA RESULT:    -5.142      3.986      8.901
REMARK INTER + INTRA:         -18.067
REMARK INTER:                 -13.744
REMARK INTRA:                  -4.323
REMARK UNBOUND:                -4.509
REMARK SMILES CCCCCCCCCCCCCCCCCCCCCCCCCCCCCC(=O)[O-]
REMARK SMILES IDX 16 1 17 2 18 3 19 4 20 5 21 6 22 7 23 8 24 9 25 10 26 11
REMARK SMILES IDX 27 12 28 13 29 14 30 15 31 16 32 17 15 18 14 19 13 20 12 21
REMARK SMILES IDX 11 22 10 23 9 24 8 25 7 26 6 27 5 28 4 29 3 30 2 31 1 32
REMARK H PARENT
REMARK Flexibility Score: inf
ROOT
ATOM      1  C   UNL     1      18.188  -8.921  13.927  1.00  0.00     0.000 C 
ENDROOT
BRANCH   1   2
ATOM      2  C   UNL     1      19.671  -8.808  14.312  1.00  0.00     0.000 C 
BRANCH   2   3
ATOM      3  C   UNL     1      19.914  -7.811  15.456  1.00  0.00     0.000 C 
BRANCH   3   4
ATOM      4  C   UNL     1      21.376  -7.790  15.924  1.00  0.00     0.000 C 
BRANCH   4   5
ATOM      5  C   UNL     1      21.843  -6.356  16.205  1.00  0.00     0.000 C 
BRANCH   5   6
ATOM      6  C   UNL     1      20.882  -5.644  17.165  1.00  0.00     0.000 C 
BRANCH   6   7
ATOM      7  C   UNL     1      21.473  -4.316  17.654  1.00  0.00     0.000 C 
BRANCH   7   8
ATOM      8  C   UNL     1      20.446  -3.180  17.533  1.00  0.00     0.000 C 
BRANCH   8   9
ATOM      9  C   UNL     1      20.696  -2.043  18.535  1.00  0.00     0.000 C 
BRANCH   9  10
ATOM     10  C   UNL     1      19.614  -0.956  18.485  1.00  0.00     0.000 C 
BRANCH  10  11
ATOM     11  C   UNL     1      18.395  -1.436  17.682  1.00  0.00     0.000 C 
BRANCH  11  12
ATOM     12  C   UNL     1      17.195  -0.482  17.788  1.00  0.00     0.000 C 
BRANCH  12  13
ATOM     13  C   UNL     1      16.988   0.053  19.213  1.00  0.00     0.006 C 
BRANCH  13  14
ATOM     14  C   UNL     1      16.333  -1.005  20.109  1.00  0.00     0.053 C 
BRANCH  14  15
ATOM     15  C   UNL     1      15.825  -0.394  21.378  1.00  0.00     0.041 C 
ATOM     16  O   UNL     1      16.630   0.030  22.246  1.00  0.00    -0.550 OA
ATOM     17  O   UNL     1      14.457  -0.303  21.606  1.00  0.00    -0.550 OA
ENDBRANCH  14  15
ENDBRANCH  13  14
ENDBRANCH  12  13
ENDBRANCH  11  12
ENDBRANCH  10  11
ENDBRANCH   9  10
ENDBRANCH   8   9
ENDBRANCH   7   8
ENDBRANCH   6   7
ENDBRANCH   5   6
ENDBRANCH   4   5
ENDBRANCH   3   4
ENDBRANCH   2   3
ENDBRANCH   1   2
BRANCH   1  18
ATOM     18  C   UNL     1      17.339  -7.919  14.725  1.00  0.00     0.000 C 
BRANCH  18  19
ATOM     19  C   UNL     1      15.849  -7.967  14.349  1.00  0.00     0.000 C 
BRANCH  19  20
ATOM     20  C   UNL     1      14.993  -7.005  15.191  1.00  0.00     0.000 C 
BRANCH  20  21
ATOM     21  C   UNL     1      15.842  -5.991  15.977  1.00  0.00     0.000 C 
BRANCH  21  22
ATOM     22  C   UNL     1      15.095  -5.418  17.197  1.00  0.00     0.000 C 
BRANCH  22  23
ATOM     23  C   UNL     1      15.740  -4.135  17.753  1.00  0.00     0.000 C 
BRANCH  23  24
ATOM     24  C   UNL     1      16.473  -4.302  19.096  1.00  0.00    -0.000 C 
BRANCH  24  25
ATOM     25  C   UNL     1      17.840  -4.993  18.949  1.00  0.00    -0.000 C 
BRANCH  25  26
ATOM     26  C   UNL     1      18.660  -4.978  20.248  1.00  0.00    -0.000 C 
BRANCH  26  27
ATOM     27  C   UNL     1      18.356  -3.751  21.122  1.00  0.00    -0.000 C 
BRANCH  27  28
ATOM     28  C   UNL     1      19.572  -3.288  21.941  1.00  0.00    -0.000 C 
BRANCH  28  29
ATOM     29  C   UNL     1      19.685  -1.755  22.024  1.00  0.00    -0.000 C 
BRANCH  29  30
ATOM     30  C   UNL     1      20.672  -1.302  23.122  1.00  0.00    -0.000 C 
BRANCH  30  31
ATOM     31  C   UNL     1      22.089  -1.019  22.595  1.00  0.00    -0.003 C 
ATOM     32  C   UNL     1      22.102  -0.082  21.389  1.00  0.00     0.004 C 
ENDBRANCH  30  31
ENDBRANCH  29  30
ENDBRANCH  28  29
ENDBRANCH  27  28
ENDBRANCH  26  27
ENDBRANCH  25  26
ENDBRANCH  24  25
ENDBRANCH  23  24
ENDBRANCH  22  23
ENDBRANCH  21  22
ENDBRANCH  20  21
ENDBRANCH  19  20
ENDBRANCH  18  19
ENDBRANCH   1  18
TORSDOF 28
ENDMDL
MODEL 6
REMARK VINA RESULT:    -5.115      2.864      6.212
REMARK INTER + INTRA:         -17.996
REMARK INTER:                 -14.979
REMARK INTRA:                  -3.017
REMARK UNBOUND:                -4.509
REMARK SMILES CCCCCCCCCCCCCCCCCCCCCCCCCCCCCC(=O)[O-]
REMARK SMILES IDX 16 1 17 2 18 3 19 4 20 5 21 6 22 7 23 8 24 9 25 10 26 11
REMARK SMILES IDX 27 12 28 13 29 14 30 15 31 16 32 17 15 18 14 19 13 20 12 21
REMARK SMILES IDX 11 22 10 23 9 24 8 25 7 26 6 27 5 28 4 29 3 30 2 31 1 32
REMARK H PARENT
REMARK Flexibility Score: inf
ROOT
ATOM      1  C   UNL     1      15.210  -4.796  18.121  1.00  0.00     0.000 C 
ENDROOT
BRANCH   1   2
ATOM      2  C   UNL     1      14.946  -5.747  16.944  1.00  0.00     0.000 C 
BRANCH   2   3
ATOM      3  C   UNL     1      16.115  -5.799  15.947  1.00  0.00     0.000 C 
BRANCH   3   4
ATOM      4  C   UNL     1      16.127  -7.090  15.114  1.00  0.00     0.000 C 
BRANCH   4   5
ATOM      5  C   UNL     1      17.563  -7.531  14.807  1.00  0.00     0.000 C 
BRANCH   5   6
ATOM      6  C   UNL     1      17.579  -8.863  14.047  1.00  0.00     0.000 C 
BRANCH   6   7
ATOM      7  C   UNL     1      18.918  -9.075  13.330  1.00  0.00     0.000 C 
BRANCH   7   8
ATOM      8  C   UNL     1      19.042 -10.516  12.815  1.00  0.00     0.000 C 
BRANCH   8   9
ATOM      9  C   UNL     1      17.745 -11.030  12.169  1.00  0.00     0.000 C 
BRANCH   9  10
ATOM     10  C   UNL     1      17.993 -12.142  11.140  1.00  0.00     0.000 C 
BRANCH  10  11
ATOM     11  C   UNL     1      18.980 -13.183  11.688  1.00  0.00     0.000 C 
BRANCH  11  12
ATOM     12  C   UNL     1      18.507 -14.629  11.469  1.00  0.00     0.000 C 
BRANCH  12  13
ATOM     13  C   UNL     1      19.403 -15.404  10.490  1.00  0.00     0.006 C 
BRANCH  13  14
ATOM     14  C   UNL     1      18.580 -15.990   9.337  1.00  0.00     0.053 C 
BRANCH  14  15
ATOM     15  C   UNL     1      18.144 -17.389   9.646  1.00  0.00     0.041 C 
ATOM     16  O   UNL     1      18.234 -17.838  10.818  1.00  0.00    -0.550 OA
ATOM     17  O   UNL     1      17.650 -18.202   8.634  1.00  0.00    -0.550 OA
ENDBRANCH  14  15
ENDBRANCH  13  14
ENDBRANCH  12  13
ENDBRANCH  11  12
ENDBRANCH  10  11
ENDBRANCH   9  10
ENDBRANCH   8   9
ENDBRANCH   7   8
ENDBRANCH   6   7
ENDBRANCH   5   6
ENDBRANCH   4   5
ENDBRANCH   3   4
ENDBRANCH   2   3
ENDBRANCH   1   2
BRANCH   1  18
ATOM     18  C   UNL     1      15.674  -3.421  17.617  1.00  0.00     0.000 C 
BRANCH  18  19
ATOM     19  C   UNL     1      15.565  -2.324  18.690  1.00  0.00     0.000 C 
BRANCH  19  20
ATOM     20  C   UNL     1      15.436  -0.915  18.088  1.00  0.00     0.000 C 
BRANCH  20  21
ATOM     21  C   UNL     1      16.562   0.029  18.544  1.00  0.00     0.000 C 
BRANCH  21  22
ATOM     22  C   UNL     1      17.057  -0.290  19.968  1.00  0.00     0.000 C 
BRANCH  22  23
ATOM     23  C   UNL     1      18.560  -0.015  20.162  1.00  0.00     0.000 C 
BRANCH  23  24
ATOM     24  C   UNL     1      18.993   0.248  21.615  1.00  0.00    -0.000 C 
BRANCH  24  25
ATOM     25  C   UNL     1      19.453  -1.027  22.342  1.00  0.00    -0.000 C 
BRANCH  25  26
ATOM     26  C   UNL     1      20.209  -1.999  21.424  1.00  0.00    -0.000 C 
BRANCH  26  27
ATOM     27  C   UNL     1      19.665  -3.435  21.510  1.00  0.00    -0.000 C 
BRANCH  27  28
ATOM     28  C   UNL     1      18.477  -3.678  20.566  1.00  0.00    -0.000 C 
BRANCH  28  29
ATOM     29  C   UNL     1      18.605  -4.993  19.776  1.00  0.00    -0.000 C 
BRANCH  29  30
ATOM     30  C   UNL     1      18.999  -4.752  18.302  1.00  0.00    -0.000 C 
BRANCH  30  31
ATOM     31  C   UNL     1      19.653  -3.382  18.059  1.00  0.00    -0.003 C 
ATOM     32  C   UNL     1      18.916  -2.543  17.017  1.00  0.00     0.004 C 
ENDBRANCH  30  31
ENDBRANCH  29  30
ENDBRANCH  28  29
ENDBRANCH  27  28
ENDBRANCH  26  27
ENDBRANCH  25  26
ENDBRANCH  24  25
ENDBRANCH  23  24
ENDBRANCH  22  23
ENDBRANCH  21  22
ENDBRANCH  20  21
ENDBRANCH  19  20
ENDBRANCH  18  19
ENDBRANCH   1  18
TORSDOF 28
ENDMDL
MODEL 7
REMARK VINA RESULT:    -5.110      2.888      6.440
REMARK INTER + INTRA:         -17.985
REMARK INTER:                 -14.736
REMARK INTRA:                  -3.249
REMARK UNBOUND:                -4.509
REMARK SMILES CCCCCCCCCCCCCCCCCCCCCCCCCCCCCC(=O)[O-]
REMARK SMILES IDX 16 1 17 2 18 3 19 4 20 5 21 6 22 7 23 8 24 9 25 10 26 11
REMARK SMILES IDX 27 12 28 13 29 14 30 15 31 16 32 17 15 18 14 19 13 20 12 21
REMARK SMILES IDX 11 22 10 23 9 24 8 25 7 26 6 27 5 28 4 29 3 30 2 31 1 32
REMARK H PARENT
REMARK Flexibility Score: inf
ROOT
ATOM      1  C   UNL     1      20.343  -4.305  18.383  1.00  0.00     0.000 C 
ENDROOT
BRANCH   1   2
ATOM      2  C   UNL     1      21.723  -4.848  17.980  1.00  0.00     0.000 C 
BRANCH   2   3
ATOM      3  C   UNL     1      21.685  -5.660  16.676  1.00  0.00     0.000 C 
BRANCH   3   4
ATOM      4  C   UNL     1      20.616  -6.762  16.695  1.00  0.00     0.000 C 
BRANCH   4   5
ATOM      5  C   UNL     1      20.899  -7.820  15.621  1.00  0.00     0.000 C 
BRANCH   5   6
ATOM      6  C   UNL     1      19.600  -8.286  14.952  1.00  0.00     0.000 C 
BRANCH   6   7
ATOM      7  C   UNL     1      19.891  -9.215  13.767  1.00  0.00     0.000 C 
BRANCH   7   8
ATOM      8  C   UNL     1      18.627  -9.979  13.346  1.00  0.00     0.000 C 
BRANCH   8   9
ATOM      9  C   UNL     1      18.887 -11.477  13.119  1.00  0.00     0.000 C 
BRANCH   9  10
ATOM     10  C   UNL     1      19.030 -11.838  11.634  1.00  0.00     0.000 C 
BRANCH  10  11
ATOM     11  C   UNL     1      18.687 -13.316  11.397  1.00  0.00     0.000 C 
BRANCH  11  12
ATOM     12  C   UNL     1      18.916 -13.757   9.942  1.00  0.00     0.000 C 
BRANCH  12  13
ATOM     13  C   UNL     1      17.603 -13.960   9.171  1.00  0.00     0.006 C 
BRANCH  13  14
ATOM     14  C   UNL     1      17.561 -13.083   7.914  1.00  0.00     0.053 C 
BRANCH  14  15
ATOM     15  C   UNL     1      18.141 -13.803   6.738  1.00  0.00     0.041 C 
ATOM     16  O   UNL     1      18.555 -14.986   6.857  1.00  0.00    -0.550 OA
ATOM     17  O   UNL     1      18.238 -13.163   5.508  1.00  0.00    -0.550 OA
ENDBRANCH  14  15
ENDBRANCH  13  14
ENDBRANCH  12  13
ENDBRANCH  11  12
ENDBRANCH  10  11
ENDBRANCH   9  10
ENDBRANCH   8   9
ENDBRANCH   7   8
ENDBRANCH   6   7
ENDBRANCH   5   6
ENDBRANCH   4   5
ENDBRANCH   3   4
ENDBRANCH   2   3
ENDBRANCH   1   2
BRANCH   1  18
ATOM     18  C   UNL     1      20.132  -2.888  17.827  1.00  0.00     0.000 C 
BRANCH  18  19
ATOM     19  C   UNL     1      18.839  -2.756  17.005  1.00  0.00     0.000 C 
BRANCH  19  20
ATOM     20  C   UNL     1      17.884  -3.945  17.206  1.00  0.00     0.000 C 
BRANCH  20  21
ATOM     21  C   UNL     1      16.439  -3.501  17.495  1.00  0.00     0.000 C 
BRANCH  21  22
ATOM     22  C   UNL     1      16.258  -2.988  18.937  1.00  0.00     0.000 C 
BRANCH  22  23
ATOM     23  C   UNL     1      16.982  -3.857  19.983  1.00  0.00     0.000 C 
BRANCH  23  24
ATOM     24  C   UNL     1      17.874  -3.082  20.970  1.00  0.00    -0.000 C 
BRANCH  24  25
ATOM     25  C   UNL     1      17.950  -1.578  20.653  1.00  0.00    -0.000 C 
BRANCH  25  26
ATOM     26  C   UNL     1      18.184  -0.715  21.902  1.00  0.00    -0.000 C 
BRANCH  26  27
ATOM     27  C   UNL     1      19.654  -0.297  22.063  1.00  0.00    -0.000 C 
BRANCH  27  28
ATOM     28  C   UNL     1      20.188  -0.536  23.484  1.00  0.00    -0.000 C 
BRANCH  28  29
ATOM     29  C   UNL     1      21.343  -1.553  23.522  1.00  0.00    -0.000 C 
BRANCH  29  30
ATOM     30  C   UNL     1      20.878  -2.977  23.147  1.00  0.00    -0.000 C 
BRANCH  30  31
ATOM     31  C   UNL     1      21.507  -3.505  21.846  1.00  0.00    -0.003 C 
ATOM     32  C   UNL     1      22.470  -2.511  21.202  1.00  0.00     0.004 C 
ENDBRANCH  30  31
ENDBRANCH  29  30
ENDBRANCH  28  29
ENDBRANCH  27  28
ENDBRANCH  26  27
ENDBRANCH  25  26
ENDBRANCH  24  25
ENDBRANCH  23  24
ENDBRANCH  22  23
ENDBRANCH  21  22
ENDBRANCH  20  21
ENDBRANCH  19  20
ENDBRANCH  18  19
ENDBRANCH   1  18
TORSDOF 28
ENDMDL
MODEL 8
REMARK VINA RESULT:    -5.089      2.574      5.997
REMARK INTER + INTRA:         -17.929
REMARK INTER:                 -15.026
REMARK INTRA:                  -2.903
REMARK UNBOUND:                -4.509
REMARK SMILES CCCCCCCCCCCCCCCCCCCCCCCCCCCCCC(=O)[O-]
REMARK SMILES IDX 16 1 17 2 18 3 19 4 20 5 21 6 22 7 23 8 24 9 25 10 26 11
REMARK SMILES IDX 27 12 28 13 29 14 30 15 31 16 32 17 15 18 14 19 13 20 12 21
REMARK SMILES IDX 11 22 10 23 9 24 8 25 7 26 6 27 5 28 4 29 3 30 2 31 1 32
REMARK H PARENT
REMARK Flexibility Score: inf
ROOT
ATOM      1  C   UNL     1      20.295  -4.607  18.210  1.00  0.00     0.000 C 
ENDROOT
BRANCH   1   2
ATOM      2  C   UNL     1      21.680  -4.599  17.544  1.00  0.00     0.000 C 
BRANCH   2   3
ATOM      3  C   UNL     1      21.905  -5.809  16.624  1.00  0.00     0.000 C 
BRANCH   3   4
ATOM      4  C   UNL     1      20.723  -6.790  16.636  1.00  0.00     0.000 C 
BRANCH   4   5
ATOM      5  C   UNL     1      20.884  -7.857  15.546  1.00  0.00     0.000 C 
BRANCH   5   6
ATOM      6  C   UNL     1      19.525  -8.250  14.955  1.00  0.00     0.000 C 
BRANCH   6   7
ATOM      7  C   UNL     1      19.661  -9.436  13.994  1.00  0.00     0.000 C 
BRANCH   7   8
ATOM      8  C   UNL     1      18.304 -10.116  13.764  1.00  0.00     0.000 C 
BRANCH   8   9
ATOM      9  C   UNL     1      18.066 -10.485  12.291  1.00  0.00     0.000 C 
BRANCH   9  10
ATOM     10  C   UNL     1      18.856 -11.726  11.853  1.00  0.00     0.000 C 
BRANCH  10  11
ATOM     11  C   UNL     1      17.966 -12.683  11.045  1.00  0.00     0.000 C 
BRANCH  11  12
ATOM     12  C   UNL     1      18.703 -13.958  10.607  1.00  0.00     0.000 C 
BRANCH  12  13
ATOM     13  C   UNL     1      19.359 -14.697  11.783  1.00  0.00     0.006 C 
BRANCH  13  14
ATOM     14  C   UNL     1      19.887 -16.069  11.346  1.00  0.00     0.053 C 
BRANCH  14  15
ATOM     15  C   UNL     1      18.812 -17.108  11.427  1.00  0.00     0.041 C 
ATOM     16  O   UNL     1      18.890 -18.158  10.739  1.00  0.00    -0.550 OA
ATOM     17  O   UNL     1      17.715 -16.910  12.257  1.00  0.00    -0.550 OA
ENDBRANCH  14  15
ENDBRANCH  13  14
ENDBRANCH  12  13
ENDBRANCH  11  12
ENDBRANCH  10  11
ENDBRANCH   9  10
ENDBRANCH   8   9
ENDBRANCH   7   8
ENDBRANCH   6   7
ENDBRANCH   5   6
ENDBRANCH   4   5
ENDBRANCH   3   4
ENDBRANCH   2   3
ENDBRANCH   1   2
BRANCH   1  18
ATOM     18  C   UNL     1      20.385  -4.106  19.660  1.00  0.00     0.000 C 
BRANCH  18  19
ATOM     19  C   UNL     1      21.768  -3.530  20.009  1.00  0.00     0.000 C 
BRANCH  19  20
ATOM     20  C   UNL     1      21.920  -3.217  21.507  1.00  0.00     0.000 C 
BRANCH  20  21
ATOM     21  C   UNL     1      20.569  -2.977  22.202  1.00  0.00     0.000 C 
BRANCH  21  22
ATOM     22  C   UNL     1      20.605  -1.767  23.156  1.00  0.00     0.000 C 
BRANCH  22  23
ATOM     23  C   UNL     1      21.569  -0.660  22.691  1.00  0.00     0.000 C 
BRANCH  23  24
ATOM     24  C   UNL     1      21.196   0.014  21.358  1.00  0.00    -0.000 C 
BRANCH  24  25
ATOM     25  C   UNL     1      19.824   0.709  21.402  1.00  0.00    -0.000 C 
BRANCH  25  26
ATOM     26  C   UNL     1      18.869   0.217  20.305  1.00  0.00    -0.000 C 
BRANCH  26  27
ATOM     27  C   UNL     1      19.572  -0.676  19.269  1.00  0.00    -0.000 C 
BRANCH  27  28
ATOM     28  C   UNL     1      18.688  -0.981  18.049  1.00  0.00    -0.000 C 
BRANCH  28  29
ATOM     29  C   UNL     1      17.235  -0.508  18.235  1.00  0.00    -0.000 C 
BRANCH  29  30
ATOM     30  C   UNL     1      16.249  -1.690  18.364  1.00  0.00    -0.000 C 
BRANCH  30  31
ATOM     31  C   UNL     1      16.926  -3.012  18.762  1.00  0.00    -0.003 C 
ATOM     32  C   UNL     1      16.691  -3.389  20.223  1.00  0.00     0.004 C 
ENDBRANCH  30  31
ENDBRANCH  29  30
ENDBRANCH  28  29
ENDBRANCH  27  28
ENDBRANCH  26  27
ENDBRANCH  25  26
ENDBRANCH  24  25
ENDBRANCH  23  24
ENDBRANCH  22  23
ENDBRANCH  21  22
ENDBRANCH  20  21
ENDBRANCH  19  20
ENDBRANCH  18  19
ENDBRANCH   1  18
TORSDOF 28
ENDMDL
MODEL 9
REMARK VINA RESULT:    -5.050      3.485      7.323
REMARK INTER + INTRA:         -17.826
REMARK INTER:                 -14.627
REMARK INTRA:                  -3.199
REMARK UNBOUND:                -4.509
REMARK SMILES CCCCCCCCCCCCCCCCCCCCCCCCCCCCCC(=O)[O-]
REMARK SMILES IDX 16 1 17 2 18 3 19 4 20 5 21 6 22 7 23 8 24 9 25 10 26 11
REMARK SMILES IDX 27 12 28 13 29 14 30 15 31 16 32 17 15 18 14 19 13 20 12 21
REMARK SMILES IDX 11 22 10 23 9 24 8 25 7 26 6 27 5 28 4 29 3 30 2 31 1 32
REMARK H PARENT
REMARK Flexibility Score: inf
ROOT
ATOM      1  C   UNL     1      20.873  -6.327  16.678  1.00  0.00     0.000 C 
ENDROOT
BRANCH   1   2
ATOM      2  C   UNL     1      21.620  -7.587  16.213  1.00  0.00     0.000 C 
BRANCH   2   3
ATOM      3  C   UNL     1      20.943  -8.272  15.016  1.00  0.00     0.000 C 
BRANCH   3   4
ATOM      4  C   UNL     1      19.411  -8.182  15.070  1.00  0.00     0.000 C 
BRANCH   4   5
ATOM      5  C   UNL     1      18.783  -8.723  13.779  1.00  0.00     0.000 C 
BRANCH   5   6
ATOM      6  C   UNL     1      19.654  -9.826  13.164  1.00  0.00     0.000 C 
BRANCH   6   7
ATOM      7  C   UNL     1      18.834 -11.094  12.899  1.00  0.00     0.000 C 
BRANCH   7   8
ATOM      8  C   UNL     1      17.621 -10.788  12.009  1.00  0.00     0.000 C 
BRANCH   8   9
ATOM      9  C   UNL     1      17.639 -11.573  10.689  1.00  0.00     0.000 C 
BRANCH   9  10
ATOM     10  C   UNL     1      18.712 -12.669  10.663  1.00  0.00     0.000 C 
BRANCH  10  11
ATOM     11  C   UNL     1      18.709 -13.405   9.314  1.00  0.00     0.000 C 
BRANCH  11  12
ATOM     12  C   UNL     1      17.635 -12.880   8.349  1.00  0.00     0.000 C 
BRANCH  12  13
ATOM     13  C   UNL     1      17.536 -13.713   7.062  1.00  0.00     0.006 C 
BRANCH  13  14
ATOM     14  C   UNL     1      18.573 -14.842   7.056  1.00  0.00     0.053 C 
BRANCH  14  15
ATOM     15  C   UNL     1      19.198 -14.989   5.703  1.00  0.00     0.041 C 
ATOM     16  O   UNL     1      20.318 -14.470   5.460  1.00  0.00    -0.550 OA
ATOM     17  O   UNL     1      18.535 -15.691   4.704  1.00  0.00    -0.550 OA
ENDBRANCH  14  15
ENDBRANCH  13  14
ENDBRANCH  12  13
ENDBRANCH  11  12
ENDBRANCH  10  11
ENDBRANCH   9  10
ENDBRANCH   8   9
ENDBRANCH   7   8
ENDBRANCH   6   7
ENDBRANCH   5   6
ENDBRANCH   4   5
ENDBRANCH   3   4
ENDBRANCH   2   3
ENDBRANCH   1   2
BRANCH   1  18
ATOM     18  C   UNL     1      21.863  -5.224  17.083  1.00  0.00     0.000 C 
BRANCH  18  19
ATOM     19  C   UNL     1      21.407  -4.438  18.324  1.00  0.00     0.000 C 
BRANCH  19  20
ATOM     20  C   UNL     1      19.891  -4.178  18.337  1.00  0.00     0.000 C 
BRANCH  20  21
ATOM     21  C   UNL     1      19.500  -2.919  17.544  1.00  0.00     0.000 C 
BRANCH  21  22
ATOM     22  C   UNL     1      18.033  -2.953  17.071  1.00  0.00     0.000 C 
BRANCH  22  23
ATOM     23  C   UNL     1      17.206  -4.064  17.747  1.00  0.00     0.000 C 
BRANCH  23  24
ATOM     24  C   UNL     1      16.044  -3.568  18.626  1.00  0.00    -0.000 C 
BRANCH  24  25
ATOM     25  C   UNL     1      15.444  -2.240  18.132  1.00  0.00    -0.000 C 
BRANCH  25  26
ATOM     26  C   UNL     1      15.521  -1.122  19.182  1.00  0.00    -0.000 C 
BRANCH  26  27
ATOM     27  C   UNL     1      16.595  -0.073  18.848  1.00  0.00    -0.000 C 
BRANCH  27  28
ATOM     28  C   UNL     1      17.884  -0.263  19.663  1.00  0.00    -0.000 C 
BRANCH  28  29
ATOM     29  C   UNL     1      17.643  -0.990  20.998  1.00  0.00    -0.000 C 
BRANCH  29  30
ATOM     30  C   UNL     1      18.450  -2.303  21.102  1.00  0.00    -0.000 C 
BRANCH  30  31
ATOM     31  C   UNL     1      19.823  -2.127  21.773  1.00  0.00    -0.003 C 
ATOM     32  C   UNL     1      20.513  -3.454  22.080  1.00  0.00     0.004 C 
ENDBRANCH  30  31
ENDBRANCH  29  30
ENDBRANCH  28  29
ENDBRANCH  27  28
ENDBRANCH  26  27
ENDBRANCH  25  26
ENDBRANCH  24  25
ENDBRANCH  23  24
ENDBRANCH  22  23
ENDBRANCH  21  22
ENDBRANCH  20  21
ENDBRANCH  19  20
ENDBRANCH  18  19
ENDBRANCH   1  18
TORSDOF 28
ENDMDL
