MODEL 1
REMARK VINA RESULT:    -4.786      0.000      0.000
REMARK INTER + INTRA:          -5.141
REMARK INTER:                  -5.905
REMARK INTRA:                   0.764
REMARK UNBOUND:                 0.764
REMARK SMILES CC1=CC=CC(C)(C)CC1=O
REMARK SMILES IDX 1 1 2 2 3 3 10 4 11 5 9 6 4 8 5 9 6 10 7 11 8 12
REMARK H PARENT
REMARK Flexibility Score: 80.00
ROOT
ATOM      1  C   UNL     1      22.447  27.276   2.868  1.00  0.00     0.048 C 
ATOM      2  C   UNL     1      21.154  26.648   3.331  1.00  0.00    -0.008 C 
ATOM      3  C   UNL     1      21.210  25.393   3.826  1.00  0.00     0.007 C 
ENDROOT
BRANCH   2   4
ATOM      4  C   UNL     1      19.935  27.493   3.276  1.00  0.00     0.159 C 
ATOM      5  O   UNL     1      20.061  28.727   3.045  1.00  0.00    -0.295 OA
BRANCH   4   6
ATOM      6  C   UNL     1      18.550  26.958   3.467  1.00  0.00     0.091 CG0
ATOM      7  G   UNL     1      18.336  26.300   4.849  1.00  0.00     0.000 G0
ENDBRANCH   4   6
ENDBRANCH   2   4
BRANCH   3   8
ATOM      8  C   UNL     1      20.130  24.537   4.373  1.00  0.00    -0.003 C 
ATOM      9  C   UNL     1      18.918  24.890   4.819  1.00  0.00    -0.020 C 
BRANCH   9  10
ATOM     10  C   UNL     1      18.342  26.285   4.842  1.00  0.00    -0.010 CG0
ATOM     11  C   UNL     1      16.820  26.177   5.097  1.00  0.00     0.016 C 
ATOM     12  C   UNL     1      18.962  27.094   6.003  1.00  0.00     0.016 C 
ATOM     13  G   UNL     1      18.552  26.959   3.467  1.00  0.00     0.000 G0
ENDBRANCH   9  10
ENDBRANCH   3   8
TORSDOF 0
ENDMDL
MODEL 2
REMARK VINA RESULT:    -4.511      1.899      2.781
REMARK INTER + INTRA:          -4.802
REMARK INTER:                  -5.559
REMARK INTRA:                   0.758
REMARK UNBOUND:                 0.764
REMARK SMILES CC1=CC=CC(C)(C)CC1=O
REMARK SMILES IDX 1 1 2 2 3 3 10 4 11 5 9 6 4 8 5 9 6 10 7 11 8 12
REMARK H PARENT
REMARK Flexibility Score: 80.00
ROOT
ATOM      1  C   UNL     1      20.859  27.368   3.689  1.00  0.00     0.048 C 
ATOM      2  C   UNL     1      19.507  26.939   4.206  1.00  0.00    -0.008 C 
ATOM      3  C   UNL     1      18.485  26.894   3.325  1.00  0.00     0.007 C 
ENDROOT
BRANCH   2   4
ATOM      4  C   UNL     1      19.429  26.524   5.630  1.00  0.00     0.159 C 
ATOM      5  O   UNL     1      20.500  26.368   6.277  1.00  0.00    -0.295 OA
BRANCH   4   6
ATOM      6  C   UNL     1      18.139  26.292   6.353  1.00  0.00     0.091 CG0
ATOM      7  G   UNL     1      17.265  25.196   5.703  1.00  0.00     0.000 G0
ENDBRANCH   4   6
ENDBRANCH   2   4
BRANCH   3   8
ATOM      8  C   UNL     1      17.072  26.493   3.526  1.00  0.00    -0.003 C 
ATOM      9  C   UNL     1      16.534  25.766   4.513  1.00  0.00    -0.020 C 
BRANCH   9  10
ATOM     10  C   UNL     1      17.262  25.192   5.705  1.00  0.00    -0.010 CG0
ATOM     11  C   UNL     1      16.210  24.746   6.747  1.00  0.00     0.016 C 
ATOM     12  C   UNL     1      18.070  23.945   5.280  1.00  0.00     0.016 C 
ATOM     13  G   UNL     1      18.146  26.282   6.351  1.00  0.00     0.000 G0
ENDBRANCH   9  10
ENDBRANCH   3   8
TORSDOF 0
ENDMDL
MODEL 3
REMARK VINA RESULT:    -4.402      2.110      3.247
REMARK INTER + INTRA:          -4.668
REMARK INTER:                  -5.427
REMARK INTRA:                   0.759
REMARK UNBOUND:                 0.764
REMARK SMILES CC1=CC=CC(C)(C)CC1=O
REMARK SMILES IDX 1 1 2 2 3 3 10 4 11 5 9 6 4 8 5 9 6 10 7 11 8 12
REMARK H PARENT
REMARK Flexibility Score: 80.00
ROOT
ATOM      1  C   UNL     1      19.888  27.313   4.081  1.00  0.00     0.048 C 
ATOM      2  C   UNL     1      18.969  26.577   5.026  1.00  0.00    -0.008 C 
ATOM      3  C   UNL     1      18.984  26.940   6.326  1.00  0.00     0.007 C 
ENDROOT
BRANCH   2   4
ATOM      4  C   UNL     1      18.062  25.562   4.431  1.00  0.00     0.159 C 
ATOM      5  O   UNL     1      17.959  25.500   3.176  1.00  0.00    -0.295 OA
BRANCH   4   6
ATOM      6  C   UNL     1      17.267  24.588   5.244  1.00  0.00     0.091 CG0
ATOM      7  G   UNL     1      16.292  25.271   6.230  1.00  0.00     0.000 G0
ENDBRANCH   4   6
ENDBRANCH   2   4
BRANCH   3   8
ATOM      8  C   UNL     1      18.189  26.429   7.467  1.00  0.00    -0.003 C 
ATOM      9  C   UNL     1      17.045  25.733   7.453  1.00  0.00    -0.020 C 
BRANCH   9  10
ATOM     10  C   UNL     1      16.291  25.268   6.230  1.00  0.00    -0.010 CG0
ATOM     11  C   UNL     1      15.250  24.215   6.673  1.00  0.00     0.016 C 
ATOM     12  C   UNL     1      15.529  26.454   5.597  1.00  0.00     0.016 C 
ATOM     13  G   UNL     1      17.268  24.592   5.241  1.00  0.00     0.000 G0
ENDBRANCH   9  10
ENDBRANCH   3   8
TORSDOF 0
ENDMDL
MODEL 4
REMARK VINA RESULT:    -4.344     16.570     18.192
REMARK INTER + INTRA:          -4.595
REMARK INTER:                  -5.351
REMARK INTRA:                   0.755
REMARK UNBOUND:                 0.764
REMARK SMILES CC1=CC=CC(C)(C)CC1=O
REMARK SMILES IDX 1 1 2 2 3 3 10 4 11 5 9 6 4 8 5 9 6 10 7 11 8 12
REMARK H PARENT
REMARK Flexibility Score: 80.00
ROOT
ATOM      1  C   UNL     1      30.331  19.295  -3.048  1.00  0.00     0.048 C 
ATOM      2  C   UNL     1      30.582  18.350  -4.200  1.00  0.00    -0.008 C 
ATOM      3  C   UNL     1      30.250  18.771  -5.439  1.00  0.00     0.007 C 
ENDROOT
BRANCH   2   4
ATOM      4  C   UNL     1      31.248  17.062  -3.883  1.00  0.00     0.159 C 
ATOM      5  O   UNL     1      31.734  16.896  -2.731  1.00  0.00    -0.295 OA
BRANCH   4   6
ATOM      6  C   UNL     1      31.365  15.931  -4.857  1.00  0.00     0.091 CG0
ATOM      7  G   UNL     1      32.116  16.317  -6.151  1.00  0.00     0.000 G0
ENDBRANCH   4   6
ENDBRANCH   2   4
BRANCH   3   8
ATOM      8  C   UNL     1      30.398  18.090  -6.747  1.00  0.00    -0.003 C 
ATOM      9  C   UNL     1      31.186  17.059  -7.076  1.00  0.00    -0.020 C 
BRANCH   9  10
ATOM     10  C   UNL     1      32.115  16.307  -6.152  1.00  0.00    -0.010 CG0
ATOM     11  C   UNL     1      32.540  14.996  -6.853  1.00  0.00     0.016 C 
ATOM     12  C   UNL     1      33.388  17.142  -5.890  1.00  0.00     0.016 C 
ATOM     13  G   UNL     1      31.367  15.936  -4.851  1.00  0.00     0.000 G0
ENDBRANCH   9  10
ENDBRANCH   3   8
TORSDOF 0
ENDMDL
MODEL 5
REMARK VINA RESULT:    -4.332      2.089      4.236
REMARK INTER + INTRA:          -4.581
REMARK INTER:                  -5.626
REMARK INTRA:                   1.046
REMARK UNBOUND:                 0.764
REMARK SMILES CC1=CC=CC(C)(C)CC1=O
REMARK SMILES IDX 1 1 2 2 3 3 10 4 11 5 9 6 4 8 5 9 6 10 7 11 8 12
REMARK H PARENT
REMARK Flexibility Score: 80.00
ROOT
ATOM      1  C   UNL     1      15.870  24.732   7.470  1.00  0.00     0.048 C 
ATOM      2  C   UNL     1      16.685  25.409   6.394  1.00  0.00    -0.008 C 
ATOM      3  C   UNL     1      16.109  25.575   5.184  1.00  0.00     0.007 C 
ENDROOT
BRANCH   2   4
ATOM      4  C   UNL     1      18.029  25.908   6.778  1.00  0.00     0.159 C 
ATOM      5  O   UNL     1      18.556  25.479   7.840  1.00  0.00    -0.295 OA
BRANCH   4   6
ATOM      6  C   UNL     1      18.810  26.891   5.961  1.00  0.00     0.091 CG0
ATOM      7  G   UNL     1      19.126  26.383   4.536  1.00  0.00     0.000 G0
ENDBRANCH   4   6
ENDBRANCH   2   4
BRANCH   3   8
ATOM      8  C   UNL     1      16.639  26.216   3.957  1.00  0.00    -0.003 C 
ATOM      9  C   UNL     1      17.897  26.572   3.667  1.00  0.00    -0.020 C 
BRANCH   9  10
ATOM     10  C   UNL     1      19.111  26.369   4.542  1.00  0.00    -0.010 CG0
ATOM     11  C   UNL     1      19.406  24.853   4.617  1.00  0.00     0.016 C 
ATOM     12  C   UNL     1      20.340  27.062   3.911  1.00  0.00     0.016 C 
ATOM     13  G   UNL     1      18.814  26.871   5.973  1.00  0.00     0.000 G0
ENDBRANCH   9  10
ENDBRANCH   3   8
TORSDOF 0
ENDMDL
MODEL 6
REMARK VINA RESULT:    -4.282      2.816      4.056
REMARK INTER + INTRA:          -4.520
REMARK INTER:                  -5.261
REMARK INTRA:                   0.741
REMARK UNBOUND:                 0.764
REMARK SMILES CC1=CC=CC(C)(C)CC1=O
REMARK SMILES IDX 1 1 2 2 3 3 10 4 11 5 9 6 4 8 5 9 6 10 7 11 8 12
REMARK H PARENT
REMARK Flexibility Score: 80.00
ROOT
ATOM      1  C   UNL     1      17.888  25.022   3.783  1.00  0.00     0.048 C 
ATOM      2  C   UNL     1      17.508  25.452   5.180  1.00  0.00    -0.008 C 
ATOM      3  C   UNL     1      16.523  24.766   5.800  1.00  0.00     0.007 C 
ENDROOT
BRANCH   2   4
ATOM      4  C   UNL     1      18.304  26.547   5.790  1.00  0.00     0.159 C 
ATOM      5  O   UNL     1      19.358  26.927   5.212  1.00  0.00    -0.295 OA
BRANCH   4   6
ATOM      6  C   UNL     1      17.915  27.243   7.057  1.00  0.00     0.091 CG0
ATOM      7  G   UNL     1      17.794  26.287   8.265  1.00  0.00     0.000 G0
ENDBRANCH   4   6
ENDBRANCH   2   4
BRANCH   3   8
ATOM      8  C   UNL     1      15.957  24.934   7.159  1.00  0.00    -0.003 C 
ATOM      9  C   UNL     1      16.480  25.562   8.219  1.00  0.00    -0.020 C 
BRANCH   9  10
ATOM     10  C   UNL     1      17.799  26.296   8.267  1.00  0.00    -0.010 CG0
ATOM     11  C   UNL     1      17.820  27.175   9.539  1.00  0.00     0.016 C 
ATOM     12  C   UNL     1      18.963  25.285   8.369  1.00  0.00     0.016 C 
ATOM     13  G   UNL     1      17.923  27.226   7.039  1.00  0.00     0.000 G0
ENDBRANCH   9  10
ENDBRANCH   3   8
TORSDOF 0
ENDMDL
MODEL 7
REMARK VINA RESULT:    -4.074      1.888      3.820
REMARK INTER + INTRA:          -4.263
REMARK INTER:                  -5.017
REMARK INTRA:                   0.754
REMARK UNBOUND:                 0.764
REMARK SMILES CC1=CC=CC(C)(C)CC1=O
REMARK SMILES IDX 1 1 2 2 3 3 10 4 11 5 9 6 4 8 5 9 6 10 7 11 8 12
REMARK H PARENT
REMARK Flexibility Score: 80.00
ROOT
ATOM      1  C   UNL     1      15.779  24.371   6.359  1.00  0.00     0.048 C 
ATOM      2  C   UNL     1      17.116  24.861   5.855  1.00  0.00    -0.008 C 
ATOM      3  C   UNL     1      17.872  23.997   5.144  1.00  0.00     0.007 C 
ENDROOT
BRANCH   2   4
ATOM      4  C   UNL     1      17.456  26.283   6.116  1.00  0.00     0.159 C 
ATOM      5  O   UNL     1      16.557  27.053   6.551  1.00  0.00    -0.295 OA
BRANCH   4   6
ATOM      6  C   UNL     1      18.822  26.857   5.903  1.00  0.00     0.091 CG0
ATOM      7  G   UNL     1      19.305  26.754   4.439  1.00  0.00     0.000 G0
ENDBRANCH   4   6
ENDBRANCH   2   4
BRANCH   3   8
ATOM      8  C   UNL     1      19.196  24.193   4.507  1.00  0.00    -0.003 C 
ATOM      9  C   UNL     1      19.817  25.335   4.186  1.00  0.00    -0.020 C 
BRANCH   9  10
ATOM     10  C   UNL     1      19.308  26.735   4.436  1.00  0.00    -0.010 CG0
ATOM     11  C   UNL     1      20.484  27.720   4.242  1.00  0.00     0.016 C 
ATOM     12  C   UNL     1      18.213  27.090   3.405  1.00  0.00     0.016 C 
ATOM     13  G   UNL     1      18.815  26.857   5.896  1.00  0.00     0.000 G0
ENDBRANCH   9  10
ENDBRANCH   3   8
TORSDOF 0
ENDMDL
MODEL 8
REMARK VINA RESULT:    -3.872     16.797     18.285
REMARK INTER + INTRA:          -4.013
REMARK INTER:                  -4.774
REMARK INTRA:                   0.760
REMARK UNBOUND:                 0.764
REMARK SMILES CC1=CC=CC(C)(C)CC1=O
REMARK SMILES IDX 1 1 2 2 3 3 10 4 11 5 9 6 4 8 5 9 6 10 7 11 8 12
REMARK H PARENT
REMARK Flexibility Score: 80.00
ROOT
ATOM      1  C   UNL     1      33.525  15.023  -7.048  1.00  0.00     0.048 C 
ATOM      2  C   UNL     1      32.751  16.157  -6.420  1.00  0.00    -0.008 C 
ATOM      3  C   UNL     1      31.667  16.617  -7.082  1.00  0.00     0.007 C 
ENDROOT
BRANCH   2   4
ATOM      4  C   UNL     1      33.200  16.623  -5.083  1.00  0.00     0.159 C 
ATOM      5  O   UNL     1      34.044  15.933  -4.451  1.00  0.00    -0.295 OA
BRANCH   4   6
ATOM      6  C   UNL     1      32.713  17.886  -4.443  1.00  0.00     0.091 CG0
ATOM      7  G   UNL     1      31.185  17.903  -4.213  1.00  0.00     0.000 G0
ENDBRANCH   4   6
ENDBRANCH   2   4
BRANCH   3   8
ATOM      8  C   UNL     1      30.708  17.685  -6.711  1.00  0.00    -0.003 C 
ATOM      9  C   UNL     1      30.475  18.230  -5.511  1.00  0.00    -0.020 C 
BRANCH   9  10
ATOM     10  C   UNL     1      31.180  17.891  -4.219  1.00  0.00    -0.010 CG0
ATOM     11  C   UNL     1      30.854  18.994  -3.185  1.00  0.00     0.016 C 
ATOM     12  C   UNL     1      30.651  16.549  -3.665  1.00  0.00     0.016 C 
ATOM     13  G   UNL     1      32.708  17.881  -4.446  1.00  0.00     0.000 G0
ENDBRANCH   9  10
ENDBRANCH   3   8
TORSDOF 0
ENDMDL
MODEL 9
REMARK VINA RESULT:    -3.821     16.833     18.451
REMARK INTER + INTRA:          -3.951
REMARK INTER:                  -4.701
REMARK INTRA:                   0.750
REMARK UNBOUND:                 0.764
REMARK SMILES CC1=CC=CC(C)(C)CC1=O
REMARK SMILES IDX 1 1 2 2 3 3 10 4 11 5 9 6 4 8 5 9 6 10 7 11 8 12
REMARK H PARENT
REMARK Flexibility Score: 80.00
ROOT
ATOM      1  C   UNL     1      29.764  19.005  -3.634  1.00  0.00     0.048 C 
ATOM      2  C   UNL     1      30.947  18.253  -4.193  1.00  0.00    -0.008 C 
ATOM      3  C   UNL     1      31.743  17.597  -3.321  1.00  0.00     0.007 C 
ENDROOT
BRANCH   2   4
ATOM      4  C   UNL     1      31.097  18.230  -5.671  1.00  0.00     0.159 C 
ATOM      5  O   UNL     1      30.154  18.671  -6.383  1.00  0.00    -0.295 OA
BRANCH   4   6
ATOM      6  C   UNL     1      32.319  17.724  -6.370  1.00  0.00     0.091 CG0
ATOM      7  G   UNL     1      32.640  16.248  -6.044  1.00  0.00     0.000 G0
ENDBRANCH   4   6
ENDBRANCH   2   4
BRANCH   3   8
ATOM      8  C   UNL     1      32.943  16.764  -3.568  1.00  0.00    -0.003 C 
ATOM      9  C   UNL     1      33.343  16.176  -4.703  1.00  0.00    -0.020 C 
BRANCH   9  10
ATOM     10  C   UNL     1      32.655  16.255  -6.045  1.00  0.00    -0.010 CG0
ATOM     11  C   UNL     1      33.638  15.745  -7.124  1.00  0.00     0.016 C 
ATOM     12  C   UNL     1      31.415  15.332  -6.057  1.00  0.00     0.016 C 
ATOM     13  G   UNL     1      32.307  17.725  -6.368  1.00  0.00     0.000 G0
ENDBRANCH   9  10
ENDBRANCH   3   8
TORSDOF 0
ENDMDL
