MODEL 1
REMARK VINA RESULT:    -4.022      0.000      0.000
REMARK INTER + INTRA:          -5.158
REMARK INTER:                  -4.962
REMARK INTRA:                  -0.196
REMARK UNBOUND:                -0.196
REMARK SMILES C=CC[C@@H](C)C(=O)CC
REMARK SMILES IDX 4 1 5 2 6 3 7 4 8 5 9 6 3 7 2 8 1 9
REMARK H PARENT
REMARK Flexibility Score: inf
ROOT
ATOM      1  C   UNL     1       2.581  28.586  56.282  1.00  0.00     0.057 C 
ATOM      2  C   UNL     1       3.381  28.055  55.085  1.00  0.00     0.016 C 
ENDROOT
BRANCH   1   3
ATOM      3  C   UNL     1       1.106  28.307  56.082  1.00  0.00     0.135 C 
ATOM      4  O   UNL     1       0.692  28.005  54.971  1.00  0.00    -0.299 OA
BRANCH   3   5
ATOM      5  C   UNL     1       0.132  28.397  57.227  1.00  0.00     0.072 C 
ATOM      6  C   UNL     1      -0.717  29.659  57.116  1.00  0.00     0.012 C 
ENDBRANCH   3   5
ENDBRANCH   1   3
BRANCH   1   7
ATOM      7  C   UNL     1       3.057  27.962  57.610  1.00  0.00     0.038 C 
BRANCH   7   8
ATOM      8  C   UNL     1       4.483  27.481  57.539  1.00  0.00    -0.034 C 
ATOM      9  C   UNL     1       5.117  26.998  58.612  1.00  0.00     0.004 C 
ENDBRANCH   7   8
ENDBRANCH   1   7
TORSDOF 4
ENDMDL
MODEL 2
REMARK VINA RESULT:    -4.021      1.697      4.080
REMARK INTER + INTRA:          -5.157
REMARK INTER:                  -4.964
REMARK INTRA:                  -0.193
REMARK UNBOUND:                -0.196
REMARK SMILES C=CC[C@@H](C)C(=O)CC
REMARK SMILES IDX 4 1 5 2 6 3 7 4 8 5 9 6 3 7 2 8 1 9
REMARK H PARENT
REMARK Flexibility Score: inf
ROOT
ATOM      1  C   UNL     1       2.763  28.344  57.249  1.00  0.00     0.057 C 
ATOM      2  C   UNL     1       3.278  27.341  58.291  1.00  0.00     0.016 C 
ENDROOT
BRANCH   1   3
ATOM      3  C   UNL     1       3.458  28.115  55.925  1.00  0.00     0.135 C 
ATOM      4  O   UNL     1       4.547  27.556  55.900  1.00  0.00    -0.299 OA
BRANCH   3   5
ATOM      5  C   UNL     1       2.837  28.565  54.628  1.00  0.00     0.072 C 
ATOM      6  C   UNL     1       3.901  28.728  53.547  1.00  0.00     0.012 C 
ENDBRANCH   3   5
ENDBRANCH   1   3
BRANCH   1   7
ATOM      7  C   UNL     1       1.234  28.241  57.063  1.00  0.00     0.038 C 
BRANCH   7   8
ATOM      8  C   UNL     1       0.517  29.488  57.509  1.00  0.00    -0.034 C 
ATOM      9  C   UNL     1      -0.752  29.731  57.167  1.00  0.00     0.004 C 
ENDBRANCH   7   8
ENDBRANCH   1   7
TORSDOF 4
ENDMDL
MODEL 3
REMARK VINA RESULT:    -4.007      1.914      4.144
REMARK INTER + INTRA:          -5.140
REMARK INTER:                  -4.692
REMARK INTRA:                  -0.448
REMARK UNBOUND:                -0.196
REMARK SMILES C=CC[C@@H](C)C(=O)CC
REMARK SMILES IDX 4 1 5 2 6 3 7 4 8 5 9 6 3 7 2 8 1 9
REMARK H PARENT
REMARK Flexibility Score: inf
ROOT
ATOM      1  C   UNL     1       2.677  28.671  56.724  1.00  0.00     0.057 C 
ATOM      2  C   UNL     1       1.354  28.815  57.490  1.00  0.00     0.016 C 
ENDROOT
BRANCH   1   3
ATOM      3  C   UNL     1       3.626  27.782  57.498  1.00  0.00     0.135 C 
ATOM      4  O   UNL     1       3.204  27.111  58.430  1.00  0.00    -0.299 OA
BRANCH   3   5
ATOM      5  C   UNL     1       5.089  27.708  57.145  1.00  0.00     0.072 C 
ATOM      6  C   UNL     1       5.687  29.105  57.024  1.00  0.00     0.012 C 
ENDBRANCH   3   5
ENDBRANCH   1   3
BRANCH   1   7
ATOM      7  C   UNL     1       2.458  28.097  55.308  1.00  0.00     0.038 C 
BRANCH   7   8
ATOM      8  C   UNL     1       3.080  28.956  54.238  1.00  0.00    -0.034 C 
ATOM      9  C   UNL     1       4.145  28.551  53.541  1.00  0.00     0.004 C 
ENDBRANCH   7   8
ENDBRANCH   1   7
TORSDOF 4
ENDMDL
MODEL 4
REMARK VINA RESULT:    -3.951      1.684      4.198
REMARK INTER + INTRA:          -5.071
REMARK INTER:                  -4.878
REMARK INTRA:                  -0.192
REMARK UNBOUND:                -0.196
REMARK SMILES C=CC[C@@H](C)C(=O)CC
REMARK SMILES IDX 4 1 5 2 6 3 7 4 8 5 9 6 3 7 2 8 1 9
REMARK H PARENT
REMARK Flexibility Score: inf
ROOT
ATOM      1  C   UNL     1       2.595  28.087  56.276  1.00  0.00     0.057 C 
ATOM      2  C   UNL     1       2.865  28.771  54.928  1.00  0.00     0.016 C 
ENDROOT
BRANCH   1   3
ATOM      3  C   UNL     1       3.906  27.737  56.947  1.00  0.00     0.135 C 
ATOM      4  O   UNL     1       4.960  27.935  56.359  1.00  0.00    -0.299 OA
BRANCH   3   5
ATOM      5  C   UNL     1       3.939  27.141  58.330  1.00  0.00     0.072 C 
ATOM      6  C   UNL     1       5.374  26.858  58.761  1.00  0.00     0.012 C 
ENDBRANCH   3   5
ENDBRANCH   1   3
BRANCH   1   7
ATOM      7  C   UNL     1       1.750  28.979  57.209  1.00  0.00     0.038 C 
BRANCH   7   8
ATOM      8  C   UNL     1       0.310  28.540  57.274  1.00  0.00    -0.034 C 
ATOM      9  C   UNL     1      -0.694  29.380  57.008  1.00  0.00     0.004 C 
ENDBRANCH   7   8
ENDBRANCH   1   7
TORSDOF 4
ENDMDL
MODEL 5
REMARK VINA RESULT:    -3.924      1.150      2.661
REMARK INTER + INTRA:          -5.038
REMARK INTER:                  -4.725
REMARK INTRA:                  -0.313
REMARK UNBOUND:                -0.196
REMARK SMILES C=CC[C@@H](C)C(=O)CC
REMARK SMILES IDX 4 1 5 2 6 3 7 4 8 5 9 6 3 7 2 8 1 9
REMARK H PARENT
REMARK Flexibility Score: inf
ROOT
ATOM      1  C   UNL     1       2.159  28.220  56.891  1.00  0.00     0.057 C 
ATOM      2  C   UNL     1       1.184  29.222  57.526  1.00  0.00     0.016 C 
ENDROOT
BRANCH   1   3
ATOM      3  C   UNL     1       2.036  28.267  55.383  1.00  0.00     0.135 C 
ATOM      4  O   UNL     1       0.930  28.342  54.867  1.00  0.00    -0.299 OA
BRANCH   3   5
ATOM      5  C   UNL     1       3.255  28.219  54.499  1.00  0.00     0.072 C 
ATOM      6  C   UNL     1       3.442  29.542  53.764  1.00  0.00     0.012 C 
ENDBRANCH   3   5
ENDBRANCH   1   3
BRANCH   1   7
ATOM      7  C   UNL     1       3.618  28.501  57.307  1.00  0.00     0.038 C 
BRANCH   7   8
ATOM      8  C   UNL     1       4.246  27.332  58.021  1.00  0.00    -0.034 C 
ATOM      9  C   UNL     1       3.581  26.631  58.943  1.00  0.00     0.004 C 
ENDBRANCH   7   8
ENDBRANCH   1   7
TORSDOF 4
ENDMDL
MODEL 6
REMARK VINA RESULT:    -3.694      1.691      4.236
REMARK INTER + INTRA:          -4.754
REMARK INTER:                  -4.528
REMARK INTRA:                  -0.226
REMARK UNBOUND:                -0.196
REMARK SMILES C=CC[C@@H](C)C(=O)CC
REMARK SMILES IDX 4 1 5 2 6 3 7 4 8 5 9 6 3 7 2 8 1 9
REMARK H PARENT
REMARK Flexibility Score: inf
ROOT
ATOM      1  C   UNL     1       2.611  28.137  54.973  1.00  0.00     0.057 C 
ATOM      2  C   UNL     1       3.002  29.388  54.173  1.00  0.00     0.016 C 
ENDROOT
BRANCH   1   3
ATOM      3  C   UNL     1       3.278  28.166  56.331  1.00  0.00     0.135 C 
ATOM      4  O   UNL     1       2.606  28.372  57.332  1.00  0.00    -0.299 OA
BRANCH   3   5
ATOM      5  C   UNL     1       4.762  27.948  56.477  1.00  0.00     0.072 C 
ATOM      6  C   UNL     1       5.420  29.147  57.151  1.00  0.00     0.012 C 
ENDBRANCH   3   5
ENDBRANCH   1   3
BRANCH   1   7
ATOM      7  C   UNL     1       1.082  28.021  55.141  1.00  0.00     0.038 C 
BRANCH   7   8
ATOM      8  C   UNL     1       0.388  29.353  55.015  1.00  0.00    -0.034 C 
ATOM      9  C   UNL     1      -0.447  29.803  55.956  1.00  0.00     0.004 C 
ENDBRANCH   7   8
ENDBRANCH   1   7
TORSDOF 4
ENDMDL
MODEL 7
REMARK VINA RESULT:    -3.595      8.255      9.444
REMARK INTER + INTRA:          -4.632
REMARK INTER:                  -4.408
REMARK INTRA:                  -0.224
REMARK UNBOUND:                -0.196
REMARK SMILES C=CC[C@@H](C)C(=O)CC
REMARK SMILES IDX 4 1 5 2 6 3 7 4 8 5 9 6 3 7 2 8 1 9
REMARK H PARENT
REMARK Flexibility Score: inf
ROOT
ATOM      1  C   UNL     1      -6.882  29.190  57.151  1.00  0.00     0.057 C 
ATOM      2  C   UNL     1      -8.063  30.167  57.240  1.00  0.00     0.016 C 
ENDROOT
BRANCH   1   3
ATOM      3  C   UNL     1      -5.828  29.562  58.171  1.00  0.00     0.135 C 
ATOM      4  O   UNL     1      -4.866  28.826  58.346  1.00  0.00    -0.299 OA
BRANCH   3   5
ATOM      5  C   UNL     1      -5.940  30.826  58.983  1.00  0.00     0.072 C 
ATOM      6  C   UNL     1      -4.656  31.081  59.767  1.00  0.00     0.012 C 
ENDBRANCH   3   5
ENDBRANCH   1   3
BRANCH   1   7
ATOM      7  C   UNL     1      -7.330  27.730  57.369  1.00  0.00     0.038 C 
BRANCH   7   8
ATOM      8  C   UNL     1      -7.459  26.970  56.075  1.00  0.00    -0.034 C 
ATOM      9  C   UNL     1      -6.660  27.214  55.033  1.00  0.00     0.004 C 
ENDBRANCH   7   8
ENDBRANCH   1   7
TORSDOF 4
ENDMDL
MODEL 8
REMARK VINA RESULT:    -3.576      1.771      3.367
REMARK INTER + INTRA:          -4.609
REMARK INTER:                  -4.439
REMARK INTRA:                  -0.169
REMARK UNBOUND:                -0.196
REMARK SMILES C=CC[C@@H](C)C(=O)CC
REMARK SMILES IDX 4 1 5 2 6 3 7 4 8 5 9 6 3 7 2 8 1 9
REMARK H PARENT
REMARK Flexibility Score: inf
ROOT
ATOM      1  C   UNL     1       3.756  28.052  55.210  1.00  0.00     0.057 C 
ATOM      2  C   UNL     1       4.726  28.011  56.399  1.00  0.00     0.016 C 
ENDROOT
BRANCH   1   3
ATOM      3  C   UNL     1       2.353  28.341  55.701  1.00  0.00     0.135 C 
ATOM      4  O   UNL     1       1.424  28.356  54.905  1.00  0.00    -0.299 OA
BRANCH   3   5
ATOM      5  C   UNL     1       2.076  28.614  57.156  1.00  0.00     0.072 C 
ATOM      6  C   UNL     1       0.689  29.224  57.336  1.00  0.00     0.012 C 
ENDBRANCH   3   5
ENDBRANCH   1   3
BRANCH   1   7
ATOM      7  C   UNL     1       4.174  29.110  54.167  1.00  0.00     0.038 C 
BRANCH   7   8
ATOM      8  C   UNL     1       4.314  28.527  52.785  1.00  0.00    -0.034 C 
ATOM      9  C   UNL     1       5.186  29.019  51.899  1.00  0.00     0.004 C 
ENDBRANCH   7   8
ENDBRANCH   1   7
TORSDOF 4
ENDMDL
MODEL 9
REMARK VINA RESULT:    -3.567      8.488      9.899
REMARK INTER + INTRA:          -4.597
REMARK INTER:                  -4.324
REMARK INTRA:                  -0.273
REMARK UNBOUND:                -0.196
REMARK SMILES C=CC[C@@H](C)C(=O)CC
REMARK SMILES IDX 4 1 5 2 6 3 7 4 8 5 9 6 3 7 2 8 1 9
REMARK H PARENT
REMARK Flexibility Score: inf
ROOT
ATOM      1  C   UNL     1      -7.776  30.849  58.034  1.00  0.00     0.057 C 
ATOM      2  C   UNL     1      -9.017  31.569  57.487  1.00  0.00     0.016 C 
ENDROOT
BRANCH   1   3
ATOM      3  C   UNL     1      -7.290  29.826  57.030  1.00  0.00     0.135 C 
ATOM      4  O   UNL     1      -7.530  29.982  55.840  1.00  0.00    -0.299 OA
BRANCH   3   5
ATOM      5  C   UNL     1      -6.514  28.611  57.467  1.00  0.00     0.072 C 
ATOM      6  C   UNL     1      -7.398  27.368  57.439  1.00  0.00     0.012 C 
ENDBRANCH   3   5
ENDBRANCH   1   3
BRANCH   1   7
ATOM      7  C   UNL     1      -6.640  31.840  58.365  1.00  0.00     0.038 C 
BRANCH   7   8
ATOM      8  C   UNL     1      -5.971  31.527  59.678  1.00  0.00    -0.034 C 
ATOM      9  C   UNL     1      -4.706  31.101  59.739  1.00  0.00     0.004 C 
ENDBRANCH   7   8
ENDBRANCH   1   7
TORSDOF 4
ENDMDL
