MODEL 1
REMARK VINA RESULT:    -4.579      0.000      0.000
REMARK INTER + INTRA:          -5.149
REMARK INTER:                  -4.980
REMARK INTRA:                  -0.168
REMARK UNBOUND:                -0.168
REMARK SMILES C=C(C)[C@H]1CC[C@@H](C)C[C@H]1O
REMARK SMILES IDX 8 1 7 2 6 3 5 4 4 5 10 6 9 7 11 8 2 10 1 11 3 12
REMARK H PARENT 11 9
REMARK Flexibility Score: inf
ROOT
ATOM      1  C   UNL     1     137.314 142.912 147.908  1.00  0.00     0.008 C 
ATOM      2  C   UNL     1     138.783 142.824 148.353  1.00  0.00    -0.012 C 
ATOM      3  C   UNL     1     139.710 143.688 147.470  1.00  0.00     0.004 C 
ATOM      4  C   UNL     1     139.981 143.049 146.101  1.00  0.00     0.011 C 
ATOM      5  C   UNL     1     140.556 141.629 146.266  1.00  0.00     0.043 C 
ATOM      6  C   UNL     1     139.606 140.724 147.082  1.00  0.00     0.121 C 
ATOM      7  C   UNL     1     139.289 141.365 148.451  1.00  0.00     0.035 C 
ENDROOT
BRANCH   6   8
ATOM      8  O   UNL     1     138.422 140.470 146.371  1.00  0.00    -0.392 OA
ATOM      9  H   UNL     1     137.988 141.349 146.212  1.00  0.00     0.210 HD
ENDBRANCH   6   8
BRANCH   5  10
ATOM     10  C   UNL     1     140.932 140.999 144.927  1.00  0.00    -0.075 C 
ATOM     11  C   UNL     1     141.801 139.975 144.891  1.00  0.00     0.008 C 
ATOM     12  C   UNL     1     140.315 141.455 143.627  1.00  0.00     0.039 C 
ENDBRANCH   5  10
TORSDOF 2
ENDMDL
MODEL 2
REMARK VINA RESULT:    -4.412      1.549      2.327
REMARK INTER + INTRA:          -4.967
REMARK INTER:                  -4.784
REMARK INTRA:                  -0.183
REMARK UNBOUND:                -0.168
REMARK SMILES C=C(C)[C@H]1CC[C@@H](C)C[C@H]1O
REMARK SMILES IDX 8 1 7 2 6 3 5 4 4 5 10 6 9 7 11 8 2 10 1 11 3 12
REMARK H PARENT 11 9
REMARK Flexibility Score: inf
ROOT
ATOM      1  C   UNL     1     139.631 144.120 148.006  1.00  0.00     0.008 C 
ATOM      2  C   UNL     1     138.685 142.919 148.162  1.00  0.00    -0.012 C 
ATOM      3  C   UNL     1     139.456 141.589 148.311  1.00  0.00     0.004 C 
ATOM      4  C   UNL     1     140.032 141.090 146.978  1.00  0.00     0.011 C 
ATOM      5  C   UNL     1     138.920 140.959 145.919  1.00  0.00     0.043 C 
ATOM      6  C   UNL     1     138.186 142.300 145.698  1.00  0.00     0.121 C 
ATOM      7  C   UNL     1     137.629 142.841 147.034  1.00  0.00     0.035 C 
ENDROOT
BRANCH   6   8
ATOM      8  O   UNL     1     139.036 143.245 145.102  1.00  0.00    -0.392 OA
ATOM      9  H   UNL     1     139.883 142.773 144.884  1.00  0.00     0.210 HD
ENDBRANCH   6   8
BRANCH   5  10
ATOM     10  C   UNL     1     139.437 140.371 144.609  1.00  0.00    -0.075 C 
ATOM     11  C   UNL     1     138.569 139.899 143.699  1.00  0.00     0.008 C 
ATOM     12  C   UNL     1     140.908 140.347 144.268  1.00  0.00     0.039 C 
ENDBRANCH   5  10
TORSDOF 2
ENDMDL
MODEL 3
REMARK VINA RESULT:    -4.346      1.355      4.096
REMARK INTER + INTRA:          -4.895
REMARK INTER:                  -4.714
REMARK INTRA:                  -0.181
REMARK UNBOUND:                -0.168
REMARK SMILES C=C(C)[C@H]1CC[C@@H](C)C[C@H]1O
REMARK SMILES IDX 8 1 7 2 6 3 5 4 4 5 10 6 9 7 11 8 2 10 1 11 3 12
REMARK H PARENT 11 9
REMARK Flexibility Score: inf
ROOT
ATOM      1  C   UNL     1     139.219 139.786 143.950  1.00  0.00     0.008 C 
ATOM      2  C   UNL     1     140.281 139.759 145.061  1.00  0.00    -0.012 C 
ATOM      3  C   UNL     1     139.668 139.440 146.442  1.00  0.00     0.004 C 
ATOM      4  C   UNL     1     138.922 140.638 147.045  1.00  0.00     0.011 C 
ATOM      5  C   UNL     1     139.845 141.869 147.132  1.00  0.00     0.043 C 
ATOM      6  C   UNL     1     140.409 142.253 145.746  1.00  0.00     0.121 C 
ATOM      7  C   UNL     1     141.133 141.050 145.102  1.00  0.00     0.035 C 
ENDROOT
BRANCH   6   8
ATOM      8  O   UNL     1     139.389 142.722 144.902  1.00  0.00    -0.392 OA
ATOM      9  H   UNL     1     138.990 143.516 145.347  1.00  0.00     0.210 HD
ENDBRANCH   6   8
BRANCH   5  10
ATOM     10  C   UNL     1     139.168 143.052 147.819  1.00  0.00    -0.075 C 
ATOM     11  C   UNL     1     139.875 144.160 148.092  1.00  0.00     0.008 C 
ATOM     12  C   UNL     1     137.697 143.044 148.161  1.00  0.00     0.039 C 
ENDBRANCH   5  10
TORSDOF 2
ENDMDL
MODEL 4
REMARK VINA RESULT:    -4.305      1.187      4.011
REMARK INTER + INTRA:          -4.851
REMARK INTER:                  -4.717
REMARK INTRA:                  -0.135
REMARK UNBOUND:                -0.168
REMARK SMILES C=C(C)[C@H]1CC[C@@H](C)C[C@H]1O
REMARK SMILES IDX 8 1 7 2 6 3 5 4 4 5 10 6 9 7 11 8 2 10 1 11 3 12
REMARK H PARENT 11 9
REMARK Flexibility Score: inf
ROOT
ATOM      1  C   UNL     1     141.890 140.019 145.054  1.00  0.00     0.008 C 
ATOM      2  C   UNL     1     140.391 140.078 144.720  1.00  0.00    -0.012 C 
ATOM      3  C   UNL     1     139.960 141.479 144.233  1.00  0.00     0.004 C 
ATOM      4  C   UNL     1     139.847 142.492 145.381  1.00  0.00     0.011 C 
ATOM      5  C   UNL     1     138.888 141.976 146.471  1.00  0.00     0.043 C 
ATOM      6  C   UNL     1     139.345 140.610 147.028  1.00  0.00     0.121 C 
ATOM      7  C   UNL     1     139.502 139.582 145.885  1.00  0.00     0.035 C 
ENDROOT
BRANCH   6   8
ATOM      8  O   UNL     1     140.547 140.736 147.744  1.00  0.00    -0.392 OA
ATOM      9  H   UNL     1     140.468 141.558 148.295  1.00  0.00     0.210 HD
ENDBRANCH   6   8
BRANCH   5  10
ATOM     10  C   UNL     1     138.673 143.001 147.582  1.00  0.00    -0.075 C 
ATOM     11  C   UNL     1     137.536 142.983 148.297  1.00  0.00     0.008 C 
ATOM     12  C   UNL     1     139.729 144.016 147.950  1.00  0.00     0.039 C 
ENDBRANCH   5  10
TORSDOF 2
ENDMDL
MODEL 5
REMARK VINA RESULT:    -4.144      1.448      3.909
REMARK INTER + INTRA:          -4.675
REMARK INTER:                  -4.635
REMARK INTRA:                  -0.040
REMARK UNBOUND:                -0.168
REMARK SMILES C=C(C)[C@H]1CC[C@@H](C)C[C@H]1O
REMARK SMILES IDX 8 1 7 2 6 3 5 4 4 5 10 6 9 7 11 8 2 10 1 11 3 12
REMARK H PARENT 11 9
REMARK Flexibility Score: inf
ROOT
ATOM      1  C   UNL     1     138.491 140.074 144.065  1.00  0.00     0.008 C 
ATOM      2  C   UNL     1     138.932 141.517 143.774  1.00  0.00    -0.012 C 
ATOM      3  C   UNL     1     140.419 141.750 144.120  1.00  0.00     0.004 C 
ATOM      4  C   UNL     1     140.659 141.873 145.631  1.00  0.00     0.011 C 
ATOM      5  C   UNL     1     139.780 142.986 146.234  1.00  0.00     0.043 C 
ATOM      6  C   UNL     1     138.280 142.732 145.966  1.00  0.00     0.121 C 
ATOM      7  C   UNL     1     138.019 142.567 144.452  1.00  0.00     0.035 C 
ENDROOT
BRANCH   6   8
ATOM      8  O   UNL     1     137.829 141.603 146.668  1.00  0.00    -0.392 OA
ATOM      9  H   UNL     1     137.830 141.844 147.632  1.00  0.00     0.210 HD
ENDBRANCH   6   8
BRANCH   5  10
ATOM     10  C   UNL     1     140.063 143.207 147.717  1.00  0.00    -0.075 C 
ATOM     11  C   UNL     1     140.034 144.449 148.227  1.00  0.00     0.008 C 
ATOM     12  C   UNL     1     140.328 142.057 148.661  1.00  0.00     0.039 C 
ENDBRANCH   5  10
TORSDOF 2
ENDMDL
MODEL 6
REMARK VINA RESULT:    -4.090      1.662      2.465
REMARK INTER + INTRA:          -4.617
REMARK INTER:                  -4.435
REMARK INTRA:                  -0.182
REMARK UNBOUND:                -0.168
REMARK SMILES C=C(C)[C@H]1CC[C@@H](C)C[C@H]1O
REMARK SMILES IDX 8 1 7 2 6 3 5 4 4 5 10 6 9 7 11 8 2 10 1 11 3 12
REMARK H PARENT 11 9
REMARK Flexibility Score: inf
ROOT
ATOM      1  C   UNL     1     140.128 141.777 148.810  1.00  0.00     0.008 C 
ATOM      2  C   UNL     1     139.620 142.970 147.984  1.00  0.00    -0.012 C 
ATOM      3  C   UNL     1     138.217 142.709 147.391  1.00  0.00     0.004 C 
ATOM      4  C   UNL     1     138.256 141.761 146.185  1.00  0.00     0.011 C 
ATOM      5  C   UNL     1     139.213 142.294 145.102  1.00  0.00     0.043 C 
ATOM      6  C   UNL     1     140.643 142.488 145.655  1.00  0.00     0.121 C 
ATOM      7  C   UNL     1     140.625 143.410 146.894  1.00  0.00     0.035 C 
ENDROOT
BRANCH   6   8
ATOM      8  O   UNL     1     141.231 141.253 145.970  1.00  0.00    -0.392 OA
ATOM      9  H   UNL     1     141.727 140.955 145.163  1.00  0.00     0.210 HD
ENDBRANCH   6   8
BRANCH   5  10
ATOM     10  C   UNL     1     139.202 141.429 143.845  1.00  0.00    -0.075 C 
ATOM     11  C   UNL     1     139.876 141.827 142.753  1.00  0.00     0.008 C 
ATOM     12  C   UNL     1     138.495 140.095 143.797  1.00  0.00     0.039 C 
ENDBRANCH   5  10
TORSDOF 2
ENDMDL
MODEL 7
REMARK VINA RESULT:    -4.067      1.685      3.936
REMARK INTER + INTRA:          -4.592
REMARK INTER:                  -4.409
REMARK INTRA:                  -0.183
REMARK UNBOUND:                -0.168
REMARK SMILES C=C(C)[C@H]1CC[C@@H](C)C[C@H]1O
REMARK SMILES IDX 8 1 7 2 6 3 5 4 4 5 10 6 9 7 11 8 2 10 1 11 3 12
REMARK H PARENT 11 9
REMARK Flexibility Score: inf
ROOT
ATOM      1  C   UNL     1     139.851 141.843 142.795  1.00  0.00     0.008 C 
ATOM      2  C   UNL     1     138.571 141.346 143.486  1.00  0.00    -0.012 C 
ATOM      3  C   UNL     1     137.771 142.503 144.125  1.00  0.00     0.004 C 
ATOM      4  C   UNL     1     138.403 143.005 145.430  1.00  0.00     0.011 C 
ATOM      5  C   UNL     1     138.578 141.848 146.432  1.00  0.00     0.043 C 
ATOM      6  C   UNL     1     139.443 140.712 145.841  1.00  0.00     0.121 C 
ATOM      7  C   UNL     1     138.846 140.215 144.505  1.00  0.00     0.035 C 
ENDROOT
BRANCH   6   8
ATOM      8  O   UNL     1     140.769 141.134 145.660  1.00  0.00    -0.392 OA
ATOM      9  H   UNL     1     140.836 142.047 146.046  1.00  0.00     0.210 HD
ENDBRANCH   6   8
BRANCH   5  10
ATOM     10  C   UNL     1     139.112 142.326 147.780  1.00  0.00    -0.075 C 
ATOM     11  C   UNL     1     139.182 141.471 148.813  1.00  0.00     0.008 C 
ATOM     12  C   UNL     1     139.622 143.733 147.985  1.00  0.00     0.039 C 
ENDBRANCH   5  10
TORSDOF 2
ENDMDL
MODEL 8
REMARK VINA RESULT:    -3.634      9.516     11.095
REMARK INTER + INTRA:          -4.121
REMARK INTER:                  -3.938
REMARK INTRA:                  -0.182
REMARK UNBOUND:                -0.168
REMARK SMILES C=C(C)[C@H]1CC[C@@H](C)C[C@H]1O
REMARK SMILES IDX 8 1 7 2 6 3 5 4 4 5 10 6 9 7 11 8 2 10 1 11 3 12
REMARK H PARENT 11 9
REMARK Flexibility Score: inf
ROOT
ATOM      1  C   UNL     1     138.357 133.893 148.997  1.00  0.00     0.008 C 
ATOM      2  C   UNL     1     137.455 132.819 148.367  1.00  0.00    -0.012 C 
ATOM      3  C   UNL     1     136.103 133.400 147.899  1.00  0.00     0.004 C 
ATOM      4  C   UNL     1     135.142 133.666 149.065  1.00  0.00     0.011 C 
ATOM      5  C   UNL     1     134.925 132.388 149.897  1.00  0.00     0.043 C 
ATOM      6  C   UNL     1     136.261 131.833 150.441  1.00  0.00     0.121 C 
ATOM      7  C   UNL     1     137.259 131.591 149.287  1.00  0.00     0.035 C 
ENDROOT
BRANCH   6   8
ATOM      8  O   UNL     1     136.813 132.702 151.395  1.00  0.00    -0.392 OA
ATOM      9  H   UNL     1     136.328 132.540 152.247  1.00  0.00     0.210 HD
ENDBRANCH   6   8
BRANCH   5  10
ATOM     10  C   UNL     1     133.897 132.588 151.007  1.00  0.00    -0.075 C 
ATOM     11  C   UNL     1     133.489 131.537 151.738  1.00  0.00     0.008 C 
ATOM     12  C   UNL     1     133.352 133.952 151.357  1.00  0.00     0.039 C 
ENDBRANCH   5  10
TORSDOF 2
ENDMDL
MODEL 9
REMARK VINA RESULT:    -3.612      1.488      2.069
REMARK INTER + INTRA:          -4.097
REMARK INTER:                  -3.930
REMARK INTRA:                  -0.167
REMARK UNBOUND:                -0.168
REMARK SMILES C=C(C)[C@H]1CC[C@@H](C)C[C@H]1O
REMARK SMILES IDX 8 1 7 2 6 3 5 4 4 5 10 6 9 7 11 8 2 10 1 11 3 12
REMARK H PARENT 11 9
REMARK Flexibility Score: inf
ROOT
ATOM      1  C   UNL     1     137.924 142.661 148.007  1.00  0.00     0.008 C 
ATOM      2  C   UNL     1     138.568 143.327 146.780  1.00  0.00    -0.012 C 
ATOM      3  C   UNL     1     138.051 142.725 145.455  1.00  0.00     0.004 C 
ATOM      4  C   UNL     1     138.661 141.349 145.156  1.00  0.00     0.011 C 
ATOM      5  C   UNL     1     140.200 141.423 145.155  1.00  0.00     0.043 C 
ATOM      6  C   UNL     1     140.744 141.950 146.502  1.00  0.00     0.121 C 
ATOM      7  C   UNL     1     140.114 143.319 146.843  1.00  0.00     0.035 C 
ENDROOT
BRANCH   6   8
ATOM      8  O   UNL     1     140.505 141.029 147.534  1.00  0.00    -0.392 OA
ATOM      9  H   UNL     1     139.602 141.230 147.896  1.00  0.00     0.210 HD
ENDBRANCH   6   8
BRANCH   5  10
ATOM     10  C   UNL     1     140.843 140.095 144.763  1.00  0.00    -0.075 C 
ATOM     11  C   UNL     1     140.079 139.097 144.289  1.00  0.00     0.008 C 
ATOM     12  C   UNL     1     142.335 139.875 144.838  1.00  0.00     0.039 C 
ENDBRANCH   5  10
TORSDOF 2
ENDMDL
