MODEL 1
REMARK VINA RESULT:    -5.538      0.000      0.000
REMARK INTER + INTRA:          -6.658
REMARK INTER:                  -6.509
REMARK INTRA:                  -0.149
REMARK UNBOUND:                -0.149
REMARK SMILES O=C([O-])C=Cc1ccc(O)c(O)c1
REMARK SMILES IDX 6 1 13 2 7 3 11 4 8 5 9 6 5 7 4 8 2 9 1 10 3 11 12 12 10 14
REMARK H PARENT 12 13 10 15
REMARK Flexibility Score: inf
ROOT
ATOM      1  C   UNL     1     -33.799  94.422   7.096  1.00  0.00    -0.022 A 
ATOM      2  C   UNL     1     -33.081  93.486   6.328  1.00  0.00     0.058 A 
ATOM      3  C   UNL     1     -35.051  94.057   7.609  1.00  0.00     0.012 A 
ATOM      4  C   UNL     1     -33.589  92.201   6.098  1.00  0.00     0.157 A 
ATOM      5  C   UNL     1     -35.564  92.777   7.388  1.00  0.00     0.051 A 
ATOM      6  C   UNL     1     -34.845  91.840   6.640  1.00  0.00     0.157 A 
ENDROOT
BRANCH   1   7
ATOM      7  C   UNL     1     -33.300  95.797   7.351  1.00  0.00     0.010 C 
ATOM      8  C   UNL     1     -34.087  96.820   7.710  1.00  0.00     0.025 C 
BRANCH   8   9
ATOM      9  C   UNL     1     -33.550  98.170   7.942  1.00  0.00     0.064 C 
ATOM     10  O   UNL     1     -33.522  98.998   6.995  1.00  0.00    -0.545 OA
ATOM     11  O   UNL     1     -33.072  98.548   9.192  1.00  0.00    -0.545 OA
ENDBRANCH   8   9
ENDBRANCH   1   7
BRANCH   4  12
ATOM     12  O   UNL     1     -32.823  91.324   5.326  1.00  0.00    -0.504 OA
ATOM     13  H   UNL     1     -32.193  90.635   5.710  1.00  0.00     0.293 HD
ENDBRANCH   4  12
BRANCH   6  14
ATOM     14  O   UNL     1     -35.411  90.576   6.460  1.00  0.00    -0.504 OA
ATOM     15  H   UNL     1     -35.085  89.903   5.781  1.00  0.00     0.293 HD
ENDBRANCH   6  14
TORSDOF 4
ENDMDL
MODEL 2
REMARK VINA RESULT:    -5.309      0.982      2.138
REMARK INTER + INTRA:          -6.389
REMARK INTER:                  -6.266
REMARK INTRA:                  -0.123
REMARK UNBOUND:                -0.149
REMARK SMILES O=C([O-])C=Cc1ccc(O)c(O)c1
REMARK SMILES IDX 6 1 13 2 7 3 11 4 8 5 9 6 5 7 4 8 2 9 1 10 3 11 12 12 10 14
REMARK H PARENT 12 13 10 15
REMARK Flexibility Score: inf
ROOT
ATOM      1  C   UNL     1     -34.054  94.546   7.198  1.00  0.00    -0.022 A 
ATOM      2  C   UNL     1     -34.865  93.962   8.190  1.00  0.00     0.058 A 
ATOM      3  C   UNL     1     -33.689  93.777   6.084  1.00  0.00     0.012 A 
ATOM      4  C   UNL     1     -35.325  92.645   8.061  1.00  0.00     0.157 A 
ATOM      5  C   UNL     1     -34.146  92.465   5.946  1.00  0.00     0.051 A 
ATOM      6  C   UNL     1     -34.966  91.889   6.922  1.00  0.00     0.157 A 
ENDROOT
BRANCH   1   7
ATOM      7  C   UNL     1     -33.537  95.934   7.305  1.00  0.00     0.010 C 
ATOM      8  C   UNL     1     -33.938  96.808   8.237  1.00  0.00     0.025 C 
BRANCH   8   9
ATOM      9  C   UNL     1     -33.406  98.179   8.297  1.00  0.00     0.064 C 
ATOM     10  O   UNL     1     -32.877  98.593   9.362  1.00  0.00    -0.545 OA
ATOM     11  O   UNL     1     -33.478  99.026   7.197  1.00  0.00    -0.545 OA
ENDBRANCH   8   9
ENDBRANCH   1   7
BRANCH   4  12
ATOM     12  O   UNL     1     -36.125  92.130   9.085  1.00  0.00    -0.504 OA
ATOM     13  H   UNL     1     -37.042  91.732   8.940  1.00  0.00     0.293 HD
ENDBRANCH   4  12
BRANCH   6  14
ATOM     14  O   UNL     1     -35.393  90.574   6.720  1.00  0.00    -0.504 OA
ATOM     15  H   UNL     1     -34.780  89.771   6.744  1.00  0.00     0.293 HD
ENDBRANCH   6  14
TORSDOF 4
ENDMDL
MODEL 3
REMARK VINA RESULT:    -5.290     18.730     19.685
REMARK INTER + INTRA:          -6.367
REMARK INTER:                  -6.216
REMARK INTRA:                  -0.150
REMARK UNBOUND:                -0.149
REMARK SMILES O=C([O-])C=Cc1ccc(O)c(O)c1
REMARK SMILES IDX 6 1 13 2 7 3 11 4 8 5 9 6 5 7 4 8 2 9 1 10 3 11 12 12 10 14
REMARK H PARENT 12 13 10 15
REMARK Flexibility Score: inf
ROOT
ATOM      1  C   UNL     1     -19.872  98.070  -5.880  1.00  0.00    -0.022 A 
ATOM      2  C   UNL     1     -18.480  98.062  -5.666  1.00  0.00     0.058 A 
ATOM      3  C   UNL     1     -20.637  97.002  -5.391  1.00  0.00     0.012 A 
ATOM      4  C   UNL     1     -17.866  97.022  -4.956  1.00  0.00     0.157 A 
ATOM      5  C   UNL     1     -20.034  95.963  -4.679  1.00  0.00     0.051 A 
ATOM      6  C   UNL     1     -18.654  95.962  -4.451  1.00  0.00     0.157 A 
ENDROOT
BRANCH   1   7
ATOM      7  C   UNL     1     -20.557  99.147  -6.637  1.00  0.00     0.010 C 
ATOM      8  C   UNL     1     -21.811  99.049  -7.101  1.00  0.00     0.025 C 
BRANCH   8   9
ATOM      9  C   UNL     1     -22.447 100.138  -7.859  1.00  0.00     0.064 C 
ATOM     10  O   UNL     1     -22.937  99.901  -8.993  1.00  0.00    -0.545 OA
ATOM     11  O   UNL     1     -22.517 101.427  -7.340  1.00  0.00    -0.545 OA
ENDBRANCH   8   9
ENDBRANCH   1   7
BRANCH   4  12
ATOM     12  O   UNL     1     -16.481  97.079  -4.784  1.00  0.00    -0.504 OA
ATOM     13  H   UNL     1     -15.979  97.910  -4.507  1.00  0.00     0.293 HD
ENDBRANCH   4  12
BRANCH   6  14
ATOM     14  O   UNL     1     -18.114  94.896  -3.728  1.00  0.00    -0.504 OA
ATOM     15  H   UNL     1     -17.444  94.240  -4.104  1.00  0.00     0.293 HD
ENDBRANCH   6  14
TORSDOF 4
ENDMDL
MODEL 4
REMARK VINA RESULT:    -5.137      1.307      2.484
REMARK INTER + INTRA:          -6.187
REMARK INTER:                  -6.037
REMARK INTRA:                  -0.150
REMARK UNBOUND:                -0.149
REMARK SMILES O=C([O-])C=Cc1ccc(O)c(O)c1
REMARK SMILES IDX 6 1 13 2 7 3 11 4 8 5 9 6 5 7 4 8 2 9 1 10 3 11 12 12 10 14
REMARK H PARENT 12 13 10 15
REMARK Flexibility Score: inf
ROOT
ATOM      1  C   UNL     1     -33.801  95.758   7.641  1.00  0.00    -0.022 A 
ATOM      2  C   UNL     1     -34.975  94.989   7.531  1.00  0.00     0.058 A 
ATOM      3  C   UNL     1     -32.564  95.141   7.406  1.00  0.00     0.012 A 
ATOM      4  C   UNL     1     -34.920  93.637   7.170  1.00  0.00     0.157 A 
ATOM      5  C   UNL     1     -32.500  93.795   7.042  1.00  0.00     0.051 A 
ATOM      6  C   UNL     1     -33.666  93.034   6.916  1.00  0.00     0.157 A 
ENDROOT
BRANCH   1   7
ATOM      7  C   UNL     1     -33.817  97.190   8.033  1.00  0.00     0.010 C 
ATOM      8  C   UNL     1     -32.741  97.851   8.483  1.00  0.00     0.025 C 
BRANCH   8   9
ATOM      9  C   UNL     1     -32.806  99.268   8.872  1.00  0.00     0.064 C 
ATOM     10  O   UNL     1     -32.284  99.639   9.956  1.00  0.00    -0.545 OA
ATOM     11  O   UNL     1     -33.435 100.207   8.061  1.00  0.00    -0.545 OA
ENDBRANCH   8   9
ENDBRANCH   1   7
BRANCH   4  12
ATOM     12  O   UNL     1     -36.125  92.935   7.082  1.00  0.00    -0.504 OA
ATOM     13  H   UNL     1     -36.567  92.679   6.211  1.00  0.00     0.293 HD
ENDBRANCH   4  12
BRANCH   6  14
ATOM     14  O   UNL     1     -33.533  91.694   6.543  1.00  0.00    -0.504 OA
ATOM     15  H   UNL     1     -34.055  90.937   6.962  1.00  0.00     0.293 HD
ENDBRANCH   6  14
TORSDOF 4
ENDMDL
MODEL 5
REMARK VINA RESULT:    -5.083     18.402     19.552
REMARK INTER + INTRA:          -6.123
REMARK INTER:                  -5.971
REMARK INTRA:                  -0.152
REMARK UNBOUND:                -0.149
REMARK SMILES O=C([O-])C=Cc1ccc(O)c(O)c1
REMARK SMILES IDX 6 1 13 2 7 3 11 4 8 5 9 6 5 7 4 8 2 9 1 10 3 11 12 12 10 14
REMARK H PARENT 12 13 10 15
REMARK Flexibility Score: inf
ROOT
ATOM      1  C   UNL     1     -19.388  96.826  -5.014  1.00  0.00    -0.022 A 
ATOM      2  C   UNL     1     -19.486  95.742  -4.121  1.00  0.00     0.058 A 
ATOM      3  C   UNL     1     -18.116  97.271  -5.401  1.00  0.00     0.012 A 
ATOM      4  C   UNL     1     -18.338  95.096  -3.643  1.00  0.00     0.157 A 
ATOM      5  C   UNL     1     -16.967  96.631  -4.932  1.00  0.00     0.051 A 
ATOM      6  C   UNL     1     -17.062  95.543  -4.059  1.00  0.00     0.157 A 
ENDROOT
BRANCH   1   7
ATOM      7  C   UNL     1     -20.580  97.544  -5.533  1.00  0.00     0.010 C 
ATOM      8  C   UNL     1     -20.521  98.721  -6.169  1.00  0.00     0.025 C 
BRANCH   8   9
ATOM      9  C   UNL     1     -21.730  99.403  -6.656  1.00  0.00     0.064 C 
ATOM     10  O   UNL     1     -22.660  99.669  -5.851  1.00  0.00    -0.545 OA
ATOM     11  O   UNL     1     -21.863  99.760  -7.994  1.00  0.00    -0.545 OA
ENDBRANCH   8   9
ENDBRANCH   1   7
BRANCH   4  12
ATOM     12  O   UNL     1     -18.510  94.028  -2.759  1.00  0.00    -0.504 OA
ATOM     13  H   UNL     1     -17.841  93.282  -2.636  1.00  0.00     0.293 HD
ENDBRANCH   4  12
BRANCH   6  14
ATOM     14  O   UNL     1     -15.875  94.945  -3.631  1.00  0.00    -0.504 OA
ATOM     15  H   UNL     1     -15.200  94.521  -4.253  1.00  0.00     0.293 HD
ENDBRANCH   6  14
TORSDOF 4
ENDMDL
MODEL 6
REMARK VINA RESULT:    -5.013      1.872      6.549
REMARK INTER + INTRA:          -6.040
REMARK INTER:                  -5.910
REMARK INTRA:                  -0.130
REMARK UNBOUND:                -0.149
REMARK SMILES O=C([O-])C=Cc1ccc(O)c(O)c1
REMARK SMILES IDX 6 1 13 2 7 3 11 4 8 5 9 6 5 7 4 8 2 9 1 10 3 11 12 12 10 14
REMARK H PARENT 12 13 10 15
REMARK Flexibility Score: inf
ROOT
ATOM      1  C   UNL     1     -33.034  97.243   7.717  1.00  0.00    -0.022 A 
ATOM      2  C   UNL     1     -32.737  97.665   9.027  1.00  0.00     0.058 A 
ATOM      3  C   UNL     1     -33.128  98.205   6.702  1.00  0.00     0.012 A 
ATOM      4  C   UNL     1     -32.513  99.017   9.315  1.00  0.00     0.157 A 
ATOM      5  C   UNL     1     -32.903  99.555   6.979  1.00  0.00     0.051 A 
ATOM      6  C   UNL     1     -32.591  99.974   8.276  1.00  0.00     0.157 A 
ENDROOT
BRANCH   1   7
ATOM      7  C   UNL     1     -33.290  95.821   7.374  1.00  0.00     0.010 C 
ATOM      8  C   UNL     1     -34.510  95.269   7.353  1.00  0.00     0.025 C 
BRANCH   8   9
ATOM      9  C   UNL     1     -34.716  93.851   7.019  1.00  0.00     0.064 C 
ATOM     10  O   UNL     1     -34.237  93.389   5.951  1.00  0.00    -0.545 OA
ATOM     11  O   UNL     1     -35.432  93.011   7.866  1.00  0.00    -0.545 OA
ENDBRANCH   8   9
ENDBRANCH   1   7
BRANCH   4  12
ATOM     12  O   UNL     1     -32.224  99.364  10.637  1.00  0.00    -0.504 OA
ATOM     13  H   UNL     1     -32.913  99.692  11.299  1.00  0.00     0.293 HD
ENDBRANCH   4  12
BRANCH   6  14
ATOM     14  O   UNL     1     -32.372 101.337   8.486  1.00  0.00    -0.504 OA
ATOM     15  H   UNL     1     -33.056 101.965   8.885  1.00  0.00     0.293 HD
ENDBRANCH   6  14
TORSDOF 4
ENDMDL
MODEL 7
REMARK VINA RESULT:    -4.975     18.082     19.491
REMARK INTER + INTRA:          -5.996
REMARK INTER:                  -5.847
REMARK INTRA:                  -0.149
REMARK UNBOUND:                -0.149
REMARK SMILES O=C([O-])C=Cc1ccc(O)c(O)c1
REMARK SMILES IDX 6 1 13 2 7 3 11 4 8 5 9 6 5 7 4 8 2 9 1 10 3 11 12 12 10 14
REMARK H PARENT 12 13 10 15
REMARK Flexibility Score: inf
ROOT
ATOM      1  C   UNL     1     -20.859  98.327  -5.643  1.00  0.00    -0.022 A 
ATOM      2  C   UNL     1     -22.163  98.408  -5.118  1.00  0.00     0.058 A 
ATOM      3  C   UNL     1     -20.531  99.106  -6.761  1.00  0.00     0.012 A 
ATOM      4  C   UNL     1     -23.115  99.268  -5.681  1.00  0.00     0.157 A 
ATOM      5  C   UNL     1     -21.472  99.969  -7.327  1.00  0.00     0.051 A 
ATOM      6  C   UNL     1     -22.763 100.063  -6.796  1.00  0.00     0.157 A 
ENDROOT
BRANCH   1   7
ATOM      7  C   UNL     1     -19.827  97.419  -5.082  1.00  0.00     0.010 C 
ATOM      8  C   UNL     1     -18.510  97.587  -5.265  1.00  0.00     0.025 C 
BRANCH   8   9
ATOM      9  C   UNL     1     -17.522  96.654  -4.699  1.00  0.00     0.064 C 
ATOM     10  O   UNL     1     -17.496  96.456  -3.457  1.00  0.00    -0.545 OA
ATOM     11  O   UNL     1     -16.616  95.986  -5.516  1.00  0.00    -0.545 OA
ENDBRANCH   8   9
ENDBRANCH   1   7
BRANCH   4  12
ATOM     12  O   UNL     1     -24.389  99.296  -5.109  1.00  0.00    -0.504 OA
ATOM     13  H   UNL     1     -25.092  99.986  -5.328  1.00  0.00     0.293 HD
ENDBRANCH   4  12
BRANCH   6  14
ATOM     14  O   UNL     1     -23.655 100.949  -7.405  1.00  0.00    -0.504 OA
ATOM     15  H   UNL     1     -24.473 100.660  -7.923  1.00  0.00     0.293 HD
ENDBRANCH   6  14
TORSDOF 4
ENDMDL
MODEL 8
REMARK VINA RESULT:    -4.950      2.380      6.567
REMARK INTER + INTRA:          -5.967
REMARK INTER:                  -5.843
REMARK INTRA:                  -0.124
REMARK UNBOUND:                -0.149
REMARK SMILES O=C([O-])C=Cc1ccc(O)c(O)c1
REMARK SMILES IDX 6 1 13 2 7 3 11 4 8 5 9 6 5 7 4 8 2 9 1 10 3 11 12 12 10 14
REMARK H PARENT 12 13 10 15
REMARK Flexibility Score: inf
ROOT
ATOM      1  C   UNL     1     -32.986  97.779   7.682  1.00  0.00    -0.022 A 
ATOM      2  C   UNL     1     -31.950  98.136   6.798  1.00  0.00     0.058 A 
ATOM      3  C   UNL     1     -33.162  98.526   8.855  1.00  0.00     0.012 A 
ATOM      4  C   UNL     1     -31.121  99.234   7.066  1.00  0.00     0.157 A 
ATOM      5  C   UNL     1     -32.343  99.623   9.128  1.00  0.00     0.051 A 
ATOM      6  C   UNL     1     -31.325  99.990   8.243  1.00  0.00     0.157 A 
ENDROOT
BRANCH   1   7
ATOM      7  C   UNL     1     -33.877  96.616   7.439  1.00  0.00     0.010 C 
ATOM      8  C   UNL     1     -33.434  95.364   7.261  1.00  0.00     0.025 C 
BRANCH   8   9
ATOM      9  C   UNL     1     -34.353  94.242   7.011  1.00  0.00     0.064 C 
ATOM     10  O   UNL     1     -35.298  94.024   7.813  1.00  0.00    -0.545 OA
ATOM     11  O   UNL     1     -34.195  93.418   5.902  1.00  0.00    -0.545 OA
ENDBRANCH   8   9
ENDBRANCH   1   7
BRANCH   4  12
ATOM     12  O   UNL     1     -30.113  99.530   6.145  1.00  0.00    -0.504 OA
ATOM     13  H   UNL     1     -30.284  99.835   5.198  1.00  0.00     0.293 HD
ENDBRANCH   4  12
BRANCH   6  14
ATOM     14  O   UNL     1     -30.545 101.101   8.572  1.00  0.00    -0.504 OA
ATOM     15  H   UNL     1     -30.916 101.960   8.954  1.00  0.00     0.293 HD
ENDBRANCH   6  14
TORSDOF 4
ENDMDL
MODEL 9
REMARK VINA RESULT:    -4.874      2.808      5.808
REMARK INTER + INTRA:          -5.878
REMARK INTER:                  -5.755
REMARK INTRA:                  -0.122
REMARK UNBOUND:                -0.149
REMARK SMILES O=C([O-])C=Cc1ccc(O)c(O)c1
REMARK SMILES IDX 6 1 13 2 7 3 11 4 8 5 9 6 5 7 4 8 2 9 1 10 3 11 12 12 10 14
REMARK H PARENT 12 13 10 15
REMARK Flexibility Score: inf
ROOT
ATOM      1  C   UNL     1     -32.398  92.992   7.194  1.00  0.00    -0.022 A 
ATOM      2  C   UNL     1     -33.752  92.621   7.086  1.00  0.00     0.058 A 
ATOM      3  C   UNL     1     -32.077  94.349   7.339  1.00  0.00     0.012 A 
ATOM      4  C   UNL     1     -34.769  93.583   7.147  1.00  0.00     0.157 A 
ATOM      5  C   UNL     1     -33.085  95.313   7.405  1.00  0.00     0.051 A 
ATOM      6  C   UNL     1     -34.431  94.946   7.315  1.00  0.00     0.157 A 
ENDROOT
BRANCH   1   7
ATOM      7  C   UNL     1     -31.292  92.004   7.121  1.00  0.00     0.010 C 
ATOM      8  C   UNL     1     -31.305  90.824   7.755  1.00  0.00     0.025 C 
BRANCH   8   9
ATOM      9  C   UNL     1     -30.180  89.880   7.664  1.00  0.00     0.064 C 
ATOM     10  O   UNL     1     -30.302  88.721   8.141  1.00  0.00    -0.545 OA
ATOM     11  O   UNL     1     -28.983  90.246   7.059  1.00  0.00    -0.545 OA
ENDBRANCH   8   9
ENDBRANCH   1   7
BRANCH   4  12
ATOM     12  O   UNL     1     -36.090  93.144   7.032  1.00  0.00    -0.504 OA
ATOM     13  H   UNL     1     -36.605  93.123   6.163  1.00  0.00     0.293 HD
ENDBRANCH   4  12
BRANCH   6  14
ATOM     14  O   UNL     1     -35.390  95.959   7.393  1.00  0.00    -0.504 OA
ATOM     15  H   UNL     1     -36.348  95.854   7.091  1.00  0.00     0.293 HD
ENDBRANCH   6  14
TORSDOF 4
ENDMDL
