MODEL 1
REMARK VINA RESULT:    -4.372      0.000      0.000
REMARK INTER + INTRA:          -7.027
REMARK INTER:                  -6.673
REMARK INTRA:                  -0.354
REMARK UNBOUND:                -0.354
REMARK SMILES CC1=CCC[C@H](C)C(=O)C[C@H](C(C)C)C(=O)C1
REMARK SMILES IDX 8 1 9 2 6 3 7 4 5 5 4 6 3 7 2 8 1 9 10 11 11 12 15 13 16 14
REMARK SMILES IDX 17 15 12 17 13 18 14 19
REMARK H PARENT
REMARK Flexibility Score: 70.00
ROOT
ATOM      1  C   UNL     1     -26.533 -54.744  25.075  1.00  0.00     0.136 C 
ATOM      2  O   UNL     1     -27.258 -55.633  24.649  1.00  0.00    -0.299 OA
ENDROOT
BRANCH   1   3
ATOM      3  C   UNL     1     -26.965 -53.298  24.954  1.00  0.00     0.053 C 
ATOM      4  C   UNL     1     -27.224 -52.965  23.481  1.00  0.00     0.016 C 
BRANCH   3   5
ATOM      5  C   UNL     1     -28.224 -52.985  25.799  1.00  0.00     0.015 C 
BRANCH   5   6
ATOM      6  C   UNL     1     -28.051 -53.269  27.299  1.00  0.00     0.028 C 
BRANCH   6   7
ATOM      7  C   UNL     1     -27.255 -52.180  27.977  1.00  0.00    -0.028 C 
ATOM      8  C   UNL     1     -25.985 -52.312  28.424  1.00  0.00    -0.070 CG0
ATOM      9  C   UNL     1     -25.338 -51.121  29.083  1.00  0.00     0.039 C 
ATOM     10  G   UNL     1     -25.197 -53.604  28.299  1.00  0.00     0.000 G0
ENDBRANCH   6   7
ENDBRANCH   5   6
ENDBRANCH   3   5
ENDBRANCH   1   3
BRANCH   1  11
ATOM     11  C   UNL     1     -25.190 -55.106  25.660  1.00  0.00     0.087 C 
BRANCH  11  12
ATOM     12  C   UNL     1     -24.237 -53.894  25.842  1.00  0.00     0.066 C 
BRANCH  12  13
ATOM     13  C   UNL     1     -24.067 -53.570  27.324  1.00  0.00     0.140 C 
ATOM     14  O   UNL     1     -22.975 -53.189  27.722  1.00  0.00    -0.299 OA
BRANCH  13  15
ATOM     15  C   UNL     1     -25.212 -53.603  28.317  1.00  0.00     0.106 CG0
ATOM     16  G   UNL     1     -26.001 -52.308  28.406  1.00  0.00     0.000 G0
ENDBRANCH  13  15
ENDBRANCH  12  13
BRANCH  12  17
ATOM     17  C   UNL     1     -22.845 -54.158  25.183  1.00  0.00    -0.006 C 
ATOM     18  C   UNL     1     -22.349 -55.595  25.428  1.00  0.00     0.008 C 
ATOM     19  C   UNL     1     -22.878 -53.899  23.667  1.00  0.00     0.008 C 
ENDBRANCH  12  17
ENDBRANCH  11  12
ENDBRANCH   1  11
TORSDOF 1
ENDMDL
MODEL 2
REMARK VINA RESULT:    -4.189      5.791      7.322
REMARK INTER + INTRA:          -6.748
REMARK INTER:                  -6.301
REMARK INTRA:                  -0.447
REMARK UNBOUND:                -0.354
REMARK SMILES CC1=CCC[C@H](C)C(=O)C[C@H](C(C)C)C(=O)C1
REMARK SMILES IDX 8 1 9 2 6 3 7 4 5 5 4 6 3 7 2 8 1 9 10 11 11 12 15 13 16 14
REMARK SMILES IDX 17 15 12 17 13 18 14 19
REMARK H PARENT
REMARK Flexibility Score: 70.00
ROOT
ATOM      1  C   UNL     1     -21.127 -52.593  29.115  1.00  0.00     0.136 C 
ATOM      2  O   UNL     1     -21.504 -53.755  29.185  1.00  0.00    -0.299 OA
ENDROOT
BRANCH   1   3
ATOM      3  C   UNL     1     -22.006 -51.483  29.652  1.00  0.00     0.053 C 
ATOM      4  C   UNL     1     -23.293 -51.406  28.824  1.00  0.00     0.016 C 
BRANCH   3   5
ATOM      5  C   UNL     1     -22.347 -51.673  31.149  1.00  0.00     0.015 C 
BRANCH   5   6
ATOM      6  C   UNL     1     -21.358 -50.985  32.103  1.00  0.00     0.028 C 
BRANCH   6   7
ATOM      7  C   UNL     1     -20.159 -51.861  32.377  1.00  0.00    -0.028 C 
ATOM      8  C   UNL     1     -18.902 -51.609  31.948  1.00  0.00    -0.070 CG0
ATOM      9  C   UNL     1     -17.818 -52.593  32.309  1.00  0.00     0.039 C 
ATOM     10  G   UNL     1     -18.543 -50.391  31.115  1.00  0.00     0.000 G0
ENDBRANCH   6   7
ENDBRANCH   5   6
ENDBRANCH   3   5
ENDBRANCH   1   3
BRANCH   1  11
ATOM     11  C   UNL     1     -19.816 -52.284  28.434  1.00  0.00     0.087 C 
BRANCH  11  12
ATOM     12  C   UNL     1     -19.359 -50.808  28.592  1.00  0.00     0.066 C 
BRANCH  12  13
ATOM     13  C   UNL     1     -18.260 -50.703  29.645  1.00  0.00     0.140 C 
ATOM     14  O   UNL     1     -17.094 -50.801  29.290  1.00  0.00    -0.299 OA
BRANCH  13  15
ATOM     15  C   UNL     1     -18.534 -50.387  31.102  1.00  0.00     0.106 CG0
ATOM     16  G   UNL     1     -18.909 -51.593  31.945  1.00  0.00     0.000 G0
ENDBRANCH  13  15
ENDBRANCH  12  13
BRANCH  12  17
ATOM     17  C   UNL     1     -18.865 -50.215  27.233  1.00  0.00    -0.006 C 
ATOM     18  C   UNL     1     -18.896 -51.256  26.099  1.00  0.00     0.008 C 
ATOM     19  C   UNL     1     -19.704 -48.997  26.809  1.00  0.00     0.008 C 
ENDBRANCH  12  17
ENDBRANCH  11  12
ENDBRANCH   1  11
TORSDOF 1
ENDMDL
MODEL 3
REMARK VINA RESULT:    -4.170      2.122      4.421
REMARK INTER + INTRA:          -6.718
REMARK INTER:                  -6.265
REMARK INTRA:                  -0.453
REMARK UNBOUND:                -0.354
REMARK SMILES CC1=CCC[C@H](C)C(=O)C[C@H](C(C)C)C(=O)C1
REMARK SMILES IDX 8 1 9 2 6 3 7 4 5 5 4 6 3 7 2 8 1 9 10 11 11 12 15 13 16 14
REMARK SMILES IDX 17 15 12 17 13 18 14 19
REMARK H PARENT
REMARK Flexibility Score: 70.00
ROOT
ATOM      1  C   UNL     1     -21.479 -51.964  25.824  1.00  0.00     0.136 C 
ATOM      2  O   UNL     1     -20.841 -50.936  25.644  1.00  0.00    -0.299 OA
ENDROOT
BRANCH   1   3
ATOM      3  C   UNL     1     -21.224 -52.802  27.060  1.00  0.00     0.053 C 
ATOM      4  C   UNL     1     -19.750 -53.218  27.099  1.00  0.00     0.016 C 
BRANCH   3   5
ATOM      5  C   UNL     1     -21.601 -52.058  28.364  1.00  0.00     0.015 C 
BRANCH   5   6
ATOM      6  C   UNL     1     -23.030 -51.495  28.367  1.00  0.00     0.028 C 
BRANCH   6   7
ATOM      7  C   UNL     1     -24.041 -52.560  28.719  1.00  0.00    -0.028 C 
ATOM      8  C   UNL     1     -25.048 -52.968  27.914  1.00  0.00    -0.070 CG0
ATOM      9  C   UNL     1     -25.973 -54.044  28.425  1.00  0.00     0.039 C 
ATOM     10  G   UNL     1     -25.290 -52.384  26.534  1.00  0.00     0.000 G0
ENDBRANCH   6   7
ENDBRANCH   5   6
ENDBRANCH   3   5
ENDBRANCH   1   3
BRANCH   1  11
ATOM     11  C   UNL     1     -22.469 -52.410  24.776  1.00  0.00     0.087 C 
BRANCH  11  12
ATOM     12  C   UNL     1     -23.325 -53.634  25.200  1.00  0.00     0.066 C 
BRANCH  12  13
ATOM     13  C   UNL     1     -24.787 -53.227  25.365  1.00  0.00     0.140 C 
ATOM     14  O   UNL     1     -25.613 -53.671  24.581  1.00  0.00    -0.299 OA
BRANCH  13  15
ATOM     15  C   UNL     1     -25.286 -52.372  26.514  1.00  0.00     0.106 CG0
ATOM     16  G   UNL     1     -25.050 -52.972  27.889  1.00  0.00     0.000 G0
ENDBRANCH  13  15
ENDBRANCH  12  13
BRANCH  12  17
ATOM     17  C   UNL     1     -23.202 -54.803  24.170  1.00  0.00    -0.006 C 
ATOM     18  C   UNL     1     -22.102 -54.543  23.125  1.00  0.00     0.008 C 
ATOM     19  C   UNL     1     -22.913 -56.144  24.867  1.00  0.00     0.008 C 
ENDBRANCH  12  17
ENDBRANCH  11  12
ENDBRANCH   1  11
TORSDOF 1
ENDMDL
MODEL 4
REMARK VINA RESULT:    -4.147      5.753      7.965
REMARK INTER + INTRA:          -6.684
REMARK INTER:                  -6.377
REMARK INTRA:                  -0.307
REMARK UNBOUND:                -0.354
REMARK SMILES CC1=CCC[C@H](C)C(=O)C[C@H](C(C)C)C(=O)C1
REMARK SMILES IDX 8 1 9 2 6 3 7 4 5 5 4 6 3 7 2 8 1 9 10 11 11 12 15 13 16 14
REMARK SMILES IDX 17 15 12 17 13 18 14 19
REMARK H PARENT
REMARK Flexibility Score: 70.00
ROOT
ATOM      1  C   UNL     1     -17.927 -49.986  29.236  1.00  0.00     0.136 C 
ATOM      2  O   UNL     1     -17.211 -49.038  29.528  1.00  0.00    -0.299 OA
ENDROOT
BRANCH   1   3
ATOM      3  C   UNL     1     -17.546 -51.383  29.680  1.00  0.00     0.053 C 
ATOM      4  C   UNL     1     -16.173 -51.744  29.104  1.00  0.00     0.016 C 
BRANCH   3   5
ATOM      5  C   UNL     1     -17.531 -51.529  31.221  1.00  0.00     0.015 C 
BRANCH   5   6
ATOM      6  C   UNL     1     -18.861 -51.155  31.893  1.00  0.00     0.028 C 
BRANCH   6   7
ATOM      7  C   UNL     1     -19.876 -52.266  31.761  1.00  0.00    -0.028 C 
ATOM      8  C   UNL     1     -20.996 -52.206  31.008  1.00  0.00    -0.070 CG0
ATOM      9  C   UNL     1     -21.906 -53.409  30.992  1.00  0.00     0.039 C 
ATOM     10  G   UNL     1     -21.378 -50.984  30.192  1.00  0.00     0.000 G0
ENDBRANCH   6   7
ENDBRANCH   5   6
ENDBRANCH   3   5
ENDBRANCH   1   3
BRANCH   1  11
ATOM     11  C   UNL     1     -19.149 -49.750  28.383  1.00  0.00     0.087 C 
BRANCH  11  12
ATOM     12  C   UNL     1     -19.889 -51.052  27.970  1.00  0.00     0.066 C 
BRANCH  12  13
ATOM     13  C   UNL     1     -21.234 -51.147  28.685  1.00  0.00     0.140 C 
ATOM     14  O   UNL     1     -22.225 -51.449  28.035  1.00  0.00    -0.299 OA
BRANCH  13  15
ATOM     15  C   UNL     1     -21.391 -50.981  30.183  1.00  0.00     0.106 CG0
ATOM     16  G   UNL     1     -20.975 -52.195  30.995  1.00  0.00     0.000 G0
ENDBRANCH  13  15
ENDBRANCH  12  13
BRANCH  12  17
ATOM     17  C   UNL     1     -20.092 -51.127  26.422  1.00  0.00    -0.006 C 
ATOM     18  C   UNL     1     -18.967 -50.411  25.653  1.00  0.00     0.008 C 
ATOM     19  C   UNL     1     -20.175 -52.584  25.932  1.00  0.00     0.008 C 
ENDBRANCH  12  17
ENDBRANCH  11  12
ENDBRANCH   1  11
TORSDOF 1
ENDMDL
MODEL 5
REMARK VINA RESULT:    -4.140      2.570      4.776
REMARK INTER + INTRA:          -6.672
REMARK INTER:                  -6.252
REMARK INTRA:                  -0.420
REMARK UNBOUND:                -0.354
REMARK SMILES CC1=CCC[C@H](C)C(=O)C[C@H](C(C)C)C(=O)C1
REMARK SMILES IDX 8 1 9 2 6 3 7 4 5 5 4 6 3 7 2 8 1 9 10 11 11 12 15 13 16 14
REMARK SMILES IDX 17 15 12 17 13 18 14 19
REMARK H PARENT
REMARK Flexibility Score: 70.00
ROOT
ATOM      1  C   UNL     1     -20.982 -53.722  25.582  1.00  0.00     0.136 C 
ATOM      2  O   UNL     1     -20.127 -54.591  25.687  1.00  0.00    -0.299 OA
ENDROOT
BRANCH   1   3
ATOM      3  C   UNL     1     -21.508 -53.345  24.213  1.00  0.00     0.053 C 
ATOM      4  C   UNL     1     -20.344 -52.888  23.328  1.00  0.00     0.016 C 
BRANCH   3   5
ATOM      5  C   UNL     1     -22.269 -54.508  23.532  1.00  0.00     0.015 C 
BRANCH   5   6
ATOM      6  C   UNL     1     -23.284 -55.207  24.449  1.00  0.00     0.028 C 
BRANCH   6   7
ATOM      7  C   UNL     1     -24.625 -54.514  24.415  1.00  0.00    -0.028 C 
ATOM      8  C   UNL     1     -25.137 -53.767  25.419  1.00  0.00    -0.070 CG0
ATOM      9  C   UNL     1     -26.497 -53.147  25.219  1.00  0.00     0.039 C 
ATOM     10  G   UNL     1     -24.409 -53.539  26.731  1.00  0.00     0.000 G0
ENDBRANCH   6   7
ENDBRANCH   5   6
ENDBRANCH   3   5
ENDBRANCH   1   3
BRANCH   1  11
ATOM     11  C   UNL     1     -21.453 -52.998  26.820  1.00  0.00     0.087 C 
BRANCH  11  12
ATOM     12  C   UNL     1     -22.394 -51.799  26.527  1.00  0.00     0.066 C 
BRANCH  12  13
ATOM     13  C   UNL     1     -23.830 -52.145  26.914  1.00  0.00     0.140 C 
ATOM     14  O   UNL     1     -24.565 -51.250  27.307  1.00  0.00    -0.299 OA
BRANCH  13  15
ATOM     15  C   UNL     1     -24.425 -53.529  26.743  1.00  0.00     0.106 CG0
ATOM     16  G   UNL     1     -25.128 -53.749  25.416  1.00  0.00     0.000 G0
ENDBRANCH  13  15
ENDBRANCH  12  13
BRANCH  12  17
ATOM     17  C   UNL     1     -21.927 -50.510  27.277  1.00  0.00    -0.006 C 
ATOM     18  C   UNL     1     -20.858 -50.812  28.343  1.00  0.00     0.008 C 
ATOM     19  C   UNL     1     -21.369 -49.458  26.302  1.00  0.00     0.008 C 
ENDBRANCH  12  17
ENDBRANCH  11  12
ENDBRANCH   1  11
TORSDOF 1
ENDMDL
MODEL 6
REMARK VINA RESULT:    -4.114      5.073      6.805
REMARK INTER + INTRA:          -6.633
REMARK INTER:                  -6.375
REMARK INTRA:                  -0.258
REMARK UNBOUND:                -0.354
REMARK SMILES CC1=CCC[C@H](C)C(=O)C[C@H](C(C)C)C(=O)C1
REMARK SMILES IDX 8 1 9 2 6 3 7 4 5 5 4 6 3 7 2 8 1 9 10 11 11 12 15 13 16 14
REMARK SMILES IDX 17 15 12 17 13 18 14 19
REMARK H PARENT
REMARK Flexibility Score: 70.00
ROOT
ATOM      1  C   UNL     1     -18.996 -50.768  26.634  1.00  0.00     0.136 C 
ATOM      2  O   UNL     1     -18.533 -50.803  25.502  1.00  0.00    -0.299 OA
ENDROOT
BRANCH   1   3
ATOM      3  C   UNL     1     -20.037 -49.728  26.990  1.00  0.00     0.053 C 
ATOM      4  C   UNL     1     -19.503 -48.334  26.645  1.00  0.00     0.016 C 
BRANCH   3   5
ATOM      5  C   UNL     1     -21.386 -49.973  26.272  1.00  0.00     0.015 C 
BRANCH   5   6
ATOM      6  C   UNL     1     -21.860 -51.433  26.324  1.00  0.00     0.028 C 
BRANCH   6   7
ATOM      7  C   UNL     1     -22.680 -51.703  27.563  1.00  0.00    -0.028 C 
ATOM      8  C   UNL     1     -22.335 -52.560  28.549  1.00  0.00    -0.070 CG0
ATOM      9  C   UNL     1     -23.274 -52.712  29.719  1.00  0.00     0.039 C 
ATOM     10  G   UNL     1     -21.056 -53.378  28.521  1.00  0.00     0.000 G0
ENDBRANCH   6   7
ENDBRANCH   5   6
ENDBRANCH   3   5
ENDBRANCH   1   3
BRANCH   1  11
ATOM     11  C   UNL     1     -18.473 -51.729  27.674  1.00  0.00     0.087 C 
BRANCH  11  12
ATOM     12  C   UNL     1     -19.149 -51.581  29.064  1.00  0.00     0.066 C 
BRANCH  12  13
ATOM     13  C   UNL     1     -19.942 -52.840  29.405  1.00  0.00     0.140 C 
ATOM     14  O   UNL     1     -19.730 -53.396  30.473  1.00  0.00    -0.299 OA
BRANCH  13  15
ATOM     15  C   UNL     1     -21.051 -53.386  28.527  1.00  0.00     0.106 CG0
ATOM     16  G   UNL     1     -22.325 -52.560  28.543  1.00  0.00     0.000 G0
ENDBRANCH  13  15
ENDBRANCH  12  13
BRANCH  12  17
ATOM     17  C   UNL     1     -18.099 -51.283  30.181  1.00  0.00    -0.006 C 
ATOM     18  C   UNL     1     -16.915 -50.449  29.659  1.00  0.00     0.008 C 
ATOM     19  C   UNL     1     -18.734 -50.545  31.373  1.00  0.00     0.008 C 
ENDBRANCH  12  17
ENDBRANCH  11  12
ENDBRANCH   1  11
TORSDOF 1
ENDMDL
MODEL 7
REMARK VINA RESULT:    -4.100      1.948      3.675
REMARK INTER + INTRA:          -6.612
REMARK INTER:                  -6.446
REMARK INTRA:                  -0.166
REMARK UNBOUND:                -0.354
REMARK SMILES CC1=CCC[C@H](C)C(=O)C[C@H](C(C)C)C(=O)C1
REMARK SMILES IDX 8 1 9 2 6 3 7 4 5 5 4 6 3 7 2 8 1 9 10 11 11 12 15 13 16 14
REMARK SMILES IDX 17 15 12 17 13 18 14 19
REMARK H PARENT
REMARK Flexibility Score: 70.00
ROOT
ATOM      1  C   UNL     1     -27.409 -53.364  27.870  1.00  0.00     0.136 C 
ATOM      2  O   UNL     1     -28.475 -52.958  27.427  1.00  0.00    -0.299 OA
ENDROOT
BRANCH   1   3
ATOM      3  C   UNL     1     -26.825 -52.738  29.119  1.00  0.00     0.053 C 
ATOM      4  C   UNL     1     -25.907 -53.748  29.814  1.00  0.00     0.016 C 
BRANCH   3   5
ATOM      5  C   UNL     1     -26.049 -51.433  28.818  1.00  0.00     0.015 C 
BRANCH   5   6
ATOM      6  C   UNL     1     -24.523 -51.581  28.920  1.00  0.00     0.028 C 
BRANCH   6   7
ATOM      7  C   UNL     1     -23.847 -51.219  27.620  1.00  0.00    -0.028 C 
ATOM      8  C   UNL     1     -23.280 -52.104  26.769  1.00  0.00    -0.070 CG0
ATOM      9  C   UNL     1     -22.643 -51.570  25.511  1.00  0.00     0.039 C 
ATOM     10  G   UNL     1     -23.251 -53.599  27.032  1.00  0.00     0.000 G0
ENDBRANCH   6   7
ENDBRANCH   5   6
ENDBRANCH   3   5
ENDBRANCH   1   3
BRANCH   1  11
ATOM     11  C   UNL     1     -26.665 -54.443  27.123  1.00  0.00     0.087 C 
BRANCH  11  12
ATOM     12  C   UNL     1     -25.720 -53.904  26.015  1.00  0.00     0.066 C 
BRANCH  12  13
ATOM     13  C   UNL     1     -24.295 -54.402  26.244  1.00  0.00     0.140 C 
ATOM     14  O   UNL     1     -23.947 -55.449  25.718  1.00  0.00    -0.299 OA
BRANCH  13  15
ATOM     15  C   UNL     1     -23.254 -53.614  27.015  1.00  0.00     0.106 CG0
ATOM     16  G   UNL     1     -23.290 -52.117  26.764  1.00  0.00     0.000 G0
ENDBRANCH  13  15
ENDBRANCH  12  13
BRANCH  12  17
ATOM     17  C   UNL     1     -26.215 -54.315  24.591  1.00  0.00    -0.006 C 
ATOM     18  C   UNL     1     -27.104 -55.572  24.626  1.00  0.00     0.008 C 
ATOM     19  C   UNL     1     -26.996 -53.176  23.912  1.00  0.00     0.008 C 
ENDBRANCH  12  17
ENDBRANCH  11  12
ENDBRANCH   1  11
TORSDOF 1
ENDMDL
MODEL 8
REMARK VINA RESULT:    -4.094      6.181      8.290
REMARK INTER + INTRA:          -6.602
REMARK INTER:                  -6.323
REMARK INTRA:                  -0.279
REMARK UNBOUND:                -0.354
REMARK SMILES CC1=CCC[C@H](C)C(=O)C[C@H](C(C)C)C(=O)C1
REMARK SMILES IDX 8 1 9 2 6 3 7 4 5 5 4 6 3 7 2 8 1 9 10 11 11 12 15 13 16 14
REMARK SMILES IDX 17 15 12 17 13 18 14 19
REMARK H PARENT
REMARK Flexibility Score: 70.00
ROOT
ATOM      1  C   UNL     1     -18.290 -50.844  28.140  1.00  0.00     0.136 C 
ATOM      2  O   UNL     1     -18.253 -51.310  27.009  1.00  0.00    -0.299 OA
ENDROOT
BRANCH   1   3
ATOM      3  C   UNL     1     -17.036 -50.827  28.988  1.00  0.00     0.053 C 
ATOM      4  C   UNL     1     -16.924 -49.479  29.707  1.00  0.00     0.016 C 
BRANCH   3   5
ATOM      5  C   UNL     1     -17.004 -51.982  30.018  1.00  0.00     0.015 C 
BRANCH   5   6
ATOM      6  C   UNL     1     -17.256 -51.532  31.465  1.00  0.00     0.028 C 
BRANCH   6   7
ATOM      7  C   UNL     1     -18.229 -52.449  32.165  1.00  0.00    -0.028 C 
ATOM      8  C   UNL     1     -19.540 -52.182  32.365  1.00  0.00    -0.070 CG0
ATOM      9  C   UNL     1     -20.371 -53.210  33.088  1.00  0.00     0.039 C 
ATOM     10  G   UNL     1     -20.199 -50.895  31.902  1.00  0.00     0.000 G0
ENDBRANCH   6   7
ENDBRANCH   5   6
ENDBRANCH   3   5
ENDBRANCH   1   3
BRANCH   1  11
ATOM     11  C   UNL     1     -19.605 -50.348  28.690  1.00  0.00     0.087 C 
BRANCH  11  12
ATOM     12  C   UNL     1     -20.486 -51.465  29.313  1.00  0.00     0.066 C 
BRANCH  12  13
ATOM     13  C   UNL     1     -21.047 -51.009  30.657  1.00  0.00     0.140 C 
ATOM     14  O   UNL     1     -22.249 -50.806  30.755  1.00  0.00    -0.299 OA
BRANCH  13  15
ATOM     15  C   UNL     1     -20.203 -50.887  31.911  1.00  0.00     0.106 CG0
ATOM     16  G   UNL     1     -19.554 -52.186  32.357  1.00  0.00     0.000 G0
ENDBRANCH  13  15
ENDBRANCH  12  13
BRANCH  12  17
ATOM     17  C   UNL     1     -21.649 -51.877  28.353  1.00  0.00    -0.006 C 
ATOM     18  C   UNL     1     -21.999 -50.762  27.351  1.00  0.00     0.008 C 
ATOM     19  C   UNL     1     -21.309 -53.157  27.569  1.00  0.00     0.008 C 
ENDBRANCH  12  17
ENDBRANCH  11  12
ENDBRANCH   1  11
TORSDOF 1
ENDMDL
MODEL 9
REMARK VINA RESULT:    -4.001      3.520      5.338
REMARK INTER + INTRA:          -6.460
REMARK INTER:                  -6.172
REMARK INTRA:                  -0.288
REMARK UNBOUND:                -0.354
REMARK SMILES CC1=CCC[C@H](C)C(=O)C[C@H](C(C)C)C(=O)C1
REMARK SMILES IDX 8 1 9 2 6 3 7 4 5 5 4 6 3 7 2 8 1 9 10 11 11 12 15 13 16 14
REMARK SMILES IDX 17 15 12 17 13 18 14 19
REMARK H PARENT
REMARK Flexibility Score: 70.00
ROOT
ATOM      1  C   UNL     1     -20.479 -52.428  25.470  1.00  0.00     0.136 C 
ATOM      2  O   UNL     1     -20.765 -51.529  24.691  1.00  0.00    -0.299 OA
ENDROOT
BRANCH   1   3
ATOM      3  C   UNL     1     -20.628 -53.872  25.041  1.00  0.00     0.053 C 
ATOM      4  C   UNL     1     -19.922 -54.780  26.053  1.00  0.00     0.016 C 
BRANCH   3   5
ATOM      5  C   UNL     1     -22.110 -54.293  24.894  1.00  0.00     0.015 C 
BRANCH   5   6
ATOM      6  C   UNL     1     -22.823 -54.537  26.233  1.00  0.00     0.028 C 
BRANCH   6   7
ATOM      7  C   UNL     1     -23.786 -53.419  26.555  1.00  0.00    -0.028 C 
ATOM      8  C   UNL     1     -23.665 -52.570  27.600  1.00  0.00    -0.070 CG0
ATOM      9  C   UNL     1     -24.722 -51.509  27.778  1.00  0.00     0.039 C 
ATOM     10  G   UNL     1     -22.525 -52.648  28.599  1.00  0.00     0.000 G0
ENDBRANCH   6   7
ENDBRANCH   5   6
ENDBRANCH   3   5
ENDBRANCH   1   3
BRANCH   1  11
ATOM     11  C   UNL     1     -20.038 -52.076  26.870  1.00  0.00     0.087 C 
BRANCH  11  12
ATOM     12  C   UNL     1     -20.824 -50.893  27.497  1.00  0.00     0.066 C 
BRANCH  12  13
ATOM     13  C   UNL     1     -21.675 -51.381  28.666  1.00  0.00     0.140 C 
ATOM     14  O   UNL     1     -21.743 -50.691  29.674  1.00  0.00    -0.299 OA
BRANCH  13  15
ATOM     15  C   UNL     1     -22.522 -52.638  28.609  1.00  0.00     0.106 CG0
ATOM     16  G   UNL     1     -23.653 -52.584  27.597  1.00  0.00     0.000 G0
ENDBRANCH  13  15
ENDBRANCH  12  13
BRANCH  12  17
ATOM     17  C   UNL     1     -19.862 -49.754  27.967  1.00  0.00    -0.006 C 
ATOM     18  C   UNL     1     -18.506 -50.300  28.449  1.00  0.00     0.008 C 
ATOM     19  C   UNL     1     -19.612 -48.727  26.848  1.00  0.00     0.008 C 
ENDBRANCH  12  17
ENDBRANCH  11  12
ENDBRANCH   1  11
TORSDOF 1
ENDMDL
