MODEL 1
REMARK VINA RESULT:    -3.969      0.000      0.000
REMARK INTER + INTRA:          -5.901
REMARK INTER:                  -5.593
REMARK INTRA:                  -0.308
REMARK UNBOUND:                -0.308
REMARK SMILES CCCCCCCCC(=O)[O-]
REMARK SMILES IDX 6 1 7 2 8 3 9 4 10 5 11 6 5 7 4 8 3 9 2 10 1 11
REMARK H PARENT
REMARK Flexibility Score: inf
ROOT
ATOM      1  C   UNL     1     -14.827   3.930  32.178  1.00  0.00     0.000 C 
ENDROOT
BRANCH   1   2
ATOM      2  C   UNL     1     -16.064   3.303  32.844  1.00  0.00     0.006 C 
BRANCH   2   3
ATOM      3  C   UNL     1     -15.793   2.894  34.299  1.00  0.00     0.053 C 
BRANCH   3   4
ATOM      4  C   UNL     1     -16.190   1.474  34.561  1.00  0.00     0.041 C 
ATOM      5  O   UNL     1     -16.916   0.855  33.739  1.00  0.00    -0.550 OA
ATOM      6  O   UNL     1     -15.782   0.842  35.729  1.00  0.00    -0.550 OA
ENDBRANCH   3   4
ENDBRANCH   2   3
ENDBRANCH   1   2
BRANCH   1   7
ATOM      7  C   UNL     1     -15.165   4.648  30.861  1.00  0.00     0.000 C 
BRANCH   7   8
ATOM      8  C   UNL     1     -16.421   5.526  30.971  1.00  0.00    -0.000 C 
BRANCH   8   9
ATOM      9  C   UNL     1     -16.142   6.947  30.466  1.00  0.00    -0.000 C 
BRANCH   9  10
ATOM     10  C   UNL     1     -14.892   6.982  29.580  1.00  0.00    -0.003 C 
ATOM     11  C   UNL     1     -14.665   8.376  29.001  1.00  0.00     0.004 C 
ENDBRANCH   9  10
ENDBRANCH   8   9
ENDBRANCH   7   8
ENDBRANCH   1   7
TORSDOF 7
ENDMDL
MODEL 2
REMARK VINA RESULT:    -3.792      3.620      6.494
REMARK INTER + INTRA:          -5.652
REMARK INTER:                  -5.403
REMARK INTRA:                  -0.249
REMARK UNBOUND:                -0.308
REMARK SMILES CCCCCCCCC(=O)[O-]
REMARK SMILES IDX 6 1 7 2 8 3 9 4 10 5 11 6 5 7 4 8 3 9 2 10 1 11
REMARK H PARENT
REMARK Flexibility Score: inf
ROOT
ATOM      1  C   UNL     1     -15.874   3.881  30.784  1.00  0.00     0.000 C 
ENDROOT
BRANCH   1   2
ATOM      2  C   UNL     1     -16.370   5.026  29.884  1.00  0.00     0.006 C 
BRANCH   2   3
ATOM      3  C   UNL     1     -16.147   6.403  30.524  1.00  0.00     0.053 C 
BRANCH   3   4
ATOM      4  C   UNL     1     -15.059   7.167  29.834  1.00  0.00     0.041 C 
ATOM      5  O   UNL     1     -15.222   8.381  29.540  1.00  0.00    -0.550 OA
ATOM      6  O   UNL     1     -13.873   6.530  29.489  1.00  0.00    -0.550 OA
ENDBRANCH   3   4
ENDBRANCH   2   3
ENDBRANCH   1   2
BRANCH   1   7
ATOM      7  C   UNL     1     -15.966   4.222  32.280  1.00  0.00     0.000 C 
BRANCH   7   8
ATOM      8  C   UNL     1     -16.745   3.169  33.081  1.00  0.00    -0.000 C 
BRANCH   8   9
ATOM      9  C   UNL     1     -15.896   2.617  34.233  1.00  0.00    -0.000 C 
BRANCH   9  10
ATOM     10  C   UNL     1     -16.391   1.233  34.668  1.00  0.00    -0.003 C 
ATOM     11  C   UNL     1     -15.688   0.771  35.942  1.00  0.00     0.004 C 
ENDBRANCH   9  10
ENDBRANCH   8   9
ENDBRANCH   7   8
ENDBRANCH   1   7
TORSDOF 7
ENDMDL
MODEL 3
REMARK VINA RESULT:    -3.752      4.024      6.596
REMARK INTER + INTRA:          -5.596
REMARK INTER:                  -5.324
REMARK INTRA:                  -0.272
REMARK UNBOUND:                -0.308
REMARK SMILES CCCCCCCCC(=O)[O-]
REMARK SMILES IDX 6 1 7 2 8 3 9 4 10 5 11 6 5 7 4 8 3 9 2 10 1 11
REMARK H PARENT
REMARK Flexibility Score: inf
ROOT
ATOM      1  C   UNL     1     -16.400   6.249  30.961  1.00  0.00     0.000 C 
ENDROOT
BRANCH   1   2
ATOM      2  C   UNL     1     -15.331   6.128  29.860  1.00  0.00     0.006 C 
BRANCH   2   3
ATOM      3  C   UNL     1     -14.855   7.499  29.361  1.00  0.00     0.053 C 
BRANCH   3   4
ATOM      4  C   UNL     1     -13.411   7.475  28.965  1.00  0.00     0.041 C 
ATOM      5  O   UNL     1     -12.926   8.411  28.276  1.00  0.00    -0.550 OA
ATOM      6  O   UNL     1     -12.607   6.403  29.333  1.00  0.00    -0.550 OA
ENDBRANCH   3   4
ENDBRANCH   2   3
ENDBRANCH   1   2
BRANCH   1   7
ATOM      7  C   UNL     1     -16.511   4.979  31.820  1.00  0.00     0.000 C 
BRANCH   7   8
ATOM      8  C   UNL     1     -15.158   4.281  32.023  1.00  0.00    -0.000 C 
BRANCH   8   9
ATOM      9  C   UNL     1     -15.346   2.892  32.646  1.00  0.00    -0.000 C 
BRANCH   9  10
ATOM     10  C   UNL     1     -16.117   2.981  33.968  1.00  0.00    -0.003 C 
ATOM     11  C   UNL     1     -16.080   1.653  34.718  1.00  0.00     0.004 C 
ENDBRANCH   9  10
ENDBRANCH   8   9
ENDBRANCH   7   8
ENDBRANCH   1   7
TORSDOF 7
ENDMDL
MODEL 4
REMARK VINA RESULT:    -3.729      1.588      2.397
REMARK INTER + INTRA:          -5.563
REMARK INTER:                  -5.195
REMARK INTRA:                  -0.368
REMARK UNBOUND:                -0.308
REMARK SMILES CCCCCCCCC(=O)[O-]
REMARK SMILES IDX 6 1 7 2 8 3 9 4 10 5 11 6 5 7 4 8 3 9 2 10 1 11
REMARK H PARENT
REMARK Flexibility Score: inf
ROOT
ATOM      1  C   UNL     1     -16.314   4.975  30.028  1.00  0.00     0.000 C 
ENDROOT
BRANCH   1   2
ATOM      2  C   UNL     1     -16.890   3.783  30.813  1.00  0.00     0.006 C 
BRANCH   2   3
ATOM      3  C   UNL     1     -17.025   4.088  32.311  1.00  0.00     0.053 C 
BRANCH   3   4
ATOM      4  C   UNL     1     -15.964   3.403  33.116  1.00  0.00     0.041 C 
ATOM      5  O   UNL     1     -14.749   3.544  32.817  1.00  0.00    -0.550 OA
ATOM      6  O   UNL     1     -16.319   2.584  34.181  1.00  0.00    -0.550 OA
ENDBRANCH   3   4
ENDBRANCH   2   3
ENDBRANCH   1   2
BRANCH   1   7
ATOM      7  C   UNL     1     -16.379   6.291  30.820  1.00  0.00     0.000 C 
BRANCH   7   8
ATOM      8  C   UNL     1     -15.641   7.442  30.117  1.00  0.00    -0.000 C 
BRANCH   8   9
ATOM      9  C   UNL     1     -14.441   6.918  29.319  1.00  0.00    -0.000 C 
BRANCH   9  10
ATOM     10  C   UNL     1     -14.120   7.840  28.138  1.00  0.00    -0.003 C 
ATOM     11  C   UNL     1     -13.446   9.125  28.609  1.00  0.00     0.004 C 
ENDBRANCH   9  10
ENDBRANCH   8   9
ENDBRANCH   7   8
ENDBRANCH   1   7
TORSDOF 7
ENDMDL
MODEL 5
REMARK VINA RESULT:    -3.637      2.468      4.053
REMARK INTER + INTRA:          -5.434
REMARK INTER:                  -5.072
REMARK INTRA:                  -0.362
REMARK UNBOUND:                -0.308
REMARK SMILES CCCCCCCCC(=O)[O-]
REMARK SMILES IDX 6 1 7 2 8 3 9 4 10 5 11 6 5 7 4 8 3 9 2 10 1 11
REMARK H PARENT
REMARK Flexibility Score: inf
ROOT
ATOM      1  C   UNL     1     -15.720   7.465  30.123  1.00  0.00     0.000 C 
ENDROOT
BRANCH   1   2
ATOM      2  C   UNL     1     -16.425   6.343  30.906  1.00  0.00     0.006 C 
BRANCH   2   3
ATOM      3  C   UNL     1     -16.173   4.961  30.289  1.00  0.00     0.053 C 
BRANCH   3   4
ATOM      4  C   UNL     1     -15.722   3.968  31.315  1.00  0.00     0.041 C 
ATOM      5  O   UNL     1     -14.768   4.244  32.090  1.00  0.00    -0.550 OA
ATOM      6  O   UNL     1     -16.337   2.724  31.398  1.00  0.00    -0.550 OA
ENDBRANCH   3   4
ENDBRANCH   2   3
ENDBRANCH   1   2
BRANCH   1   7
ATOM      7  C   UNL     1     -14.531   6.952  29.295  1.00  0.00     0.000 C 
BRANCH   7   8
ATOM      8  C   UNL     1     -14.134   7.916  28.167  1.00  0.00    -0.000 C 
BRANCH   8   9
ATOM      9  C   UNL     1     -13.349   9.113  28.719  1.00  0.00    -0.000 C 
BRANCH   9  10
ATOM     10  C   UNL     1     -11.893   9.085  28.239  1.00  0.00    -0.003 C 
ATOM     11  C   UNL     1     -11.006   8.317  29.215  1.00  0.00     0.004 C 
ENDBRANCH   9  10
ENDBRANCH   8   9
ENDBRANCH   7   8
ENDBRANCH   1   7
TORSDOF 7
ENDMDL
MODEL 6
REMARK VINA RESULT:    -3.610     24.546     25.292
REMARK INTER + INTRA:          -5.395
REMARK INTER:                  -4.747
REMARK INTRA:                  -0.647
REMARK UNBOUND:                -0.308
REMARK SMILES CCCCCCCCC(=O)[O-]
REMARK SMILES IDX 6 1 7 2 8 3 9 4 10 5 11 6 5 7 4 8 3 9 2 10 1 11
REMARK H PARENT
REMARK Flexibility Score: inf
ROOT
ATOM      1  C   UNL     1       2.157  -9.125  21.025  1.00  0.00     0.000 C 
ENDROOT
BRANCH   1   2
ATOM      2  C   UNL     1       2.801  -9.214  19.631  1.00  0.00     0.006 C 
BRANCH   2   3
ATOM      3  C   UNL     1       2.591 -10.590  18.984  1.00  0.00     0.053 C 
BRANCH   3   4
ATOM      4  C   UNL     1       1.441 -10.584  18.025  1.00  0.00     0.041 C 
ATOM      5  O   UNL     1       0.258 -10.514  18.452  1.00  0.00    -0.550 OA
ATOM      6  O   UNL     1       1.673 -10.686  16.659  1.00  0.00    -0.550 OA
ENDBRANCH   3   4
ENDBRANCH   2   3
ENDBRANCH   1   2
BRANCH   1   7
ATOM      7  C   UNL     1       1.170  -7.953  21.147  1.00  0.00     0.000 C 
BRANCH   7   8
ATOM      8  C   UNL     1       1.517  -6.786  20.210  1.00  0.00    -0.000 C 
BRANCH   8   9
ATOM      9  C   UNL     1       0.319  -6.418  19.326  1.00  0.00    -0.000 C 
BRANCH   9  10
ATOM     10  C   UNL     1       0.451  -7.041  17.932  1.00  0.00    -0.003 C 
ATOM     11  C   UNL     1      -0.919  -7.356  17.338  1.00  0.00     0.004 C 
ENDBRANCH   9  10
ENDBRANCH   8   9
ENDBRANCH   7   8
ENDBRANCH   1   7
TORSDOF 7
ENDMDL
MODEL 7
REMARK VINA RESULT:    -3.587      4.559      6.884
REMARK INTER + INTRA:          -5.363
REMARK INTER:                  -5.019
REMARK INTRA:                  -0.344
REMARK UNBOUND:                -0.308
REMARK SMILES CCCCCCCCC(=O)[O-]
REMARK SMILES IDX 6 1 7 2 8 3 9 4 10 5 11 6 5 7 4 8 3 9 2 10 1 11
REMARK H PARENT
REMARK Flexibility Score: inf
ROOT
ATOM      1  C   UNL     1     -15.188   6.882  29.633  1.00  0.00     0.000 C 
ENDROOT
BRANCH   1   2
ATOM      2  C   UNL     1     -14.843   8.330  29.242  1.00  0.00     0.006 C 
BRANCH   2   3
ATOM      3  C   UNL     1     -14.124   8.408  27.888  1.00  0.00     0.053 C 
BRANCH   3   4
ATOM      4  C   UNL     1     -12.719   7.898  27.975  1.00  0.00     0.041 C 
ATOM      5  O   UNL     1     -12.340   6.949  27.239  1.00  0.00    -0.550 OA
ATOM      6  O   UNL     1     -11.833   8.453  28.891  1.00  0.00    -0.550 OA
ENDBRANCH   3   4
ENDBRANCH   2   3
ENDBRANCH   1   2
BRANCH   1   7
ATOM      7  C   UNL     1     -16.356   6.801  30.629  1.00  0.00     0.000 C 
BRANCH   7   8
ATOM      8  C   UNL     1     -16.372   5.481  31.416  1.00  0.00    -0.000 C 
BRANCH   8   9
ATOM      9  C   UNL     1     -15.113   4.654  31.127  1.00  0.00    -0.000 C 
BRANCH   9  10
ATOM     10  C   UNL     1     -14.729   3.794  32.336  1.00  0.00    -0.003 C 
ATOM     11  C   UNL     1     -15.967   3.344  33.107  1.00  0.00     0.004 C 
ENDBRANCH   9  10
ENDBRANCH   8   9
ENDBRANCH   7   8
ENDBRANCH   1   7
TORSDOF 7
ENDMDL
MODEL 8
REMARK VINA RESULT:    -3.507      3.160      3.784
REMARK INTER + INTRA:          -5.250
REMARK INTER:                  -4.758
REMARK INTRA:                  -0.493
REMARK UNBOUND:                -0.308
REMARK SMILES CCCCCCCCC(=O)[O-]
REMARK SMILES IDX 6 1 7 2 8 3 9 4 10 5 11 6 5 7 4 8 3 9 2 10 1 11
REMARK H PARENT
REMARK Flexibility Score: inf
ROOT
ATOM      1  C   UNL     1     -15.515   4.705  29.552  1.00  0.00     0.000 C 
ENDROOT
BRANCH   1   2
ATOM      2  C   UNL     1     -15.060   3.521  30.422  1.00  0.00     0.006 C 
BRANCH   2   3
ATOM      3  C   UNL     1     -14.225   3.974  31.627  1.00  0.00     0.053 C 
BRANCH   3   4
ATOM      4  C   UNL     1     -12.767   4.061  31.293  1.00  0.00     0.041 C 
ATOM      5  O   UNL     1     -12.276   5.138  30.864  1.00  0.00    -0.550 OA
ATOM      6  O   UNL     1     -11.956   2.941  31.427  1.00  0.00    -0.550 OA
ENDBRANCH   3   4
ENDBRANCH   2   3
ENDBRANCH   1   2
BRANCH   1   7
ATOM      7  C   UNL     1     -16.370   5.718  30.331  1.00  0.00     0.000 C 
BRANCH   7   8
ATOM      8  C   UNL     1     -15.792   7.140  30.286  1.00  0.00    -0.000 C 
BRANCH   8   9
ATOM      9  C   UNL     1     -14.691   7.251  29.224  1.00  0.00    -0.000 C 
BRANCH   9  10
ATOM     10  C   UNL     1     -14.475   8.710  28.805  1.00  0.00    -0.003 C 
ATOM     11  C   UNL     1     -14.332   8.833  27.290  1.00  0.00     0.004 C 
ENDBRANCH   9  10
ENDBRANCH   8   9
ENDBRANCH   7   8
ENDBRANCH   1   7
TORSDOF 7
ENDMDL
MODEL 9
REMARK VINA RESULT:    -3.450     24.371     25.372
REMARK INTER + INTRA:          -5.169
REMARK INTER:                  -4.672
REMARK INTRA:                  -0.498
REMARK UNBOUND:                -0.308
REMARK SMILES CCCCCCCCC(=O)[O-]
REMARK SMILES IDX 6 1 7 2 8 3 9 4 10 5 11 6 5 7 4 8 3 9 2 10 1 11
REMARK H PARENT
REMARK Flexibility Score: inf
ROOT
ATOM      1  C   UNL     1       0.848  -9.743  18.457  1.00  0.00     0.000 C 
ENDROOT
BRANCH   1   2
ATOM      2  C   UNL     1       0.662  -9.106  17.068  1.00  0.00     0.006 C 
BRANCH   2   3
ATOM      3  C   UNL     1       0.694  -7.573  17.125  1.00  0.00     0.053 C 
BRANCH   3   4
ATOM      4  C   UNL     1      -0.507  -7.018  17.827  1.00  0.00     0.041 C 
ATOM      5  O   UNL     1      -0.370  -6.315  18.863  1.00  0.00    -0.550 OA
ATOM      6  O   UNL     1      -1.782  -7.302  17.353  1.00  0.00    -0.550 OA
ENDBRANCH   3   4
ENDBRANCH   2   3
ENDBRANCH   1   2
BRANCH   1   7
ATOM      7  C   UNL     1       2.195 -10.471  18.598  1.00  0.00     0.000 C 
BRANCH   7   8
ATOM      8  C   UNL     1       3.123  -9.807  19.626  1.00  0.00    -0.000 C 
BRANCH   8   9
ATOM      9  C   UNL     1       2.401  -8.671  20.363  1.00  0.00    -0.000 C 
BRANCH   9  10
ATOM     10  C   UNL     1       3.013  -8.437  21.749  1.00  0.00    -0.003 C 
ATOM     11  C   UNL     1       2.115  -8.994  22.849  1.00  0.00     0.004 C 
ENDBRANCH   9  10
ENDBRANCH   8   9
ENDBRANCH   7   8
ENDBRANCH   1   7
TORSDOF 7
ENDMDL
