MODEL 1
REMARK VINA RESULT:    24.562      0.000      0.000
REMARK INTER + INTRA:          24.562
REMARK INTER:                  24.562
REMARK INTRA:                   0.000
REMARK UNBOUND:                 0.000
REMARK SMILES CC1=CC[C@@]23C[C@@H]1C(C)(C)[C@@H]2CC[C@H]3C
REMARK SMILES IDX 15 1 14 2 13 3 12 4 11 5 5 6 4 7 3 8 2 9 7 10 6 11 8 12 9 13
REMARK SMILES IDX 10 14 1 15
REMARK H PARENT
REMARK Flexibility Score: inf
ROOT
ATOM      1  C   UNL     1      -2.666   6.264 -12.410  1.00  0.00     0.008 C 
ATOM      2  C   UNL     1      -1.141   6.321 -12.197  1.00  0.00    -0.007 C 
ATOM      3  C   UNL     1      -0.461   5.171 -12.944  1.00  0.00     0.004 C 
ATOM      4  C   UNL     1      -0.422   4.003 -11.967  1.00  0.00     0.005 C 
ATOM      5  C   UNL     1      -0.418   4.612 -10.546  1.00  0.00     0.002 C 
ATOM      6  C   UNL     1      -0.704   6.123 -10.724  1.00  0.00    -0.020 C 
ATOM      7  C   UNL     1      -1.708   6.633  -9.641  1.00  0.00     0.035 C 
ATOM      8  C   UNL     1      -1.101   6.612  -8.247  1.00  0.00    -0.027 C 
ATOM      9  C   UNL     1       0.221   6.385  -8.048  1.00  0.00    -0.074 C 
ATOM     10  C   UNL     1       1.115   6.002  -9.230  1.00  0.00     0.021 C 
ATOM     11  C   UNL     1       0.645   6.801 -10.437  1.00  0.00     0.016 C 
ATOM     12  C   UNL     1       0.897   4.527  -9.686  1.00  0.00    -0.025 C 
ATOM     13  C   UNL     1       2.149   4.055 -10.472  1.00  0.00     0.012 C 
ATOM     14  C   UNL     1       0.714   3.557  -8.493  1.00  0.00     0.012 C 
ATOM     15  C   UNL     1       0.793   6.480  -6.662  1.00  0.00     0.039 C 
ENDROOT
TORSDOF 0
ENDMDL
MODEL 2
REMARK VINA RESULT:    25.920      1.181      3.980
REMARK INTER + INTRA:          25.920
REMARK INTER:                  25.920
REMARK INTRA:                   0.000
REMARK UNBOUND:                 0.000
REMARK SMILES CC1=CC[C@@]23C[C@@H]1C(C)(C)[C@@H]2CC[C@H]3C
REMARK SMILES IDX 15 1 14 2 13 3 12 4 11 5 5 6 4 7 3 8 2 9 7 10 6 11 8 12 9 13
REMARK SMILES IDX 10 14 1 15
REMARK H PARENT
REMARK Flexibility Score: inf
ROOT
ATOM      1  C   UNL     1      -2.361   7.604  -7.377  1.00  0.00     0.008 C 
ATOM      2  C   UNL     1      -1.482   6.372  -7.667  1.00  0.00    -0.007 C 
ATOM      3  C   UNL     1      -0.121   6.522  -6.984  1.00  0.00     0.004 C 
ATOM      4  C   UNL     1       0.775   7.233  -7.990  1.00  0.00     0.005 C 
ATOM      5  C   UNL     1       0.224   6.893  -9.393  1.00  0.00     0.002 C 
ATOM      6  C   UNL     1      -1.134   6.186  -9.164  1.00  0.00    -0.020 C 
ATOM      7  C   UNL     1      -2.206   6.693 -10.182  1.00  0.00     0.035 C 
ATOM      8  C   UNL     1      -1.888   6.263 -11.606  1.00  0.00    -0.027 C 
ATOM      9  C   UNL     1      -0.910   5.364 -11.877  1.00  0.00    -0.074 C 
ATOM     10  C   UNL     1       0.000   4.864 -10.752  1.00  0.00     0.021 C 
ATOM     11  C   UNL     1      -0.857   4.713  -9.504  1.00  0.00     0.016 C 
ATOM     12  C   UNL     1       1.053   5.930 -10.322  1.00  0.00    -0.025 C 
ATOM     13  C   UNL     1       2.233   5.212  -9.613  1.00  0.00     0.012 C 
ATOM     14  C   UNL     1       1.646   6.700 -11.527  1.00  0.00     0.012 C 
ATOM     15  C   UNL     1      -0.705   4.889 -13.288  1.00  0.00     0.039 C 
ENDROOT
TORSDOF 0
ENDMDL
MODEL 3
REMARK VINA RESULT:    27.256      1.219      2.854
REMARK INTER + INTRA:          27.256
REMARK INTER:                  27.256
REMARK INTRA:                   0.000
REMARK UNBOUND:                 0.000
REMARK SMILES CC1=CC[C@@]23C[C@@H]1C(C)(C)[C@@H]2CC[C@H]3C
REMARK SMILES IDX 15 1 14 2 13 3 12 4 11 5 5 6 4 7 3 8 2 9 7 10 6 11 8 12 9 13
REMARK SMILES IDX 10 14 1 15
REMARK H PARENT
REMARK Flexibility Score: inf
ROOT
ATOM      1  C   UNL     1      -0.141   5.685 -13.777  1.00  0.00     0.008 C 
ATOM      2  C   UNL     1      -0.709   4.956 -12.545  1.00  0.00    -0.007 C 
ATOM      3  C   UNL     1      -2.212   5.218 -12.423  1.00  0.00     0.004 C 
ATOM      4  C   UNL     1      -2.349   6.478 -11.577  1.00  0.00     0.005 C 
ATOM      5  C   UNL     1      -1.093   6.548 -10.679  1.00  0.00     0.002 C 
ATOM      6  C   UNL     1      -0.130   5.453 -11.198  1.00  0.00    -0.020 C 
ATOM      7  C   UNL     1       1.341   5.978 -11.240  1.00  0.00     0.035 C 
ATOM      8  C   UNL     1       1.899   6.223  -9.847  1.00  0.00    -0.027 C 
ATOM      9  C   UNL     1       1.245   5.809  -8.734  1.00  0.00    -0.074 C 
ATOM     10  C   UNL     1      -0.157   5.204  -8.854  1.00  0.00     0.021 C 
ATOM     11  C   UNL     1      -0.183   4.359 -10.119  1.00  0.00     0.016 C 
ATOM     12  C   UNL     1      -1.248   6.282  -9.136  1.00  0.00    -0.025 C 
ATOM     13  C   UNL     1      -2.631   5.717  -8.716  1.00  0.00     0.012 C 
ATOM     14  C   UNL     1      -1.021   7.582  -8.326  1.00  0.00     0.012 C 
ATOM     15  C   UNL     1       1.886   5.978  -7.386  1.00  0.00     0.039 C 
ENDROOT
TORSDOF 0
ENDMDL
MODEL 4
REMARK VINA RESULT:    27.419     10.317     11.996
REMARK INTER + INTRA:          27.419
REMARK INTER:                  27.419
REMARK INTRA:                   0.000
REMARK UNBOUND:                 0.000
REMARK SMILES CC1=CC[C@@]23C[C@@H]1C(C)(C)[C@@H]2CC[C@H]3C
REMARK SMILES IDX 15 1 14 2 13 3 12 4 11 5 5 6 4 7 3 8 2 9 7 10 6 11 8 12 9 13
REMARK SMILES IDX 10 14 1 15
REMARK H PARENT
REMARK Flexibility Score: inf
ROOT
ATOM      1  C   UNL     1      12.121   8.775 -11.241  1.00  0.00     0.008 C 
ATOM      2  C   UNL     1      12.432   9.074  -9.762  1.00  0.00    -0.007 C 
ATOM      3  C   UNL     1      13.680   8.307  -9.320  1.00  0.00     0.004 C 
ATOM      4  C   UNL     1      13.184   6.962  -8.806  1.00  0.00     0.005 C 
ATOM      5  C   UNL     1      11.735   7.181  -8.315  1.00  0.00     0.002 C 
ATOM      6  C   UNL     1      11.332   8.601  -8.780  1.00  0.00    -0.020 C 
ATOM      7  C   UNL     1       9.871   8.614  -9.335  1.00  0.00     0.035 C 
ATOM      8  C   UNL     1       8.845   8.362  -8.242  1.00  0.00    -0.027 C 
ATOM      9  C   UNL     1       9.187   8.356  -6.930  1.00  0.00    -0.074 C 
ATOM     10  C   UNL     1      10.659   8.467  -6.525  1.00  0.00     0.021 C 
ATOM     11  C   UNL     1      11.327   9.436  -7.490  1.00  0.00     0.016 C 
ATOM     12  C   UNL     1      11.444   7.142  -6.769  1.00  0.00    -0.025 C 
ATOM     13  C   UNL     1      12.713   7.139  -5.875  1.00  0.00     0.012 C 
ATOM     14  C   UNL     1      10.619   5.886  -6.394  1.00  0.00     0.012 C 
ATOM     15  C   UNL     1       8.120   8.210  -5.882  1.00  0.00     0.039 C 
ENDROOT
TORSDOF 0
ENDMDL
