MODEL 1
REMARK VINA RESULT:    -3.461      0.000      0.000
REMARK INTER + INTRA:          -4.392
REMARK INTER:                  -4.169
REMARK INTRA:                  -0.222
REMARK UNBOUND:                -0.222
REMARK SMILES OCC(O)CO
REMARK SMILES IDX 3 1 5 2 6 3 2 5 1 6 4 8
REMARK H PARENT 6 4 1 7 4 9
REMARK Flexibility Score: inf
ROOT
ATOM      1  C   UNL     1      71.194  82.272  68.396  1.00  0.00     0.165 C 
ENDROOT
BRANCH   1   2
ATOM      2  C   UNL     1      69.833  82.762  67.879  1.00  0.00     0.190 C 
BRANCH   2   3
ATOM      3  O   UNL     1      69.717  84.145  68.064  1.00  0.00    -0.394 OA
ATOM      4  H   UNL     1      68.756  84.359  67.942  1.00  0.00     0.210 HD
ENDBRANCH   2   3
ENDBRANCH   1   2
BRANCH   1   5
ATOM      5  C   UNL     1      72.324  83.262  68.054  1.00  0.00     0.190 C 
BRANCH   5   6
ATOM      6  O   UNL     1      72.506  84.177  69.101  1.00  0.00    -0.394 OA
ATOM      7  H   UNL     1      72.428  83.661  69.946  1.00  0.00     0.210 HD
ENDBRANCH   5   6
ENDBRANCH   1   5
BRANCH   1   8
ATOM      8  O   UNL     1      71.138  82.045  69.782  1.00  0.00    -0.388 OA
ATOM      9  H   UNL     1      71.182  82.930  70.233  1.00  0.00     0.211 HD
ENDBRANCH   1   8
TORSDOF 5
ENDMDL
MODEL 2
REMARK VINA RESULT:    -3.395     22.709     23.552
REMARK INTER + INTRA:          -4.312
REMARK INTER:                  -4.305
REMARK INTRA:                  -0.007
REMARK UNBOUND:                -0.222
REMARK SMILES OCC(O)CO
REMARK SMILES IDX 3 1 5 2 6 3 2 5 1 6 4 8
REMARK H PARENT 6 4 1 7 4 9
REMARK Flexibility Score: inf
ROOT
ATOM      1  C   UNL     1      88.060  75.844  83.833  1.00  0.00     0.165 C 
ENDROOT
BRANCH   1   2
ATOM      2  C   UNL     1      87.976  76.991  84.852  1.00  0.00     0.190 C 
BRANCH   2   3
ATOM      3  O   UNL     1      88.397  78.190  84.264  1.00  0.00    -0.394 OA
ATOM      4  H   UNL     1      87.579  78.622  83.904  1.00  0.00     0.210 HD
ENDBRANCH   2   3
ENDBRANCH   1   2
BRANCH   1   5
ATOM      5  C   UNL     1      86.700  75.578  83.161  1.00  0.00     0.190 C 
BRANCH   5   6
ATOM      6  O   UNL     1      86.872  75.314  81.795  1.00  0.00    -0.394 OA
ATOM      7  H   UNL     1      86.632  74.360  81.657  1.00  0.00     0.210 HD
ENDBRANCH   5   6
ENDBRANCH   1   5
BRANCH   1   8
ATOM      8  O   UNL     1      89.043  76.120  82.867  1.00  0.00    -0.388 OA
ATOM      9  H   UNL     1      88.659  75.898  81.977  1.00  0.00     0.211 HD
ENDBRANCH   1   8
TORSDOF 5
ENDMDL
MODEL 3
REMARK VINA RESULT:    -3.288     23.228     23.771
REMARK INTER + INTRA:          -4.183
REMARK INTER:                  -3.968
REMARK INTRA:                  -0.215
REMARK UNBOUND:                -0.222
REMARK SMILES OCC(O)CO
REMARK SMILES IDX 3 1 5 2 6 3 2 5 1 6 4 8
REMARK H PARENT 6 4 1 7 4 9
REMARK Flexibility Score: inf
ROOT
ATOM      1  C   UNL     1      87.725  76.377  84.401  1.00  0.00     0.165 C 
ENDROOT
BRANCH   1   2
ATOM      2  C   UNL     1      86.549  75.485  83.976  1.00  0.00     0.190 C 
BRANCH   2   3
ATOM      3  O   UNL     1      86.835  74.144  84.261  1.00  0.00    -0.394 OA
ATOM      4  H   UNL     1      87.533  73.866  83.611  1.00  0.00     0.210 HD
ENDBRANCH   2   3
ENDBRANCH   1   2
BRANCH   1   5
ATOM      5  C   UNL     1      88.979  76.116  83.546  1.00  0.00     0.190 C 
BRANCH   5   6
ATOM      6  O   UNL     1      88.660  75.313  82.441  1.00  0.00    -0.394 OA
ATOM      7  H   UNL     1      89.453  75.325  81.843  1.00  0.00     0.210 HD
ENDBRANCH   5   6
ENDBRANCH   1   5
BRANCH   1   8
ATOM      8  O   UNL     1      87.357  77.733  84.337  1.00  0.00    -0.388 OA
ATOM      9  H   UNL     1      86.788  77.851  83.531  1.00  0.00     0.211 HD
ENDBRANCH   1   8
TORSDOF 5
ENDMDL
MODEL 4
REMARK VINA RESULT:    -3.257     22.620     23.416
REMARK INTER + INTRA:          -4.145
REMARK INTER:                  -3.922
REMARK INTRA:                  -0.223
REMARK UNBOUND:                -0.222
REMARK SMILES OCC(O)CO
REMARK SMILES IDX 3 1 5 2 6 3 2 5 1 6 4 8
REMARK H PARENT 6 4 1 7 4 9
REMARK Flexibility Score: inf
ROOT
ATOM      1  C   UNL     1      86.931  76.450  84.145  1.00  0.00     0.165 C 
ENDROOT
BRANCH   1   2
ATOM      2  C   UNL     1      87.422  75.523  83.023  1.00  0.00     0.190 C 
BRANCH   2   3
ATOM      3  O   UNL     1      88.744  75.838  82.682  1.00  0.00    -0.394 OA
ATOM      4  H   UNL     1      89.008  75.189  81.978  1.00  0.00     0.210 HD
ENDBRANCH   2   3
ENDBRANCH   1   2
BRANCH   1   5
ATOM      5  C   UNL     1      88.104  77.117  84.889  1.00  0.00     0.190 C 
BRANCH   5   6
ATOM      6  O   UNL     1      88.461  78.319  84.263  1.00  0.00    -0.394 OA
ATOM      7  H   UNL     1      87.645  78.884  84.246  1.00  0.00     0.210 HD
ENDBRANCH   5   6
ENDBRANCH   1   5
BRANCH   1   8
ATOM      8  O   UNL     1      86.058  77.423  83.628  1.00  0.00    -0.388 OA
ATOM      9  H   UNL     1      86.451  77.758  82.778  1.00  0.00     0.211 HD
ENDBRANCH   1   8
TORSDOF 5
ENDMDL
MODEL 5
REMARK VINA RESULT:    -3.217     22.892     23.492
REMARK INTER + INTRA:          -4.097
REMARK INTER:                  -4.095
REMARK INTRA:                  -0.002
REMARK UNBOUND:                -0.222
REMARK SMILES OCC(O)CO
REMARK SMILES IDX 3 1 5 2 6 3 2 5 1 6 4 8
REMARK H PARENT 6 4 1 7 4 9
REMARK Flexibility Score: inf
ROOT
ATOM      1  C   UNL     1      87.573  75.961  83.442  1.00  0.00     0.165 C 
ENDROOT
BRANCH   1   2
ATOM      2  C   UNL     1      86.674  74.856  84.018  1.00  0.00     0.190 C 
BRANCH   2   3
ATOM      3  O   UNL     1      85.707  74.483  83.076  1.00  0.00    -0.394 OA
ATOM      4  H   UNL     1      86.028  73.634  82.673  1.00  0.00     0.210 HD
ENDBRANCH   2   3
ENDBRANCH   1   2
BRANCH   1   5
ATOM      5  C   UNL     1      88.339  76.708  84.550  1.00  0.00     0.190 C 
BRANCH   5   6
ATOM      6  O   UNL     1      88.303  78.090  84.324  1.00  0.00    -0.394 OA
ATOM      7  H   UNL     1      88.047  78.216  83.373  1.00  0.00     0.210 HD
ENDBRANCH   5   6
ENDBRANCH   1   5
BRANCH   1   8
ATOM      8  O   UNL     1      88.466  75.423  82.500  1.00  0.00    -0.388 OA
ATOM      9  H   UNL     1      88.074  75.567  81.598  1.00  0.00     0.211 HD
ENDBRANCH   1   8
TORSDOF 5
ENDMDL
MODEL 6
REMARK VINA RESULT:    -3.177     22.120     22.904
REMARK INTER + INTRA:          -4.050
REMARK INTER:                  -3.933
REMARK INTRA:                  -0.116
REMARK UNBOUND:                -0.222
REMARK SMILES OCC(O)CO
REMARK SMILES IDX 3 1 5 2 6 3 2 5 1 6 4 8
REMARK H PARENT 6 4 1 7 4 9
REMARK Flexibility Score: inf
ROOT
ATOM      1  C   UNL     1      86.442  75.444  83.625  1.00  0.00     0.165 C 
ENDROOT
BRANCH   1   2
ATOM      2  C   UNL     1      87.975  75.533  83.682  1.00  0.00     0.190 C 
BRANCH   2   3
ATOM      3  O   UNL     1      88.501  75.605  82.386  1.00  0.00    -0.394 OA
ATOM      4  H   UNL     1      89.181  76.329  82.405  1.00  0.00     0.210 HD
ENDBRANCH   2   3
ENDBRANCH   1   2
BRANCH   1   5
ATOM      5  C   UNL     1      85.781  76.800  83.937  1.00  0.00     0.190 C 
BRANCH   5   6
ATOM      6  O   UNL     1      86.756  77.791  84.118  1.00  0.00    -0.394 OA
ATOM      7  H   UNL     1      86.388  78.434  84.780  1.00  0.00     0.210 HD
ENDBRANCH   5   6
ENDBRANCH   1   5
BRANCH   1   8
ATOM      8  O   UNL     1      86.026  74.969  82.370  1.00  0.00    -0.388 OA
ATOM      9  H   UNL     1      86.640  75.348  81.686  1.00  0.00     0.211 HD
ENDBRANCH   1   8
TORSDOF 5
ENDMDL
MODEL 7
REMARK VINA RESULT:    -3.176      7.516      9.149
REMARK INTER + INTRA:          -4.048
REMARK INTER:                  -4.046
REMARK INTRA:                  -0.003
REMARK UNBOUND:                -0.222
REMARK SMILES OCC(O)CO
REMARK SMILES IDX 3 1 5 2 6 3 2 5 1 6 4 8
REMARK H PARENT 6 4 1 7 4 9
REMARK Flexibility Score: inf
ROOT
ATOM      1  C   UNL     1      78.355  87.813  68.159  1.00  0.00     0.165 C 
ENDROOT
BRANCH   1   2
ATOM      2  C   UNL     1      79.777  88.356  68.365  1.00  0.00     0.190 C 
BRANCH   2   3
ATOM      3  O   UNL     1      79.736  89.736  68.601  1.00  0.00    -0.394 OA
ATOM      4  H   UNL     1      79.292  89.852  69.481  1.00  0.00     0.210 HD
ENDBRANCH   2   3
ENDBRANCH   1   2
BRANCH   1   5
ATOM      5  C   UNL     1      78.090  86.565  69.023  1.00  0.00     0.190 C 
BRANCH   5   6
ATOM      6  O   UNL     1      77.308  85.639  68.319  1.00  0.00    -0.394 OA
ATOM      7  H   UNL     1      76.844  85.083  68.999  1.00  0.00     0.210 HD
ENDBRANCH   5   6
ENDBRANCH   1   5
BRANCH   1   8
ATOM      8  O   UNL     1      77.406  88.813  68.431  1.00  0.00    -0.388 OA
ATOM      9  H   UNL     1      76.630  88.377  68.875  1.00  0.00     0.211 HD
ENDBRANCH   1   8
TORSDOF 5
ENDMDL
MODEL 8
REMARK VINA RESULT:    -3.148     21.662     22.410
REMARK INTER + INTRA:          -4.015
REMARK INTER:                  -4.011
REMARK INTRA:                  -0.003
REMARK UNBOUND:                -0.222
REMARK SMILES OCC(O)CO
REMARK SMILES IDX 3 1 5 2 6 3 2 5 1 6 4 8
REMARK H PARENT 6 4 1 7 4 9
REMARK Flexibility Score: inf
ROOT
ATOM      1  C   UNL     1      86.248  75.721  82.981  1.00  0.00     0.165 C 
ENDROOT
BRANCH   1   2
ATOM      2  C   UNL     1      85.454  76.747  83.802  1.00  0.00     0.190 C 
BRANCH   2   3
ATOM      3  O   UNL     1      85.326  77.943  83.085  1.00  0.00    -0.394 OA
ATOM      4  H   UNL     1      86.174  78.054  82.581  1.00  0.00     0.210 HD
ENDBRANCH   2   3
ENDBRANCH   1   2
BRANCH   1   5
ATOM      5  C   UNL     1      87.703  75.600  83.472  1.00  0.00     0.190 C 
BRANCH   5   6
ATOM      6  O   UNL     1      88.547  75.225  82.418  1.00  0.00    -0.394 OA
ATOM      7  H   UNL     1      88.251  74.324  82.124  1.00  0.00     0.210 HD
ENDBRANCH   5   6
ENDBRANCH   1   5
BRANCH   1   8
ATOM      8  O   UNL     1      85.611  74.468  83.014  1.00  0.00    -0.388 OA
ATOM      9  H   UNL     1      86.319  73.772  83.061  1.00  0.00     0.211 HD
ENDBRANCH   1   8
TORSDOF 5
ENDMDL
MODEL 9
REMARK VINA RESULT:    -3.034     22.402     23.280
REMARK INTER + INTRA:          -3.877
REMARK INTER:                  -3.674
REMARK INTRA:                  -0.203
REMARK UNBOUND:                -0.222
REMARK SMILES OCC(O)CO
REMARK SMILES IDX 3 1 5 2 6 3 2 5 1 6 4 8
REMARK H PARENT 6 4 1 7 4 9
REMARK Flexibility Score: inf
ROOT
ATOM      1  C   UNL     1      86.509  75.908  83.310  1.00  0.00     0.165 C 
ENDROOT
BRANCH   1   2
ATOM      2  C   UNL     1      88.027  75.756  83.488  1.00  0.00     0.190 C 
BRANCH   2   3
ATOM      3  O   UNL     1      88.586  75.142  82.360  1.00  0.00    -0.394 OA
ATOM      4  H   UNL     1      88.636  75.844  81.660  1.00  0.00     0.210 HD
ENDBRANCH   2   3
ENDBRANCH   1   2
BRANCH   1   5
ATOM      5  C   UNL     1      85.740  74.730  83.938  1.00  0.00     0.190 C 
BRANCH   5   6
ATOM      6  O   UNL     1      86.619  73.685  84.255  1.00  0.00    -0.394 OA
ATOM      7  H   UNL     1      87.504  74.100  84.428  1.00  0.00     0.210 HD
ENDBRANCH   5   6
ENDBRANCH   1   5
BRANCH   1   8
ATOM      8  O   UNL     1      86.073  77.129  83.853  1.00  0.00    -0.388 OA
ATOM      9  H   UNL     1      86.035  77.790  83.112  1.00  0.00     0.211 HD
ENDBRANCH   1   8
TORSDOF 5
ENDMDL
