MODEL 1
REMARK VINA RESULT:    -5.309      0.000      0.000
REMARK INTER + INTRA:          -6.964
REMARK INTER:                  -6.861
REMARK INTRA:                  -0.103
REMARK UNBOUND:                -0.103
REMARK SMILES CCO[C@@H]1O[C@@H](CO)[C@H](O)[C@H](O)[C@H]1O
REMARK SMILES IDX 4 1 13 2 11 3 9 4 6 5 5 6 3 7 2 8 1 9 14 10 12 12 7 14 8 15
REMARK SMILES IDX 10 17
REMARK H PARENT 14 11 12 13 8 16 10 18
REMARK Flexibility Score: inf
ROOT
ATOM      1  C   UNL     1      36.336  12.161  43.988  1.00  0.00     0.281 C 
ATOM      2  C   UNL     1      37.714  11.904  43.335  1.00  0.00     0.202 C 
ATOM      3  C   UNL     1      38.654  11.113  44.270  1.00  0.00     0.179 C 
ATOM      4  C   UNL     1      37.925   9.921  44.926  1.00  0.00     0.177 C 
ATOM      5  C   UNL     1      36.543  10.349  45.476  1.00  0.00     0.178 C 
ATOM      6  O   UNL     1      35.762  10.949  44.454  1.00  0.00    -0.341 OA
ENDROOT
BRANCH   1   7
ATOM      7  O   UNL     1      36.429  13.103  45.047  1.00  0.00    -0.350 OA
BRANCH   7   8
ATOM      8  C   UNL     1      35.173  13.685  45.325  1.00  0.00     0.160 C 
ATOM      9  C   UNL     1      35.380  14.944  46.154  1.00  0.00     0.035 C 
ENDBRANCH   7   8
ENDBRANCH   1   7
BRANCH   2  10
ATOM     10  O   UNL     1      37.517  11.181  42.145  1.00  0.00    -0.385 OA
ATOM     11  H   UNL     1      36.675  11.517  41.739  1.00  0.00     0.211 HD
ENDBRANCH   2  10
BRANCH   3  12
ATOM     12  O   UNL     1      39.263  11.959  45.217  1.00  0.00    -0.387 OA
ATOM     13  H   UNL     1      38.831  11.816  46.096  1.00  0.00     0.211 HD
ENDBRANCH   3  12
BRANCH   5  14
ATOM     14  C   UNL     1      35.773   9.133  46.014  1.00  0.00     0.191 C 
BRANCH  14  15
ATOM     15  O   UNL     1      34.986   9.500  47.116  1.00  0.00    -0.394 OA
ATOM     16  H   UNL     1      34.111   9.798  46.754  1.00  0.00     0.210 HD
ENDBRANCH  14  15
ENDBRANCH   5  14
BRANCH   4  17
ATOM     17  O   UNL     1      38.726   9.399  45.958  1.00  0.00    -0.387 OA
ATOM     18  H   UNL     1      38.355   8.511  46.199  1.00  0.00     0.211 HD
ENDBRANCH   4  17
TORSDOF 7
ENDMDL
MODEL 2
REMARK VINA RESULT:    -5.277      4.548      5.766
REMARK INTER + INTRA:          -6.923
REMARK INTER:                  -6.558
REMARK INTRA:                  -0.365
REMARK UNBOUND:                -0.103
REMARK SMILES CCO[C@@H]1O[C@@H](CO)[C@H](O)[C@H](O)[C@H]1O
REMARK SMILES IDX 4 1 13 2 11 3 9 4 6 5 5 6 3 7 2 8 1 9 14 10 12 12 7 14 8 15
REMARK SMILES IDX 10 17
REMARK H PARENT 14 11 12 13 8 16 10 18
REMARK Flexibility Score: inf
ROOT
ATOM      1  C   UNL     1      35.723   6.436  44.105  1.00  0.00     0.281 C 
ATOM      2  C   UNL     1      37.099   6.518  43.403  1.00  0.00     0.202 C 
ATOM      3  C   UNL     1      38.179   5.716  44.162  1.00  0.00     0.179 C 
ATOM      4  C   UNL     1      37.657   4.327  44.586  1.00  0.00     0.177 C 
ATOM      5  C   UNL     1      36.249   4.431  45.219  1.00  0.00     0.178 C 
ATOM      6  O   UNL     1      35.351   5.087  44.337  1.00  0.00    -0.341 OA
ENDROOT
BRANCH   1   7
ATOM      7  O   UNL     1      35.717   7.168  45.323  1.00  0.00    -0.350 OA
BRANCH   7   8
ATOM      8  C   UNL     1      36.014   8.531  45.102  1.00  0.00     0.160 C 
ATOM      9  C   UNL     1      35.636   9.329  46.341  1.00  0.00     0.035 C 
ENDBRANCH   7   8
ENDBRANCH   1   7
BRANCH   2  10
ATOM     10  O   UNL     1      36.965   6.008  42.099  1.00  0.00    -0.385 OA
ATOM     11  H   UNL     1      36.650   6.756  41.527  1.00  0.00     0.211 HD
ENDBRANCH   2  10
BRANCH   3  12
ATOM     12  O   UNL     1      38.692   6.453  45.248  1.00  0.00    -0.387 OA
ATOM     13  H   UNL     1      38.112   6.304  46.036  1.00  0.00     0.211 HD
ENDBRANCH   3  12
BRANCH   5  14
ATOM     14  C   UNL     1      35.686   3.034  45.523  1.00  0.00     0.191 C 
BRANCH  14  15
ATOM     15  O   UNL     1      36.236   2.532  46.712  1.00  0.00    -0.394 OA
ATOM     16  H   UNL     1      35.479   2.397  47.340  1.00  0.00     0.210 HD
ENDBRANCH  14  15
ENDBRANCH   5  14
BRANCH   4  17
ATOM     17  O   UNL     1      38.564   3.749  45.492  1.00  0.00    -0.387 OA
ATOM     18  H   UNL     1      39.218   4.452  45.745  1.00  0.00     0.211 HD
ENDBRANCH   4  17
TORSDOF 7
ENDMDL
MODEL 3
REMARK VINA RESULT:    -5.193      1.933      4.528
REMARK INTER + INTRA:          -6.814
REMARK INTER:                  -6.418
REMARK INTRA:                  -0.397
REMARK UNBOUND:                -0.103
REMARK SMILES CCO[C@@H]1O[C@@H](CO)[C@H](O)[C@H](O)[C@H]1O
REMARK SMILES IDX 4 1 13 2 11 3 9 4 6 5 5 6 3 7 2 8 1 9 14 10 12 12 7 14 8 15
REMARK SMILES IDX 10 17
REMARK H PARENT 14 11 12 13 8 16 10 18
REMARK Flexibility Score: inf
ROOT
ATOM      1  C   UNL     1      36.333   8.699  45.470  1.00  0.00     0.281 C 
ATOM      2  C   UNL     1      37.861   8.773  45.245  1.00  0.00     0.202 C 
ATOM      3  C   UNL     1      38.223   9.701  44.065  1.00  0.00     0.179 C 
ATOM      4  C   UNL     1      37.430  11.023  44.122  1.00  0.00     0.177 C 
ATOM      5  C   UNL     1      35.932  10.762  44.408  1.00  0.00     0.178 C 
ATOM      6  O   UNL     1      35.775   9.998  45.595  1.00  0.00    -0.341 OA
ENDROOT
BRANCH   1   7
ATOM      7  O   UNL     1      35.687   7.982  44.426  1.00  0.00    -0.350 OA
BRANCH   7   8
ATOM      8  C   UNL     1      35.988   6.604  44.491  1.00  0.00     0.160 C 
ATOM      9  C   UNL     1      35.222   5.875  43.398  1.00  0.00     0.035 C 
ENDBRANCH   7   8
ENDBRANCH   1   7
BRANCH   2  10
ATOM     10  O   UNL     1      38.463   9.252  46.422  1.00  0.00    -0.385 OA
ATOM     11  H   UNL     1      39.362   9.590  46.171  1.00  0.00     0.211 HD
ENDBRANCH   2  10
BRANCH   3  12
ATOM     12  O   UNL     1      38.076   9.038  42.830  1.00  0.00    -0.387 OA
ATOM     13  H   UNL     1      37.153   8.687  42.765  1.00  0.00     0.211 HD
ENDBRANCH   3  12
BRANCH   5  14
ATOM     14  C   UNL     1      35.175  12.086  44.588  1.00  0.00     0.191 C 
BRANCH  14  15
ATOM     15  O   UNL     1      35.987  13.032  45.231  1.00  0.00    -0.394 OA
ATOM     16  H   UNL     1      35.395  13.553  45.833  1.00  0.00     0.210 HD
ENDBRANCH  14  15
ENDBRANCH   5  14
BRANCH   4  17
ATOM     17  O   UNL     1      37.587  11.711  42.906  1.00  0.00    -0.387 OA
ATOM     18  H   UNL     1      36.678  11.909  42.559  1.00  0.00     0.211 HD
ENDBRANCH   4  17
TORSDOF 7
ENDMDL
MODEL 4
REMARK VINA RESULT:    -4.997      2.165      5.165
REMARK INTER + INTRA:          -6.560
REMARK INTER:                  -6.416
REMARK INTRA:                  -0.144
REMARK UNBOUND:                -0.103
REMARK SMILES CCO[C@@H]1O[C@@H](CO)[C@H](O)[C@H](O)[C@H]1O
REMARK SMILES IDX 4 1 13 2 11 3 9 4 6 5 5 6 3 7 2 8 1 9 14 10 12 12 7 14 8 15
REMARK SMILES IDX 10 17
REMARK H PARENT 14 11 12 13 8 16 10 18
REMARK Flexibility Score: inf
ROOT
ATOM      1  C   UNL     1      38.067   8.013  44.380  1.00  0.00     0.281 C 
ATOM      2  C   UNL     1      36.606   7.892  44.873  1.00  0.00     0.202 C 
ATOM      3  C   UNL     1      36.066   9.239  45.401  1.00  0.00     0.179 C 
ATOM      4  C   UNL     1      36.422  10.402  44.450  1.00  0.00     0.177 C 
ATOM      5  C   UNL     1      37.906  10.333  44.018  1.00  0.00     0.178 C 
ATOM      6  O   UNL     1      38.201   9.070  43.442  1.00  0.00    -0.341 OA
ENDROOT
BRANCH   1   7
ATOM      7  O   UNL     1      38.969   8.196  45.463  1.00  0.00    -0.350 OA
BRANCH   7   8
ATOM      8  C   UNL     1      40.054   7.295  45.383  1.00  0.00     0.160 C 
ATOM      9  C   UNL     1      39.561   5.973  44.816  1.00  0.00     0.035 C 
ENDBRANCH   7   8
ENDBRANCH   1   7
BRANCH   2  10
ATOM     10  O   UNL     1      35.809   7.453  43.801  1.00  0.00    -0.385 OA
ATOM     11  H   UNL     1      35.489   8.265  43.327  1.00  0.00     0.211 HD
ENDBRANCH   2  10
BRANCH   3  12
ATOM     12  O   UNL     1      36.490   9.476  46.723  1.00  0.00    -0.387 OA
ATOM     13  H   UNL     1      35.803  10.020  47.185  1.00  0.00     0.211 HD
ENDBRANCH   3  12
BRANCH   5  14
ATOM     14  C   UNL     1      38.218  11.418  42.976  1.00  0.00     0.191 C 
BRANCH  14  15
ATOM     15  O   UNL     1      38.090  10.902  41.678  1.00  0.00    -0.394 OA
ATOM     16  H   UNL     1      37.699   9.994  41.769  1.00  0.00     0.210 HD
ENDBRANCH  14  15
ENDBRANCH   5  14
BRANCH   4  17
ATOM     17  O   UNL     1      36.151  11.624  45.092  1.00  0.00    -0.387 OA
ATOM     18  H   UNL     1      36.545  11.573  46.003  1.00  0.00     0.211 HD
ENDBRANCH   4  17
TORSDOF 7
ENDMDL
MODEL 5
REMARK VINA RESULT:    -4.900     14.949     16.706
REMARK INTER + INTRA:          -6.436
REMARK INTER:                  -6.017
REMARK INTRA:                  -0.419
REMARK UNBOUND:                -0.103
REMARK SMILES CCO[C@@H]1O[C@@H](CO)[C@H](O)[C@H](O)[C@H]1O
REMARK SMILES IDX 4 1 13 2 11 3 9 4 6 5 5 6 3 7 2 8 1 9 14 10 12 12 7 14 8 15
REMARK SMILES IDX 10 17
REMARK H PARENT 14 11 12 13 8 16 10 18
REMARK Flexibility Score: inf
ROOT
ATOM      1  C   UNL     1      22.804   4.563  42.872  1.00  0.00     0.281 C 
ATOM      2  C   UNL     1      21.514   3.848  42.406  1.00  0.00     0.202 C 
ATOM      3  C   UNL     1      20.916   4.509  41.144  1.00  0.00     0.179 C 
ATOM      4  C   UNL     1      22.006   4.808  40.093  1.00  0.00     0.177 C 
ATOM      5  C   UNL     1      23.242   5.472  40.746  1.00  0.00     0.178 C 
ATOM      6  O   UNL     1      23.737   4.672  41.809  1.00  0.00    -0.341 OA
ENDROOT
BRANCH   1   7
ATOM      7  O   UNL     1      22.520   5.846  43.415  1.00  0.00    -0.350 OA
BRANCH   7   8
ATOM      8  C   UNL     1      21.746   5.743  44.592  1.00  0.00     0.160 C 
ATOM      9  C   UNL     1      20.680   6.827  44.582  1.00  0.00     0.035 C 
ENDBRANCH   7   8
ENDBRANCH   1   7
BRANCH   2  10
ATOM     10  O   UNL     1      21.823   2.504  42.131  1.00  0.00    -0.385 OA
ATOM     11  H   UNL     1      21.202   2.205  41.417  1.00  0.00     0.211 HD
ENDBRANCH   2  10
BRANCH   3  12
ATOM     12  O   UNL     1      20.160   5.651  41.475  1.00  0.00    -0.387 OA
ATOM     13  H   UNL     1      20.129   5.737  42.461  1.00  0.00     0.211 HD
ENDBRANCH   3  12
BRANCH   5  14
ATOM     14  C   UNL     1      24.368   5.651  39.718  1.00  0.00     0.191 C 
BRANCH  14  15
ATOM     15  O   UNL     1      24.107   6.753  38.890  1.00  0.00    -0.394 OA
ATOM     16  H   UNL     1      24.952   6.956  38.411  1.00  0.00     0.210 HD
ENDBRANCH  14  15
ENDBRANCH   5  14
BRANCH   4  17
ATOM     17  O   UNL     1      21.470   5.639  39.094  1.00  0.00    -0.387 OA
ATOM     18  H   UNL     1      22.231   6.094  38.648  1.00  0.00     0.211 HD
ENDBRANCH   4  17
TORSDOF 7
ENDMDL
MODEL 6
REMARK VINA RESULT:    -4.895      3.695      6.116
REMARK INTER + INTRA:          -6.429
REMARK INTER:                  -6.039
REMARK INTRA:                  -0.390
REMARK UNBOUND:                -0.103
REMARK SMILES CCO[C@@H]1O[C@@H](CO)[C@H](O)[C@H](O)[C@H]1O
REMARK SMILES IDX 4 1 13 2 11 3 9 4 6 5 5 6 3 7 2 8 1 9 14 10 12 12 7 14 8 15
REMARK SMILES IDX 10 17
REMARK H PARENT 14 11 12 13 8 16 10 18
REMARK Flexibility Score: inf
ROOT
ATOM      1  C   UNL     1      38.504   6.854  43.317  1.00  0.00     0.281 C 
ATOM      2  C   UNL     1      37.320   5.878  43.128  1.00  0.00     0.202 C 
ATOM      3  C   UNL     1      36.315   5.960  44.298  1.00  0.00     0.179 C 
ATOM      4  C   UNL     1      36.000   7.424  44.669  1.00  0.00     0.177 C 
ATOM      5  C   UNL     1      37.296   8.265  44.763  1.00  0.00     0.178 C 
ATOM      6  O   UNL     1      38.040   8.174  43.557  1.00  0.00    -0.341 OA
ENDROOT
BRANCH   1   7
ATOM      7  O   UNL     1      39.362   6.434  44.369  1.00  0.00    -0.350 OA
BRANCH   7   8
ATOM      8  C   UNL     1      40.124   5.307  43.986  1.00  0.00     0.160 C 
ATOM      9  C   UNL     1      40.124   4.297  45.123  1.00  0.00     0.035 C 
ENDBRANCH   7   8
ENDBRANCH   1   7
BRANCH   2  10
ATOM     10  O   UNL     1      36.667   6.196  41.924  1.00  0.00    -0.385 OA
ATOM     11  H   UNL     1      37.367   6.263  41.223  1.00  0.00     0.211 HD
ENDBRANCH   2  10
BRANCH   3  12
ATOM     12  O   UNL     1      36.756   5.206  45.403  1.00  0.00    -0.387 OA
ATOM     13  H   UNL     1      37.746   5.221  45.425  1.00  0.00     0.211 HD
ENDBRANCH   3  12
BRANCH   5  14
ATOM     14  C   UNL     1      36.965   9.745  45.009  1.00  0.00     0.191 C 
BRANCH  14  15
ATOM     15  O   UNL     1      35.912  10.157  44.178  1.00  0.00    -0.394 OA
ATOM     16  H   UNL     1      36.320  10.428  43.315  1.00  0.00     0.210 HD
ENDBRANCH  14  15
ENDBRANCH   5  14
BRANCH   4  17
ATOM     17  O   UNL     1      35.305   7.452  45.891  1.00  0.00    -0.387 OA
ATOM     18  H   UNL     1      35.337   8.385  46.229  1.00  0.00     0.211 HD
ENDBRANCH   4  17
TORSDOF 7
ENDMDL
MODEL 7
REMARK VINA RESULT:    -4.883      3.192      4.120
REMARK INTER + INTRA:          -6.413
REMARK INTER:                  -6.010
REMARK INTRA:                  -0.403
REMARK UNBOUND:                -0.103
REMARK SMILES CCO[C@@H]1O[C@@H](CO)[C@H](O)[C@H](O)[C@H]1O
REMARK SMILES IDX 4 1 13 2 11 3 9 4 6 5 5 6 3 7 2 8 1 9 14 10 12 12 7 14 8 15
REMARK SMILES IDX 10 17
REMARK H PARENT 14 11 12 13 8 16 10 18
REMARK Flexibility Score: inf
ROOT
ATOM      1  C   UNL     1      36.804   8.570  44.349  1.00  0.00     0.281 C 
ATOM      2  C   UNL     1      38.254   8.348  43.859  1.00  0.00     0.202 C 
ATOM      3  C   UNL     1      38.885   7.087  44.487  1.00  0.00     0.179 C 
ATOM      4  C   UNL     1      37.912   5.890  44.450  1.00  0.00     0.177 C 
ATOM      5  C   UNL     1      36.499   6.307  44.922  1.00  0.00     0.178 C 
ATOM      6  O   UNL     1      36.019   7.403  44.157  1.00  0.00    -0.341 OA
ENDROOT
BRANCH   1   7
ATOM      7  O   UNL     1      36.771   8.969  45.713  1.00  0.00    -0.350 OA
BRANCH   7   8
ATOM      8  C   UNL     1      35.709   9.868  45.957  1.00  0.00     0.160 C 
ATOM      9  C   UNL     1      35.716  10.947  44.885  1.00  0.00     0.035 C 
ENDBRANCH   7   8
ENDBRANCH   1   7
BRANCH   2  10
ATOM     10  O   UNL     1      38.236   8.218  42.459  1.00  0.00    -0.385 OA
ATOM     11  H   UNL     1      37.463   8.747  42.128  1.00  0.00     0.211 HD
ENDBRANCH   2  10
BRANCH   3  12
ATOM     12  O   UNL     1      39.367   7.349  45.784  1.00  0.00    -0.387 OA
ATOM     13  H   UNL     1      38.707   7.911  46.262  1.00  0.00     0.211 HD
ENDBRANCH   3  12
BRANCH   5  14
ATOM     14  C   UNL     1      35.508   5.144  44.763  1.00  0.00     0.191 C 
BRANCH  14  15
ATOM     15  O   UNL     1      35.535   4.319  45.898  1.00  0.00    -0.394 OA
ATOM     16  H   UNL     1      35.635   4.918  46.683  1.00  0.00     0.210 HD
ENDBRANCH  14  15
ENDBRANCH   5  14
BRANCH   4  17
ATOM     17  O   UNL     1      38.418   4.857  45.259  1.00  0.00    -0.387 OA
ATOM     18  H   UNL     1      38.979   5.279  45.961  1.00  0.00     0.211 HD
ENDBRANCH   4  17
TORSDOF 7
ENDMDL
MODEL 8
REMARK VINA RESULT:    -4.826      3.227      5.396
REMARK INTER + INTRA:          -6.339
REMARK INTER:                  -5.998
REMARK INTRA:                  -0.341
REMARK UNBOUND:                -0.103
REMARK SMILES CCO[C@@H]1O[C@@H](CO)[C@H](O)[C@H](O)[C@H]1O
REMARK SMILES IDX 4 1 13 2 11 3 9 4 6 5 5 6 3 7 2 8 1 9 14 10 12 12 7 14 8 15
REMARK SMILES IDX 10 17
REMARK H PARENT 14 11 12 13 8 16 10 18
REMARK Flexibility Score: inf
ROOT
ATOM      1  C   UNL     1      36.499   6.179  44.384  1.00  0.00     0.281 C 
ATOM      2  C   UNL     1      38.025   6.296  44.157  1.00  0.00     0.202 C 
ATOM      3  C   UNL     1      38.459   7.760  43.923  1.00  0.00     0.179 C 
ATOM      4  C   UNL     1      37.798   8.714  44.940  1.00  0.00     0.177 C 
ATOM      5  C   UNL     1      36.285   8.418  45.079  1.00  0.00     0.178 C 
ATOM      6  O   UNL     1      36.071   7.055  45.415  1.00  0.00    -0.341 OA
ENDROOT
BRANCH   1   7
ATOM      7  O   UNL     1      35.774   6.431  43.188  1.00  0.00    -0.350 OA
BRANCH   7   8
ATOM      8  C   UNL     1      34.641   5.593  43.092  1.00  0.00     0.160 C 
ATOM      9  C   UNL     1      34.890   4.325  43.893  1.00  0.00     0.035 C 
ENDBRANCH   7   8
ENDBRANCH   1   7
BRANCH   2  10
ATOM     10  O   UNL     1      38.685   5.784  45.287  1.00  0.00    -0.385 OA
ATOM     11  H   UNL     1      38.452   6.375  46.051  1.00  0.00     0.211 HD
ENDBRANCH   2  10
BRANCH   3  12
ATOM     12  O   UNL     1      38.233   8.153  42.590  1.00  0.00    -0.387 OA
ATOM     13  H   UNL     1      39.107   8.315  42.153  1.00  0.00     0.211 HD
ENDBRANCH   3  12
BRANCH   5  14
ATOM     14  C   UNL     1      35.661   9.286  46.182  1.00  0.00     0.191 C 
BRANCH  14  15
ATOM     15  O   UNL     1      35.352  10.561  45.686  1.00  0.00    -0.394 OA
ATOM     16  H   UNL     1      35.886  10.682  44.858  1.00  0.00     0.210 HD
ENDBRANCH  14  15
ENDBRANCH   5  14
BRANCH   4  17
ATOM     17  O   UNL     1      38.004  10.043  44.530  1.00  0.00    -0.387 OA
ATOM     18  H   UNL     1      37.938  10.616  45.338  1.00  0.00     0.211 HD
ENDBRANCH   4  17
TORSDOF 7
ENDMDL
MODEL 9
REMARK VINA RESULT:    -4.781      8.843     10.755
REMARK INTER + INTRA:          -6.281
REMARK INTER:                  -5.875
REMARK INTRA:                  -0.406
REMARK UNBOUND:                -0.103
REMARK SMILES CCO[C@@H]1O[C@@H](CO)[C@H](O)[C@H](O)[C@H]1O
REMARK SMILES IDX 4 1 13 2 11 3 9 4 6 5 5 6 3 7 2 8 1 9 14 10 12 12 7 14 8 15
REMARK SMILES IDX 10 17
REMARK H PARENT 14 11 12 13 8 16 10 18
REMARK Flexibility Score: inf
ROOT
ATOM      1  C   UNL     1      37.138   1.565  44.765  1.00  0.00     0.281 C 
ATOM      2  C   UNL     1      38.269   1.999  45.727  1.00  0.00     0.202 C 
ATOM      3  C   UNL     1      38.183   1.262  47.081  1.00  0.00     0.179 C 
ATOM      4  C   UNL     1      37.930  -0.248  46.888  1.00  0.00     0.177 C 
ATOM      5  C   UNL     1      36.806  -0.495  45.853  1.00  0.00     0.178 C 
ATOM      6  O   UNL     1      37.104   0.153  44.626  1.00  0.00    -0.341 OA
ENDROOT
BRANCH   1   7
ATOM      7  O   UNL     1      35.874   2.051  45.195  1.00  0.00    -0.350 OA
BRANCH   7   8
ATOM      8  C   UNL     1      35.795   3.456  45.064  1.00  0.00     0.160 C 
ATOM      9  C   UNL     1      34.463   3.821  44.428  1.00  0.00     0.035 C 
ENDBRANCH   7   8
ENDBRANCH   1   7
BRANCH   2  10
ATOM     10  O   UNL     1      39.505   1.721  45.117  1.00  0.00    -0.385 OA
ATOM     11  H   UNL     1      39.462   0.785  44.789  1.00  0.00     0.211 HD
ENDBRANCH   2  10
BRANCH   3  12
ATOM     12  O   UNL     1      37.234   1.863  47.931  1.00  0.00    -0.387 OA
ATOM     13  H   UNL     1      36.420   1.300  47.947  1.00  0.00     0.211 HD
ENDBRANCH   3  12
BRANCH   5  14
ATOM     14  C   UNL     1      36.646  -1.997  45.574  1.00  0.00     0.191 C 
BRANCH  14  15
ATOM     15  O   UNL     1      35.770  -2.578  46.503  1.00  0.00    -0.394 OA
ATOM     16  H   UNL     1      35.769  -3.554  46.321  1.00  0.00     0.210 HD
ENDBRANCH  14  15
ENDBRANCH   5  14
BRANCH   4  17
ATOM     17  O   UNL     1      37.596  -0.824  48.126  1.00  0.00    -0.387 OA
ATOM     18  H   UNL     1      36.607  -0.920  48.151  1.00  0.00     0.211 HD
ENDBRANCH   4  17
TORSDOF 7
ENDMDL
