MODEL 1
REMARK VINA RESULT:    -2.319      0.000      0.000
REMARK INTER + INTRA:          -4.071
REMARK INTER:                  -3.404
REMARK INTRA:                  -0.667
REMARK UNBOUND:                -0.667
REMARK SMILES CCCCCCCCCC=O
REMARK SMILES IDX 6 1 5 2 4 3 3 4 2 5 1 6 7 7 8 8 9 9 10 10 11 11
REMARK H PARENT
REMARK Flexibility Score: inf
ROOT
ATOM      1  C   UNL     1     122.204 119.083 109.668  1.00  0.00     0.000 C 
ENDROOT
BRANCH   1   2
ATOM      2  C   UNL     1     121.611 117.667 109.575  1.00  0.00     0.000 C 
BRANCH   2   3
ATOM      3  C   UNL     1     121.182 117.347 108.136  1.00  0.00    -0.000 C 
BRANCH   3   4
ATOM      4  C   UNL     1     121.754 116.014 107.629  1.00  0.00    -0.000 C 
BRANCH   4   5
ATOM      5  C   UNL     1     122.479 115.225 108.729  1.00  0.00    -0.003 C 
ATOM      6  C   UNL     1     123.865 114.785 108.266  1.00  0.00     0.004 C 
ENDBRANCH   4   5
ENDBRANCH   3   4
ENDBRANCH   2   3
ENDBRANCH   1   2
BRANCH   1   7
ATOM      7  C   UNL     1     122.976 119.485 108.401  1.00  0.00     0.000 C 
BRANCH   7   8
ATOM      8  C   UNL     1     124.502 119.388 108.582  1.00  0.00     0.008 C 
BRANCH   8   9
ATOM      9  C   UNL     1     124.993 120.214 109.779  1.00  0.00     0.072 C 
BRANCH   9  10
ATOM     10  C   UNL     1     124.848 121.689 109.543  1.00  0.00     0.224 C 
ATOM     11  O   UNL     1     124.041 122.343 110.184  1.00  0.00    -0.303 OA
ENDBRANCH   9  10
ENDBRANCH   8   9
ENDBRANCH   7   8
ENDBRANCH   1   7
TORSDOF 8
ENDMDL
MODEL 2
REMARK VINA RESULT:    -2.252      1.373      2.582
REMARK INTER + INTRA:          -3.973
REMARK INTER:                  -3.181
REMARK INTRA:                  -0.792
REMARK UNBOUND:                -0.667
REMARK SMILES CCCCCCCCCC=O
REMARK SMILES IDX 6 1 5 2 4 3 3 4 2 5 1 6 7 7 8 8 9 9 10 10 11 11
REMARK H PARENT
REMARK Flexibility Score: inf
ROOT
ATOM      1  C   UNL     1     121.439 116.331 108.021  1.00  0.00     0.000 C 
ENDROOT
BRANCH   1   2
ATOM      2  C   UNL     1     122.216 115.010 108.143  1.00  0.00     0.000 C 
BRANCH   2   3
ATOM      3  C   UNL     1     122.727 114.547 106.772  1.00  0.00    -0.000 C 
BRANCH   3   4
ATOM      4  C   UNL     1     124.251 114.350 106.742  1.00  0.00    -0.000 C 
BRANCH   4   5
ATOM      5  C   UNL     1     124.894 114.502 108.128  1.00  0.00    -0.003 C 
ATOM      6  C   UNL     1     126.093 115.446 108.077  1.00  0.00     0.004 C 
ENDBRANCH   4   5
ENDBRANCH   3   4
ENDBRANCH   2   3
ENDBRANCH   1   2
BRANCH   1   7
ATOM      7  C   UNL     1     122.174 117.512 108.673  1.00  0.00     0.000 C 
BRANCH   7   8
ATOM      8  C   UNL     1     123.295 118.076 107.782  1.00  0.00     0.008 C 
BRANCH   8   9
ATOM      9  C   UNL     1     124.159 119.105 108.525  1.00  0.00     0.072 C 
BRANCH   9  10
ATOM     10  C   UNL     1     123.339 119.986 109.421  1.00  0.00     0.224 C 
ATOM     11  O   UNL     1     123.717 121.114 109.696  1.00  0.00    -0.303 OA
ENDBRANCH   9  10
ENDBRANCH   8   9
ENDBRANCH   7   8
ENDBRANCH   1   7
TORSDOF 8
ENDMDL
MODEL 3
REMARK VINA RESULT:    -2.247      9.737     11.453
REMARK INTER + INTRA:          -3.965
REMARK INTER:                  -3.511
REMARK INTRA:                  -0.455
REMARK UNBOUND:                -0.667
REMARK SMILES CCCCCCCCCC=O
REMARK SMILES IDX 6 1 5 2 4 3 3 4 2 5 1 6 7 7 8 8 9 9 10 10 11 11
REMARK H PARENT
REMARK Flexibility Score: inf
ROOT
ATOM      1  C   UNL     1     117.521 111.162 108.384  1.00  0.00     0.000 C 
ENDROOT
BRANCH   1   2
ATOM      2  C   UNL     1     116.187 110.691 107.784  1.00  0.00     0.000 C 
BRANCH   2   3
ATOM      3  C   UNL     1     116.089 109.159 107.800  1.00  0.00    -0.000 C 
BRANCH   3   4
ATOM      4  C   UNL     1     114.815 108.654 108.495  1.00  0.00    -0.000 C 
BRANCH   4   5
ATOM      5  C   UNL     1     114.479 107.200 108.130  1.00  0.00    -0.003 C 
ATOM      6  C   UNL     1     114.201 107.060 106.636  1.00  0.00     0.004 C 
ENDBRANCH   4   5
ENDBRANCH   3   4
ENDBRANCH   2   3
ENDBRANCH   1   2
BRANCH   1   7
ATOM      7  C   UNL     1     117.883 110.418 109.679  1.00  0.00     0.000 C 
BRANCH   7   8
ATOM      8  C   UNL     1     119.369 110.023 109.741  1.00  0.00     0.008 C 
BRANCH   8   9
ATOM      9  C   UNL     1     119.700 108.873 108.780  1.00  0.00     0.072 C 
BRANCH   9  10
ATOM     10  C   UNL     1     120.659 107.891 109.386  1.00  0.00     0.224 C 
ATOM     11  O   UNL     1     121.589 108.278 110.076  1.00  0.00    -0.303 OA
ENDBRANCH   9  10
ENDBRANCH   8   9
ENDBRANCH   7   8
ENDBRANCH   1   7
TORSDOF 8
ENDMDL
MODEL 4
REMARK VINA RESULT:    -2.229      2.727      4.819
REMARK INTER + INTRA:          -3.939
REMARK INTER:                  -2.961
REMARK INTRA:                  -0.978
REMARK UNBOUND:                -0.667
REMARK SMILES CCCCCCCCCC=O
REMARK SMILES IDX 6 1 5 2 4 3 3 4 2 5 1 6 7 7 8 8 9 9 10 10 11 11
REMARK H PARENT
REMARK Flexibility Score: inf
ROOT
ATOM      1  C   UNL     1     119.977 116.778 107.474  1.00  0.00     0.000 C 
ENDROOT
BRANCH   1   2
ATOM      2  C   UNL     1     120.203 118.226 107.937  1.00  0.00     0.000 C 
BRANCH   2   3
ATOM      3  C   UNL     1     120.587 118.271 109.423  1.00  0.00    -0.000 C 
BRANCH   3   4
ATOM      4  C   UNL     1     122.009 118.806 109.653  1.00  0.00    -0.000 C 
BRANCH   4   5
ATOM      5  C   UNL     1     122.660 119.328 108.364  1.00  0.00    -0.003 C 
ATOM      6  C   UNL     1     124.004 118.649 108.114  1.00  0.00     0.004 C 
ENDBRANCH   4   5
ENDBRANCH   3   4
ENDBRANCH   2   3
ENDBRANCH   1   2
BRANCH   1   7
ATOM      7  C   UNL     1     121.264 116.112 106.960  1.00  0.00     0.000 C 
BRANCH   7   8
ATOM      8  C   UNL     1     121.673 114.889 107.800  1.00  0.00     0.008 C 
BRANCH   8   9
ATOM      9  C   UNL     1     122.890 115.181 108.688  1.00  0.00     0.072 C 
BRANCH   9  10
ATOM     10  C   UNL     1     124.130 114.501 108.186  1.00  0.00     0.224 C 
ATOM     11  O   UNL     1     125.221 115.035 108.304  1.00  0.00    -0.303 OA
ENDBRANCH   9  10
ENDBRANCH   8   9
ENDBRANCH   7   8
ENDBRANCH   1   7
TORSDOF 8
ENDMDL
MODEL 5
REMARK VINA RESULT:    -2.227     10.924     12.200
REMARK INTER + INTRA:          -3.936
REMARK INTER:                  -2.950
REMARK INTRA:                  -0.986
REMARK UNBOUND:                -0.667
REMARK SMILES CCCCCCCCCC=O
REMARK SMILES IDX 6 1 5 2 4 3 3 4 2 5 1 6 7 7 8 8 9 9 10 10 11 11
REMARK H PARENT
REMARK Flexibility Score: inf
ROOT
ATOM      1  C   UNL     1     111.858 123.315 107.010  1.00  0.00     0.000 C 
ENDROOT
BRANCH   1   2
ATOM      2  C   UNL     1     113.098 122.630 106.413  1.00  0.00     0.000 C 
BRANCH   2   3
ATOM      3  C   UNL     1     113.564 121.469 107.303  1.00  0.00    -0.000 C 
BRANCH   3   4
ATOM      4  C   UNL     1     114.540 121.919 108.401  1.00  0.00    -0.000 C 
BRANCH   4   5
ATOM      5  C   UNL     1     114.105 121.466 109.802  1.00  0.00    -0.003 C 
ATOM      6  C   UNL     1     113.030 120.386 109.721  1.00  0.00     0.004 C 
ENDBRANCH   4   5
ENDBRANCH   3   4
ENDBRANCH   2   3
ENDBRANCH   1   2
BRANCH   1   7
ATOM      7  C   UNL     1     112.171 124.702 107.594  1.00  0.00     0.000 C 
BRANCH   7   8
ATOM      8  C   UNL     1     112.116 124.723 109.132  1.00  0.00     0.008 C 
BRANCH   8   9
ATOM      9  C   UNL     1     111.135 123.682 109.688  1.00  0.00     0.072 C 
BRANCH   9  10
ATOM     10  C   UNL     1     109.847 124.307 110.138  1.00  0.00     0.224 C 
ATOM     11  O   UNL     1     109.852 125.349 110.773  1.00  0.00    -0.303 OA
ENDBRANCH   9  10
ENDBRANCH   8   9
ENDBRANCH   7   8
ENDBRANCH   1   7
TORSDOF 8
ENDMDL
MODEL 6
REMARK VINA RESULT:    -2.221     13.671     15.772
REMARK INTER + INTRA:          -3.926
REMARK INTER:                  -3.210
REMARK INTRA:                  -0.717
REMARK UNBOUND:                -0.667
REMARK SMILES CCCCCCCCCC=O
REMARK SMILES IDX 6 1 5 2 4 3 3 4 2 5 1 6 7 7 8 8 9 9 10 10 11 11
REMARK H PARENT
REMARK Flexibility Score: inf
ROOT
ATOM      1  C   UNL     1     110.806 115.300 107.760  1.00  0.00     0.000 C 
ENDROOT
BRANCH   1   2
ATOM      2  C   UNL     1     109.876 116.450 107.340  1.00  0.00     0.000 C 
BRANCH   2   3
ATOM      3  C   UNL     1     109.167 117.053 108.561  1.00  0.00    -0.000 C 
BRANCH   3   4
ATOM      4  C   UNL     1     107.679 117.337 108.302  1.00  0.00    -0.000 C 
BRANCH   4   5
ATOM      5  C   UNL     1     107.107 116.495 107.152  1.00  0.00    -0.003 C 
ATOM      6  C   UNL     1     106.327 115.296 107.684  1.00  0.00     0.004 C 
ENDBRANCH   4   5
ENDBRANCH   3   4
ENDBRANCH   2   3
ENDBRANCH   1   2
BRANCH   1   7
ATOM      7  C   UNL     1     110.260 114.505 108.956  1.00  0.00     0.000 C 
BRANCH   7   8
ATOM      8  C   UNL     1     109.549 113.208 108.531  1.00  0.00     0.008 C 
BRANCH   8   9
ATOM      9  C   UNL     1     109.028 112.414 109.738  1.00  0.00     0.072 C 
BRANCH   9  10
ATOM     10  C   UNL     1     108.197 111.237 109.320  1.00  0.00     0.224 C 
ATOM     11  O   UNL     1     108.113 110.252 110.037  1.00  0.00    -0.303 OA
ENDBRANCH   9  10
ENDBRANCH   8   9
ENDBRANCH   7   8
ENDBRANCH   1   7
TORSDOF 8
ENDMDL
MODEL 7
REMARK VINA RESULT:    -2.218     13.404     15.204
REMARK INTER + INTRA:          -3.923
REMARK INTER:                  -3.068
REMARK INTRA:                  -0.855
REMARK UNBOUND:                -0.667
REMARK SMILES CCCCCCCCCC=O
REMARK SMILES IDX 6 1 5 2 4 3 3 4 2 5 1 6 7 7 8 8 9 9 10 10 11 11
REMARK H PARENT
REMARK Flexibility Score: inf
ROOT
ATOM      1  C   UNL     1     108.384 117.414 107.534  1.00  0.00     0.000 C 
ENDROOT
BRANCH   1   2
ATOM      2  C   UNL     1     106.952 117.552 108.076  1.00  0.00     0.000 C 
BRANCH   2   3
ATOM      3  C   UNL     1     106.189 116.226 107.945  1.00  0.00    -0.000 C 
BRANCH   3   4
ATOM      4  C   UNL     1     106.460 115.514 106.610  1.00  0.00    -0.000 C 
BRANCH   4   5
ATOM      5  C   UNL     1     107.093 114.128 106.797  1.00  0.00    -0.003 C 
ATOM      6  C   UNL     1     106.659 113.499 108.118  1.00  0.00     0.004 C 
ENDBRANCH   4   5
ENDBRANCH   3   4
ENDBRANCH   2   3
ENDBRANCH   1   2
BRANCH   1   7
ATOM      7  C   UNL     1     109.379 116.937 108.604  1.00  0.00     0.000 C 
BRANCH   7   8
ATOM      8  C   UNL     1     110.226 115.741 108.134  1.00  0.00     0.008 C 
BRANCH   8   9
ATOM      9  C   UNL     1     110.215 114.591 109.151  1.00  0.00     0.072 C 
BRANCH   9  10
ATOM     10  C   UNL     1     111.474 113.777 109.095  1.00  0.00     0.224 C 
ATOM     11  O   UNL     1     111.993 113.366 110.120  1.00  0.00    -0.303 OA
ENDBRANCH   9  10
ENDBRANCH   8   9
ENDBRANCH   7   8
ENDBRANCH   1   7
TORSDOF 8
ENDMDL
MODEL 8
REMARK VINA RESULT:    -2.194     12.986     14.811
REMARK INTER + INTRA:          -3.887
REMARK INTER:                  -2.942
REMARK INTRA:                  -0.945
REMARK UNBOUND:                -0.667
REMARK SMILES CCCCCCCCCC=O
REMARK SMILES IDX 6 1 5 2 4 3 3 4 2 5 1 6 7 7 8 8 9 9 10 10 11 11
REMARK H PARENT
REMARK Flexibility Score: inf
ROOT
ATOM      1  C   UNL     1     108.205 113.750 107.826  1.00  0.00     0.000 C 
ENDROOT
BRANCH   1   2
ATOM      2  C   UNL     1     108.909 112.440 108.217  1.00  0.00     0.000 C 
BRANCH   2   3
ATOM      3  C   UNL     1     109.443 112.516 109.655  1.00  0.00    -0.000 C 
BRANCH   3   4
ATOM      4  C   UNL     1     110.392 113.705 109.873  1.00  0.00    -0.000 C 
BRANCH   4   5
ATOM      5  C   UNL     1     111.821 113.418 109.389  1.00  0.00    -0.003 C 
ATOM      6  C   UNL     1     112.196 114.323 108.219  1.00  0.00     0.004 C 
ENDBRANCH   4   5
ENDBRANCH   3   4
ENDBRANCH   2   3
ENDBRANCH   1   2
BRANCH   1   7
ATOM      7  C   UNL     1     108.813 114.397 106.572  1.00  0.00     0.000 C 
BRANCH   7   8
ATOM      8  C   UNL     1     108.787 115.935 106.626  1.00  0.00     0.008 C 
BRANCH   8   9
ATOM      9  C   UNL     1     108.688 116.458 108.066  1.00  0.00     0.072 C 
BRANCH   9  10
ATOM     10  C   UNL     1     107.549 117.419 108.239  1.00  0.00     0.224 C 
ATOM     11  O   UNL     1     106.395 117.022 108.228  1.00  0.00    -0.303 OA
ENDBRANCH   9  10
ENDBRANCH   8   9
ENDBRANCH   7   8
ENDBRANCH   1   7
TORSDOF 8
ENDMDL
MODEL 9
REMARK VINA RESULT:    -2.173      8.836     10.375
REMARK INTER + INTRA:          -3.856
REMARK INTER:                  -2.855
REMARK INTRA:                  -1.001
REMARK UNBOUND:                -0.667
REMARK SMILES CCCCCCCCCC=O
REMARK SMILES IDX 6 1 5 2 4 3 3 4 2 5 1 6 7 7 8 8 9 9 10 10 11 11
REMARK H PARENT
REMARK Flexibility Score: inf
ROOT
ATOM      1  C   UNL     1     112.689 122.991 106.977  1.00  0.00     0.000 C 
ENDROOT
BRANCH   1   2
ATOM      2  C   UNL     1     113.784 122.195 106.249  1.00  0.00     0.000 C 
BRANCH   2   3
ATOM      3  C   UNL     1     115.172 122.784 106.539  1.00  0.00    -0.000 C 
BRANCH   3   4
ATOM      4  C   UNL     1     116.188 121.719 106.981  1.00  0.00    -0.000 C 
BRANCH   4   5
ATOM      5  C   UNL     1     116.881 122.075 108.304  1.00  0.00    -0.003 C 
ATOM      6  C   UNL     1     117.180 123.569 108.383  1.00  0.00     0.004 C 
ENDBRANCH   4   5
ENDBRANCH   3   4
ENDBRANCH   2   3
ENDBRANCH   1   2
BRANCH   1   7
ATOM      7  C   UNL     1     113.124 123.455 108.376  1.00  0.00     0.000 C 
BRANCH   7   8
ATOM      8  C   UNL     1     112.658 122.499 109.488  1.00  0.00     0.008 C 
BRANCH   8   9
ATOM      9  C   UNL     1     113.791 121.582 109.972  1.00  0.00     0.072 C 
BRANCH   9  10
ATOM     10  C   UNL     1     113.472 120.132 109.755  1.00  0.00     0.224 C 
ATOM     11  O   UNL     1     113.397 119.675 108.626  1.00  0.00    -0.303 OA
ENDBRANCH   9  10
ENDBRANCH   8   9
ENDBRANCH   7   8
ENDBRANCH   1   7
TORSDOF 8
ENDMDL
