MODEL 1
REMARK VINA RESULT:    -3.663      0.000      0.000
REMARK INTER + INTRA:          -5.817
REMARK INTER:                  -5.162
REMARK INTRA:                  -0.655
REMARK UNBOUND:                -0.655
REMARK SMILES CCCCCCCCC(=O)[O-]
REMARK SMILES IDX 6 1 7 2 8 3 9 4 10 5 11 6 5 7 4 8 3 9 2 10 1 11
REMARK H PARENT
REMARK Flexibility Score: inf
ROOT
ATOM      1  C   UNL     1     -10.674  -0.316 -41.596  1.00  0.00     0.000 C 
ENDROOT
BRANCH   1   2
ATOM      2  C   UNL     1     -11.907  -0.210 -40.683  1.00  0.00     0.006 C 
BRANCH   2   3
ATOM      3  C   UNL     1     -11.982  -1.365 -39.676  1.00  0.00     0.053 C 
BRANCH   3   4
ATOM      4  C   UNL     1     -13.327  -2.026 -39.683  1.00  0.00     0.041 C 
ATOM      5  O   UNL     1     -13.475  -3.168 -39.173  1.00  0.00    -0.550 OA
ATOM      6  O   UNL     1     -14.424  -1.367 -40.225  1.00  0.00    -0.550 OA
ENDBRANCH   3   4
ENDBRANCH   2   3
ENDBRANCH   1   2
BRANCH   1   7
ATOM      7  C   UNL     1      -9.941  -1.659 -41.445  1.00  0.00     0.000 C 
BRANCH   7   8
ATOM      8  C   UNL     1      -8.419  -1.526 -41.609  1.00  0.00    -0.000 C 
BRANCH   8   9
ATOM      9  C   UNL     1      -7.725  -1.457 -40.241  1.00  0.00    -0.000 C 
BRANCH   9  10
ATOM     10  C   UNL     1      -8.405  -2.345 -39.187  1.00  0.00    -0.003 C 
ATOM     11  C   UNL     1      -8.721  -1.593 -37.894  1.00  0.00     0.004 C 
ENDBRANCH   9  10
ENDBRANCH   8   9
ENDBRANCH   7   8
ENDBRANCH   1   7
TORSDOF 7
ENDMDL
MODEL 2
REMARK VINA RESULT:    -3.613      2.488      3.807
REMARK INTER + INTRA:          -5.747
REMARK INTER:                  -5.345
REMARK INTRA:                  -0.402
REMARK UNBOUND:                -0.655
REMARK SMILES CCCCCCCCC(=O)[O-]
REMARK SMILES IDX 6 1 7 2 8 3 9 4 10 5 11 6 5 7 4 8 3 9 2 10 1 11
REMARK H PARENT
REMARK Flexibility Score: inf
ROOT
ATOM      1  C   UNL     1     -10.843  -0.703 -38.215  1.00  0.00     0.000 C 
ENDROOT
BRANCH   1   2
ATOM      2  C   UNL     1     -11.056  -1.574 -39.464  1.00  0.00     0.006 C 
BRANCH   2   3
ATOM      3  C   UNL     1     -12.278  -1.128 -40.279  1.00  0.00     0.053 C 
BRANCH   3   4
ATOM      4  C   UNL     1     -13.519  -1.863 -39.872  1.00  0.00     0.041 C 
ATOM      5  O   UNL     1     -13.441  -2.865 -39.114  1.00  0.00    -0.550 OA
ATOM      6  O   UNL     1     -14.763  -1.422 -40.305  1.00  0.00    -0.550 OA
ENDBRANCH   3   4
ENDBRANCH   2   3
ENDBRANCH   1   2
BRANCH   1   7
ATOM      7  C   UNL     1      -9.608  -1.126 -37.403  1.00  0.00     0.000 C 
BRANCH   7   8
ATOM      8  C   UNL     1      -9.691  -0.697 -35.929  1.00  0.00    -0.000 C 
BRANCH   8   9
ATOM      9  C   UNL     1     -10.941   0.160 -35.680  1.00  0.00    -0.000 C 
BRANCH   9  10
ATOM     10  C   UNL     1     -10.597   1.588 -35.226  1.00  0.00    -0.003 C 
ATOM     11  C   UNL     1     -10.340   2.535 -36.398  1.00  0.00     0.004 C 
ENDBRANCH   9  10
ENDBRANCH   8   9
ENDBRANCH   7   8
ENDBRANCH   1   7
TORSDOF 7
ENDMDL
MODEL 3
REMARK VINA RESULT:    -3.523      8.342      9.878
REMARK INTER + INTRA:          -5.619
REMARK INTER:                  -4.863
REMARK INTRA:                  -0.757
REMARK UNBOUND:                -0.655
REMARK SMILES CCCCCCCCC(=O)[O-]
REMARK SMILES IDX 6 1 7 2 8 3 9 4 10 5 11 6 5 7 4 8 3 9 2 10 1 11
REMARK H PARENT
REMARK Flexibility Score: inf
ROOT
ATOM      1  C   UNL     1     -16.098   6.784 -41.420  1.00  0.00     0.000 C 
ENDROOT
BRANCH   1   2
ATOM      2  C   UNL     1     -17.012   5.823 -40.641  1.00  0.00     0.006 C 
BRANCH   2   3
ATOM      3  C   UNL     1     -16.479   4.384 -40.649  1.00  0.00     0.053 C 
BRANCH   3   4
ATOM      4  C   UNL     1     -17.579   3.383 -40.828  1.00  0.00     0.041 C 
ATOM      5  O   UNL     1     -18.509   3.603 -41.648  1.00  0.00    -0.550 OA
ATOM      6  O   UNL     1     -17.561   2.192 -40.113  1.00  0.00    -0.550 OA
ENDBRANCH   3   4
ENDBRANCH   2   3
ENDBRANCH   1   2
BRANCH   1   7
ATOM      7  C   UNL     1     -16.851   7.561 -42.512  1.00  0.00     0.000 C 
BRANCH   7   8
ATOM      8  C   UNL     1     -17.765   6.662 -43.358  1.00  0.00    -0.000 C 
BRANCH   8   9
ATOM      9  C   UNL     1     -17.069   6.249 -44.664  1.00  0.00    -0.000 C 
BRANCH   9  10
ATOM     10  C   UNL     1     -16.412   4.862 -44.571  1.00  0.00    -0.003 C 
ATOM     11  C   UNL     1     -14.885   4.927 -44.616  1.00  0.00     0.004 C 
ENDBRANCH   9  10
ENDBRANCH   8   9
ENDBRANCH   7   8
ENDBRANCH   1   7
TORSDOF 7
ENDMDL
MODEL 4
REMARK VINA RESULT:    -3.497      0.996      2.521
REMARK INTER + INTRA:          -5.583
REMARK INTER:                  -4.978
REMARK INTRA:                  -0.606
REMARK UNBOUND:                -0.655
REMARK SMILES CCCCCCCCC(=O)[O-]
REMARK SMILES IDX 6 1 7 2 8 3 9 4 10 5 11 6 5 7 4 8 3 9 2 10 1 11
REMARK H PARENT
REMARK Flexibility Score: inf
ROOT
ATOM      1  C   UNL     1     -10.617  -0.749 -38.310  1.00  0.00     0.000 C 
ENDROOT
BRANCH   1   2
ATOM      2  C   UNL     1     -11.187  -1.738 -39.340  1.00  0.00     0.006 C 
BRANCH   2   3
ATOM      3  C   UNL     1     -12.334  -1.126 -40.156  1.00  0.00     0.053 C 
BRANCH   3   4
ATOM      4  C   UNL     1     -13.638  -1.816 -39.891  1.00  0.00     0.041 C 
ATOM      5  O   UNL     1     -14.720  -1.291 -40.265  1.00  0.00    -0.550 OA
ATOM      6  O   UNL     1     -13.655  -3.053 -39.259  1.00  0.00    -0.550 OA
ENDBRANCH   3   4
ENDBRANCH   2   3
ENDBRANCH   1   2
BRANCH   1   7
ATOM      7  C   UNL     1      -9.080  -0.704 -38.321  1.00  0.00     0.000 C 
BRANCH   7   8
ATOM      8  C   UNL     1      -8.455  -1.934 -38.997  1.00  0.00    -0.000 C 
BRANCH   8   9
ATOM      9  C   UNL     1      -7.458  -1.512 -40.086  1.00  0.00    -0.000 C 
BRANCH   9  10
ATOM     10  C   UNL     1      -8.148  -0.883 -41.307  1.00  0.00    -0.003 C 
ATOM     11  C   UNL     1      -8.981  -1.890 -42.100  1.00  0.00     0.004 C 
ENDBRANCH   9  10
ENDBRANCH   8   9
ENDBRANCH   7   8
ENDBRANCH   1   7
TORSDOF 7
ENDMDL
MODEL 5
REMARK VINA RESULT:    -3.440      2.848      4.714
REMARK INTER + INTRA:          -5.503
REMARK INTER:                  -5.026
REMARK INTRA:                  -0.477
REMARK UNBOUND:                -0.655
REMARK SMILES CCCCCCCCC(=O)[O-]
REMARK SMILES IDX 6 1 7 2 8 3 9 4 10 5 11 6 5 7 4 8 3 9 2 10 1 11
REMARK H PARENT
REMARK Flexibility Score: inf
ROOT
ATOM      1  C   UNL     1     -10.132   0.910 -39.559  1.00  0.00     0.000 C 
ENDROOT
BRANCH   1   2
ATOM      2  C   UNL     1      -8.602   0.862 -39.704  1.00  0.00     0.006 C 
BRANCH   2   3
ATOM      3  C   UNL     1      -8.168   0.277 -41.055  1.00  0.00     0.053 C 
BRANCH   3   4
ATOM      4  C   UNL     1      -8.178  -1.221 -41.044  1.00  0.00     0.041 C 
ATOM      5  O   UNL     1      -7.620  -1.852 -40.108  1.00  0.00    -0.550 OA
ATOM      6  O   UNL     1      -8.831  -1.921 -42.051  1.00  0.00    -0.550 OA
ENDBRANCH   3   4
ENDBRANCH   2   3
ENDBRANCH   1   2
BRANCH   1   7
ATOM      7  C   UNL     1     -10.855   0.933 -40.916  1.00  0.00     0.000 C 
BRANCH   7   8
ATOM      8  C   UNL     1     -12.070  -0.006 -40.957  1.00  0.00    -0.000 C 
BRANCH   8   9
ATOM      9  C   UNL     1     -11.972  -1.076 -39.859  1.00  0.00    -0.000 C 
BRANCH   9  10
ATOM     10  C   UNL     1     -13.258  -1.906 -39.725  1.00  0.00    -0.003 C 
ATOM     11  C   UNL     1     -14.475  -1.212 -40.337  1.00  0.00     0.004 C 
ENDBRANCH   9  10
ENDBRANCH   8   9
ENDBRANCH   7   8
ENDBRANCH   1   7
TORSDOF 7
ENDMDL
MODEL 6
REMARK VINA RESULT:    -3.435      9.020     10.630
REMARK INTER + INTRA:          -5.496
REMARK INTER:                  -4.658
REMARK INTRA:                  -0.838
REMARK UNBOUND:                -0.655
REMARK SMILES CCCCCCCCC(=O)[O-]
REMARK SMILES IDX 6 1 7 2 8 3 9 4 10 5 11 6 5 7 4 8 3 9 2 10 1 11
REMARK H PARENT
REMARK Flexibility Score: inf
ROOT
ATOM      1  C   UNL     1     -17.123   8.124 -42.483  1.00  0.00     0.000 C 
ENDROOT
BRANCH   1   2
ATOM      2  C   UNL     1     -17.788   7.182 -43.499  1.00  0.00     0.006 C 
BRANCH   2   3
ATOM      3  C   UNL     1     -16.801   6.693 -44.568  1.00  0.00     0.053 C 
BRANCH   3   4
ATOM      4  C   UNL     1     -16.181   5.380 -44.197  1.00  0.00     0.041 C 
ATOM      5  O   UNL     1     -16.637   4.307 -44.674  1.00  0.00    -0.550 OA
ATOM      6  O   UNL     1     -15.082   5.344 -43.348  1.00  0.00    -0.550 OA
ENDBRANCH   3   4
ENDBRANCH   2   3
ENDBRANCH   1   2
BRANCH   1   7
ATOM      7  C   UNL     1     -17.501   7.790 -41.031  1.00  0.00     0.000 C 
BRANCH   7   8
ATOM      8  C   UNL     1     -18.007   6.349 -40.866  1.00  0.00    -0.000 C 
BRANCH   8   9
ATOM      9  C   UNL     1     -16.886   5.431 -40.356  1.00  0.00    -0.000 C 
BRANCH   9  10
ATOM     10  C   UNL     1     -17.120   3.955 -40.718  1.00  0.00    -0.003 C 
ATOM     11  C   UNL     1     -18.340   3.753 -41.616  1.00  0.00     0.004 C 
ENDBRANCH   9  10
ENDBRANCH   8   9
ENDBRANCH   7   8
ENDBRANCH   1   7
TORSDOF 7
ENDMDL
MODEL 7
REMARK VINA RESULT:    -3.428      3.160      4.637
REMARK INTER + INTRA:          -5.486
REMARK INTER:                  -4.826
REMARK INTRA:                  -0.660
REMARK UNBOUND:                -0.655
REMARK SMILES CCCCCCCCC(=O)[O-]
REMARK SMILES IDX 6 1 7 2 8 3 9 4 10 5 11 6 5 7 4 8 3 9 2 10 1 11
REMARK H PARENT
REMARK Flexibility Score: inf
ROOT
ATOM      1  C   UNL     1     -10.218  -0.222 -40.636  1.00  0.00     0.000 C 
ENDROOT
BRANCH   1   2
ATOM      2  C   UNL     1     -10.533   1.117 -41.324  1.00  0.00     0.006 C 
BRANCH   2   3
ATOM      3  C   UNL     1     -11.984   1.559 -41.092  1.00  0.00     0.053 C 
BRANCH   3   4
ATOM      4  C   UNL     1     -12.070   2.997 -40.678  1.00  0.00     0.041 C 
ATOM      5  O   UNL     1     -13.185   3.581 -40.645  1.00  0.00    -0.550 OA
ATOM      6  O   UNL     1     -10.923   3.682 -40.298  1.00  0.00    -0.550 OA
ENDBRANCH   3   4
ENDBRANCH   2   3
ENDBRANCH   1   2
BRANCH   1   7
ATOM      7  C   UNL     1     -10.327  -0.139 -39.104  1.00  0.00     0.000 C 
BRANCH   7   8
ATOM      8  C   UNL     1     -11.328  -1.152 -38.526  1.00  0.00    -0.000 C 
BRANCH   8   9
ATOM      9  C   UNL     1     -11.956  -1.998 -39.643  1.00  0.00    -0.000 C 
BRANCH   9  10
ATOM     10  C   UNL     1     -13.462  -2.225 -39.437  1.00  0.00    -0.003 C 
ATOM     11  C   UNL     1     -14.323  -1.277 -40.272  1.00  0.00     0.004 C 
ENDBRANCH   9  10
ENDBRANCH   8   9
ENDBRANCH   7   8
ENDBRANCH   1   7
TORSDOF 7
ENDMDL
MODEL 8
REMARK VINA RESULT:    -3.376      4.079      5.542
REMARK INTER + INTRA:          -5.413
REMARK INTER:                  -5.120
REMARK INTRA:                  -0.293
REMARK UNBOUND:                -0.655
REMARK SMILES CCCCCCCCC(=O)[O-]
REMARK SMILES IDX 6 1 7 2 8 3 9 4 10 5 11 6 5 7 4 8 3 9 2 10 1 11
REMARK H PARENT
REMARK Flexibility Score: inf
ROOT
ATOM      1  C   UNL     1     -10.816   1.980 -41.445  1.00  0.00     0.000 C 
ENDROOT
BRANCH   1   2
ATOM      2  C   UNL     1     -12.139   2.702 -41.142  1.00  0.00     0.006 C 
BRANCH   2   3
ATOM      3  C   UNL     1     -12.368   3.903 -42.071  1.00  0.00     0.053 C 
BRANCH   3   4
ATOM      4  C   UNL     1     -13.305   4.904 -41.468  1.00  0.00     0.041 C 
ATOM      5  O   UNL     1     -14.491   4.992 -41.882  1.00  0.00    -0.550 OA
ATOM      6  O   UNL     1     -12.877   5.720 -40.428  1.00  0.00    -0.550 OA
ENDBRANCH   3   4
ENDBRANCH   2   3
ENDBRANCH   1   2
BRANCH   1   7
ATOM      7  C   UNL     1     -10.946   0.450 -41.368  1.00  0.00     0.000 C 
BRANCH   7   8
ATOM      8  C   UNL     1     -12.284  -0.002 -40.762  1.00  0.00    -0.000 C 
BRANCH   8   9
ATOM      9  C   UNL     1     -12.153  -1.392 -40.121  1.00  0.00    -0.000 C 
BRANCH   9  10
ATOM     10  C   UNL     1     -13.503  -1.957 -39.652  1.00  0.00    -0.003 C 
ATOM     11  C   UNL     1     -14.689  -1.356 -40.406  1.00  0.00     0.004 C 
ENDBRANCH   9  10
ENDBRANCH   8   9
ENDBRANCH   7   8
ENDBRANCH   1   7
TORSDOF 7
ENDMDL
MODEL 9
REMARK VINA RESULT:    -3.369      8.406     10.373
REMARK INTER + INTRA:          -5.403
REMARK INTER:                  -4.899
REMARK INTRA:                  -0.504
REMARK UNBOUND:                -0.655
REMARK SMILES CCCCCCCCC(=O)[O-]
REMARK SMILES IDX 6 1 7 2 8 3 9 4 10 5 11 6 5 7 4 8 3 9 2 10 1 11
REMARK H PARENT
REMARK Flexibility Score: inf
ROOT
ATOM      1  C   UNL     1     -17.171   6.764 -40.752  1.00  0.00     0.000 C 
ENDROOT
BRANCH   1   2
ATOM      2  C   UNL     1     -16.837   5.483 -41.535  1.00  0.00     0.006 C 
BRANCH   2   3
ATOM      3  C   UNL     1     -16.579   4.288 -40.606  1.00  0.00     0.053 C 
BRANCH   3   4
ATOM      4  C   UNL     1     -17.660   3.256 -40.712  1.00  0.00     0.041 C 
ATOM      5  O   UNL     1     -18.643   3.444 -41.476  1.00  0.00    -0.550 OA
ATOM      6  O   UNL     1     -17.565   2.072 -39.991  1.00  0.00    -0.550 OA
ENDBRANCH   3   4
ENDBRANCH   2   3
ENDBRANCH   1   2
BRANCH   1   7
ATOM      7  C   UNL     1     -17.743   7.873 -41.649  1.00  0.00     0.000 C 
BRANCH   7   8
ATOM      8  C   UNL     1     -16.656   8.622 -42.435  1.00  0.00    -0.000 C 
BRANCH   8   9
ATOM      9  C   UNL     1     -15.910   9.611 -41.527  1.00  0.00    -0.000 C 
BRANCH   9  10
ATOM     10  C   UNL     1     -14.385   9.423 -41.573  1.00  0.00    -0.003 C 
ATOM     11  C   UNL     1     -13.974   8.079 -42.176  1.00  0.00     0.004 C 
ENDBRANCH   9  10
ENDBRANCH   8   9
ENDBRANCH   7   8
ENDBRANCH   1   7
TORSDOF 7
ENDMDL
