MODEL 1
REMARK VINA RESULT:    -6.606      0.000      0.000
REMARK INTER + INTRA:          -8.531
REMARK INTER:                  -8.151
REMARK INTRA:                  -0.380
REMARK UNBOUND:                -0.380
REMARK SMILES Oc1cc(O)c2cc(O)c(-c3cc(O)c(O)c(O)c3)[o+]c2c1
REMARK SMILES IDX 10 1 20 2 21 3 22 4 2 5 3 6 4 7 6 8 7 9 8 10 11 11 12 12
REMARK SMILES IDX 13 13 19 14 15 15 17 16 14 17 16 19 18 21 9 23 1 25 5 27
REMARK H PARENT 14 18 16 20 18 22 9 24 1 26 5 28
REMARK Flexibility Score: inf
ROOT
ATOM      1  C   UNL     1     107.384 122.111 119.355  1.00  0.00     0.402 A 
ATOM      2  O   UNL     1     106.189 121.765 119.825  1.00  0.00    -0.202 OA
ATOM      3  C   UNL     1     105.069 122.414 119.524  1.00  0.00     0.368 A 
ATOM      4  C   UNL     1     103.860 121.976 120.071  1.00  0.00     0.162 A 
ATOM      5  C   UNL     1     102.670 122.640 119.775  1.00  0.00     0.128 A 
ATOM      6  C   UNL     1     102.685 123.753 118.926  1.00  0.00     0.093 A 
ATOM      7  C   UNL     1     103.884 124.213 118.366  1.00  0.00     0.136 A 
ATOM      8  C   UNL     1     105.096 123.537 118.663  1.00  0.00     0.125 A 
ATOM      9  C   UNL     1     106.342 123.919 118.136  1.00  0.00     0.078 A 
ATOM     10  C   UNL     1     107.493 123.201 118.471  1.00  0.00     0.223 A 
ENDROOT
BRANCH   1  11
ATOM     11  C   UNL     1     108.559 121.313 119.772  1.00  0.00     0.091 A 
ATOM     12  C   UNL     1     108.980 120.192 119.037  1.00  0.00     0.068 A 
ATOM     13  C   UNL     1     110.109 119.462 119.435  1.00  0.00     0.162 A 
ATOM     14  C   UNL     1     109.304 121.714 120.891  1.00  0.00     0.068 A 
ATOM     15  C   UNL     1     110.834 119.856 120.566  1.00  0.00     0.200 A 
ATOM     16  C   UNL     1     110.434 120.988 121.295  1.00  0.00     0.162 A 
BRANCH  13  17
ATOM     17  O   UNL     1     110.518 118.347 118.706  1.00  0.00    -0.504 OA
ATOM     18  H   UNL     1     110.220 117.411 118.955  1.00  0.00     0.293 HD
ENDBRANCH  13  17
BRANCH  15  19
ATOM     19  O   UNL     1     111.953 119.115 120.950  1.00  0.00    -0.502 OA
ATOM     20  H   UNL     1     111.982 118.106 120.875  1.00  0.00     0.293 HD
ENDBRANCH  15  19
BRANCH  16  21
ATOM     21  O   UNL     1     111.158 121.388 122.417  1.00  0.00    -0.504 OA
ATOM     22  H   UNL     1     111.389 122.361 122.581  1.00  0.00     0.293 HD
ENDBRANCH  16  21
ENDBRANCH   1  11
BRANCH  10  23
ATOM     23  O   UNL     1     108.722 123.549 117.909  1.00  0.00    -0.500 OA
ATOM     24  H   UNL     1     109.597 123.198 118.282  1.00  0.00     0.294 HD
ENDBRANCH  10  23
BRANCH   5  25
ATOM     25  O   UNL     1     101.475 122.187 120.330  1.00  0.00    -0.507 OA
ATOM     26  H   UNL     1     100.606 122.694 120.203  1.00  0.00     0.293 HD
ENDBRANCH   5  25
BRANCH   7  27
ATOM     27  O   UNL     1     103.816 125.331 117.531  1.00  0.00    -0.507 OA
ATOM     28  H   UNL     1     103.909 126.286 117.847  1.00  0.00     0.293 HD
ENDBRANCH   7  27
TORSDOF 7
ENDMDL
MODEL 2
REMARK VINA RESULT:    -6.566      0.104      1.791
REMARK INTER + INTRA:          -8.482
REMARK INTER:                  -8.098
REMARK INTRA:                  -0.384
REMARK UNBOUND:                -0.380
REMARK SMILES Oc1cc(O)c2cc(O)c(-c3cc(O)c(O)c(O)c3)[o+]c2c1
REMARK SMILES IDX 10 1 20 2 21 3 22 4 2 5 3 6 4 7 6 8 7 9 8 10 11 11 12 12
REMARK SMILES IDX 13 13 19 14 15 15 17 16 14 17 16 19 18 21 9 23 1 25 5 27
REMARK H PARENT 14 18 16 20 18 22 9 24 1 26 5 28
REMARK Flexibility Score: inf
ROOT
ATOM      1  C   UNL     1     107.398 122.162 119.276  1.00  0.00     0.402 A 
ATOM      2  O   UNL     1     106.211 121.779 119.737  1.00  0.00    -0.202 OA
ATOM      3  C   UNL     1     105.076 122.406 119.444  1.00  0.00     0.368 A 
ATOM      4  C   UNL     1     103.877 121.930 119.980  1.00  0.00     0.162 A 
ATOM      5  C   UNL     1     102.672 122.569 119.692  1.00  0.00     0.128 A 
ATOM      6  C   UNL     1     102.662 123.695 118.861  1.00  0.00     0.093 A 
ATOM      7  C   UNL     1     103.850 124.193 118.311  1.00  0.00     0.136 A 
ATOM      8  C   UNL     1     105.078 123.542 118.600  1.00  0.00     0.125 A 
ATOM      9  C   UNL     1     106.315 123.962 118.082  1.00  0.00     0.078 A 
ATOM     10  C   UNL     1     107.483 123.267 118.408  1.00  0.00     0.223 A 
ENDROOT
BRANCH   1  11
ATOM     11  C   UNL     1     108.592 121.386 119.683  1.00  0.00     0.091 A 
ATOM     12  C   UNL     1     109.352 121.750 120.807  1.00  0.00     0.068 A 
ATOM     13  C   UNL     1     110.466 120.990 121.190  1.00  0.00     0.162 A 
ATOM     14  C   UNL     1     108.941 120.230 118.968  1.00  0.00     0.068 A 
ATOM     15  C   UNL     1     110.821 119.849 120.458  1.00  0.00     0.200 A 
ATOM     16  C   UNL     1     110.054 119.465 119.346  1.00  0.00     0.162 A 
BRANCH  13  17
ATOM     17  O   UNL     1     111.222 121.359 122.301  1.00  0.00    -0.504 OA
ATOM     18  H   UNL     1     110.865 122.006 122.994  1.00  0.00     0.293 HD
ENDBRANCH  13  17
BRANCH  15  19
ATOM     19  O   UNL     1     111.935 119.107 120.851  1.00  0.00    -0.502 OA
ATOM     20  H   UNL     1     112.326 118.374 120.271  1.00  0.00     0.293 HD
ENDBRANCH  15  19
BRANCH  16  21
ATOM     21  O   UNL     1     110.399 118.327 118.619  1.00  0.00    -0.504 OA
ATOM     22  H   UNL     1     109.776 117.531 118.550  1.00  0.00     0.293 HD
ENDBRANCH  16  21
ENDBRANCH   1  11
BRANCH  10  23
ATOM     23  O   UNL     1     108.704 123.653 117.855  1.00  0.00    -0.500 OA
ATOM     24  H   UNL     1     108.755 124.177 116.989  1.00  0.00     0.294 HD
ENDBRANCH  10  23
BRANCH   5  25
ATOM     25  O   UNL     1     101.487 122.079 120.237  1.00  0.00    -0.507 OA
ATOM     26  H   UNL     1     100.762 122.701 120.574  1.00  0.00     0.293 HD
ENDBRANCH   5  25
BRANCH   7  27
ATOM     27  O   UNL     1     103.757 125.322 117.493  1.00  0.00    -0.507 OA
ATOM     28  H   UNL     1     104.308 125.471 116.660  1.00  0.00     0.293 HD
ENDBRANCH   7  27
TORSDOF 7
ENDMDL
MODEL 3
REMARK VINA RESULT:    -6.562      0.987      3.138
REMARK INTER + INTRA:          -8.477
REMARK INTER:                  -8.098
REMARK INTRA:                  -0.380
REMARK UNBOUND:                -0.380
REMARK SMILES Oc1cc(O)c2cc(O)c(-c3cc(O)c(O)c(O)c3)[o+]c2c1
REMARK SMILES IDX 10 1 20 2 21 3 22 4 2 5 3 6 4 7 6 8 7 9 8 10 11 11 12 12
REMARK SMILES IDX 13 13 19 14 15 15 17 16 14 17 16 19 18 21 9 23 1 25 5 27
REMARK H PARENT 14 18 16 20 18 22 9 24 1 26 5 28
REMARK Flexibility Score: inf
ROOT
ATOM      1  C   UNL     1     106.738 121.274 120.117  1.00  0.00     0.402 A 
ATOM      2  O   UNL     1     106.490 122.345 119.368  1.00  0.00    -0.202 OA
ATOM      3  C   UNL     1     105.276 122.859 119.206  1.00  0.00     0.368 A 
ATOM      4  C   UNL     1     105.115 123.986 118.396  1.00  0.00     0.162 A 
ATOM      5  C   UNL     1     103.852 124.545 118.206  1.00  0.00     0.128 A 
ATOM      6  C   UNL     1     102.736 123.974 118.830  1.00  0.00     0.093 A 
ATOM      7  C   UNL     1     102.870 122.844 119.647  1.00  0.00     0.136 A 
ATOM      8  C   UNL     1     104.155 122.275 119.844  1.00  0.00     0.125 A 
ATOM      9  C   UNL     1     104.386 121.152 120.656  1.00  0.00     0.078 A 
ATOM     10  C   UNL     1     105.682 120.650 120.806  1.00  0.00     0.223 A 
ENDROOT
BRANCH   1  11
ATOM     11  C   UNL     1     108.135 120.792 120.210  1.00  0.00     0.091 A 
ATOM     12  C   UNL     1     108.999 121.244 121.221  1.00  0.00     0.068 A 
ATOM     13  C   UNL     1     110.311 120.759 121.306  1.00  0.00     0.162 A 
ATOM     14  C   UNL     1     108.591 119.820 119.306  1.00  0.00     0.068 A 
ATOM     15  C   UNL     1     110.766 119.805 120.386  1.00  0.00     0.200 A 
ATOM     16  C   UNL     1     109.903 119.331 119.386  1.00  0.00     0.162 A 
BRANCH  13  17
ATOM     17  O   UNL     1     111.167 121.215 122.306  1.00  0.00    -0.504 OA
ATOM     18  H   UNL     1     111.153 122.179 122.618  1.00  0.00     0.293 HD
ENDBRANCH  13  17
BRANCH  15  19
ATOM     19  O   UNL     1     112.077 119.335 120.484  1.00  0.00    -0.502 OA
ATOM     20  H   UNL     1     112.543 118.876 119.711  1.00  0.00     0.293 HD
ENDBRANCH  15  19
BRANCH  16  21
ATOM     21  O   UNL     1     110.349 118.376 118.473  1.00  0.00    -0.504 OA
ATOM     22  H   UNL     1     111.068 118.588 117.791  1.00  0.00     0.293 HD
ENDBRANCH  16  21
ENDBRANCH   1  11
BRANCH  10  23
ATOM     23  O   UNL     1     105.918 119.565 121.651  1.00  0.00    -0.500 OA
ATOM     24  H   UNL     1     105.193 118.894 121.873  1.00  0.00     0.294 HD
ENDBRANCH  10  23
BRANCH   5  25
ATOM     25  O   UNL     1     103.713 125.669 117.395  1.00  0.00    -0.507 OA
ATOM     26  H   UNL     1     102.850 125.860 116.898  1.00  0.00     0.293 HD
ENDBRANCH   5  25
BRANCH   7  27
ATOM     27  O   UNL     1     101.709 122.332 120.232  1.00  0.00    -0.507 OA
ATOM     28  H   UNL     1     101.022 121.775 119.744  1.00  0.00     0.293 HD
ENDBRANCH   7  27
TORSDOF 7
ENDMDL
MODEL 4
REMARK VINA RESULT:    -5.971      2.090      7.350
REMARK INTER + INTRA:          -7.748
REMARK INTER:                  -7.521
REMARK INTRA:                  -0.226
REMARK UNBOUND:                -0.380
REMARK SMILES Oc1cc(O)c2cc(O)c(-c3cc(O)c(O)c(O)c3)[o+]c2c1
REMARK SMILES IDX 10 1 20 2 21 3 22 4 2 5 3 6 4 7 6 8 7 9 8 10 11 11 12 12
REMARK SMILES IDX 13 13 19 14 15 15 17 16 14 17 16 19 18 21 9 23 1 25 5 27
REMARK H PARENT 14 18 16 20 18 22 9 24 1 26 5 28
REMARK Flexibility Score: inf
ROOT
ATOM      1  C   UNL     1     106.264 121.442 119.936  1.00  0.00     0.402 A 
ATOM      2  O   UNL     1     107.581 121.581 119.805  1.00  0.00    -0.202 OA
ATOM      3  C   UNL     1     108.460 121.028 120.633  1.00  0.00     0.368 A 
ATOM      4  C   UNL     1     109.825 121.234 120.415  1.00  0.00     0.162 A 
ATOM      5  C   UNL     1     110.770 120.669 121.270  1.00  0.00     0.128 A 
ATOM      6  C   UNL     1     110.351 119.889 122.354  1.00  0.00     0.093 A 
ATOM      7  C   UNL     1     108.989 119.667 122.596  1.00  0.00     0.136 A 
ATOM      8  C   UNL     1     108.025 120.239 121.725  1.00  0.00     0.125 A 
ATOM      9  C   UNL     1     106.640 120.059 121.882  1.00  0.00     0.078 A 
ATOM     10  C   UNL     1     105.751 120.651 120.981  1.00  0.00     0.223 A 
ENDROOT
BRANCH   1  11
ATOM     11  C   UNL     1     105.387 122.116 118.952  1.00  0.00     0.091 A 
ATOM     12  C   UNL     1     105.337 123.517 118.857  1.00  0.00     0.068 A 
ATOM     13  C   UNL     1     104.516 124.137 117.904  1.00  0.00     0.162 A 
ATOM     14  C   UNL     1     104.631 121.343 118.057  1.00  0.00     0.068 A 
ATOM     15  C   UNL     1     103.748 123.358 117.029  1.00  0.00     0.200 A 
ATOM     16  C   UNL     1     103.808 121.957 117.102  1.00  0.00     0.162 A 
BRANCH  13  17
ATOM     17  O   UNL     1     104.464 125.527 117.818  1.00  0.00    -0.504 OA
ATOM     18  H   UNL     1     105.279 126.074 117.567  1.00  0.00     0.293 HD
ENDBRANCH  13  17
BRANCH  15  19
ATOM     19  O   UNL     1     102.934 123.993 116.089  1.00  0.00    -0.502 OA
ATOM     20  H   UNL     1     103.033 124.976 115.867  1.00  0.00     0.293 HD
ENDBRANCH  15  19
BRANCH  16  21
ATOM     21  O   UNL     1     103.051 121.179 116.228  1.00  0.00    -0.504 OA
ATOM     22  H   UNL     1     102.374 120.505 116.567  1.00  0.00     0.293 HD
ENDBRANCH  16  21
ENDBRANCH   1  11
BRANCH  10  23
ATOM     23  O   UNL     1     104.378 120.431 121.106  1.00  0.00    -0.500 OA
ATOM     24  H   UNL     1     103.753 120.500 120.313  1.00  0.00     0.294 HD
ENDBRANCH  10  23
BRANCH   5  25
ATOM     25  O   UNL     1     112.126 120.886 121.035  1.00  0.00    -0.507 OA
ATOM     26  H   UNL     1     112.463 121.202 120.133  1.00  0.00     0.293 HD
ENDBRANCH   5  25
BRANCH   7  27
ATOM     27  O   UNL     1     108.651 118.881 123.700  1.00  0.00    -0.507 OA
ATOM     28  H   UNL     1     108.090 119.198 124.477  1.00  0.00     0.293 HD
ENDBRANCH   7  27
TORSDOF 7
ENDMDL
MODEL 5
REMARK VINA RESULT:    -5.971      2.064      7.162
REMARK INTER + INTRA:          -7.748
REMARK INTER:                  -7.539
REMARK INTRA:                  -0.208
REMARK UNBOUND:                -0.380
REMARK SMILES Oc1cc(O)c2cc(O)c(-c3cc(O)c(O)c(O)c3)[o+]c2c1
REMARK SMILES IDX 10 1 20 2 21 3 22 4 2 5 3 6 4 7 6 8 7 9 8 10 11 11 12 12
REMARK SMILES IDX 13 13 19 14 15 15 17 16 14 17 16 19 18 21 9 23 1 25 5 27
REMARK H PARENT 14 18 16 20 18 22 9 24 1 26 5 28
REMARK Flexibility Score: inf
ROOT
ATOM      1  C   UNL     1     106.348 121.432 119.877  1.00  0.00     0.402 A 
ATOM      2  O   UNL     1     107.665 121.563 119.747  1.00  0.00    -0.202 OA
ATOM      3  C   UNL     1     108.540 121.020 120.587  1.00  0.00     0.368 A 
ATOM      4  C   UNL     1     109.906 121.218 120.368  1.00  0.00     0.162 A 
ATOM      5  C   UNL     1     110.847 120.663 121.235  1.00  0.00     0.128 A 
ATOM      6  C   UNL     1     110.422 119.902 122.331  1.00  0.00     0.093 A 
ATOM      7  C   UNL     1     109.058 119.690 122.572  1.00  0.00     0.136 A 
ATOM      8  C   UNL     1     108.099 120.251 121.690  1.00  0.00     0.125 A 
ATOM      9  C   UNL     1     106.713 120.079 121.846  1.00  0.00     0.078 A 
ATOM     10  C   UNL     1     105.828 120.660 120.933  1.00  0.00     0.223 A 
ENDROOT
BRANCH   1  11
ATOM     11  C   UNL     1     105.475 122.094 118.880  1.00  0.00     0.091 A 
ATOM     12  C   UNL     1     104.646 121.348 118.025  1.00  0.00     0.068 A 
ATOM     13  C   UNL     1     103.810 121.995 117.103  1.00  0.00     0.162 A 
ATOM     14  C   UNL     1     105.431 123.495 118.825  1.00  0.00     0.068 A 
ATOM     15  C   UNL     1     103.788 123.394 117.039  1.00  0.00     0.200 A 
ATOM     16  C   UNL     1     104.597 124.147 117.905  1.00  0.00     0.162 A 
BRANCH  13  17
ATOM     17  O   UNL     1     102.994 121.251 116.252  1.00  0.00    -0.504 OA
ATOM     18  H   UNL     1     102.252 120.662 116.609  1.00  0.00     0.293 HD
ENDBRANCH  13  17
BRANCH  15  19
ATOM     19  O   UNL     1     102.952 124.020 116.113  1.00  0.00    -0.502 OA
ATOM     20  H   UNL     1     103.149 124.012 115.119  1.00  0.00     0.293 HD
ENDBRANCH  15  19
BRANCH  16  21
ATOM     21  O   UNL     1     104.572 125.540 117.849  1.00  0.00    -0.504 OA
ATOM     22  H   UNL     1     105.411 126.079 117.667  1.00  0.00     0.293 HD
ENDBRANCH  16  21
ENDBRANCH   1  11
BRANCH  10  23
ATOM     23  O   UNL     1     104.455 120.448 121.059  1.00  0.00    -0.500 OA
ATOM     24  H   UNL     1     104.070 119.523 121.210  1.00  0.00     0.294 HD
ENDBRANCH  10  23
BRANCH   5  25
ATOM     25  O   UNL     1     112.204 120.871 121.000  1.00  0.00    -0.507 OA
ATOM     26  H   UNL     1     112.810 121.266 121.709  1.00  0.00     0.293 HD
ENDBRANCH   5  25
BRANCH   7  27
ATOM     27  O   UNL     1     108.715 118.922 123.688  1.00  0.00    -0.507 OA
ATOM     28  H   UNL     1     108.153 119.255 124.458  1.00  0.00     0.293 HD
ENDBRANCH   7  27
TORSDOF 7
ENDMDL
MODEL 6
REMARK VINA RESULT:    -5.854      1.853      6.914
REMARK INTER + INTRA:          -7.604
REMARK INTER:                  -7.536
REMARK INTRA:                  -0.067
REMARK UNBOUND:                -0.380
REMARK SMILES Oc1cc(O)c2cc(O)c(-c3cc(O)c(O)c(O)c3)[o+]c2c1
REMARK SMILES IDX 10 1 20 2 21 3 22 4 2 5 3 6 4 7 6 8 7 9 8 10 11 11 12 12
REMARK SMILES IDX 13 13 19 14 15 15 17 16 14 17 16 19 18 21 9 23 1 25 5 27
REMARK H PARENT 14 18 16 20 18 22 9 24 1 26 5 28
REMARK Flexibility Score: inf
ROOT
ATOM      1  C   UNL     1     106.886 122.026 119.401  1.00  0.00     0.402 A 
ATOM      2  O   UNL     1     106.818 121.206 120.446  1.00  0.00    -0.202 OA
ATOM      3  C   UNL     1     107.887 120.770 121.104  1.00  0.00     0.368 A 
ATOM      4  C   UNL     1     107.714 119.907 122.189  1.00  0.00     0.162 A 
ATOM      5  C   UNL     1     108.818 119.431 122.896  1.00  0.00     0.128 A 
ATOM      6  C   UNL     1     110.108 119.820 122.518  1.00  0.00     0.093 A 
ATOM      7  C   UNL     1     110.309 120.684 121.433  1.00  0.00     0.136 A 
ATOM      8  C   UNL     1     109.188 121.172 120.714  1.00  0.00     0.125 A 
ATOM      9  C   UNL     1     109.293 122.052 119.623  1.00  0.00     0.078 A 
ATOM     10  C   UNL     1     108.141 122.494 118.966  1.00  0.00     0.223 A 
ENDROOT
BRANCH   1  11
ATOM     11  C   UNL     1     105.623 122.433 118.746  1.00  0.00     0.091 A 
ATOM     12  C   UNL     1     105.319 123.787 118.520  1.00  0.00     0.068 A 
ATOM     13  C   UNL     1     104.127 124.151 117.877  1.00  0.00     0.162 A 
ATOM     14  C   UNL     1     104.734 121.449 118.289  1.00  0.00     0.068 A 
ATOM     15  C   UNL     1     103.235 123.163 117.444  1.00  0.00     0.200 A 
ATOM     16  C   UNL     1     103.540 121.807 117.646  1.00  0.00     0.162 A 
BRANCH  13  17
ATOM     17  O   UNL     1     103.827 125.495 117.661  1.00  0.00    -0.504 OA
ATOM     18  H   UNL     1     104.170 126.221 118.278  1.00  0.00     0.293 HD
ENDBRANCH  13  17
BRANCH  15  19
ATOM     19  O   UNL     1     102.052 123.544 116.809  1.00  0.00    -0.502 OA
ATOM     20  H   UNL     1     101.999 124.362 116.214  1.00  0.00     0.293 HD
ENDBRANCH  15  19
BRANCH  16  21
ATOM     21  O   UNL     1     102.658 120.820 117.210  1.00  0.00    -0.504 OA
ATOM     22  H   UNL     1     101.706 121.039 116.940  1.00  0.00     0.293 HD
ENDBRANCH  16  21
ENDBRANCH   1  11
BRANCH  10  23
ATOM     23  O   UNL     1     108.242 123.406 117.915  1.00  0.00    -0.500 OA
ATOM     24  H   UNL     1     107.979 123.159 116.968  1.00  0.00     0.294 HD
ENDBRANCH  10  23
BRANCH   5  25
ATOM     25  O   UNL     1     108.624 118.572 123.975  1.00  0.00    -0.507 OA
ATOM     26  H   UNL     1     109.321 117.884 124.236  1.00  0.00     0.293 HD
ENDBRANCH   5  25
BRANCH   7  27
ATOM     27  O   UNL     1     111.628 121.023 121.116  1.00  0.00    -0.507 OA
ATOM     28  H   UNL     1     111.941 121.959 120.906  1.00  0.00     0.293 HD
ENDBRANCH   7  27
TORSDOF 7
ENDMDL
MODEL 7
REMARK VINA RESULT:    -5.740      9.907     11.621
REMARK INTER + INTRA:          -7.463
REMARK INTER:                  -7.094
REMARK INTRA:                  -0.368
REMARK UNBOUND:                -0.380
REMARK SMILES Oc1cc(O)c2cc(O)c(-c3cc(O)c(O)c(O)c3)[o+]c2c1
REMARK SMILES IDX 10 1 20 2 21 3 22 4 2 5 3 6 4 7 6 8 7 9 8 10 11 11 12 12
REMARK SMILES IDX 13 13 19 14 15 15 17 16 14 17 16 19 18 21 9 23 1 25 5 27
REMARK H PARENT 14 18 16 20 18 22 9 24 1 26 5 28
REMARK Flexibility Score: inf
ROOT
ATOM      1  C   UNL     1     101.956 115.546 113.311  1.00  0.00     0.402 A 
ATOM      2  O   UNL     1     102.389 114.858 114.364  1.00  0.00    -0.202 OA
ATOM      3  C   UNL     1     101.990 113.622 114.644  1.00  0.00     0.368 A 
ATOM      4  C   UNL     1     102.500 112.982 115.777  1.00  0.00     0.162 A 
ATOM      5  C   UNL     1     102.097 111.686 116.097  1.00  0.00     0.128 A 
ATOM      6  C   UNL     1     101.174 111.022 115.281  1.00  0.00     0.093 A 
ATOM      7  C   UNL     1     100.647 111.642 114.140  1.00  0.00     0.136 A 
ATOM      8  C   UNL     1     101.058 112.959 113.810  1.00  0.00     0.125 A 
ATOM      9  C   UNL     1     100.593 113.653 112.680  1.00  0.00     0.078 A 
ATOM     10  C   UNL     1     101.048 114.948 112.417  1.00  0.00     0.223 A 
ENDROOT
BRANCH   1  11
ATOM     11  C   UNL     1     102.470 116.920 113.112  1.00  0.00     0.091 A 
ATOM     12  C   UNL     1     101.712 118.045 113.481  1.00  0.00     0.068 A 
ATOM     13  C   UNL     1     102.225 119.338 113.305  1.00  0.00     0.162 A 
ATOM     14  C   UNL     1     103.761 117.107 112.598  1.00  0.00     0.068 A 
ATOM     15  C   UNL     1     103.507 119.516 112.770  1.00  0.00     0.200 A 
ATOM     16  C   UNL     1     104.280 118.397 112.419  1.00  0.00     0.162 A 
BRANCH  13  17
ATOM     17  O   UNL     1     101.467 120.450 113.666  1.00  0.00    -0.504 OA
ATOM     18  H   UNL     1     101.144 120.587 114.616  1.00  0.00     0.293 HD
ENDBRANCH  13  17
BRANCH  15  19
ATOM     19  O   UNL     1     103.999 120.810 112.599  1.00  0.00    -0.502 OA
ATOM     20  H   UNL     1     104.411 121.335 113.361  1.00  0.00     0.293 HD
ENDBRANCH  15  19
BRANCH  16  21
ATOM     21  O   UNL     1     105.559 118.570 111.893  1.00  0.00    -0.504 OA
ATOM     22  H   UNL     1     106.351 118.036 112.234  1.00  0.00     0.293 HD
ENDBRANCH  16  21
ENDBRANCH   1  11
BRANCH  10  23
ATOM     23  O   UNL     1     100.625 115.618 111.269  1.00  0.00    -0.500 OA
ATOM     24  H   UNL     1     100.473 115.132 110.393  1.00  0.00     0.294 HD
ENDBRANCH  10  23
BRANCH   5  25
ATOM     25  O   UNL     1     102.617 111.065 117.230  1.00  0.00    -0.507 OA
ATOM     26  H   UNL     1     102.136 111.099 118.121  1.00  0.00     0.293 HD
ENDBRANCH   5  25
BRANCH   7  27
ATOM     27  O   UNL     1      99.729 110.914 113.378  1.00  0.00    -0.507 OA
ATOM     28  H   UNL     1      99.160 110.160 113.736  1.00  0.00     0.293 HD
ENDBRANCH   7  27
TORSDOF 7
ENDMDL
MODEL 8
REMARK VINA RESULT:    -5.690      2.602      3.733
REMARK INTER + INTRA:          -7.401
REMARK INTER:                  -7.123
REMARK INTRA:                  -0.278
REMARK UNBOUND:                -0.380
REMARK SMILES Oc1cc(O)c2cc(O)c(-c3cc(O)c(O)c(O)c3)[o+]c2c1
REMARK SMILES IDX 10 1 20 2 21 3 22 4 2 5 3 6 4 7 6 8 7 9 8 10 11 11 12 12
REMARK SMILES IDX 13 13 19 14 15 15 17 16 14 17 16 19 18 21 9 23 1 25 5 27
REMARK H PARENT 14 18 16 20 18 22 9 24 1 26 5 28
REMARK Flexibility Score: inf
ROOT
ATOM      1  C   UNL     1     106.691 121.173 121.154  1.00  0.00     0.402 A 
ATOM      2  O   UNL     1     106.228 120.740 122.323  1.00  0.00    -0.202 OA
ATOM      3  C   UNL     1     105.075 121.142 122.848  1.00  0.00     0.368 A 
ATOM      4  C   UNL     1     104.676 120.631 124.085  1.00  0.00     0.162 A 
ATOM      5  C   UNL     1     103.472 121.038 124.662  1.00  0.00     0.128 A 
ATOM      6  C   UNL     1     102.659 121.964 123.997  1.00  0.00     0.093 A 
ATOM      7  C   UNL     1     103.038 122.492 122.756  1.00  0.00     0.136 A 
ATOM      8  C   UNL     1     104.260 122.077 122.166  1.00  0.00     0.125 A 
ATOM      9  C   UNL     1     104.713 122.542 120.919  1.00  0.00     0.078 A 
ATOM     10  C   UNL     1     105.927 122.084 120.400  1.00  0.00     0.223 A 
ENDROOT
BRANCH   1  11
ATOM     11  C   UNL     1     107.995 120.657 120.680  1.00  0.00     0.091 A 
ATOM     12  C   UNL     1     109.198 121.023 121.308  1.00  0.00     0.068 A 
ATOM     13  C   UNL     1     110.421 120.505 120.859  1.00  0.00     0.162 A 
ATOM     14  C   UNL     1     108.030 119.738 119.621  1.00  0.00     0.068 A 
ATOM     15  C   UNL     1     110.449 119.606 119.786  1.00  0.00     0.200 A 
ATOM     16  C   UNL     1     109.250 119.217 119.167  1.00  0.00     0.162 A 
BRANCH  13  17
ATOM     17  O   UNL     1     111.612 120.876 121.480  1.00  0.00    -0.504 OA
ATOM     18  H   UNL     1     111.816 121.843 121.702  1.00  0.00     0.293 HD
ENDBRANCH  13  17
BRANCH  15  19
ATOM     19  O   UNL     1     111.677 119.103 119.351  1.00  0.00    -0.502 OA
ATOM     20  H   UNL     1     112.007 118.183 119.616  1.00  0.00     0.293 HD
ENDBRANCH  15  19
BRANCH  16  21
ATOM     21  O   UNL     1     109.273 118.316 118.103  1.00  0.00    -0.504 OA
ATOM     22  H   UNL     1     108.590 118.359 117.355  1.00  0.00     0.293 HD
ENDBRANCH  16  21
ENDBRANCH   1  11
BRANCH  10  23
ATOM     23  O   UNL     1     106.353 122.507 119.140  1.00  0.00    -0.500 OA
ATOM     24  H   UNL     1     106.092 123.412 118.766  1.00  0.00     0.294 HD
ENDBRANCH  10  23
BRANCH   5  25
ATOM     25  O   UNL     1     103.091 120.517 125.896  1.00  0.00    -0.507 OA
ATOM     26  H   UNL     1     102.309 119.878 125.983  1.00  0.00     0.293 HD
ENDBRANCH   5  25
BRANCH   7  27
ATOM     27  O   UNL     1     102.174 123.413 122.158  1.00  0.00    -0.507 OA
ATOM     28  H   UNL     1     102.473 124.257 121.692  1.00  0.00     0.293 HD
ENDBRANCH   7  27
TORSDOF 7
ENDMDL
MODEL 9
REMARK VINA RESULT:    -5.682      2.997      4.356
REMARK INTER + INTRA:          -7.391
REMARK INTER:                  -7.009
REMARK INTRA:                  -0.383
REMARK UNBOUND:                -0.380
REMARK SMILES Oc1cc(O)c2cc(O)c(-c3cc(O)c(O)c(O)c3)[o+]c2c1
REMARK SMILES IDX 10 1 20 2 21 3 22 4 2 5 3 6 4 7 6 8 7 9 8 10 11 11 12 12
REMARK SMILES IDX 13 13 19 14 15 15 17 16 14 17 16 19 18 21 9 23 1 25 5 27
REMARK H PARENT 14 18 16 20 18 22 9 24 1 26 5 28
REMARK Flexibility Score: inf
ROOT
ATOM      1  C   UNL     1     106.878 120.193 121.317  1.00  0.00     0.402 A 
ATOM      2  O   UNL     1     106.395 119.211 122.075  1.00  0.00    -0.202 OA
ATOM      3  C   UNL     1     105.096 118.983 122.235  1.00  0.00     0.368 A 
ATOM      4  C   UNL     1     104.687 117.928 123.055  1.00  0.00     0.162 A 
ATOM      5  C   UNL     1     103.330 117.666 123.244  1.00  0.00     0.128 A 
ATOM      6  C   UNL     1     102.371 118.464 122.609  1.00  0.00     0.093 A 
ATOM      7  C   UNL     1     102.756 119.528 121.782  1.00  0.00     0.136 A 
ATOM      8  C   UNL     1     104.136 119.795 121.585  1.00  0.00     0.125 A 
ATOM      9  C   UNL     1     104.613 120.830 120.764  1.00  0.00     0.078 A 
ATOM     10  C   UNL     1     105.988 121.029 120.615  1.00  0.00     0.223 A 
ENDROOT
BRANCH   1  11
ATOM     11  C   UNL     1     108.347 120.351 121.226  1.00  0.00     0.091 A 
ATOM     12  C   UNL     1     109.053 121.155 122.138  1.00  0.00     0.068 A 
ATOM     13  C   UNL     1     110.447 121.275 122.049  1.00  0.00     0.162 A 
ATOM     14  C   UNL     1     109.059 119.642 120.247  1.00  0.00     0.068 A 
ATOM     15  C   UNL     1     111.148 120.580 121.055  1.00  0.00     0.200 A 
ATOM     16  C   UNL     1     110.453 119.758 120.153  1.00  0.00     0.162 A 
BRANCH  13  17
ATOM     17  O   UNL     1     111.142 122.078 122.951  1.00  0.00    -0.504 OA
ATOM     18  H   UNL     1     110.694 122.849 123.431  1.00  0.00     0.293 HD
ENDBRANCH  13  17
BRANCH  15  19
ATOM     19  O   UNL     1     112.535 120.715 120.980  1.00  0.00    -0.502 OA
ATOM     20  H   UNL     1     113.027 120.737 120.095  1.00  0.00     0.293 HD
ENDBRANCH  15  19
BRANCH  16  21
ATOM     21  O   UNL     1     111.148 119.060 119.167  1.00  0.00    -0.504 OA
ATOM     22  H   UNL     1     112.152 118.932 119.214  1.00  0.00     0.293 HD
ENDBRANCH  16  21
ENDBRANCH   1  11
BRANCH  10  23
ATOM     23  O   UNL     1     106.463 122.024 119.761  1.00  0.00    -0.500 OA
ATOM     24  H   UNL     1     107.449 122.122 119.553  1.00  0.00     0.294 HD
ENDBRANCH  10  23
BRANCH   5  25
ATOM     25  O   UNL     1     102.942 116.611 124.065  1.00  0.00    -0.507 OA
ATOM     26  H   UNL     1     103.297 116.516 125.010  1.00  0.00     0.293 HD
ENDBRANCH   5  25
BRANCH   7  27
ATOM     27  O   UNL     1     101.739 120.279 121.186  1.00  0.00    -0.507 OA
ATOM     28  H   UNL     1     101.359 121.132 121.570  1.00  0.00     0.293 HD
ENDBRANCH   7  27
TORSDOF 7
ENDMDL
