MODEL 1
REMARK VINA RESULT:    -5.551      0.000      0.000
REMARK INTER + INTRA:          -6.038
REMARK INTER:                  -6.038
REMARK INTRA:                   0.000
REMARK UNBOUND:                 0.000
REMARK SMILES Cc1cc(O)c2c(c1)C(=O)c1cc(O)cc(O)c1C2=O
REMARK SMILES IDX 1 1 2 2 8 3 7 4 6 5 4 6 3 7 19 8 20 9 18 10 11 11 9 12 10 13
REMARK SMILES IDX 12 14 13 15 15 16 16 17 5 18 17 20 14 22
REMARK H PARENT 5 19 17 21 14 23
REMARK Flexibility Score: inf
ROOT
ATOM      1  C   UNL     1     158.486   6.096  36.728  1.00  0.00     0.044 C 
ATOM      2  C   UNL     1     157.927   6.777  35.513  1.00  0.00    -0.047 A 
ATOM      3  C   UNL     1     158.492   6.549  34.254  1.00  0.00     0.016 A 
ATOM      4  C   UNL     1     157.948   7.148  33.105  1.00  0.00     0.038 A 
ATOM      5  C   UNL     1     156.803   7.969  33.214  1.00  0.00     0.076 A 
ATOM      6  C   UNL     1     156.262   8.233  34.499  1.00  0.00     0.127 A 
ATOM      7  C   UNL     1     156.808   7.611  35.625  1.00  0.00     0.050 A 
ATOM      8  C   UNL     1     156.171   8.462  31.963  1.00  0.00     0.201 C 
ATOM      9  O   UNL     1     154.930   8.673  31.928  1.00  0.00    -0.288 OA
ATOM     10  C   UNL     1     156.966   8.523  30.709  1.00  0.00     0.076 A 
ATOM     11  C   UNL     1     158.111   7.701  30.605  1.00  0.00     0.041 A 
ATOM     12  C   UNL     1     158.572   6.924  31.779  1.00  0.00     0.194 C 
ATOM     13  O   UNL     1     159.514   6.092  31.656  1.00  0.00    -0.289 OA
ATOM     14  C   UNL     1     158.809   7.626  29.387  1.00  0.00     0.059 A 
ATOM     15  C   UNL     1     158.389   8.372  28.282  1.00  0.00     0.120 A 
ATOM     16  C   UNL     1     157.284   9.216  28.394  1.00  0.00     0.093 A 
ATOM     17  C   UNL     1     156.585   9.322  29.601  1.00  0.00     0.131 A 
ENDROOT
BRANCH   6  18
ATOM     18  O   UNL     1     155.210   9.129  34.706  1.00  0.00    -0.507 OA
ATOM     19  H   UNL     1     154.922   9.819  34.025  1.00  0.00     0.293 HD
ENDBRANCH   6  18
BRANCH  17  20
ATOM     20  O   UNL     1     155.546  10.255  29.663  1.00  0.00    -0.507 OA
ATOM     21  H   UNL     1     154.693  10.176  29.128  1.00  0.00     0.293 HD
ENDBRANCH  17  20
BRANCH  15  22
ATOM     22  O   UNL     1     159.072   8.292  27.070  1.00  0.00    -0.508 OA
ATOM     23  H   UNL     1     159.652   7.494  26.840  1.00  0.00     0.293 HD
ENDBRANCH  15  22
TORSDOF 3
ENDMDL
MODEL 2
REMARK VINA RESULT:    -4.860      1.651      5.464
REMARK INTER + INTRA:          -5.287
REMARK INTER:                  -5.287
REMARK INTRA:                   0.000
REMARK UNBOUND:                 0.000
REMARK SMILES Cc1cc(O)c2c(c1)C(=O)c1cc(O)cc(O)c1C2=O
REMARK SMILES IDX 1 1 2 2 8 3 7 4 6 5 4 6 3 7 19 8 20 9 18 10 11 11 9 12 10 13
REMARK SMILES IDX 12 14 13 15 15 16 16 17 5 18 17 20 14 22
REMARK H PARENT 5 19 17 21 14 23
REMARK Flexibility Score: inf
ROOT
ATOM      1  C   UNL     1     159.942   8.658  27.002  1.00  0.00     0.044 C 
ATOM      2  C   UNL     1     158.909   8.615  28.090  1.00  0.00    -0.047 A 
ATOM      3  C   UNL     1     159.124   7.839  29.235  1.00  0.00     0.016 A 
ATOM      4  C   UNL     1     158.182   7.826  30.278  1.00  0.00     0.038 A 
ATOM      5  C   UNL     1     157.019   8.623  30.187  1.00  0.00     0.076 A 
ATOM      6  C   UNL     1     156.786   9.373  29.004  1.00  0.00     0.127 A 
ATOM      7  C   UNL     1     157.745   9.385  27.988  1.00  0.00     0.050 A 
ATOM      8  C   UNL     1     156.124   8.698  31.371  1.00  0.00     0.201 C 
ATOM      9  O   UNL     1     155.456   9.743  31.587  1.00  0.00    -0.288 OA
ATOM     10  C   UNL     1     156.162   7.620  32.393  1.00  0.00     0.076 A 
ATOM     11  C   UNL     1     157.327   6.825  32.480  1.00  0.00     0.041 A 
ATOM     12  C   UNL     1     158.403   6.978  31.473  1.00  0.00     0.194 C 
ATOM     13  O   UNL     1     159.497   6.364  31.619  1.00  0.00    -0.289 OA
ATOM     14  C   UNL     1     157.459   5.889  33.521  1.00  0.00     0.059 A 
ATOM     15  C   UNL     1     156.437   5.727  34.462  1.00  0.00     0.120 A 
ATOM     16  C   UNL     1     155.269   6.481  34.354  1.00  0.00     0.093 A 
ATOM     17  C   UNL     1     155.107   7.405  33.316  1.00  0.00     0.131 A 
ENDROOT
BRANCH   6  18
ATOM     18  O   UNL     1     155.606  10.088  28.784  1.00  0.00    -0.507 OA
ATOM     19  H   UNL     1     154.860  10.157  29.463  1.00  0.00     0.293 HD
ENDBRANCH   6  18
BRANCH  17  20
ATOM     20  O   UNL     1     153.875   8.057  33.221  1.00  0.00    -0.507 OA
ATOM     21  H   UNL     1     153.058   7.787  33.750  1.00  0.00     0.293 HD
ENDBRANCH  17  20
BRANCH  15  22
ATOM     22  O   UNL     1     156.569   4.809  35.502  1.00  0.00    -0.508 OA
ATOM     23  H   UNL     1     157.446   4.685  35.992  1.00  0.00     0.293 HD
ENDBRANCH  15  22
TORSDOF 3
ENDMDL
MODEL 3
REMARK VINA RESULT:    -4.742      2.456      3.648
REMARK INTER + INTRA:          -5.158
REMARK INTER:                  -5.158
REMARK INTRA:                   0.000
REMARK UNBOUND:                 0.000
REMARK SMILES Cc1cc(O)c2c(c1)C(=O)c1cc(O)cc(O)c1C2=O
REMARK SMILES IDX 1 1 2 2 8 3 7 4 6 5 4 6 3 7 19 8 20 9 18 10 11 11 9 12 10 13
REMARK SMILES IDX 12 14 13 15 15 16 16 17 5 18 17 20 14 22
REMARK H PARENT 5 19 17 21 14 23
REMARK Flexibility Score: inf
ROOT
ATOM      1  C   UNL     1     153.911   6.334  35.071  1.00  0.00     0.044 C 
ATOM      2  C   UNL     1     154.650   6.171  33.775  1.00  0.00    -0.047 A 
ATOM      3  C   UNL     1     155.335   7.254  33.213  1.00  0.00     0.016 A 
ATOM      4  C   UNL     1     156.066   7.100  32.023  1.00  0.00     0.038 A 
ATOM      5  C   UNL     1     156.135   5.834  31.398  1.00  0.00     0.076 A 
ATOM      6  C   UNL     1     155.402   4.751  31.948  1.00  0.00     0.127 A 
ATOM      7  C   UNL     1     154.698   4.923  33.143  1.00  0.00     0.050 A 
ATOM      8  C   UNL     1     157.037   5.678  30.227  1.00  0.00     0.201 C 
ATOM      9  O   UNL     1     157.578   4.564  29.997  1.00  0.00    -0.288 OA
ATOM     10  C   UNL     1     157.445   6.874  29.446  1.00  0.00     0.076 A 
ATOM     11  C   UNL     1     157.374   8.138  30.074  1.00  0.00     0.041 A 
ATOM     12  C   UNL     1     156.762   8.260  31.419  1.00  0.00     0.194 C 
ATOM     13  O   UNL     1     156.811   9.360  32.037  1.00  0.00    -0.289 OA
ATOM     14  C   UNL     1     157.879   9.274  29.420  1.00  0.00     0.059 A 
ATOM     15  C   UNL     1     158.439   9.166  28.143  1.00  0.00     0.120 A 
ATOM     16  C   UNL     1     158.474   7.927  27.503  1.00  0.00     0.093 A 
ATOM     17  C   UNL     1     157.959   6.786  28.126  1.00  0.00     0.131 A 
ENDROOT
BRANCH   6  18
ATOM     18  O   UNL     1     155.319   3.503  31.326  1.00  0.00    -0.507 OA
ATOM     19  H   UNL     1     156.084   3.078  30.819  1.00  0.00     0.293 HD
ENDBRANCH   6  18
BRANCH  17  20
ATOM     20  O   UNL     1     157.946   5.599  27.388  1.00  0.00    -0.507 OA
ATOM     21  H   UNL     1     157.759   5.561  26.397  1.00  0.00     0.293 HD
ENDBRANCH  17  20
BRANCH  15  22
ATOM     22  O   UNL     1     158.952  10.288  27.496  1.00  0.00    -0.508 OA
ATOM     23  H   UNL     1     158.847  10.419  26.497  1.00  0.00     0.293 HD
ENDBRANCH  15  22
TORSDOF 3
ENDMDL
MODEL 4
REMARK VINA RESULT:    -4.663      1.524      5.482
REMARK INTER + INTRA:          -5.072
REMARK INTER:                  -5.072
REMARK INTRA:                   0.000
REMARK UNBOUND:                 0.000
REMARK SMILES Cc1cc(O)c2c(c1)C(=O)c1cc(O)cc(O)c1C2=O
REMARK SMILES IDX 1 1 2 2 8 3 7 4 6 5 4 6 3 7 19 8 20 9 18 10 11 11 9 12 10 13
REMARK SMILES IDX 12 14 13 15 15 16 16 17 5 18 17 20 14 22
REMARK H PARENT 5 19 17 21 14 23
REMARK Flexibility Score: inf
ROOT
ATOM      1  C   UNL     1     159.142   8.589  27.491  1.00  0.00     0.044 C 
ATOM      2  C   UNL     1     158.341   8.511  28.757  1.00  0.00    -0.047 A 
ATOM      3  C   UNL     1     158.775   7.707  29.817  1.00  0.00     0.016 A 
ATOM      4  C   UNL     1     158.055   7.660  31.023  1.00  0.00     0.038 A 
ATOM      5  C   UNL     1     156.895   8.451  31.181  1.00  0.00     0.076 A 
ATOM      6  C   UNL     1     156.435   9.230  30.087  1.00  0.00     0.127 A 
ATOM      7  C   UNL     1     157.178   9.275  28.905  1.00  0.00     0.050 A 
ATOM      8  C   UNL     1     156.247   8.488  32.518  1.00  0.00     0.201 C 
ATOM      9  O   UNL     1     155.632   9.523  32.888  1.00  0.00    -0.288 OA
ATOM     10  C   UNL     1     156.485   7.385  33.484  1.00  0.00     0.076 A 
ATOM     11  C   UNL     1     157.646   6.595  33.321  1.00  0.00     0.041 A 
ATOM     12  C   UNL     1     158.505   6.782  32.128  1.00  0.00     0.194 C 
ATOM     13  O   UNL     1     159.607   6.172  32.043  1.00  0.00    -0.289 OA
ATOM     14  C   UNL     1     157.979   5.633  34.291  1.00  0.00     0.059 A 
ATOM     15  C   UNL     1     157.161   5.440  35.408  1.00  0.00     0.120 A 
ATOM     16  C   UNL     1     155.992   6.189  35.550  1.00  0.00     0.093 A 
ATOM     17  C   UNL     1     155.630   7.138  34.588  1.00  0.00     0.131 A 
ENDROOT
BRANCH   6  18
ATOM     18  O   UNL     1     155.234   9.942  30.119  1.00  0.00    -0.507 OA
ATOM     19  H   UNL     1     154.682  10.069  30.957  1.00  0.00     0.293 HD
ENDBRANCH   6  18
BRANCH  17  20
ATOM     20  O   UNL     1     154.402   7.784  34.752  1.00  0.00    -0.507 OA
ATOM     21  H   UNL     1     153.535   7.442  34.363  1.00  0.00     0.293 HD
ENDBRANCH  17  20
BRANCH  15  22
ATOM     22  O   UNL     1     157.493   4.496  36.377  1.00  0.00    -0.508 OA
ATOM     23  H   UNL     1     157.009   3.609  36.441  1.00  0.00     0.293 HD
ENDBRANCH  15  22
TORSDOF 3
ENDMDL
MODEL 5
REMARK VINA RESULT:    -4.569      1.707      3.463
REMARK INTER + INTRA:          -4.969
REMARK INTER:                  -4.969
REMARK INTRA:                   0.000
REMARK UNBOUND:                 0.000
REMARK SMILES Cc1cc(O)c2c(c1)C(=O)c1cc(O)cc(O)c1C2=O
REMARK SMILES IDX 1 1 2 2 8 3 7 4 6 5 4 6 3 7 19 8 20 9 18 10 11 11 9 12 10 13
REMARK SMILES IDX 12 14 13 15 15 16 16 17 5 18 17 20 14 22
REMARK H PARENT 5 19 17 21 14 23
REMARK Flexibility Score: inf
ROOT
ATOM      1  C   UNL     1     153.875   9.085  37.062  1.00  0.00     0.044 C 
ATOM      2  C   UNL     1     154.844   8.571  36.037  1.00  0.00    -0.047 A 
ATOM      3  C   UNL     1     154.771   9.015  34.712  1.00  0.00     0.016 A 
ATOM      4  C   UNL     1     155.700   8.572  33.756  1.00  0.00     0.038 A 
ATOM      5  C   UNL     1     156.736   7.690  34.137  1.00  0.00     0.076 A 
ATOM      6  C   UNL     1     156.778   7.208  35.471  1.00  0.00     0.127 A 
ATOM      7  C   UNL     1     155.854   7.677  36.409  1.00  0.00     0.050 A 
ATOM      8  C   UNL     1     157.784   7.363  33.135  1.00  0.00     0.201 C 
ATOM      9  O   UNL     1     158.955   7.100  33.515  1.00  0.00    -0.288 OA
ATOM     10  C   UNL     1     157.497   7.531  31.686  1.00  0.00     0.076 A 
ATOM     11  C   UNL     1     156.459   8.414  31.310  1.00  0.00     0.041 A 
ATOM     12  C   UNL     1     155.596   9.024  32.349  1.00  0.00     0.194 C 
ATOM     13  O   UNL     1     154.754   9.909  32.029  1.00  0.00    -0.289 OA
ATOM     14  C   UNL     1     156.248   8.706  29.952  1.00  0.00     0.059 A 
ATOM     15  C   UNL     1     157.048   8.117  28.967  1.00  0.00     0.120 A 
ATOM     16  C   UNL     1     158.046   7.214  29.333  1.00  0.00     0.093 A 
ATOM     17  C   UNL     1     158.262   6.892  30.677  1.00  0.00     0.131 A 
ENDROOT
BRANCH   6  18
ATOM     18  O   UNL     1     157.693   6.242  35.896  1.00  0.00    -0.507 OA
ATOM     19  H   UNL     1     158.083   5.535  35.287  1.00  0.00     0.293 HD
ENDBRANCH   6  18
BRANCH  17  20
ATOM     20  O   UNL     1     159.218   5.913  30.959  1.00  0.00    -0.507 OA
ATOM     21  H   UNL     1     160.108   6.110  31.392  1.00  0.00     0.293 HD
ENDBRANCH  17  20
BRANCH  15  22
ATOM     22  O   UNL     1     156.849   8.413  27.620  1.00  0.00    -0.508 OA
ATOM     23  H   UNL     1     156.088   9.007  27.314  1.00  0.00     0.293 HD
ENDBRANCH  15  22
TORSDOF 3
ENDMDL
MODEL 6
REMARK VINA RESULT:    -4.556      2.333      6.257
REMARK INTER + INTRA:          -4.956
REMARK INTER:                  -4.956
REMARK INTRA:                   0.000
REMARK UNBOUND:                 0.000
REMARK SMILES Cc1cc(O)c2c(c1)C(=O)c1cc(O)cc(O)c1C2=O
REMARK SMILES IDX 1 1 2 2 8 3 7 4 6 5 4 6 3 7 19 8 20 9 18 10 11 11 9 12 10 13
REMARK SMILES IDX 12 14 13 15 15 16 16 17 5 18 17 20 14 22
REMARK H PARENT 5 19 17 21 14 23
REMARK Flexibility Score: inf
ROOT
ATOM      1  C   UNL     1     158.670  10.164  27.374  1.00  0.00     0.044 C 
ATOM      2  C   UNL     1     158.264   8.961  28.175  1.00  0.00    -0.047 A 
ATOM      3  C   UNL     1     157.840   9.107  29.501  1.00  0.00     0.016 A 
ATOM      4  C   UNL     1     157.417   7.993  30.245  1.00  0.00     0.038 A 
ATOM      5  C   UNL     1     157.393   6.713  29.644  1.00  0.00     0.076 A 
ATOM      6  C   UNL     1     157.866   6.565  28.315  1.00  0.00     0.127 A 
ATOM      7  C   UNL     1     158.264   7.691  27.588  1.00  0.00     0.050 A 
ATOM      8  C   UNL     1     156.800   5.588  30.413  1.00  0.00     0.201 C 
ATOM      9  O   UNL     1     156.236   4.641  29.804  1.00  0.00    -0.288 OA
ATOM     10  C   UNL     1     156.707   5.674  31.893  1.00  0.00     0.076 A 
ATOM     11  C   UNL     1     156.733   6.956  32.490  1.00  0.00     0.041 A 
ATOM     12  C   UNL     1     156.999   8.153  31.657  1.00  0.00     0.194 C 
ATOM     13  O   UNL     1     156.897   9.306  32.160  1.00  0.00    -0.289 OA
ATOM     14  C   UNL     1     156.509   7.089  33.871  1.00  0.00     0.059 A 
ATOM     15  C   UNL     1     156.277   5.960  34.664  1.00  0.00     0.120 A 
ATOM     16  C   UNL     1     156.292   4.691  34.085  1.00  0.00     0.093 A 
ATOM     17  C   UNL     1     156.532   4.532  32.716  1.00  0.00     0.131 A 
ENDROOT
BRANCH   6  18
ATOM     18  O   UNL     1     157.990   5.321  27.692  1.00  0.00    -0.507 OA
ATOM     19  H   UNL     1     158.502   4.545  28.090  1.00  0.00     0.293 HD
ENDBRANCH   6  18
BRANCH  17  20
ATOM     20  O   UNL     1     156.621   3.227  32.225  1.00  0.00    -0.507 OA
ATOM     21  H   UNL     1     157.032   2.993  31.333  1.00  0.00     0.293 HD
ENDBRANCH  17  20
BRANCH  15  22
ATOM     22  O   UNL     1     156.043   6.089  36.031  1.00  0.00    -0.508 OA
ATOM     23  H   UNL     1     155.567   5.367  36.558  1.00  0.00     0.293 HD
ENDBRANCH  15  22
TORSDOF 3
ENDMDL
MODEL 7
REMARK VINA RESULT:    -4.441      4.640      7.582
REMARK INTER + INTRA:          -4.830
REMARK INTER:                  -4.830
REMARK INTRA:                   0.000
REMARK UNBOUND:                 0.000
REMARK SMILES Cc1cc(O)c2c(c1)C(=O)c1cc(O)cc(O)c1C2=O
REMARK SMILES IDX 1 1 2 2 8 3 7 4 6 5 4 6 3 7 19 8 20 9 18 10 11 11 9 12 10 13
REMARK SMILES IDX 12 14 13 15 15 16 16 17 5 18 17 20 14 22
REMARK H PARENT 5 19 17 21 14 23
REMARK Flexibility Score: inf
ROOT
ATOM      1  C   UNL     1     158.384   7.312  30.950  1.00  0.00     0.044 C 
ATOM      2  C   UNL     1     159.108   6.748  32.137  1.00  0.00    -0.047 A 
ATOM      3  C   UNL     1     160.490   6.923  32.269  1.00  0.00     0.016 A 
ATOM      4  C   UNL     1     161.170   6.436  33.398  1.00  0.00     0.038 A 
ATOM      5  C   UNL     1     160.452   5.784  34.426  1.00  0.00     0.076 A 
ATOM      6  C   UNL     1     159.058   5.570  34.266  1.00  0.00     0.127 A 
ATOM      7  C   UNL     1     158.401   6.080  33.143  1.00  0.00     0.050 A 
ATOM      8  C   UNL     1     161.180   5.417  35.668  1.00  0.00     0.201 C 
ATOM      9  O   UNL     1     160.568   5.386  36.768  1.00  0.00    -0.288 OA
ATOM     10  C   UNL     1     162.659   5.273  35.640  1.00  0.00     0.076 A 
ATOM     11  C   UNL     1     163.373   5.925  34.610  1.00  0.00     0.041 A 
ATOM     12  C   UNL     1     162.639   6.600  33.514  1.00  0.00     0.194 C 
ATOM     13  O   UNL     1     163.267   7.291  32.664  1.00  0.00    -0.289 OA
ATOM     14  C   UNL     1     164.779   5.928  34.627  1.00  0.00     0.059 A 
ATOM     15  C   UNL     1     165.477   5.276  35.649  1.00  0.00     0.120 A 
ATOM     16  C   UNL     1     164.775   4.596  36.644  1.00  0.00     0.093 A 
ATOM     17  C   UNL     1     163.376   4.563  36.637  1.00  0.00     0.131 A 
ENDROOT
BRANCH   6  18
ATOM     18  O   UNL     1     158.299   4.829  35.175  1.00  0.00    -0.507 OA
ATOM     19  H   UNL     1     158.574   3.920  35.523  1.00  0.00     0.293 HD
ENDBRANCH   6  18
BRANCH  17  20
ATOM     20  O   UNL     1     162.746   3.787  37.614  1.00  0.00    -0.507 OA
ATOM     21  H   UNL     1     161.773   3.888  37.864  1.00  0.00     0.293 HD
ENDBRANCH  17  20
BRANCH  15  22
ATOM     22  O   UNL     1     166.870   5.287  35.676  1.00  0.00    -0.508 OA
ATOM     23  H   UNL     1     167.396   4.567  36.156  1.00  0.00     0.293 HD
ENDBRANCH  15  22
TORSDOF 3
ENDMDL
MODEL 8
REMARK VINA RESULT:    -4.323      2.839      5.833
REMARK INTER + INTRA:          -4.702
REMARK INTER:                  -4.702
REMARK INTRA:                   0.000
REMARK UNBOUND:                 0.000
REMARK SMILES Cc1cc(O)c2c(c1)C(=O)c1cc(O)cc(O)c1C2=O
REMARK SMILES IDX 1 1 2 2 8 3 7 4 6 5 4 6 3 7 19 8 20 9 18 10 11 11 9 12 10 13
REMARK SMILES IDX 12 14 13 15 15 16 16 17 5 18 17 20 14 22
REMARK H PARENT 5 19 17 21 14 23
REMARK Flexibility Score: inf
ROOT
ATOM      1  C   UNL     1     158.733   9.907  27.522  1.00  0.00     0.044 C 
ATOM      2  C   UNL     1     158.052   8.838  28.326  1.00  0.00    -0.047 A 
ATOM      3  C   UNL     1     158.702   8.256  29.420  1.00  0.00     0.016 A 
ATOM      4  C   UNL     1     158.055   7.287  30.205  1.00  0.00     0.038 A 
ATOM      5  C   UNL     1     156.726   6.912  29.907  1.00  0.00     0.076 A 
ATOM      6  C   UNL     1     156.088   7.473  28.770  1.00  0.00     0.127 A 
ATOM      7  C   UNL     1     156.744   8.449  28.016  1.00  0.00     0.050 A 
ATOM      8  C   UNL     1     156.027   5.996  30.846  1.00  0.00     0.201 C 
ATOM      9  O   UNL     1     154.778   6.074  30.985  1.00  0.00    -0.288 OA
ATOM     10  C   UNL     1     156.819   5.126  31.755  1.00  0.00     0.076 A 
ATOM     11  C   UNL     1     158.149   5.505  32.049  1.00  0.00     0.041 A 
ATOM     12  C   UNL     1     158.763   6.653  31.342  1.00  0.00     0.194 C 
ATOM     13  O   UNL     1     159.901   7.074  31.692  1.00  0.00    -0.289 OA
ATOM     14  C   UNL     1     158.884   4.787  33.008  1.00  0.00     0.059 A 
ATOM     15  C   UNL     1     158.314   3.691  33.663  1.00  0.00     0.120 A 
ATOM     16  C   UNL     1     157.017   3.290  33.345  1.00  0.00     0.093 A 
ATOM     17  C   UNL     1     156.273   3.976  32.379  1.00  0.00     0.131 A 
ENDROOT
BRANCH   6  18
ATOM     18  O   UNL     1     154.823   7.066  28.337  1.00  0.00    -0.507 OA
ATOM     19  H   UNL     1     154.469   7.240  27.406  1.00  0.00     0.293 HD
ENDBRANCH   6  18
BRANCH  17  20
ATOM     20  O   UNL     1     155.016   3.462  32.049  1.00  0.00    -0.507 OA
ATOM     21  H   UNL     1     154.491   2.843  32.650  1.00  0.00     0.293 HD
ENDBRANCH  17  20
BRANCH  15  22
ATOM     22  O   UNL     1     159.035   2.984  34.624  1.00  0.00    -0.508 OA
ATOM     23  H   UNL     1     160.022   3.154  34.777  1.00  0.00     0.293 HD
ENDBRANCH  15  22
TORSDOF 3
ENDMDL
MODEL 9
REMARK VINA RESULT:    -4.321      2.359      4.568
REMARK INTER + INTRA:          -4.699
REMARK INTER:                  -4.699
REMARK INTRA:                   0.000
REMARK UNBOUND:                 0.000
REMARK SMILES Cc1cc(O)c2c(c1)C(=O)c1cc(O)cc(O)c1C2=O
REMARK SMILES IDX 1 1 2 2 8 3 7 4 6 5 4 6 3 7 19 8 20 9 18 10 11 11 9 12 10 13
REMARK SMILES IDX 12 14 13 15 15 16 16 17 5 18 17 20 14 22
REMARK H PARENT 5 19 17 21 14 23
REMARK Flexibility Score: inf
ROOT
ATOM      1  C   UNL     1     162.976   5.418  33.059  1.00  0.00     0.044 C 
ATOM      2  C   UNL     1     161.676   5.929  33.610  1.00  0.00    -0.047 A 
ATOM      3  C   UNL     1     160.638   6.291  32.744  1.00  0.00     0.016 A 
ATOM      4  C   UNL     1     159.403   6.729  33.252  1.00  0.00     0.038 A 
ATOM      5  C   UNL     1     159.193   6.781  34.648  1.00  0.00     0.076 A 
ATOM      6  C   UNL     1     160.265   6.455  35.520  1.00  0.00     0.127 A 
ATOM      7  C   UNL     1     161.478   6.004  34.993  1.00  0.00     0.050 A 
ATOM      8  C   UNL     1     157.830   7.105  35.142  1.00  0.00     0.201 C 
ATOM      9  O   UNL     1     157.432   6.632  36.240  1.00  0.00    -0.288 OA
ATOM     10  C   UNL     1     156.878   7.827  34.259  1.00  0.00     0.076 A 
ATOM     11  C   UNL     1     157.091   7.773  32.863  1.00  0.00     0.041 A 
ATOM     12  C   UNL     1     158.319   7.139  32.328  1.00  0.00     0.194 C 
ATOM     13  O   UNL     1     158.453   6.975  31.083  1.00  0.00    -0.289 OA
ATOM     14  C   UNL     1     156.139   8.324  31.988  1.00  0.00     0.059 A 
ATOM     15  C   UNL     1     154.988   8.940  32.490  1.00  0.00     0.120 A 
ATOM     16  C   UNL     1     154.795   9.032  33.868  1.00  0.00     0.093 A 
ATOM     17  C   UNL     1     155.738   8.508  34.759  1.00  0.00     0.131 A 
ENDROOT
BRANCH   6  18
ATOM     18  O   UNL     1     160.180   6.598  36.907  1.00  0.00    -0.507 OA
ATOM     19  H   UNL     1     160.771   7.220  37.443  1.00  0.00     0.293 HD
ENDBRANCH   6  18
BRANCH  17  20
ATOM     20  O   UNL     1     155.521   8.717  36.123  1.00  0.00    -0.507 OA
ATOM     21  H   UNL     1     155.827   9.542  36.617  1.00  0.00     0.293 HD
ENDBRANCH  17  20
BRANCH  15  22
ATOM     22  O   UNL     1     154.036   9.477  31.626  1.00  0.00    -0.508 OA
ATOM     23  H   UNL     1     153.143   9.026  31.475  1.00  0.00     0.293 HD
ENDBRANCH  15  22
TORSDOF 3
ENDMDL
