MODEL 1
REMARK VINA RESULT:    -5.324      0.000      0.000
REMARK INTER + INTRA:          -9.011
REMARK INTER:                  -8.281
REMARK INTRA:                  -0.730
REMARK UNBOUND:                -0.730
REMARK SMILES COc1cc(CNC(=O)CCCCC=CC(C)C)ccc1O
REMARK SMILES IDX 11 1 12 2 13 3 14 4 15 5 16 6 17 7 18 8 10 9 8 10 9 11 7 12
REMARK SMILES IDX 6 14 5 15 4 16 19 17 3 18 20 19 21 20 2 21 1 22 22 23
REMARK H PARENT 7 13 22 24
REMARK Flexibility Score: inf
ROOT
ATOM      1  C   UNL     1     115.622 256.093 338.133  1.00  0.00     0.010 C 
ENDROOT
BRANCH   1   2
ATOM      2  C   UNL     1     115.036 257.450 337.716  1.00  0.00     0.005 C 
BRANCH   2   3
ATOM      3  C   UNL     1     113.594 257.331 337.200  1.00  0.00     0.027 C 
BRANCH   3   4
ATOM      4  C   UNL     1     113.418 256.132 336.304  1.00  0.00    -0.031 C 
ATOM      5  C   UNL     1     113.666 256.070 334.976  1.00  0.00    -0.028 C 
BRANCH   5   6
ATOM      6  C   UNL     1     114.091 257.194 334.048  1.00  0.00     0.005 C 
ATOM      7  C   UNL     1     114.973 256.704 332.892  1.00  0.00     0.012 C 
ATOM      8  C   UNL     1     112.928 258.070 333.571  1.00  0.00     0.012 C 
ENDBRANCH   5   6
ENDBRANCH   3   4
ENDBRANCH   2   3
ENDBRANCH   1   2
BRANCH   1   9
ATOM      9  C   UNL     1     116.977 256.244 338.840  1.00  0.00     0.100 C 
BRANCH   9  10
ATOM     10  C   UNL     1     117.244 255.107 339.784  1.00  0.00     0.220 C 
ATOM     11  O   UNL     1     118.220 254.339 339.570  1.00  0.00    -0.275 OA
ATOM     12  N   UNL     1     116.407 254.913 340.932  1.00  0.00    -0.352 N 
ATOM     13  H   UNL     1     115.633 255.593 341.117  1.00  0.00     0.163 HD
BRANCH  12  14
ATOM     14  C   UNL     1     116.615 253.834 341.894  1.00  0.00     0.151 C 
BRANCH  14  15
ATOM     15  C   UNL     1     115.492 253.808 342.894  1.00  0.00    -0.025 A 
ATOM     16  C   UNL     1     115.501 254.695 343.981  1.00  0.00     0.056 A 
ATOM     17  C   UNL     1     114.427 252.909 342.745  1.00  0.00     0.009 A 
ATOM     18  C   UNL     1     114.445 254.698 344.913  1.00  0.00     0.160 A 
ATOM     19  C   UNL     1     113.371 252.914 343.660  1.00  0.00     0.050 A 
ATOM     20  C   UNL     1     113.372 253.805 344.740  1.00  0.00     0.157 A 
BRANCH  18  21
ATOM     21  O   UNL     1     114.431 255.560 346.018  1.00  0.00    -0.493 OA
ATOM     22  C   UNL     1     115.529 256.377 346.416  1.00  0.00     0.278 C 
ENDBRANCH  18  21
BRANCH  20  23
ATOM     23  O   UNL     1     112.304 253.776 345.636  1.00  0.00    -0.504 OA
ATOM     24  H   UNL     1     112.441 253.697 346.636  1.00  0.00     0.293 HD
ENDBRANCH  20  23
ENDBRANCH  14  15
ENDBRANCH  12  14
ENDBRANCH   9  10
ENDBRANCH   1   9
TORSDOF 10
ENDMDL
MODEL 2
REMARK VINA RESULT:    -4.804      2.715     10.088
REMARK INTER + INTRA:          -8.202
REMARK INTER:                  -7.516
REMARK INTRA:                  -0.686
REMARK UNBOUND:                -0.730
REMARK SMILES COc1cc(CNC(=O)CCCCC=CC(C)C)ccc1O
REMARK SMILES IDX 11 1 12 2 13 3 14 4 15 5 16 6 17 7 18 8 10 9 8 10 9 11 7 12
REMARK SMILES IDX 6 14 5 15 4 16 19 17 3 18 20 19 21 20 2 21 1 22 22 23
REMARK H PARENT 7 13 22 24
REMARK Flexibility Score: inf
ROOT
ATOM      1  C   UNL     1     115.847 256.309 346.345  1.00  0.00     0.010 C 
ENDROOT
BRANCH   1   2
ATOM      2  C   UNL     1     115.842 257.789 346.755  1.00  0.00     0.005 C 
BRANCH   2   3
ATOM      3  C   UNL     1     116.835 258.084 347.889  1.00  0.00     0.027 C 
BRANCH   3   4
ATOM      4  C   UNL     1     117.011 256.896 348.800  1.00  0.00    -0.031 C 
ATOM      5  C   UNL     1     116.867 256.878 350.144  1.00  0.00    -0.028 C 
BRANCH   5   6
ATOM      6  C   UNL     1     116.584 258.046 351.074  1.00  0.00     0.005 C 
ATOM      7  C   UNL     1     115.109 258.125 351.488  1.00  0.00     0.012 C 
ATOM      8  C   UNL     1     117.537 258.123 352.271  1.00  0.00     0.012 C 
ENDBRANCH   5   6
ENDBRANCH   3   4
ENDBRANCH   2   3
ENDBRANCH   1   2
BRANCH   1   9
ATOM      9  C   UNL     1     114.470 255.847 345.843  1.00  0.00     0.100 C 
BRANCH   9  10
ATOM     10  C   UNL     1     114.583 254.701 344.880  1.00  0.00     0.220 C 
ATOM     11  O   UNL     1     113.893 253.663 345.068  1.00  0.00    -0.275 OA
ATOM     12  N   UNL     1     115.453 254.797 343.745  1.00  0.00    -0.352 N 
ATOM     13  H   UNL     1     115.978 255.688 343.581  1.00  0.00     0.163 HD
BRANCH  12  14
ATOM     14  C   UNL     1     115.604 253.724 342.766  1.00  0.00     0.151 C 
BRANCH  14  15
ATOM     15  C   UNL     1     116.640 254.099 341.742  1.00  0.00    -0.025 A 
ATOM     16  C   UNL     1     116.292 254.926 340.662  1.00  0.00     0.056 A 
ATOM     17  C   UNL     1     117.958 253.637 341.860  1.00  0.00     0.009 A 
ATOM     18  C   UNL     1     117.257 255.304 339.708  1.00  0.00     0.160 A 
ATOM     19  C   UNL     1     118.922 254.017 340.923  1.00  0.00     0.050 A 
ATOM     20  C   UNL     1     118.580 254.850 339.851  1.00  0.00     0.157 A 
BRANCH  18  21
ATOM     21  O   UNL     1     116.939 256.116 338.611  1.00  0.00    -0.493 OA
ATOM     22  C   UNL     1     115.682 256.103 337.937  1.00  0.00     0.278 C 
ENDBRANCH  18  21
BRANCH  20  23
ATOM     23  O   UNL     1     119.568 255.203 338.932  1.00  0.00    -0.504 OA
ATOM     24  H   UNL     1     119.970 256.132 338.903  1.00  0.00     0.293 HD
ENDBRANCH  20  23
ENDBRANCH  14  15
ENDBRANCH  12  14
ENDBRANCH   9  10
ENDBRANCH   1   9
TORSDOF 10
ENDMDL
MODEL 3
REMARK VINA RESULT:    -4.125      3.973      7.110
REMARK INTER + INTRA:          -7.146
REMARK INTER:                  -6.690
REMARK INTRA:                  -0.456
REMARK UNBOUND:                -0.730
REMARK SMILES COc1cc(CNC(=O)CCCCC=CC(C)C)ccc1O
REMARK SMILES IDX 11 1 12 2 13 3 14 4 15 5 16 6 17 7 18 8 10 9 8 10 9 11 7 12
REMARK SMILES IDX 6 14 5 15 4 16 19 17 3 18 20 19 21 20 2 21 1 22 22 23
REMARK H PARENT 7 13 22 24
REMARK Flexibility Score: inf
ROOT
ATOM      1  C   UNL     1     114.810 253.552 343.633  1.00  0.00     0.010 C 
ENDROOT
BRANCH   1   2
ATOM      2  C   UNL     1     115.709 254.577 342.926  1.00  0.00     0.005 C 
BRANCH   2   3
ATOM      3  C   UNL     1     116.193 254.083 341.555  1.00  0.00     0.027 C 
BRANCH   3   4
ATOM      4  C   UNL     1     117.655 253.716 341.578  1.00  0.00    -0.031 C 
ATOM      5  C   UNL     1     118.672 254.402 341.010  1.00  0.00    -0.028 C 
BRANCH   5   6
ATOM      6  C   UNL     1     118.594 255.648 340.144  1.00  0.00     0.005 C 
ATOM      7  C   UNL     1     119.976 256.237 339.833  1.00  0.00     0.012 C 
ATOM      8  C   UNL     1     117.733 255.471 338.889  1.00  0.00     0.012 C 
ENDBRANCH   5   6
ENDBRANCH   3   4
ENDBRANCH   2   3
ENDBRANCH   1   2
BRANCH   1   9
ATOM      9  C   UNL     1     114.805 253.745 345.157  1.00  0.00     0.100 C 
BRANCH   9  10
ATOM     10  C   UNL     1     114.626 255.187 345.536  1.00  0.00     0.220 C 
ATOM     11  O   UNL     1     113.539 255.768 345.270  1.00  0.00    -0.275 OA
ATOM     12  N   UNL     1     115.676 255.888 346.216  1.00  0.00    -0.352 N 
ATOM     13  H   UNL     1     116.549 255.371 346.471  1.00  0.00     0.163 HD
BRANCH  12  14
ATOM     14  C   UNL     1     115.565 257.287 346.620  1.00  0.00     0.151 C 
BRANCH  14  15
ATOM     15  C   UNL     1     116.335 257.522 347.890  1.00  0.00    -0.025 A 
ATOM     16  C   UNL     1     115.656 257.622 349.114  1.00  0.00     0.056 A 
ATOM     17  C   UNL     1     117.733 257.632 347.865  1.00  0.00     0.009 A 
ATOM     18  C   UNL     1     116.367 257.818 350.315  1.00  0.00     0.160 A 
ATOM     19  C   UNL     1     118.444 257.816 349.054  1.00  0.00     0.050 A 
ATOM     20  C   UNL     1     117.770 257.906 350.277  1.00  0.00     0.157 A 
BRANCH  18  21
ATOM     21  O   UNL     1     115.718 257.938 351.552  1.00  0.00    -0.493 OA
ATOM     22  C   UNL     1     114.306 258.051 351.713  1.00  0.00     0.278 C 
ENDBRANCH  18  21
BRANCH  20  23
ATOM     23  O   UNL     1     118.514 258.097 351.442  1.00  0.00    -0.504 OA
ATOM     24  H   UNL     1     119.385 257.609 351.611  1.00  0.00     0.293 HD
ENDBRANCH  20  23
ENDBRANCH  14  15
ENDBRANCH  12  14
ENDBRANCH   9  10
ENDBRANCH   1   9
TORSDOF 10
ENDMDL
MODEL 4
REMARK VINA RESULT:    -3.539      2.795      8.723
REMARK INTER + INTRA:          -6.235
REMARK INTER:                  -5.623
REMARK INTRA:                  -0.611
REMARK UNBOUND:                -0.730
REMARK SMILES COc1cc(CNC(=O)CCCCC=CC(C)C)ccc1O
REMARK SMILES IDX 11 1 12 2 13 3 14 4 15 5 16 6 17 7 18 8 10 9 8 10 9 11 7 12
REMARK SMILES IDX 6 14 5 15 4 16 19 17 3 18 20 19 21 20 2 21 1 22 22 23
REMARK H PARENT 7 13 22 24
REMARK Flexibility Score: inf
ROOT
ATOM      1  C   UNL     1     118.229 254.123 340.868  1.00  0.00     0.010 C 
ENDROOT
BRANCH   1   2
ATOM      2  C   UNL     1     117.482 253.634 342.118  1.00  0.00     0.005 C 
BRANCH   2   3
ATOM      3  C   UNL     1     116.043 254.167 342.185  1.00  0.00     0.027 C 
BRANCH   3   4
ATOM      4  C   UNL     1     115.073 253.103 342.633  1.00  0.00    -0.031 C 
ATOM      5  C   UNL     1     114.002 253.271 343.439  1.00  0.00    -0.028 C 
BRANCH   5   6
ATOM      6  C   UNL     1     113.559 254.533 344.160  1.00  0.00     0.005 C 
ATOM      7  C   UNL     1     112.047 254.566 344.417  1.00  0.00     0.012 C 
ATOM      8  C   UNL     1     114.378 254.842 345.418  1.00  0.00     0.012 C 
ENDBRANCH   5   6
ENDBRANCH   3   4
ENDBRANCH   2   3
ENDBRANCH   1   2
BRANCH   1   9
ATOM      9  C   UNL     1     117.332 254.112 339.621  1.00  0.00     0.100 C 
BRANCH   9  10
ATOM     10  C   UNL     1     116.977 255.502 339.177  1.00  0.00     0.220 C 
ATOM     11  O   UNL     1     117.779 256.449 339.400  1.00  0.00    -0.275 OA
ATOM     12  N   UNL     1     115.746 255.744 338.484  1.00  0.00    -0.352 N 
ATOM     13  H   UNL     1     115.119 254.934 338.264  1.00  0.00     0.163 HD
BRANCH  12  14
ATOM     14  C   UNL     1     115.343 257.068 338.017  1.00  0.00     0.151 C 
BRANCH  14  15
ATOM     15  C   UNL     1     114.467 256.944 336.801  1.00  0.00    -0.025 A 
ATOM     16  C   UNL     1     115.042 256.711 335.542  1.00  0.00     0.056 A 
ATOM     17  C   UNL     1     113.074 257.048 336.914  1.00  0.00     0.009 A 
ATOM     18  C   UNL     1     114.233 256.570 334.398  1.00  0.00     0.160 A 
ATOM     19  C   UNL     1     112.265 256.899 335.785  1.00  0.00     0.050 A 
ATOM     20  C   UNL     1     112.835 256.657 334.530  1.00  0.00     0.157 A 
BRANCH  18  21
ATOM     21  O   UNL     1     114.777 256.352 333.125  1.00  0.00    -0.493 OA
ATOM     22  C   UNL     1     115.979 255.628 332.875  1.00  0.00     0.278 C 
ENDBRANCH  18  21
BRANCH  20  23
ATOM     23  O   UNL     1     111.995 256.519 333.424  1.00  0.00    -0.504 OA
ATOM     24  H   UNL     1     111.174 257.098 333.296  1.00  0.00     0.293 HD
ENDBRANCH  20  23
ENDBRANCH  14  15
ENDBRANCH  12  14
ENDBRANCH   9  10
ENDBRANCH   1   9
TORSDOF 10
ENDMDL
MODEL 5
REMARK VINA RESULT:    -3.399      2.736      8.226
REMARK INTER + INTRA:          -6.017
REMARK INTER:                  -5.361
REMARK INTRA:                  -0.657
REMARK UNBOUND:                -0.730
REMARK SMILES COc1cc(CNC(=O)CCCCC=CC(C)C)ccc1O
REMARK SMILES IDX 11 1 12 2 13 3 14 4 15 5 16 6 17 7 18 8 10 9 8 10 9 11 7 12
REMARK SMILES IDX 6 14 5 15 4 16 19 17 3 18 20 19 21 20 2 21 1 22 22 23
REMARK H PARENT 7 13 22 24
REMARK Flexibility Score: inf
ROOT
ATOM      1  C   UNL     1     115.832 254.197 342.246  1.00  0.00     0.010 C 
ENDROOT
BRANCH   1   2
ATOM      2  C   UNL     1     115.147 252.822 342.234  1.00  0.00     0.005 C 
BRANCH   2   3
ATOM      3  C   UNL     1     114.222 252.620 343.444  1.00  0.00     0.027 C 
BRANCH   3   4
ATOM      4  C   UNL     1     114.526 253.598 344.550  1.00  0.00    -0.031 C 
ATOM      5  C   UNL     1     113.631 254.311 345.269  1.00  0.00    -0.028 C 
BRANCH   5   6
ATOM      6  C   UNL     1     112.124 254.376 345.092  1.00  0.00     0.005 C 
ATOM      7  C   UNL     1     111.709 255.198 343.866  1.00  0.00     0.012 C 
ATOM      8  C   UNL     1     111.440 253.005 345.141  1.00  0.00     0.012 C 
ENDBRANCH   5   6
ENDBRANCH   3   4
ENDBRANCH   2   3
ENDBRANCH   1   2
BRANCH   1   9
ATOM      9  C   UNL     1     117.304 254.110 341.817  1.00  0.00     0.100 C 
BRANCH   9  10
ATOM     10  C   UNL     1     117.486 254.468 340.370  1.00  0.00     0.220 C 
ATOM     11  O   UNL     1     118.497 254.044 339.748  1.00  0.00    -0.275 OA
ATOM     12  N   UNL     1     116.503 255.265 339.697  1.00  0.00    -0.352 N 
ATOM     13  H   UNL     1     115.646 255.563 340.219  1.00  0.00     0.163 HD
BRANCH  12  14
ATOM     14  C   UNL     1     116.613 255.642 338.290  1.00  0.00     0.151 C 
BRANCH  14  15
ATOM     15  C   UNL     1     115.342 256.301 337.830  1.00  0.00    -0.025 A 
ATOM     16  C   UNL     1     114.634 255.776 336.738  1.00  0.00     0.056 A 
ATOM     17  C   UNL     1     114.849 257.436 338.489  1.00  0.00     0.009 A 
ATOM     18  C   UNL     1     113.430 256.369 336.310  1.00  0.00     0.160 A 
ATOM     19  C   UNL     1     113.651 258.023 338.076  1.00  0.00     0.050 A 
ATOM     20  C   UNL     1     112.938 257.494 336.995  1.00  0.00     0.157 A 
BRANCH  18  21
ATOM     21  O   UNL     1     112.708 255.878 335.214  1.00  0.00    -0.493 OA
ATOM     22  C   UNL     1     112.947 256.251 333.859  1.00  0.00     0.278 C 
ENDBRANCH  18  21
BRANCH  20  23
ATOM     23  O   UNL     1     111.748 258.111 336.607  1.00  0.00    -0.504 OA
ATOM     24  H   UNL     1     111.016 258.334 337.270  1.00  0.00     0.293 HD
ENDBRANCH  20  23
ENDBRANCH  14  15
ENDBRANCH  12  14
ENDBRANCH   9  10
ENDBRANCH   1   9
TORSDOF 10
ENDMDL
MODEL 6
REMARK VINA RESULT:    -2.951      2.660      9.008
REMARK INTER + INTRA:          -5.320
REMARK INTER:                  -4.621
REMARK INTRA:                  -0.699
REMARK UNBOUND:                -0.730
REMARK SMILES COc1cc(CNC(=O)CCCCC=CC(C)C)ccc1O
REMARK SMILES IDX 11 1 12 2 13 3 14 4 15 5 16 6 17 7 18 8 10 9 8 10 9 11 7 12
REMARK SMILES IDX 6 14 5 15 4 16 19 17 3 18 20 19 21 20 2 21 1 22 22 23
REMARK H PARENT 7 13 22 24
REMARK Flexibility Score: inf
ROOT
ATOM      1  C   UNL     1     113.562 254.365 345.359  1.00  0.00     0.010 C 
ENDROOT
BRANCH   1   2
ATOM      2  C   UNL     1     113.897 255.838 345.638  1.00  0.00     0.005 C 
BRANCH   2   3
ATOM      3  C   UNL     1     115.282 256.010 346.279  1.00  0.00     0.027 C 
BRANCH   3   4
ATOM      4  C   UNL     1     115.653 257.464 346.427  1.00  0.00    -0.031 C 
ATOM      5  C   UNL     1     116.521 257.992 347.318  1.00  0.00    -0.028 C 
BRANCH   5   6
ATOM      6  C   UNL     1     117.265 257.283 348.436  1.00  0.00     0.005 C 
ATOM      7  C   UNL     1     118.773 257.185 348.173  1.00  0.00     0.012 C 
ATOM      8  C   UNL     1     116.946 257.832 349.831  1.00  0.00     0.012 C 
ENDBRANCH   5   6
ENDBRANCH   3   4
ENDBRANCH   2   3
ENDBRANCH   1   2
BRANCH   1   9
ATOM      9  C   UNL     1     113.260 254.115 343.874  1.00  0.00     0.100 C 
BRANCH   9  10
ATOM     10  C   UNL     1     114.309 253.255 343.229  1.00  0.00     0.220 C 
ATOM     11  O   UNL     1     114.086 252.025 343.063  1.00  0.00    -0.275 OA
ATOM     12  N   UNL     1     115.542 253.836 342.785  1.00  0.00    -0.352 N 
ATOM     13  H   UNL     1     115.684 254.868 342.888  1.00  0.00     0.163 HD
BRANCH  12  14
ATOM     14  C   UNL     1     116.600 253.060 342.143  1.00  0.00     0.151 C 
BRANCH  14  15
ATOM     15  C   UNL     1     117.379 253.931 341.197  1.00  0.00    -0.025 A 
ATOM     16  C   UNL     1     116.703 254.729 340.261  1.00  0.00     0.056 A 
ATOM     17  C   UNL     1     118.779 253.960 341.245  1.00  0.00     0.009 A 
ATOM     18  C   UNL     1     117.418 255.567 339.384  1.00  0.00     0.160 A 
ATOM     19  C   UNL     1     119.494 254.797 340.384  1.00  0.00     0.050 A 
ATOM     20  C   UNL     1     118.823 255.602 339.458  1.00  0.00     0.157 A 
BRANCH  18  21
ATOM     21  O   UNL     1     116.775 256.366 338.428  1.00  0.00    -0.493 OA
ATOM     22  C   UNL     1     115.549 256.023 337.786  1.00  0.00     0.278 C 
ENDBRANCH  18  21
BRANCH  20  23
ATOM     23  O   UNL     1     119.571 256.420 338.610  1.00  0.00    -0.504 OA
ATOM     24  H   UNL     1     120.522 256.692 338.825  1.00  0.00     0.293 HD
ENDBRANCH  20  23
ENDBRANCH  14  15
ENDBRANCH  12  14
ENDBRANCH   9  10
ENDBRANCH   1   9
TORSDOF 10
ENDMDL
