MODEL 1
REMARK VINA RESULT:    -5.695      0.000      0.000
REMARK INTER + INTRA:          -8.193
REMARK INTER:                  -7.193
REMARK INTRA:                  -1.001
REMARK UNBOUND:                -1.001
REMARK SMILES O=C(C=Cc1ccc(O)cc1)c1ccc(O)cc1O
REMARK SMILES IDX 4 1 3 2 5 3 6 4 7 5 8 6 11 7 10 8 9 9 2 11 1 12 12 13 18 14
REMARK SMILES IDX 13 15 17 16 14 17 15 18 19 19 16 21
REMARK H PARENT 9 10 19 20 16 22
REMARK Flexibility Score: inf
ROOT
ATOM      1  C   UNL     1       5.511  14.289   7.967  1.00  0.00     0.012 C 
ATOM      2  C   UNL     1       5.873  13.061   7.559  1.00  0.00     0.053 C 
ENDROOT
BRANCH   1   3
ATOM      3  C   UNL     1       6.136  15.554   7.531  1.00  0.00    -0.025 A 
ATOM      4  C   UNL     1       7.165  16.114   8.302  1.00  0.00     0.012 A 
ATOM      5  C   UNL     1       7.738  17.335   7.934  1.00  0.00     0.047 A 
ATOM      6  C   UNL     1       7.272  18.020   6.804  1.00  0.00     0.115 A 
ATOM      7  C   UNL     1       5.651  16.260   6.415  1.00  0.00     0.012 A 
ATOM      8  C   UNL     1       6.226  17.481   6.049  1.00  0.00     0.047 A 
BRANCH   6   9
ATOM      9  O   UNL     1       7.837  19.236   6.426  1.00  0.00    -0.508 OA
ATOM     10  H   UNL     1       8.841  19.352   6.348  1.00  0.00     0.293 HD
ENDBRANCH   6   9
ENDBRANCH   1   3
BRANCH   2  11
ATOM     11  C   UNL     1       7.076  12.748   6.749  1.00  0.00     0.189 C 
ATOM     12  O   UNL     1       8.107  12.279   7.304  1.00  0.00    -0.289 OA
BRANCH  11  13
ATOM     13  C   UNL     1       7.081  12.942   5.279  1.00  0.00     0.064 A 
ATOM     14  C   UNL     1       6.329  12.088   4.445  1.00  0.00     0.130 A 
ATOM     15  C   UNL     1       7.814  13.993   4.697  1.00  0.00     0.020 A 
ATOM     16  C   UNL     1       6.327  12.288   3.056  1.00  0.00     0.093 A 
ATOM     17  C   UNL     1       7.807  14.182   3.312  1.00  0.00     0.047 A 
ATOM     18  C   UNL     1       7.064  13.329   2.489  1.00  0.00     0.119 A 
BRANCH  14  19
ATOM     19  O   UNL     1       5.598  11.033   4.992  1.00  0.00    -0.507 OA
ATOM     20  H   UNL     1       5.557  10.125   4.543  1.00  0.00     0.293 HD
ENDBRANCH  14  19
BRANCH  18  21
ATOM     21  O   UNL     1       7.050  13.511   1.108  1.00  0.00    -0.508 OA
ATOM     22  H   UNL     1       7.803  13.172   0.521  1.00  0.00     0.293 HD
ENDBRANCH  18  21
ENDBRANCH  11  13
ENDBRANCH   2  11
TORSDOF 6
ENDMDL
MODEL 2
REMARK VINA RESULT:    -5.584      1.973      2.927
REMARK INTER + INTRA:          -8.054
REMARK INTER:                  -7.094
REMARK INTRA:                  -0.960
REMARK UNBOUND:                -1.001
REMARK SMILES O=C(C=Cc1ccc(O)cc1)c1ccc(O)cc1O
REMARK SMILES IDX 4 1 3 2 5 3 6 4 7 5 8 6 11 7 10 8 9 9 2 11 1 12 12 13 18 14
REMARK SMILES IDX 13 15 17 16 14 17 15 18 19 19 16 21
REMARK H PARENT 9 10 19 20 16 22
REMARK Flexibility Score: inf
ROOT
ATOM      1  C   UNL     1       6.925  12.841   5.999  1.00  0.00     0.012 C 
ATOM      2  C   UNL     1       6.254  11.990   5.206  1.00  0.00     0.053 C 
ENDROOT
BRANCH   1   3
ATOM      3  C   UNL     1       6.913  14.313   5.879  1.00  0.00    -0.025 A 
ATOM      4  C   UNL     1       5.933  15.051   6.560  1.00  0.00     0.012 A 
ATOM      5  C   UNL     1       5.874  16.441   6.423  1.00  0.00     0.047 A 
ATOM      6  C   UNL     1       6.781  17.106   5.587  1.00  0.00     0.115 A 
ATOM      7  C   UNL     1       7.802  14.982   5.018  1.00  0.00     0.012 A 
ATOM      8  C   UNL     1       7.741  16.373   4.883  1.00  0.00     0.047 A 
BRANCH   6   9
ATOM      9  O   UNL     1       6.733  18.491   5.445  1.00  0.00    -0.508 OA
ATOM     10  H   UNL     1       7.295  18.971   4.751  1.00  0.00     0.293 HD
ENDBRANCH   6   9
ENDBRANCH   1   3
BRANCH   2  11
ATOM     11  C   UNL     1       5.535  12.364   3.962  1.00  0.00     0.189 C 
ATOM     12  O   UNL     1       4.397  12.903   4.029  1.00  0.00    -0.289 OA
BRANCH  11  13
ATOM     13  C   UNL     1       6.149  12.149   2.630  1.00  0.00     0.064 A 
ATOM     14  C   UNL     1       5.336  11.966   1.492  1.00  0.00     0.130 A 
ATOM     15  C   UNL     1       7.548  12.149   2.477  1.00  0.00     0.020 A 
ATOM     16  C   UNL     1       5.925  11.777   0.232  1.00  0.00     0.093 A 
ATOM     17  C   UNL     1       8.125  11.958   1.219  1.00  0.00     0.047 A 
ATOM     18  C   UNL     1       7.314  11.771   0.094  1.00  0.00     0.119 A 
BRANCH  14  19
ATOM     19  O   UNL     1       3.946  11.953   1.613  1.00  0.00    -0.507 OA
ATOM     20  H   UNL     1       3.485  11.530   2.411  1.00  0.00     0.293 HD
ENDBRANCH  14  19
BRANCH  18  21
ATOM     21  O   UNL     1       7.880  11.581  -1.165  1.00  0.00    -0.508 OA
ATOM     22  H   UNL     1       8.875  11.434  -1.283  1.00  0.00     0.293 HD
ENDBRANCH  18  21
ENDBRANCH  11  13
ENDBRANCH   2  11
TORSDOF 6
ENDMDL
MODEL 3
REMARK VINA RESULT:    -5.564      3.193      5.186
REMARK INTER + INTRA:          -8.028
REMARK INTER:                  -6.992
REMARK INTRA:                  -1.036
REMARK UNBOUND:                -1.001
REMARK SMILES O=C(C=Cc1ccc(O)cc1)c1ccc(O)cc1O
REMARK SMILES IDX 4 1 3 2 5 3 6 4 7 5 8 6 11 7 10 8 9 9 2 11 1 12 12 13 18 14
REMARK SMILES IDX 13 15 17 16 14 17 15 18 19 19 16 21
REMARK H PARENT 9 10 19 20 16 22
REMARK Flexibility Score: inf
ROOT
ATOM      1  C   UNL     1       7.678  13.052   9.309  1.00  0.00     0.012 C 
ATOM      2  C   UNL     1       7.227  13.240   8.057  1.00  0.00     0.053 C 
ENDROOT
BRANCH   1   3
ATOM      3  C   UNL     1       7.179  13.748  10.512  1.00  0.00    -0.025 A 
ATOM      4  C   UNL     1       8.030  14.621  11.204  1.00  0.00     0.012 A 
ATOM      5  C   UNL     1       7.595  15.254  12.372  1.00  0.00     0.047 A 
ATOM      6  C   UNL     1       6.310  15.003  12.873  1.00  0.00     0.115 A 
ATOM      7  C   UNL     1       5.901  13.475  11.034  1.00  0.00     0.012 A 
ATOM      8  C   UNL     1       5.468  14.110  12.203  1.00  0.00     0.047 A 
BRANCH   6   9
ATOM      9  O   UNL     1       5.864  15.629  14.034  1.00  0.00    -0.508 OA
ATOM     10  H   UNL     1       4.878  15.674  14.266  1.00  0.00     0.293 HD
ENDBRANCH   6   9
ENDBRANCH   1   3
BRANCH   2  11
ATOM     11  C   UNL     1       6.284  14.306   7.638  1.00  0.00     0.189 C 
ATOM     12  O   UNL     1       5.042  14.087   7.638  1.00  0.00    -0.289 OA
BRANCH  11  13
ATOM     13  C   UNL     1       6.774  15.651   7.249  1.00  0.00     0.064 A 
ATOM     14  C   UNL     1       6.927  15.988   5.888  1.00  0.00     0.130 A 
ATOM     15  C   UNL     1       7.071  16.616   8.230  1.00  0.00     0.020 A 
ATOM     16  C   UNL     1       7.377  17.268   5.528  1.00  0.00     0.093 A 
ATOM     17  C   UNL     1       7.522  17.887   7.861  1.00  0.00     0.047 A 
ATOM     18  C   UNL     1       7.676  18.215   6.509  1.00  0.00     0.119 A 
BRANCH  14  19
ATOM     19  O   UNL     1       6.648  15.049   4.894  1.00  0.00    -0.507 OA
ATOM     20  H   UNL     1       7.377  14.478   4.482  1.00  0.00     0.293 HD
ENDBRANCH  14  19
BRANCH  18  21
ATOM     21  O   UNL     1       8.124  19.479   6.133  1.00  0.00    -0.508 OA
ATOM     22  H   UNL     1       8.361  19.693   5.172  1.00  0.00     0.293 HD
ENDBRANCH  18  21
ENDBRANCH  11  13
ENDBRANCH   2  11
TORSDOF 6
ENDMDL
MODEL 4
REMARK VINA RESULT:    -5.528      2.089      6.689
REMARK INTER + INTRA:          -7.984
REMARK INTER:                  -7.304
REMARK INTRA:                  -0.679
REMARK UNBOUND:                -1.001
REMARK SMILES O=C(C=Cc1ccc(O)cc1)c1ccc(O)cc1O
REMARK SMILES IDX 4 1 3 2 5 3 6 4 7 5 8 6 11 7 10 8 9 9 2 11 1 12 12 13 18 14
REMARK SMILES IDX 13 15 17 16 14 17 15 18 19 19 16 21
REMARK H PARENT 9 10 19 20 16 22
REMARK Flexibility Score: inf
ROOT
ATOM      1  C   UNL     1       8.072  15.174   4.918  1.00  0.00     0.012 C 
ATOM      2  C   UNL     1       7.790  16.485   5.003  1.00  0.00     0.053 C 
ENDROOT
BRANCH   1   3
ATOM      3  C   UNL     1       7.285  14.087   5.534  1.00  0.00    -0.025 A 
ATOM      4  C   UNL     1       6.501  13.258   4.718  1.00  0.00     0.012 A 
ATOM      5  C   UNL     1       5.711  12.253   5.284  1.00  0.00     0.047 A 
ATOM      6  C   UNL     1       5.679  12.080   6.675  1.00  0.00     0.115 A 
ATOM      7  C   UNL     1       7.227  13.930   6.931  1.00  0.00     0.012 A 
ATOM      8  C   UNL     1       6.436  12.924   7.494  1.00  0.00     0.047 A 
BRANCH   6   9
ATOM      9  O   UNL     1       4.898  11.081   7.250  1.00  0.00    -0.508 OA
ATOM     10  H   UNL     1       3.928  11.243   7.495  1.00  0.00     0.293 HD
ENDBRANCH   6   9
ENDBRANCH   1   3
BRANCH   2  11
ATOM     11  C   UNL     1       6.752  17.082   5.880  1.00  0.00     0.189 C 
ATOM     12  O   UNL     1       5.535  16.804   5.697  1.00  0.00    -0.289 OA
BRANCH  11  13
ATOM     13  C   UNL     1       7.121  17.979   7.001  1.00  0.00     0.064 A 
ATOM     14  C   UNL     1       7.022  19.379   6.856  1.00  0.00     0.130 A 
ATOM     15  C   UNL     1       7.552  17.448   8.232  1.00  0.00     0.020 A 
ATOM     16  C   UNL     1       7.359  20.220   7.928  1.00  0.00     0.093 A 
ATOM     17  C   UNL     1       7.888  18.295   9.291  1.00  0.00     0.047 A 
ATOM     18  C   UNL     1       7.793  19.683   9.141  1.00  0.00     0.119 A 
BRANCH  14  19
ATOM     19  O   UNL     1       6.605  19.934   5.646  1.00  0.00    -0.507 OA
ATOM     20  H   UNL     1       6.641  19.409   4.780  1.00  0.00     0.293 HD
ENDBRANCH  14  19
BRANCH  18  21
ATOM     21  O   UNL     1       8.125  20.535  10.193  1.00  0.00    -0.508 OA
ATOM     22  H   UNL     1       7.599  20.539  11.058  1.00  0.00     0.293 HD
ENDBRANCH  18  21
ENDBRANCH  11  13
ENDBRANCH   2  11
TORSDOF 6
ENDMDL
MODEL 5
REMARK VINA RESULT:    -5.470      1.758      2.122
REMARK INTER + INTRA:          -7.910
REMARK INTER:                  -6.567
REMARK INTRA:                  -1.343
REMARK UNBOUND:                -1.001
REMARK SMILES O=C(C=Cc1ccc(O)cc1)c1ccc(O)cc1O
REMARK SMILES IDX 4 1 3 2 5 3 6 4 7 5 8 6 11 7 10 8 9 9 2 11 1 12 12 13 18 14
REMARK SMILES IDX 13 15 17 16 14 17 15 18 19 19 16 21
REMARK H PARENT 9 10 19 20 16 22
REMARK Flexibility Score: inf
ROOT
ATOM      1  C   UNL     1       7.191  13.147   8.345  1.00  0.00     0.012 C 
ATOM      2  C   UNL     1       6.586  11.968   8.125  1.00  0.00     0.053 C 
ENDROOT
BRANCH   1   3
ATOM      3  C   UNL     1       7.036  14.357   7.513  1.00  0.00    -0.025 A 
ATOM      4  C   UNL     1       5.828  15.069   7.553  1.00  0.00     0.012 A 
ATOM      5  C   UNL     1       5.641  16.190   6.739  1.00  0.00     0.047 A 
ATOM      6  C   UNL     1       6.653  16.598   5.859  1.00  0.00     0.115 A 
ATOM      7  C   UNL     1       8.036  14.752   6.606  1.00  0.00     0.012 A 
ATOM      8  C   UNL     1       7.847  15.874   5.793  1.00  0.00     0.047 A 
BRANCH   6   9
ATOM      9  O   UNL     1       6.480  17.715   5.045  1.00  0.00    -0.508 OA
ATOM     10  H   UNL     1       7.258  18.133   4.547  1.00  0.00     0.293 HD
ENDBRANCH   6   9
ENDBRANCH   1   3
BRANCH   2  11
ATOM     11  C   UNL     1       5.806  11.619   6.912  1.00  0.00     0.189 C 
ATOM     12  O   UNL     1       4.645  11.141   7.024  1.00  0.00    -0.289 OA
BRANCH  11  13
ATOM     13  C   UNL     1       6.355  11.856   5.555  1.00  0.00     0.064 A 
ATOM     14  C   UNL     1       5.653  12.661   4.633  1.00  0.00     0.130 A 
ATOM     15  C   UNL     1       7.593  11.303   5.176  1.00  0.00     0.020 A 
ATOM     16  C   UNL     1       6.187  12.892   3.356  1.00  0.00     0.093 A 
ATOM     17  C   UNL     1       8.114  11.537   3.901  1.00  0.00     0.047 A 
ATOM     18  C   UNL     1       7.412  12.332   2.988  1.00  0.00     0.119 A 
BRANCH  14  19
ATOM     19  O   UNL     1       4.420  13.216   4.978  1.00  0.00    -0.507 OA
ATOM     20  H   UNL     1       3.565  12.945   4.507  1.00  0.00     0.293 HD
ENDBRANCH  14  19
BRANCH  18  21
ATOM     21  O   UNL     1       7.925  12.572   1.715  1.00  0.00    -0.508 OA
ATOM     22  H   UNL     1       8.504  13.380   1.520  1.00  0.00     0.293 HD
ENDBRANCH  18  21
ENDBRANCH  11  13
ENDBRANCH   2  11
TORSDOF 6
ENDMDL
MODEL 6
REMARK VINA RESULT:    -5.432      1.105      2.128
REMARK INTER + INTRA:          -7.862
REMARK INTER:                  -6.617
REMARK INTRA:                  -1.246
REMARK UNBOUND:                -1.001
REMARK SMILES O=C(C=Cc1ccc(O)cc1)c1ccc(O)cc1O
REMARK SMILES IDX 4 1 3 2 5 3 6 4 7 5 8 6 11 7 10 8 9 9 2 11 1 12 12 13 18 14
REMARK SMILES IDX 13 15 17 16 14 17 15 18 19 19 16 21
REMARK H PARENT 9 10 19 20 16 22
REMARK Flexibility Score: inf
ROOT
ATOM      1  C   UNL     1       5.107  12.978   7.767  1.00  0.00     0.012 C 
ATOM      2  C   UNL     1       5.528  11.920   7.055  1.00  0.00     0.053 C 
ENDROOT
BRANCH   1   3
ATOM      3  C   UNL     1       5.702  14.329   7.727  1.00  0.00    -0.025 A 
ATOM      4  C   UNL     1       5.267  15.244   6.757  1.00  0.00     0.012 A 
ATOM      5  C   UNL     1       5.850  16.512   6.671  1.00  0.00     0.047 A 
ATOM      6  C   UNL     1       6.891  16.870   7.540  1.00  0.00     0.115 A 
ATOM      7  C   UNL     1       6.767  14.681   8.576  1.00  0.00     0.012 A 
ATOM      8  C   UNL     1       7.348  15.950   8.488  1.00  0.00     0.047 A 
BRANCH   6   9
ATOM      9  O   UNL     1       7.477  18.131   7.465  1.00  0.00    -0.508 OA
ATOM     10  H   UNL     1       8.418  18.298   7.805  1.00  0.00     0.293 HD
ENDBRANCH   6   9
ENDBRANCH   1   3
BRANCH   2  11
ATOM     11  C   UNL     1       6.772  11.871   6.248  1.00  0.00     0.189 C 
ATOM     12  O   UNL     1       7.847  11.468   6.769  1.00  0.00    -0.289 OA
BRANCH  11  13
ATOM     13  C   UNL     1       6.771  12.256   4.816  1.00  0.00     0.064 A 
ATOM     14  C   UNL     1       7.460  13.410   4.387  1.00  0.00     0.130 A 
ATOM     15  C   UNL     1       6.103  11.465   3.862  1.00  0.00     0.020 A 
ATOM     16  C   UNL     1       7.466  13.759   3.027  1.00  0.00     0.093 A 
ATOM     17  C   UNL     1       6.113  11.823   2.511  1.00  0.00     0.047 A 
ATOM     18  C   UNL     1       6.794  12.971   2.091  1.00  0.00     0.119 A 
BRANCH  14  19
ATOM     19  O   UNL     1       8.125  14.218   5.310  1.00  0.00    -0.507 OA
ATOM     20  H   UNL     1       7.662  14.565   6.143  1.00  0.00     0.293 HD
ENDBRANCH  14  19
BRANCH  18  21
ATOM     21  O   UNL     1       6.810  13.334   0.746  1.00  0.00    -0.508 OA
ATOM     22  H   UNL     1       7.430  14.056   0.399  1.00  0.00     0.293 HD
ENDBRANCH  18  21
ENDBRANCH  11  13
ENDBRANCH   2  11
TORSDOF 6
ENDMDL
MODEL 7
REMARK VINA RESULT:    -5.426      5.038      7.751
REMARK INTER + INTRA:          -7.854
REMARK INTER:                  -6.522
REMARK INTRA:                  -1.331
REMARK UNBOUND:                -1.001
REMARK SMILES O=C(C=Cc1ccc(O)cc1)c1ccc(O)cc1O
REMARK SMILES IDX 4 1 3 2 5 3 6 4 7 5 8 6 11 7 10 8 9 9 2 11 1 12 12 13 18 14
REMARK SMILES IDX 13 15 17 16 14 17 15 18 19 19 16 21
REMARK H PARENT 9 10 19 20 16 22
REMARK Flexibility Score: inf
ROOT
ATOM      1  C   UNL     1       6.017   8.810   0.919  1.00  0.00     0.012 C 
ATOM      2  C   UNL     1       5.498   8.352  -0.232  1.00  0.00     0.053 C 
ENDROOT
BRANCH   1   3
ATOM      3  C   UNL     1       6.271  10.229   1.240  1.00  0.00    -0.025 A 
ATOM      4  C   UNL     1       7.527  10.785   0.955  1.00  0.00     0.012 A 
ATOM      5  C   UNL     1       7.805  12.112   1.293  1.00  0.00     0.047 A 
ATOM      6  C   UNL     1       6.836  12.893   1.940  1.00  0.00     0.115 A 
ATOM      7  C   UNL     1       5.312  11.006   1.916  1.00  0.00     0.012 A 
ATOM      8  C   UNL     1       5.593  12.335   2.253  1.00  0.00     0.047 A 
BRANCH   6   9
ATOM      9  O   UNL     1       7.100  14.217   2.279  1.00  0.00    -0.508 OA
ATOM     10  H   UNL     1       6.571  14.983   1.876  1.00  0.00     0.293 HD
ENDBRANCH   6   9
ENDBRANCH   1   3
BRANCH   2  11
ATOM     11  C   UNL     1       5.264   9.168  -1.450  1.00  0.00     0.189 C 
ATOM     12  O   UNL     1       5.794   8.835  -2.544  1.00  0.00    -0.289 OA
BRANCH  11  13
ATOM     13  C   UNL     1       4.381  10.359  -1.414  1.00  0.00     0.064 A 
ATOM     14  C   UNL     1       4.870  11.621  -1.811  1.00  0.00     0.130 A 
ATOM     15  C   UNL     1       3.038  10.243  -1.008  1.00  0.00     0.020 A 
ATOM     16  C   UNL     1       4.023  12.740  -1.789  1.00  0.00     0.093 A 
ATOM     17  C   UNL     1       2.204  11.364  -0.986  1.00  0.00     0.047 A 
ATOM     18  C   UNL     1       2.696  12.615  -1.376  1.00  0.00     0.119 A 
BRANCH  14  19
ATOM     19  O   UNL     1       6.199  11.768  -2.212  1.00  0.00    -0.507 OA
ATOM     20  H   UNL     1       6.740  10.983  -2.556  1.00  0.00     0.293 HD
ENDBRANCH  14  19
BRANCH  18  21
ATOM     21  O   UNL     1       1.871  13.738  -1.359  1.00  0.00    -0.508 OA
ATOM     22  H   UNL     1       2.236  14.667  -1.530  1.00  0.00     0.293 HD
ENDBRANCH  18  21
ENDBRANCH  11  13
ENDBRANCH   2  11
TORSDOF 6
ENDMDL
MODEL 8
REMARK VINA RESULT:    -5.315      4.936      8.803
REMARK INTER + INTRA:          -7.714
REMARK INTER:                  -6.326
REMARK INTRA:                  -1.388
REMARK UNBOUND:                -1.001
REMARK SMILES O=C(C=Cc1ccc(O)cc1)c1ccc(O)cc1O
REMARK SMILES IDX 4 1 3 2 5 3 6 4 7 5 8 6 11 7 10 8 9 9 2 11 1 12 12 13 18 14
REMARK SMILES IDX 13 15 17 16 14 17 15 18 19 19 16 21
REMARK H PARENT 9 10 19 20 16 22
REMARK Flexibility Score: inf
ROOT
ATOM      1  C   UNL     1       5.793   8.639  -1.111  1.00  0.00     0.012 C 
ATOM      2  C   UNL     1       6.945   9.263  -0.815  1.00  0.00     0.053 C 
ENDROOT
BRANCH   1   3
ATOM      3  C   UNL     1       4.490   9.301  -1.324  1.00  0.00    -0.025 A 
ATOM      4  C   UNL     1       4.259   9.995  -2.520  1.00  0.00     0.012 A 
ATOM      5  C   UNL     1       3.051  10.669  -2.723  1.00  0.00     0.047 A 
ATOM      6  C   UNL     1       2.069  10.674  -1.722  1.00  0.00     0.115 A 
ATOM      7  C   UNL     1       3.515   9.334  -0.310  1.00  0.00     0.012 A 
ATOM      8  C   UNL     1       2.308  10.008  -0.516  1.00  0.00     0.047 A 
BRANCH   6   9
ATOM      9  O   UNL     1       0.861  11.339  -1.914  1.00  0.00    -0.508 OA
ATOM     10  H   UNL     1       0.396  11.343  -2.815  1.00  0.00     0.293 HD
ENDBRANCH   6   9
ENDBRANCH   1   3
BRANCH   2  11
ATOM     11  C   UNL     1       7.075  10.700  -0.467  1.00  0.00     0.189 C 
ATOM     12  O   UNL     1       7.763  11.466  -1.196  1.00  0.00    -0.289 OA
BRANCH  11  13
ATOM     13  C   UNL     1       6.376  11.269   0.710  1.00  0.00     0.064 A 
ATOM     14  C   UNL     1       5.440  12.312   0.549  1.00  0.00     0.130 A 
ATOM     15  C   UNL     1       6.618  10.761   2.001  1.00  0.00     0.020 A 
ATOM     16  C   UNL     1       4.772  12.834   1.668  1.00  0.00     0.093 A 
ATOM     17  C   UNL     1       5.950  11.290   3.108  1.00  0.00     0.047 A 
ATOM     18  C   UNL     1       5.026  12.328   2.944  1.00  0.00     0.119 A 
BRANCH  14  19
ATOM     19  O   UNL     1       5.186  12.841  -0.717  1.00  0.00    -0.507 OA
ATOM     20  H   UNL     1       5.490  13.773  -0.975  1.00  0.00     0.293 HD
ENDBRANCH  14  19
BRANCH  18  21
ATOM     21  O   UNL     1       4.354  12.861   4.042  1.00  0.00    -0.508 OA
ATOM     22  H   UNL     1       4.343  13.857   4.225  1.00  0.00     0.293 HD
ENDBRANCH  18  21
ENDBRANCH  11  13
ENDBRANCH   2  11
TORSDOF 6
ENDMDL
