MODEL 1
REMARK VINA RESULT:    -3.975      0.000      0.000
REMARK INTER + INTRA:          -3.975
REMARK INTER:                  -3.975
REMARK INTRA:                   0.000
REMARK UNBOUND:                 0.000
REMARK SMILES CC1=CC(=O)[C@@H]2C[C@H]1C2(C)C
REMARK SMILES IDX 1 1 2 2 3 3 4 4 5 5 6 6 7 7 8 8 9 9 10 10 11 11
REMARK H PARENT
REMARK Flexibility Score: inf
ROOT
ATOM      1  C   UNL     1      20.762  51.070   1.696  1.00  0.00     0.040 C 
ATOM      2  C   UNL     1      22.076  51.192   0.990  1.00  0.00    -0.066 C 
ATOM      3  C   UNL     1      23.180  51.670   1.627  1.00  0.00     0.047 C 
ATOM      4  C   UNL     1      24.444  51.714   0.821  1.00  0.00     0.159 C 
ATOM      5  O   UNL     1      25.538  52.098   1.308  1.00  0.00    -0.295 OA
ATOM      6  C   UNL     1      24.308  51.257  -0.632  1.00  0.00     0.067 C 
ATOM      7  C   UNL     1      23.030  51.965  -1.133  1.00  0.00     0.021 C 
ATOM      8  C   UNL     1      22.240  50.800  -0.493  1.00  0.00     0.022 C 
ATOM      9  C   UNL     1      23.514  49.921  -0.660  1.00  0.00    -0.019 C 
ATOM     10  C   UNL     1      23.575  49.226  -2.044  1.00  0.00     0.012 C 
ATOM     11  C   UNL     1      23.819  48.858   0.433  1.00  0.00     0.012 C 
ENDROOT
TORSDOF 0
ENDMDL
MODEL 2
REMARK VINA RESULT:    -3.947      2.272      3.773
REMARK INTER + INTRA:          -3.947
REMARK INTER:                  -3.947
REMARK INTRA:                   0.000
REMARK UNBOUND:                 0.000
REMARK SMILES CC1=CC(=O)[C@@H]2C[C@H]1C2(C)C
REMARK SMILES IDX 1 1 2 2 3 3 4 4 5 5 6 6 7 7 8 8 9 9 10 10 11 11
REMARK H PARENT
REMARK Flexibility Score: inf
ROOT
ATOM      1  C   UNL     1      23.806  52.332  -0.718  1.00  0.00     0.040 C 
ATOM      2  C   UNL     1      22.915  51.369   0.002  1.00  0.00    -0.066 C 
ATOM      3  C   UNL     1      22.310  50.340  -0.653  1.00  0.00     0.047 C 
ATOM      4  C   UNL     1      21.466  49.426   0.184  1.00  0.00     0.159 C 
ATOM      5  O   UNL     1      20.888  48.417  -0.296  1.00  0.00    -0.295 OA
ATOM      6  C   UNL     1      21.361  49.804   1.662  1.00  0.00     0.067 C 
ATOM      7  C   UNL     1      21.094  51.325   1.644  1.00  0.00     0.021 C 
ATOM      8  C   UNL     1      22.623  51.504   1.511  1.00  0.00     0.022 C 
ATOM      9  C   UNL     1      22.787  50.116   2.197  1.00  0.00    -0.019 C 
ATOM     10  C   UNL     1      22.827  50.223   3.742  1.00  0.00     0.012 C 
ATOM     11  C   UNL     1      23.962  49.206   1.740  1.00  0.00     0.012 C 
ENDROOT
TORSDOF 0
ENDMDL
MODEL 3
REMARK VINA RESULT:    -3.877      1.244      3.014
REMARK INTER + INTRA:          -3.877
REMARK INTER:                  -3.877
REMARK INTRA:                   0.000
REMARK UNBOUND:                 0.000
REMARK SMILES CC1=CC(=O)[C@@H]2C[C@H]1C2(C)C
REMARK SMILES IDX 1 1 2 2 3 3 4 4 5 5 6 6 7 7 8 8 9 9 10 10 11 11
REMARK H PARENT
REMARK Flexibility Score: inf
ROOT
ATOM      1  C   UNL     1      22.994  51.631  -1.991  1.00  0.00     0.040 C 
ATOM      2  C   UNL     1      23.126  50.970  -0.655  1.00  0.00    -0.066 C 
ATOM      3  C   UNL     1      24.122  51.313   0.209  1.00  0.00     0.047 C 
ATOM      4  C   UNL     1      24.129  50.601   1.528  1.00  0.00     0.159 C 
ATOM      5  O   UNL     1      24.972  50.857   2.426  1.00  0.00    -0.295 OA
ATOM      6  C   UNL     1      23.038  49.543   1.706  1.00  0.00     0.067 C 
ATOM      7  C   UNL     1      23.063  48.749   0.382  1.00  0.00     0.021 C 
ATOM      8  C   UNL     1      22.158  49.858  -0.199  1.00  0.00     0.022 C 
ATOM      9  C   UNL     1      21.680  50.150   1.253  1.00  0.00    -0.019 C 
ATOM     10  C   UNL     1      20.474  49.270   1.666  1.00  0.00     0.012 C 
ATOM     11  C   UNL     1      21.364  51.623   1.639  1.00  0.00     0.012 C 
ENDROOT
TORSDOF 0
ENDMDL
MODEL 4
REMARK VINA RESULT:    -3.845      1.649      2.474
REMARK INTER + INTRA:          -3.845
REMARK INTER:                  -3.845
REMARK INTRA:                   0.000
REMARK UNBOUND:                 0.000
REMARK SMILES CC1=CC(=O)[C@@H]2C[C@H]1C2(C)C
REMARK SMILES IDX 1 1 2 2 3 3 4 4 5 5 6 6 7 7 8 8 9 9 10 10 11 11
REMARK H PARENT
REMARK Flexibility Score: inf
ROOT
ATOM      1  C   UNL     1      19.897  50.156   1.953  1.00  0.00     0.040 C 
ATOM      2  C   UNL     1      21.311  50.104   1.467  1.00  0.00    -0.066 C 
ATOM      3  C   UNL     1      22.068  48.980   1.610  1.00  0.00     0.047 C 
ATOM      4  C   UNL     1      23.459  49.043   1.054  1.00  0.00     0.159 C 
ATOM      5  O   UNL     1      24.242  48.059   1.089  1.00  0.00    -0.295 OA
ATOM      6  C   UNL     1      23.858  50.386   0.442  1.00  0.00     0.067 C 
ATOM      7  C   UNL     1      23.374  51.430   1.472  1.00  0.00     0.021 C 
ATOM      8  C   UNL     1      21.986  51.321   0.800  1.00  0.00     0.022 C 
ATOM      9  C   UNL     1      22.714  50.863  -0.498  1.00  0.00    -0.019 C 
ATOM     10  C   UNL     1      23.141  52.057  -1.388  1.00  0.00     0.012 C 
ATOM     11  C   UNL     1      22.013  49.808  -1.400  1.00  0.00     0.012 C 
ENDROOT
TORSDOF 0
ENDMDL
MODEL 5
REMARK VINA RESULT:    -3.777      1.667      2.658
REMARK INTER + INTRA:          -3.777
REMARK INTER:                  -3.777
REMARK INTRA:                   0.000
REMARK UNBOUND:                 0.000
REMARK SMILES CC1=CC(=O)[C@@H]2C[C@H]1C2(C)C
REMARK SMILES IDX 1 1 2 2 3 3 4 4 5 5 6 6 7 7 8 8 9 9 10 10 11 11
REMARK H PARENT
REMARK Flexibility Score: inf
ROOT
ATOM      1  C   UNL     1      25.220  50.282   3.202  1.00  0.00     0.040 C 
ATOM      2  C   UNL     1      24.299  50.759   2.123  1.00  0.00    -0.066 C 
ATOM      3  C   UNL     1      24.725  51.626   1.162  1.00  0.00     0.047 C 
ATOM      4  C   UNL     1      23.717  52.005   0.119  1.00  0.00     0.159 C 
ATOM      5  O   UNL     1      23.999  52.766  -0.842  1.00  0.00    -0.295 OA
ATOM      6  C   UNL     1      22.325  51.401   0.304  1.00  0.00     0.067 C 
ATOM      7  C   UNL     1      22.020  51.606   1.805  1.00  0.00     0.021 C 
ATOM      8  C   UNL     1      22.825  50.311   2.056  1.00  0.00     0.022 C 
ATOM      9  C   UNL     1      22.479  49.882   0.600  1.00  0.00    -0.019 C 
ATOM     10  C   UNL     1      21.130  49.123   0.513  1.00  0.00     0.012 C 
ATOM     11  C   UNL     1      23.543  49.078  -0.200  1.00  0.00     0.012 C 
ENDROOT
TORSDOF 0
ENDMDL
MODEL 6
REMARK VINA RESULT:    -3.657      1.985      2.806
REMARK INTER + INTRA:          -3.657
REMARK INTER:                  -3.657
REMARK INTRA:                   0.000
REMARK UNBOUND:                 0.000
REMARK SMILES CC1=CC(=O)[C@@H]2C[C@H]1C2(C)C
REMARK SMILES IDX 1 1 2 2 3 3 4 4 5 5 6 6 7 7 8 8 9 9 10 10 11 11
REMARK H PARENT
REMARK Flexibility Score: inf
ROOT
ATOM      1  C   UNL     1      19.205  49.247   3.312  1.00  0.00     0.040 C 
ATOM      2  C   UNL     1      20.545  49.768   2.901  1.00  0.00    -0.066 C 
ATOM      3  C   UNL     1      21.602  49.757   3.761  1.00  0.00     0.047 C 
ATOM      4  C   UNL     1      22.901  50.278   3.221  1.00  0.00     0.159 C 
ATOM      5  O   UNL     1      23.958  50.283   3.902  1.00  0.00    -0.295 OA
ATOM      6  C   UNL     1      22.849  50.799   1.784  1.00  0.00     0.067 C 
ATOM      7  C   UNL     1      21.574  51.669   1.743  1.00  0.00     0.021 C 
ATOM      8  C   UNL     1      20.792  50.359   1.497  1.00  0.00     0.022 C 
ATOM      9  C   UNL     1      22.100  49.758   0.905  1.00  0.00    -0.019 C 
ATOM     10  C   UNL     1      22.250  50.048  -0.610  1.00  0.00     0.012 C 
ATOM     11  C   UNL     1      22.388  48.248   1.143  1.00  0.00     0.012 C 
ENDROOT
TORSDOF 0
ENDMDL
MODEL 7
REMARK VINA RESULT:    -3.628      3.661      5.474
REMARK INTER + INTRA:          -3.628
REMARK INTER:                  -3.628
REMARK INTRA:                   0.000
REMARK UNBOUND:                 0.000
REMARK SMILES CC1=CC(=O)[C@@H]2C[C@H]1C2(C)C
REMARK SMILES IDX 1 1 2 2 3 3 4 4 5 5 6 6 7 7 8 8 9 9 10 10 11 11
REMARK H PARENT
REMARK Flexibility Score: inf
ROOT
ATOM      1  C   UNL     1      21.812  52.089  -6.064  1.00  0.00     0.040 C 
ATOM      2  C   UNL     1      22.402  50.897  -5.379  1.00  0.00    -0.066 C 
ATOM      3  C   UNL     1      23.706  50.549  -5.563  1.00  0.00     0.047 C 
ATOM      4  C   UNL     1      24.187  49.352  -4.798  1.00  0.00     0.159 C 
ATOM      5  O   UNL     1      25.379  48.955  -4.852  1.00  0.00    -0.295 OA
ATOM      6  C   UNL     1      23.127  48.652  -3.946  1.00  0.00     0.067 C 
ATOM      7  C   UNL     1      21.900  48.550  -4.878  1.00  0.00     0.021 C 
ATOM      8  C   UNL     1      21.563  49.996  -4.449  1.00  0.00     0.022 C 
ATOM      9  C   UNL     1      22.352  49.729  -3.135  1.00  0.00    -0.019 C 
ATOM     10  C   UNL     1      21.463  49.108  -2.028  1.00  0.00     0.012 C 
ATOM     11  C   UNL     1      23.157  50.904  -2.511  1.00  0.00     0.012 C 
ENDROOT
TORSDOF 0
ENDMDL
MODEL 8
REMARK VINA RESULT:    -3.617      1.836      3.177
REMARK INTER + INTRA:          -3.617
REMARK INTER:                  -3.617
REMARK INTRA:                   0.000
REMARK UNBOUND:                 0.000
REMARK SMILES CC1=CC(=O)[C@@H]2C[C@H]1C2(C)C
REMARK SMILES IDX 1 1 2 2 3 3 4 4 5 5 6 6 7 7 8 8 9 9 10 10 11 11
REMARK H PARENT
REMARK Flexibility Score: inf
ROOT
ATOM      1  C   UNL     1      23.585  48.109  -0.923  1.00  0.00     0.040 C 
ATOM      2  C   UNL     1      23.163  49.385  -0.266  1.00  0.00    -0.066 C 
ATOM      3  C   UNL     1      22.048  49.443   0.514  1.00  0.00     0.047 C 
ATOM      4  C   UNL     1      21.747  50.772   1.141  1.00  0.00     0.159 C 
ATOM      5  O   UNL     1      20.769  50.944   1.914  1.00  0.00    -0.295 OA
ATOM      6  C   UNL     1      22.714  51.900   0.779  1.00  0.00     0.067 C 
ATOM      7  C   UNL     1      22.886  51.773  -0.750  1.00  0.00     0.021 C 
ATOM      8  C   UNL     1      23.954  50.696  -0.453  1.00  0.00     0.022 C 
ATOM      9  C   UNL     1      24.169  51.374   0.932  1.00  0.00    -0.019 C 
ATOM     10  C   UNL     1      25.218  52.513   0.875  1.00  0.00     0.012 C 
ATOM     11  C   UNL     1      24.502  50.466   2.150  1.00  0.00     0.012 C 
ENDROOT
TORSDOF 0
ENDMDL
MODEL 9
REMARK VINA RESULT:    -3.570      7.617      9.167
REMARK INTER + INTRA:          -3.570
REMARK INTER:                  -3.570
REMARK INTRA:                   0.000
REMARK UNBOUND:                 0.000
REMARK SMILES CC1=CC(=O)[C@@H]2C[C@H]1C2(C)C
REMARK SMILES IDX 1 1 2 2 3 3 4 4 5 5 6 6 7 7 8 8 9 9 10 10 11 11
REMARK H PARENT
REMARK Flexibility Score: inf
ROOT
ATOM      1  C   UNL     1      21.979  51.636  -6.079  1.00  0.00     0.040 C 
ATOM      2  C   UNL     1      21.405  52.761  -6.881  1.00  0.00    -0.066 C 
ATOM      3  C   UNL     1      20.087  52.785  -7.225  1.00  0.00     0.047 C 
ATOM      4  C   UNL     1      19.627  53.981  -8.003  1.00  0.00     0.159 C 
ATOM      5  O   UNL     1      18.427  54.139  -8.344  1.00  0.00    -0.295 OA
ATOM      6  C   UNL     1      20.718  54.995  -8.349  1.00  0.00     0.067 C 
ATOM      7  C   UNL     1      21.891  54.129  -8.858  1.00  0.00     0.021 C 
ATOM      8  C   UNL     1      22.277  53.935  -7.374  1.00  0.00     0.022 C 
ATOM      9  C   UNL     1      21.555  55.280  -7.070  1.00  0.00    -0.019 C 
ATOM     10  C   UNL     1      22.491  56.503  -7.237  1.00  0.00     0.012 C 
ATOM     11  C   UNL     1      20.806  55.421  -5.714  1.00  0.00     0.012 C 
ENDROOT
TORSDOF 0
ENDMDL
