MODEL 1
REMARK VINA RESULT:    -4.275      0.000      0.000
REMARK INTER + INTRA:         -10.399
REMARK INTER:                  -8.023
REMARK INTRA:                  -2.376
REMARK UNBOUND:                -2.376
REMARK SMILES CCCCCCCCC=CCCCCCCCC(=O)[O-]
REMARK SMILES IDX 10 1 9 2 11 3 12 4 13 5 14 6 15 7 16 8 17 9 18 10 19 11
REMARK SMILES IDX 20 12 8 13 7 14 6 15 5 16 4 17 3 18 2 19 1 20
REMARK H PARENT
REMARK Flexibility Score: inf
ROOT
ATOM      1  C   UNL     1      -3.201  26.172  58.900  1.00  0.00    -0.031 C 
ATOM      2  C   UNL     1      -4.455  26.368  59.350  1.00  0.00    -0.031 C 
ENDROOT
BRANCH   1   3
ATOM      3  C   UNL     1      -2.813  25.952  57.456  1.00  0.00     0.027 C 
BRANCH   3   4
ATOM      4  C   UNL     1      -2.800  27.267  56.663  1.00  0.00     0.004 C 
BRANCH   4   5
ATOM      5  C   UNL     1      -3.548  27.152  55.327  1.00  0.00     0.000 C 
BRANCH   5   6
ATOM      6  C   UNL     1      -4.598  28.264  55.187  1.00  0.00     0.000 C 
BRANCH   6   7
ATOM      7  C   UNL     1      -4.431  29.364  56.258  1.00  0.00     0.000 C 
BRANCH   7   8
ATOM      8  C   UNL     1      -5.719  30.169  56.517  1.00  0.00     0.006 C 
BRANCH   8   9
ATOM      9  C   UNL     1      -5.801  31.486  55.730  1.00  0.00     0.053 C 
BRANCH   9  10
ATOM     10  C   UNL     1      -7.158  31.698  55.130  1.00  0.00     0.041 C 
ATOM     11  O   UNL     1      -8.191  31.530  55.829  1.00  0.00    -0.550 OA
ATOM     12  O   UNL     1      -7.282  32.092  53.804  1.00  0.00    -0.550 OA
ENDBRANCH   9  10
ENDBRANCH   8   9
ENDBRANCH   7   8
ENDBRANCH   6   7
ENDBRANCH   5   6
ENDBRANCH   4   5
ENDBRANCH   3   4
ENDBRANCH   1   3
BRANCH   2  13
ATOM     13  C   UNL     1      -5.694  26.434  58.490  1.00  0.00     0.027 C 
BRANCH  13  14
ATOM     14  C   UNL     1      -6.645  25.261  58.779  1.00  0.00     0.004 C 
BRANCH  14  15
ATOM     15  C   UNL     1      -7.079  24.526  57.492  1.00  0.00     0.000 C 
BRANCH  15  16
ATOM     16  C   UNL     1      -6.436  25.083  56.208  1.00  0.00     0.000 C 
BRANCH  16  17
ATOM     17  C   UNL     1      -5.595  24.069  55.415  1.00  0.00    -0.000 C 
BRANCH  17  18
ATOM     18  C   UNL     1      -4.672  23.227  56.314  1.00  0.00    -0.000 C 
BRANCH  18  19
ATOM     19  C   UNL     1      -3.415  22.747  55.573  1.00  0.00    -0.003 C 
ATOM     20  C   UNL     1      -3.088  21.280  55.858  1.00  0.00     0.004 C 
ENDBRANCH  18  19
ENDBRANCH  17  18
ENDBRANCH  16  17
ENDBRANCH  15  16
ENDBRANCH  14  15
ENDBRANCH  13  14
ENDBRANCH   2  13
TORSDOF 15
ENDMDL
MODEL 2
REMARK VINA RESULT:    -4.252      1.861      3.730
REMARK INTER + INTRA:         -10.356
REMARK INTER:                  -8.836
REMARK INTRA:                  -1.520
REMARK UNBOUND:                -2.376
REMARK SMILES CCCCCCCCC=CCCCCCCCC(=O)[O-]
REMARK SMILES IDX 10 1 9 2 11 3 12 4 13 5 14 6 15 7 16 8 17 9 18 10 19 11
REMARK SMILES IDX 20 12 8 13 7 14 6 15 5 16 4 17 3 18 2 19 1 20
REMARK H PARENT
REMARK Flexibility Score: inf
ROOT
ATOM      1  C   UNL     1      -3.049  27.135  59.299  1.00  0.00    -0.031 C 
ATOM      2  C   UNL     1      -4.106  26.443  58.833  1.00  0.00    -0.031 C 
ENDROOT
BRANCH   1   3
ATOM      3  C   UNL     1      -1.936  27.709  58.453  1.00  0.00     0.027 C 
BRANCH   3   4
ATOM      4  C   UNL     1      -1.658  29.178  58.799  1.00  0.00     0.004 C 
BRANCH   4   5
ATOM      5  C   UNL     1      -2.734  30.124  58.244  1.00  0.00     0.000 C 
BRANCH   5   6
ATOM      6  C   UNL     1      -3.176  29.691  56.838  1.00  0.00     0.000 C 
BRANCH   6   7
ATOM      7  C   UNL     1      -4.668  29.992  56.575  1.00  0.00     0.000 C 
BRANCH   7   8
ATOM      8  C   UNL     1      -4.967  31.492  56.388  1.00  0.00     0.006 C 
BRANCH   8   9
ATOM      9  C   UNL     1      -5.347  31.879  54.951  1.00  0.00     0.053 C 
BRANCH   9  10
ATOM     10  C   UNL     1      -6.831  31.884  54.745  1.00  0.00     0.041 C 
ATOM     11  O   UNL     1      -7.322  32.380  53.697  1.00  0.00    -0.550 OA
ATOM     12  O   UNL     1      -7.671  31.329  55.702  1.00  0.00    -0.550 OA
ENDBRANCH   9  10
ENDBRANCH   8   9
ENDBRANCH   7   8
ENDBRANCH   6   7
ENDBRANCH   5   6
ENDBRANCH   4   5
ENDBRANCH   3   4
ENDBRANCH   1   3
BRANCH   2  13
ATOM     13  C   UNL     1      -4.386  26.144  57.380  1.00  0.00     0.027 C 
BRANCH  13  14
ATOM     14  C   UNL     1      -5.002  24.748  57.200  1.00  0.00     0.004 C 
BRANCH  14  15
ATOM     15  C   UNL     1      -6.122  24.462  58.224  1.00  0.00     0.000 C 
BRANCH  15  16
ATOM     16  C   UNL     1      -7.468  25.125  57.878  1.00  0.00     0.000 C 
BRANCH  16  17
ATOM     17  C   UNL     1      -8.167  25.822  59.057  1.00  0.00    -0.000 C 
BRANCH  17  18
ATOM     18  C   UNL     1      -7.268  25.935  60.301  1.00  0.00    -0.000 C 
BRANCH  18  19
ATOM     19  C   UNL     1      -8.076  25.931  61.607  1.00  0.00    -0.003 C 
ATOM     20  C   UNL     1      -7.187  26.014  62.849  1.00  0.00     0.004 C 
ENDBRANCH  18  19
ENDBRANCH  17  18
ENDBRANCH  16  17
ENDBRANCH  15  16
ENDBRANCH  14  15
ENDBRANCH  13  14
ENDBRANCH   2  13
TORSDOF 15
ENDMDL
MODEL 3
REMARK VINA RESULT:    -4.242      1.544      3.753
REMARK INTER + INTRA:         -10.338
REMARK INTER:                  -8.288
REMARK INTRA:                  -2.050
REMARK UNBOUND:                -2.376
REMARK SMILES CCCCCCCCC=CCCCCCCCC(=O)[O-]
REMARK SMILES IDX 10 1 9 2 11 3 12 4 13 5 14 6 15 7 16 8 17 9 18 10 19 11
REMARK SMILES IDX 20 12 8 13 7 14 6 15 5 16 4 17 3 18 2 19 1 20
REMARK H PARENT
REMARK Flexibility Score: inf
ROOT
ATOM      1  C   UNL     1      -2.428  24.726  56.173  1.00  0.00    -0.031 C 
ATOM      2  C   UNL     1      -3.391  23.839  55.858  1.00  0.00    -0.031 C 
ENDROOT
BRANCH   1   3
ATOM      3  C   UNL     1      -2.517  25.763  57.269  1.00  0.00     0.027 C 
BRANCH   3   4
ATOM      4  C   UNL     1      -3.063  27.099  56.747  1.00  0.00     0.004 C 
BRANCH   4   5
ATOM      5  C   UNL     1      -4.062  27.744  57.719  1.00  0.00     0.000 C 
BRANCH   5   6
ATOM      6  C   UNL     1      -5.348  28.161  56.991  1.00  0.00     0.000 C 
BRANCH   6   7
ATOM      7  C   UNL     1      -5.118  28.381  55.479  1.00  0.00     0.000 C 
BRANCH   7   8
ATOM      8  C   UNL     1      -5.198  29.860  55.055  1.00  0.00     0.006 C 
BRANCH   8   9
ATOM      9  C   UNL     1      -5.577  30.818  56.195  1.00  0.00     0.053 C 
BRANCH   9  10
ATOM     10  C   UNL     1      -6.882  31.509  55.937  1.00  0.00     0.041 C 
ATOM     11  O   UNL     1      -7.023  32.232  54.917  1.00  0.00    -0.550 OA
ATOM     12  O   UNL     1      -7.946  31.343  56.815  1.00  0.00    -0.550 OA
ENDBRANCH   9  10
ENDBRANCH   8   9
ENDBRANCH   7   8
ENDBRANCH   6   7
ENDBRANCH   5   6
ENDBRANCH   4   5
ENDBRANCH   3   4
ENDBRANCH   1   3
BRANCH   2  13
ATOM     13  C   UNL     1      -4.718  23.699  56.564  1.00  0.00     0.027 C 
BRANCH  13  14
ATOM     14  C   UNL     1      -5.793  24.595  55.928  1.00  0.00     0.004 C 
BRANCH  14  15
ATOM     15  C   UNL     1      -7.032  24.760  56.835  1.00  0.00     0.000 C 
BRANCH  15  16
ATOM     16  C   UNL     1      -6.778  24.401  58.311  1.00  0.00     0.000 C 
BRANCH  16  17
ATOM     17  C   UNL     1      -6.356  25.583  59.200  1.00  0.00    -0.000 C 
BRANCH  17  18
ATOM     18  C   UNL     1      -7.488  26.072  60.120  1.00  0.00    -0.000 C 
BRANCH  18  19
ATOM     19  C   UNL     1      -7.010  26.303  61.561  1.00  0.00    -0.003 C 
ATOM     20  C   UNL     1      -7.870  25.570  62.591  1.00  0.00     0.004 C 
ENDBRANCH  18  19
ENDBRANCH  17  18
ENDBRANCH  16  17
ENDBRANCH  15  16
ENDBRANCH  14  15
ENDBRANCH  13  14
ENDBRANCH   2  13
TORSDOF 15
ENDMDL
MODEL 4
REMARK VINA RESULT:    -4.234      1.920      3.395
REMARK INTER + INTRA:         -10.323
REMARK INTER:                  -8.465
REMARK INTRA:                  -1.858
REMARK UNBOUND:                -2.376
REMARK SMILES CCCCCCCCC=CCCCCCCCC(=O)[O-]
REMARK SMILES IDX 10 1 9 2 11 3 12 4 13 5 14 6 15 7 16 8 17 9 18 10 19 11
REMARK SMILES IDX 20 12 8 13 7 14 6 15 5 16 4 17 3 18 2 19 1 20
REMARK H PARENT
REMARK Flexibility Score: inf
ROOT
ATOM      1  C   UNL     1      -2.615  30.024  59.243  1.00  0.00    -0.031 C 
ATOM      2  C   UNL     1      -2.280  28.832  59.773  1.00  0.00    -0.031 C 
ENDROOT
BRANCH   1   3
ATOM      3  C   UNL     1      -3.145  30.244  57.845  1.00  0.00     0.027 C 
BRANCH   3   4
ATOM      4  C   UNL     1      -2.037  30.117  56.790  1.00  0.00     0.004 C 
BRANCH   4   5
ATOM      5  C   UNL     1      -2.464  29.253  55.594  1.00  0.00     0.000 C 
BRANCH   5   6
ATOM      6  C   UNL     1      -3.865  29.644  55.104  1.00  0.00     0.000 C 
BRANCH   6   7
ATOM      7  C   UNL     1      -3.844  30.916  54.227  1.00  0.00     0.000 C 
BRANCH   7   8
ATOM      8  C   UNL     1      -4.830  32.002  54.696  1.00  0.00     0.006 C 
BRANCH   8   9
ATOM      9  C   UNL     1      -5.894  31.496  55.683  1.00  0.00     0.053 C 
BRANCH   9  10
ATOM     10  C   UNL     1      -7.285  31.737  55.181  1.00  0.00     0.041 C 
ATOM     11  O   UNL     1      -7.468  32.183  54.018  1.00  0.00    -0.550 OA
ATOM     12  O   UNL     1      -8.378  31.455  55.989  1.00  0.00    -0.550 OA
ENDBRANCH   9  10
ENDBRANCH   8   9
ENDBRANCH   7   8
ENDBRANCH   6   7
ENDBRANCH   5   6
ENDBRANCH   4   5
ENDBRANCH   3   4
ENDBRANCH   1   3
BRANCH   2  13
ATOM     13  C   UNL     1      -2.404  27.499  59.077  1.00  0.00     0.027 C 
BRANCH  13  14
ATOM     14  C   UNL     1      -3.812  26.904  59.243  1.00  0.00     0.004 C 
BRANCH  14  15
ATOM     15  C   UNL     1      -4.628  26.952  57.932  1.00  0.00     0.000 C 
BRANCH  15  16
ATOM     16  C   UNL     1      -4.728  25.596  57.209  1.00  0.00     0.000 C 
BRANCH  16  17
ATOM     17  C   UNL     1      -5.467  24.499  57.993  1.00  0.00    -0.000 C 
BRANCH  17  18
ATOM     18  C   UNL     1      -6.966  24.428  57.652  1.00  0.00    -0.000 C 
BRANCH  18  19
ATOM     19  C   UNL     1      -7.768  25.563  58.304  1.00  0.00    -0.003 C 
ATOM     20  C   UNL     1      -7.523  25.667  59.810  1.00  0.00     0.004 C 
ENDBRANCH  18  19
ENDBRANCH  17  18
ENDBRANCH  16  17
ENDBRANCH  15  16
ENDBRANCH  14  15
ENDBRANCH  13  14
ENDBRANCH   2  13
TORSDOF 15
ENDMDL
MODEL 5
REMARK VINA RESULT:    -4.191      1.093      2.733
REMARK INTER + INTRA:         -10.242
REMARK INTER:                  -7.650
REMARK INTRA:                  -2.592
REMARK UNBOUND:                -2.376
REMARK SMILES CCCCCCCCC=CCCCCCCCC(=O)[O-]
REMARK SMILES IDX 10 1 9 2 11 3 12 4 13 5 14 6 15 7 16 8 17 9 18 10 19 11
REMARK SMILES IDX 20 12 8 13 7 14 6 15 5 16 4 17 3 18 2 19 1 20
REMARK H PARENT
REMARK Flexibility Score: inf
ROOT
ATOM      1  C   UNL     1      -1.976  26.138  55.801  1.00  0.00    -0.031 C 
ATOM      2  C   UNL     1      -2.098  26.152  57.142  1.00  0.00    -0.031 C 
ENDROOT
BRANCH   1   3
ATOM      3  C   UNL     1      -1.690  27.342  54.935  1.00  0.00     0.027 C 
BRANCH   3   4
ATOM      4  C   UNL     1      -2.955  28.176  54.685  1.00  0.00     0.004 C 
BRANCH   4   5
ATOM      5  C   UNL     1      -4.212  27.306  54.541  1.00  0.00     0.000 C 
BRANCH   5   6
ATOM      6  C   UNL     1      -5.446  28.024  55.105  1.00  0.00     0.000 C 
BRANCH   6   7
ATOM      7  C   UNL     1      -5.094  28.947  56.293  1.00  0.00     0.000 C 
BRANCH   7   8
ATOM      8  C   UNL     1      -5.499  30.417  56.069  1.00  0.00     0.006 C 
BRANCH   8   9
ATOM      9  C   UNL     1      -6.161  30.682  54.708  1.00  0.00     0.053 C 
BRANCH   9  10
ATOM     10  C   UNL     1      -7.320  31.625  54.823  1.00  0.00     0.041 C 
ATOM     11  O   UNL     1      -7.525  32.487  53.929  1.00  0.00    -0.550 OA
ATOM     12  O   UNL     1      -8.182  31.544  55.910  1.00  0.00    -0.550 OA
ENDBRANCH   9  10
ENDBRANCH   8   9
ENDBRANCH   7   8
ENDBRANCH   6   7
ENDBRANCH   5   6
ENDBRANCH   4   5
ENDBRANCH   3   4
ENDBRANCH   1   3
BRANCH   2  13
ATOM     13  C   UNL     1      -1.940  27.368  58.023  1.00  0.00     0.027 C 
BRANCH  13  14
ATOM     14  C   UNL     1      -2.885  27.313  59.234  1.00  0.00     0.004 C 
BRANCH  14  15
ATOM     15  C   UNL     1      -3.705  26.005  59.282  1.00  0.00     0.000 C 
BRANCH  15  16
ATOM     16  C   UNL     1      -5.225  26.216  59.152  1.00  0.00     0.000 C 
BRANCH  16  17
ATOM     17  C   UNL     1      -5.986  25.046  58.507  1.00  0.00    -0.000 C 
BRANCH  17  18
ATOM     18  C   UNL     1      -6.447  25.352  57.071  1.00  0.00    -0.000 C 
BRANCH  18  19
ATOM     19  C   UNL     1      -5.947  24.308  56.062  1.00  0.00    -0.003 C 
ATOM     20  C   UNL     1      -4.675  23.599  56.529  1.00  0.00     0.004 C 
ENDBRANCH  18  19
ENDBRANCH  17  18
ENDBRANCH  16  17
ENDBRANCH  15  16
ENDBRANCH  14  15
ENDBRANCH  13  14
ENDBRANCH   2  13
TORSDOF 15
ENDMDL
MODEL 6
REMARK VINA RESULT:    -4.157      1.315      3.045
REMARK INTER + INTRA:         -10.178
REMARK INTER:                  -7.816
REMARK INTRA:                  -2.362
REMARK UNBOUND:                -2.376
REMARK SMILES CCCCCCCCC=CCCCCCCCC(=O)[O-]
REMARK SMILES IDX 10 1 9 2 11 3 12 4 13 5 14 6 15 7 16 8 17 9 18 10 19 11
REMARK SMILES IDX 20 12 8 13 7 14 6 15 5 16 4 17 3 18 2 19 1 20
REMARK H PARENT
REMARK Flexibility Score: inf
ROOT
ATOM      1  C   UNL     1      -5.435  24.359  55.730  1.00  0.00    -0.031 C 
ATOM      2  C   UNL     1      -6.167  24.106  56.832  1.00  0.00    -0.031 C 
ENDROOT
BRANCH   1   3
ATOM      3  C   UNL     1      -5.795  25.350  54.648  1.00  0.00     0.027 C 
BRANCH   3   4
ATOM      4  C   UNL     1      -4.720  26.435  54.489  1.00  0.00     0.004 C 
BRANCH   4   5
ATOM      5  C   UNL     1      -5.212  27.818  54.940  1.00  0.00     0.000 C 
BRANCH   5   6
ATOM      6  C   UNL     1      -4.046  28.812  55.041  1.00  0.00     0.000 C 
BRANCH   6   7
ATOM      7  C   UNL     1      -4.246  29.835  56.181  1.00  0.00     0.000 C 
BRANCH   7   8
ATOM      8  C   UNL     1      -5.651  30.468  56.198  1.00  0.00     0.006 C 
BRANCH   8   9
ATOM      9  C   UNL     1      -5.841  31.594  55.170  1.00  0.00     0.053 C 
BRANCH   9  10
ATOM     10  C   UNL     1      -7.290  31.885  54.920  1.00  0.00     0.041 C 
ATOM     11  O   UNL     1      -8.157  31.552  55.769  1.00  0.00    -0.550 OA
ATOM     12  O   UNL     1      -7.681  32.536  53.757  1.00  0.00    -0.550 OA
ENDBRANCH   9  10
ENDBRANCH   8   9
ENDBRANCH   7   8
ENDBRANCH   6   7
ENDBRANCH   5   6
ENDBRANCH   4   5
ENDBRANCH   3   4
ENDBRANCH   1   3
BRANCH   2  13
ATOM     13  C   UNL     1      -7.461  24.790  57.200  1.00  0.00     0.027 C 
BRANCH  13  14
ATOM     14  C   UNL     1      -7.320  25.608  58.493  1.00  0.00     0.004 C 
BRANCH  14  15
ATOM     15  C   UNL     1      -6.067  26.511  58.483  1.00  0.00     0.000 C 
BRANCH  15  16
ATOM     16  C   UNL     1      -5.061  26.198  59.607  1.00  0.00     0.000 C 
BRANCH  16  17
ATOM     17  C   UNL     1      -3.636  25.880  59.128  1.00  0.00    -0.000 C 
BRANCH  17  18
ATOM     18  C   UNL     1      -3.332  26.456  57.734  1.00  0.00    -0.000 C 
BRANCH  18  19
ATOM     19  C   UNL     1      -1.916  26.106  57.254  1.00  0.00    -0.003 C 
ATOM     20  C   UNL     1      -1.157  27.323  56.723  1.00  0.00     0.004 C 
ENDBRANCH  18  19
ENDBRANCH  17  18
ENDBRANCH  16  17
ENDBRANCH  15  16
ENDBRANCH  14  15
ENDBRANCH  13  14
ENDBRANCH   2  13
TORSDOF 15
ENDMDL
MODEL 7
REMARK VINA RESULT:    -4.135      2.613      4.994
REMARK INTER + INTRA:         -10.137
REMARK INTER:                  -7.233
REMARK INTRA:                  -2.904
REMARK UNBOUND:                -2.376
REMARK SMILES CCCCCCCCC=CCCCCCCCC(=O)[O-]
REMARK SMILES IDX 10 1 9 2 11 3 12 4 13 5 14 6 15 7 16 8 17 9 18 10 19 11
REMARK SMILES IDX 20 12 8 13 7 14 6 15 5 16 4 17 3 18 2 19 1 20
REMARK H PARENT
REMARK Flexibility Score: inf
ROOT
ATOM      1  C   UNL     1      -5.256  28.665  56.385  1.00  0.00    -0.031 C 
ATOM      2  C   UNL     1      -4.795  27.457  56.762  1.00  0.00    -0.031 C 
ENDROOT
BRANCH   1   3
ATOM      3  C   UNL     1      -4.429  29.760  55.755  1.00  0.00     0.027 C 
BRANCH   3   4
ATOM      4  C   UNL     1      -4.425  31.035  56.610  1.00  0.00     0.004 C 
BRANCH   4   5
ATOM      5  C   UNL     1      -3.774  32.224  55.887  1.00  0.00     0.000 C 
BRANCH   5   6
ATOM      6  C   UNL     1      -3.707  31.977  54.373  1.00  0.00     0.000 C 
BRANCH   6   7
ATOM      7  C   UNL     1      -4.545  33.002  53.576  1.00  0.00     0.000 C 
BRANCH   7   8
ATOM      8  C   UNL     1      -5.953  32.493  53.213  1.00  0.00     0.006 C 
BRANCH   8   9
ATOM      9  C   UNL     1      -7.040  32.881  54.227  1.00  0.00     0.053 C 
BRANCH   9  10
ATOM     10  C   UNL     1      -7.567  31.689  54.967  1.00  0.00     0.041 C 
ATOM     11  O   UNL     1      -7.626  30.568  54.398  1.00  0.00    -0.550 OA
ATOM     12  O   UNL     1      -7.981  31.813  56.287  1.00  0.00    -0.550 OA
ENDBRANCH   9  10
ENDBRANCH   8   9
ENDBRANCH   7   8
ENDBRANCH   6   7
ENDBRANCH   5   6
ENDBRANCH   4   5
ENDBRANCH   3   4
ENDBRANCH   1   3
BRANCH   2  13
ATOM     13  C   UNL     1      -3.378  26.969  56.593  1.00  0.00     0.027 C 
BRANCH  13  14
ATOM     14  C   UNL     1      -2.803  26.435  57.915  1.00  0.00     0.004 C 
BRANCH  14  15
ATOM     15  C   UNL     1      -3.297  27.239  59.138  1.00  0.00     0.000 C 
BRANCH  15  16
ATOM     16  C   UNL     1      -2.291  28.291  59.642  1.00  0.00     0.000 C 
BRANCH  16  17
ATOM     17  C   UNL     1      -2.522  29.714  59.106  1.00  0.00    -0.000 C 
BRANCH  17  18
ATOM     18  C   UNL     1      -1.276  30.303  58.421  1.00  0.00    -0.000 C 
BRANCH  18  19
ATOM     19  C   UNL     1      -0.677  29.350  57.377  1.00  0.00    -0.003 C 
ATOM     20  C   UNL     1      -0.891  29.836  55.943  1.00  0.00     0.004 C 
ENDBRANCH  18  19
ENDBRANCH  17  18
ENDBRANCH  16  17
ENDBRANCH  15  16
ENDBRANCH  14  15
ENDBRANCH  13  14
ENDBRANCH   2  13
TORSDOF 15
ENDMDL
MODEL 8
REMARK VINA RESULT:    -4.124      1.635      2.427
REMARK INTER + INTRA:         -10.116
REMARK INTER:                  -7.541
REMARK INTRA:                  -2.575
REMARK UNBOUND:                -2.376
REMARK SMILES CCCCCCCCC=CCCCCCCCC(=O)[O-]
REMARK SMILES IDX 10 1 9 2 11 3 12 4 13 5 14 6 15 7 16 8 17 9 18 10 19 11
REMARK SMILES IDX 20 12 8 13 7 14 6 15 5 16 4 17 3 18 2 19 1 20
REMARK H PARENT
REMARK Flexibility Score: inf
ROOT
ATOM      1  C   UNL     1      -3.210  26.275  58.951  1.00  0.00    -0.031 C 
ATOM      2  C   UNL     1      -4.507  25.948  58.796  1.00  0.00    -0.031 C 
ENDROOT
BRANCH   1   3
ATOM      3  C   UNL     1      -2.548  27.516  58.398  1.00  0.00     0.027 C 
BRANCH   3   4
ATOM      4  C   UNL     1      -2.683  28.708  59.356  1.00  0.00     0.004 C 
BRANCH   4   5
ATOM      5  C   UNL     1      -2.749  30.051  58.613  1.00  0.00     0.000 C 
BRANCH   5   6
ATOM      6  C   UNL     1      -3.196  29.854  57.157  1.00  0.00     0.000 C 
BRANCH   6   7
ATOM      7  C   UNL     1      -4.676  30.242  56.942  1.00  0.00     0.000 C 
BRANCH   7   8
ATOM      8  C   UNL     1      -4.907  31.104  55.686  1.00  0.00     0.006 C 
BRANCH   8   9
ATOM      9  C   UNL     1      -6.087  30.639  54.818  1.00  0.00     0.053 C 
BRANCH   9  10
ATOM     10  C   UNL     1      -7.233  31.603  54.867  1.00  0.00     0.041 C 
ATOM     11  O   UNL     1      -7.964  31.664  55.890  1.00  0.00    -0.550 OA
ATOM     12  O   UNL     1      -7.486  32.443  53.790  1.00  0.00    -0.550 OA
ENDBRANCH   9  10
ENDBRANCH   8   9
ENDBRANCH   7   8
ENDBRANCH   6   7
ENDBRANCH   5   6
ENDBRANCH   4   5
ENDBRANCH   3   4
ENDBRANCH   1   3
BRANCH   2  13
ATOM     13  C   UNL     1      -5.538  26.776  58.069  1.00  0.00     0.027 C 
BRANCH  13  14
ATOM     14  C   UNL     1      -5.953  26.122  56.741  1.00  0.00     0.004 C 
BRANCH  14  15
ATOM     15  C   UNL     1      -5.545  26.971  55.516  1.00  0.00     0.000 C 
BRANCH  15  16
ATOM     16  C   UNL     1      -4.536  26.276  54.583  1.00  0.00     0.000 C 
BRANCH  16  17
ATOM     17  C   UNL     1      -3.130  26.088  55.176  1.00  0.00    -0.000 C 
BRANCH  17  18
ATOM     18  C   UNL     1      -2.792  24.613  55.456  1.00  0.00    -0.000 C 
BRANCH  18  19
ATOM     19  C   UNL     1      -1.529  24.456  56.315  1.00  0.00    -0.003 C 
ATOM     20  C   UNL     1      -0.277  25.001  55.626  1.00  0.00     0.004 C 
ENDBRANCH  18  19
ENDBRANCH  17  18
ENDBRANCH  16  17
ENDBRANCH  15  16
ENDBRANCH  14  15
ENDBRANCH  13  14
ENDBRANCH   2  13
TORSDOF 15
ENDMDL
MODEL 9
REMARK VINA RESULT:    -4.109      1.740      3.052
REMARK INTER + INTRA:         -10.088
REMARK INTER:                  -7.866
REMARK INTRA:                  -2.222
REMARK UNBOUND:                -2.376
REMARK SMILES CCCCCCCCC=CCCCCCCCC(=O)[O-]
REMARK SMILES IDX 10 1 9 2 11 3 12 4 13 5 14 6 15 7 16 8 17 9 18 10 19 11
REMARK SMILES IDX 20 12 8 13 7 14 6 15 5 16 4 17 3 18 2 19 1 20
REMARK H PARENT
REMARK Flexibility Score: inf
ROOT
ATOM      1  C   UNL     1      -2.935  27.025  59.200  1.00  0.00    -0.031 C 
ATOM      2  C   UNL     1      -3.107  25.930  58.435  1.00  0.00    -0.031 C 
ENDROOT
BRANCH   1   3
ATOM      3  C   UNL     1      -1.983  28.160  58.902  1.00  0.00     0.027 C 
BRANCH   3   4
ATOM      4  C   UNL     1      -2.574  29.519  59.301  1.00  0.00     0.004 C 
BRANCH   4   5
ATOM      5  C   UNL     1      -3.030  30.339  58.085  1.00  0.00     0.000 C 
BRANCH   5   6
ATOM      6  C   UNL     1      -2.699  29.610  56.774  1.00  0.00     0.000 C 
BRANCH   6   7
ATOM      7  C   UNL     1      -3.518  30.151  55.582  1.00  0.00     0.000 C 
BRANCH   7   8
ATOM      8  C   UNL     1      -5.037  30.174  55.841  1.00  0.00     0.006 C 
BRANCH   8   9
ATOM      9  C   UNL     1      -5.636  31.587  55.917  1.00  0.00     0.053 C 
BRANCH   9  10
ATOM     10  C   UNL     1      -7.123  31.576  55.728  1.00  0.00     0.041 C 
ATOM     11  O   UNL     1      -7.887  31.535  56.727  1.00  0.00    -0.550 OA
ATOM     12  O   UNL     1      -7.665  31.625  54.450  1.00  0.00    -0.550 OA
ENDBRANCH   9  10
ENDBRANCH   8   9
ENDBRANCH   7   8
ENDBRANCH   6   7
ENDBRANCH   5   6
ENDBRANCH   4   5
ENDBRANCH   3   4
ENDBRANCH   1   3
BRANCH   2  13
ATOM     13  C   UNL     1      -2.405  25.655  57.128  1.00  0.00     0.027 C 
BRANCH  13  14
ATOM     14  C   UNL     1      -3.265  26.074  55.925  1.00  0.00     0.004 C 
BRANCH  14  15
ATOM     15  C   UNL     1      -4.693  26.493  56.341  1.00  0.00     0.000 C 
BRANCH  15  16
ATOM     16  C   UNL     1      -5.804  25.869  55.475  1.00  0.00     0.000 C 
BRANCH  16  17
ATOM     17  C   UNL     1      -6.862  25.073  56.257  1.00  0.00    -0.000 C 
BRANCH  17  18
ATOM     18  C   UNL     1      -6.304  24.444  57.545  1.00  0.00    -0.000 C 
BRANCH  18  19
ATOM     19  C   UNL     1      -7.156  24.782  58.777  1.00  0.00    -0.003 C 
ATOM     20  C   UNL     1      -6.654  26.022  59.518  1.00  0.00     0.004 C 
ENDBRANCH  18  19
ENDBRANCH  17  18
ENDBRANCH  16  17
ENDBRANCH  15  16
ENDBRANCH  14  15
ENDBRANCH  13  14
ENDBRANCH   2  13
TORSDOF 15
ENDMDL
