MODEL 1
REMARK VINA RESULT:    -3.356      0.000      0.000
REMARK INTER + INTRA:          -8.487
REMARK INTER:                  -6.299
REMARK INTRA:                  -2.188
REMARK UNBOUND:                -2.188
REMARK SMILES O=C([O-])CCCCCCCCCCCCCCC(=O)[O-]
REMARK SMILES IDX 10 1 9 2 8 3 7 4 6 5 5 6 4 7 2 8 1 9 3 10 11 11 12 12 13 13
REMARK SMILES IDX 14 14 15 15 16 16 17 17 18 18 19 19 20 20
REMARK H PARENT
REMARK Flexibility Score: inf
ROOT
ATOM      1  C   UNL     1      56.506  26.359  51.764  1.00  0.00     0.000 C 
ENDROOT
BRANCH   1   2
ATOM      2  C   UNL     1      56.373  25.706  50.379  1.00  0.00     0.000 C 
BRANCH   2   3
ATOM      3  C   UNL     1      54.909  25.517  49.953  1.00  0.00     0.000 C 
BRANCH   3   4
ATOM      4  C   UNL     1      53.974  26.395  50.794  1.00  0.00     0.000 C 
BRANCH   4   5
ATOM      5  C   UNL     1      53.570  27.662  50.025  1.00  0.00     0.000 C 
BRANCH   5   6
ATOM      6  C   UNL     1      53.623  28.931  50.896  1.00  0.00     0.006 C 
BRANCH   6   7
ATOM      7  C   UNL     1      53.352  28.686  52.389  1.00  0.00     0.053 C 
BRANCH   7   8
ATOM      8  C   UNL     1      54.478  29.170  53.250  1.00  0.00     0.041 C 
ATOM      9  O   UNL     1      54.841  28.500  54.253  1.00  0.00    -0.550 OA
ATOM     10  O   UNL     1      55.150  30.342  52.926  1.00  0.00    -0.550 OA
ENDBRANCH   7   8
ENDBRANCH   6   7
ENDBRANCH   5   6
ENDBRANCH   4   5
ENDBRANCH   3   4
ENDBRANCH   2   3
ENDBRANCH   1   2
BRANCH   1  11
ATOM     11  C   UNL     1      57.432  27.585  51.755  1.00  0.00     0.000 C 
BRANCH  11  12
ATOM     12  C   UNL     1      57.235  28.410  50.478  1.00  0.00     0.000 C 
BRANCH  12  13
ATOM     13  C   UNL     1      58.581  28.738  49.821  1.00  0.00     0.000 C 
BRANCH  13  14
ATOM     14  C   UNL     1      59.740  28.075  50.576  1.00  0.00     0.000 C 
BRANCH  14  15
ATOM     15  C   UNL     1      60.455  27.044  49.689  1.00  0.00     0.000 C 
BRANCH  15  16
ATOM     16  C   UNL     1      59.973  25.607  49.945  1.00  0.00     0.006 C 
BRANCH  16  17
ATOM     17  C   UNL     1      60.795  24.893  51.025  1.00  0.00     0.053 C 
BRANCH  17  18
ATOM     18  C   UNL     1      61.271  23.565  50.526  1.00  0.00     0.041 C 
ATOM     19  O   UNL     1      62.502  23.357  50.356  1.00  0.00    -0.550 OA
ATOM     20  O   UNL     1      60.354  22.574  50.201  1.00  0.00    -0.550 OA
ENDBRANCH  17  18
ENDBRANCH  16  17
ENDBRANCH  15  16
ENDBRANCH  14  15
ENDBRANCH  13  14
ENDBRANCH  12  13
ENDBRANCH  11  12
ENDBRANCH   1  11
TORSDOF 15
ENDMDL
MODEL 2
REMARK VINA RESULT:    -3.350      2.425      6.323
REMARK INTER + INTRA:          -8.477
REMARK INTER:                  -6.365
REMARK INTRA:                  -2.112
REMARK UNBOUND:                -2.188
REMARK SMILES O=C([O-])CCCCCCCCCCCCCCC(=O)[O-]
REMARK SMILES IDX 10 1 9 2 8 3 7 4 6 5 5 6 4 7 2 8 1 9 3 10 11 11 12 12 13 13
REMARK SMILES IDX 14 14 15 15 16 16 17 17 18 18 19 19 20 20
REMARK H PARENT
REMARK Flexibility Score: inf
ROOT
ATOM      1  C   UNL     1      56.830  25.309  50.354  1.00  0.00     0.000 C 
ENDROOT
BRANCH   1   2
ATOM      2  C   UNL     1      57.857  24.863  51.407  1.00  0.00     0.000 C 
BRANCH   2   3
ATOM      3  C   UNL     1      59.299  25.223  51.017  1.00  0.00     0.000 C 
BRANCH   3   4
ATOM      4  C   UNL     1      59.329  26.037  49.718  1.00  0.00     0.000 C 
BRANCH   4   5
ATOM      5  C   UNL     1      59.971  27.414  49.947  1.00  0.00     0.000 C 
BRANCH   5   6
ATOM      6  C   UNL     1      59.031  28.579  49.587  1.00  0.00     0.006 C 
BRANCH   6   7
ATOM      7  C   UNL     1      57.779  28.679  50.472  1.00  0.00     0.053 C 
BRANCH   7   8
ATOM      8  C   UNL     1      58.124  28.944  51.906  1.00  0.00     0.041 C 
ATOM      9  O   UNL     1      58.593  30.061  52.248  1.00  0.00    -0.550 OA
ATOM     10  O   UNL     1      57.896  27.969  52.868  1.00  0.00    -0.550 OA
ENDBRANCH   7   8
ENDBRANCH   6   7
ENDBRANCH   5   6
ENDBRANCH   4   5
ENDBRANCH   3   4
ENDBRANCH   2   3
ENDBRANCH   1   2
BRANCH   1  11
ATOM     11  C   UNL     1      55.443  25.579  50.957  1.00  0.00     0.000 C 
BRANCH  11  12
ATOM     12  C   UNL     1      54.342  24.914  50.123  1.00  0.00     0.000 C 
BRANCH  12  13
ATOM     13  C   UNL     1      53.338  25.951  49.607  1.00  0.00     0.000 C 
BRANCH  13  14
ATOM     14  C   UNL     1      52.973  26.959  50.704  1.00  0.00     0.000 C 
BRANCH  14  15
ATOM     15  C   UNL     1      52.955  28.392  50.150  1.00  0.00     0.000 C 
BRANCH  15  16
ATOM     16  C   UNL     1      54.053  29.277  50.762  1.00  0.00     0.006 C 
BRANCH  16  17
ATOM     17  C   UNL     1      54.415  28.863  52.194  1.00  0.00     0.053 C 
BRANCH  17  18
ATOM     18  C   UNL     1      54.695  30.071  53.031  1.00  0.00     0.041 C 
ATOM     19  O   UNL     1      54.253  31.199  52.684  1.00  0.00    -0.550 OA
ATOM     20  O   UNL     1      55.487  29.963  54.168  1.00  0.00    -0.550 OA
ENDBRANCH  17  18
ENDBRANCH  16  17
ENDBRANCH  15  16
ENDBRANCH  14  15
ENDBRANCH  13  14
ENDBRANCH  12  13
ENDBRANCH  11  12
ENDBRANCH   1  11
TORSDOF 15
ENDMDL
MODEL 3
REMARK VINA RESULT:    -3.306      3.807      8.445
REMARK INTER + INTRA:          -8.394
REMARK INTER:                  -7.577
REMARK INTRA:                  -0.816
REMARK UNBOUND:                -2.188
REMARK SMILES O=C([O-])CCCCCCCCCCCCCCC(=O)[O-]
REMARK SMILES IDX 10 1 9 2 8 3 7 4 6 5 5 6 4 7 2 8 1 9 3 10 11 11 12 12 13 13
REMARK SMILES IDX 14 14 15 15 16 16 17 17 18 18 19 19 20 20
REMARK H PARENT
REMARK Flexibility Score: inf
ROOT
ATOM      1  C   UNL     1      60.524  24.928  50.328  1.00  0.00     0.000 C 
ENDROOT
BRANCH   1   2
ATOM      2  C   UNL     1      60.009  23.509  50.617  1.00  0.00     0.000 C 
BRANCH   2   3
ATOM      3  C   UNL     1      61.060  22.427  50.326  1.00  0.00     0.000 C 
BRANCH   3   4
ATOM      4  C   UNL     1      60.398  21.144  49.811  1.00  0.00     0.000 C 
BRANCH   4   5
ATOM      5  C   UNL     1      60.078  20.187  50.969  1.00  0.00     0.000 C 
BRANCH   5   6
ATOM      6  C   UNL     1      60.099  18.707  50.544  1.00  0.00     0.006 C 
BRANCH   6   7
ATOM      7  C   UNL     1      58.800  18.220  49.883  1.00  0.00     0.053 C 
BRANCH   7   8
ATOM      8  C   UNL     1      58.867  16.770  49.512  1.00  0.00     0.041 C 
ATOM      9  O   UNL     1      59.512  15.962  50.230  1.00  0.00    -0.550 OA
ATOM     10  O   UNL     1      58.190  16.305  48.392  1.00  0.00    -0.550 OA
ENDBRANCH   7   8
ENDBRANCH   6   7
ENDBRANCH   5   6
ENDBRANCH   4   5
ENDBRANCH   3   4
ENDBRANCH   2   3
ENDBRANCH   1   2
BRANCH   1  11
ATOM     11  C   UNL     1      59.410  25.879  49.863  1.00  0.00     0.000 C 
BRANCH  11  12
ATOM     12  C   UNL     1      59.970  27.275  49.566  1.00  0.00     0.000 C 
BRANCH  12  13
ATOM     13  C   UNL     1      58.846  28.315  49.487  1.00  0.00     0.000 C 
BRANCH  13  14
ATOM     14  C   UNL     1      58.059  28.377  50.802  1.00  0.00     0.000 C 
BRANCH  14  15
ATOM     15  C   UNL     1      56.555  28.189  50.552  1.00  0.00     0.000 C 
BRANCH  15  16
ATOM     16  C   UNL     1      55.989  26.945  51.253  1.00  0.00     0.006 C 
BRANCH  16  17
ATOM     17  C   UNL     1      55.681  25.803  50.276  1.00  0.00     0.053 C 
BRANCH  17  18
ATOM     18  C   UNL     1      54.307  25.265  50.518  1.00  0.00     0.041 C 
ATOM     19  O   UNL     1      53.737  25.457  51.624  1.00  0.00    -0.550 OA
ATOM     20  O   UNL     1      53.673  24.508  49.540  1.00  0.00    -0.550 OA
ENDBRANCH  17  18
ENDBRANCH  16  17
ENDBRANCH  15  16
ENDBRANCH  14  15
ENDBRANCH  13  14
ENDBRANCH  12  13
ENDBRANCH  11  12
ENDBRANCH   1  11
TORSDOF 15
ENDMDL
MODEL 4
REMARK VINA RESULT:    -3.206      1.544      2.076
REMARK INTER + INTRA:          -8.206
REMARK INTER:                  -6.161
REMARK INTRA:                  -2.045
REMARK UNBOUND:                -2.188
REMARK SMILES O=C([O-])CCCCCCCCCCCCCCC(=O)[O-]
REMARK SMILES IDX 10 1 9 2 8 3 7 4 6 5 5 6 4 7 2 8 1 9 3 10 11 11 12 12 13 13
REMARK SMILES IDX 14 14 15 15 16 16 17 17 18 18 19 19 20 20
REMARK H PARENT
REMARK Flexibility Score: inf
ROOT
ATOM      1  C   UNL     1      56.424  26.206  52.078  1.00  0.00     0.000 C 
ENDROOT
BRANCH   1   2
ATOM      2  C   UNL     1      56.396  25.713  50.623  1.00  0.00     0.000 C 
BRANCH   2   3
ATOM      3  C   UNL     1      54.979  25.357  50.146  1.00  0.00     0.000 C 
BRANCH   3   4
ATOM      4  C   UNL     1      53.932  26.252  50.820  1.00  0.00     0.000 C 
BRANCH   4   5
ATOM      5  C   UNL     1      53.583  27.455  49.931  1.00  0.00     0.000 C 
BRANCH   5   6
ATOM      6  C   UNL     1      53.246  28.720  50.743  1.00  0.00     0.006 C 
BRANCH   6   7
ATOM      7  C   UNL     1      53.562  28.612  52.242  1.00  0.00     0.053 C 
BRANCH   7   8
ATOM      8  C   UNL     1      54.152  29.878  52.785  1.00  0.00     0.041 C 
ATOM      9  O   UNL     1      53.891  30.982  52.239  1.00  0.00    -0.550 OA
ATOM     10  O   UNL     1      54.960  29.842  53.914  1.00  0.00    -0.550 OA
ENDBRANCH   7   8
ENDBRANCH   6   7
ENDBRANCH   5   6
ENDBRANCH   4   5
ENDBRANCH   3   4
ENDBRANCH   2   3
ENDBRANCH   1   2
BRANCH   1  11
ATOM     11  C   UNL     1      57.126  27.565  52.229  1.00  0.00     0.000 C 
BRANCH  11  12
ATOM     12  C   UNL     1      57.102  28.344  50.909  1.00  0.00     0.000 C 
BRANCH  12  13
ATOM     13  C   UNL     1      58.509  28.816  50.523  1.00  0.00     0.000 C 
BRANCH  13  14
ATOM     14  C   UNL     1      59.020  28.073  49.282  1.00  0.00     0.000 C 
BRANCH  14  15
ATOM     15  C   UNL     1      59.732  26.771  49.676  1.00  0.00     0.000 C 
BRANCH  15  16
ATOM     16  C   UNL     1      60.920  27.009  50.622  1.00  0.00     0.006 C 
BRANCH  16  17
ATOM     17  C   UNL     1      62.112  27.669  49.919  1.00  0.00     0.053 C 
BRANCH  17  18
ATOM     18  C   UNL     1      63.108  26.635  49.496  1.00  0.00     0.041 C 
ATOM     19  O   UNL     1      63.111  25.500  50.041  1.00  0.00    -0.550 OA
ATOM     20  O   UNL     1      64.064  26.941  48.535  1.00  0.00    -0.550 OA
ENDBRANCH  17  18
ENDBRANCH  16  17
ENDBRANCH  15  16
ENDBRANCH  14  15
ENDBRANCH  13  14
ENDBRANCH  12  13
ENDBRANCH  11  12
ENDBRANCH   1  11
TORSDOF 15
ENDMDL
MODEL 5
REMARK VINA RESULT:    -3.202     11.151     13.652
REMARK INTER + INTRA:          -8.198
REMARK INTER:                  -6.493
REMARK INTRA:                  -1.705
REMARK UNBOUND:                -2.188
REMARK SMILES O=C([O-])CCCCCCCCCCCCCCC(=O)[O-]
REMARK SMILES IDX 10 1 9 2 8 3 7 4 6 5 5 6 4 7 2 8 1 9 3 10 11 11 12 12 13 13
REMARK SMILES IDX 14 14 15 15 16 16 17 17 18 18 19 19 20 20
REMARK H PARENT
REMARK Flexibility Score: inf
ROOT
ATOM      1  C   UNL     1      63.210  32.010  60.162  1.00  0.00     0.000 C 
ENDROOT
BRANCH   1   2
ATOM      2  C   UNL     1      61.842  32.019  60.863  1.00  0.00     0.000 C 
BRANCH   2   3
ATOM      3  C   UNL     1      61.373  30.613  61.265  1.00  0.00     0.000 C 
BRANCH   3   4
ATOM      4  C   UNL     1      62.544  29.773  61.789  1.00  0.00     0.000 C 
BRANCH   4   5
ATOM      5  C   UNL     1      62.415  28.310  61.338  1.00  0.00     0.000 C 
BRANCH   5   6
ATOM      6  C   UNL     1      63.741  27.727  60.814  1.00  0.00     0.006 C 
BRANCH   6   7
ATOM      7  C   UNL     1      64.397  28.553  59.696  1.00  0.00     0.053 C 
BRANCH   7   8
ATOM      8  C   UNL     1      65.703  29.147  60.129  1.00  0.00     0.041 C 
ATOM      9  O   UNL     1      66.313  28.678  61.126  1.00  0.00    -0.550 OA
ATOM     10  O   UNL     1      66.263  30.196  59.410  1.00  0.00    -0.550 OA
ENDBRANCH   7   8
ENDBRANCH   6   7
ENDBRANCH   5   6
ENDBRANCH   4   5
ENDBRANCH   3   4
ENDBRANCH   2   3
ENDBRANCH   1   2
BRANCH   1  11
ATOM     11  C   UNL     1      64.251  32.882  60.883  1.00  0.00     0.000 C 
BRANCH  11  12
ATOM     12  C   UNL     1      64.285  34.296  60.291  1.00  0.00     0.000 C 
BRANCH  12  13
ATOM     13  C   UNL     1      64.057  35.353  61.377  1.00  0.00     0.000 C 
BRANCH  13  14
ATOM     14  C   UNL     1      62.624  35.896  61.327  1.00  0.00     0.000 C 
BRANCH  14  15
ATOM     15  C   UNL     1      61.990  35.647  59.950  1.00  0.00     0.000 C 
BRANCH  15  16
ATOM     16  C   UNL     1      60.488  35.975  59.922  1.00  0.00     0.006 C 
BRANCH  16  17
ATOM     17  C   UNL     1      59.615  34.783  60.333  1.00  0.00     0.053 C 
BRANCH  17  18
ATOM     18  C   UNL     1      58.958  34.178  59.133  1.00  0.00     0.041 C 
ATOM     19  O   UNL     1      57.744  34.408  58.892  1.00  0.00    -0.550 OA
ATOM     20  O   UNL     1      59.673  33.320  58.306  1.00  0.00    -0.550 OA
ENDBRANCH  17  18
ENDBRANCH  16  17
ENDBRANCH  15  16
ENDBRANCH  14  15
ENDBRANCH  13  14
ENDBRANCH  12  13
ENDBRANCH  11  12
ENDBRANCH   1  11
TORSDOF 15
ENDMDL
MODEL 6
REMARK VINA RESULT:    -3.160      2.246      6.630
REMARK INTER + INTRA:          -8.118
REMARK INTER:                  -5.923
REMARK INTRA:                  -2.195
REMARK UNBOUND:                -2.188
REMARK SMILES O=C([O-])CCCCCCCCCCCCCCC(=O)[O-]
REMARK SMILES IDX 10 1 9 2 8 3 7 4 6 5 5 6 4 7 2 8 1 9 3 10 11 11 12 12 13 13
REMARK SMILES IDX 14 14 15 15 16 16 17 17 18 18 19 19 20 20
REMARK H PARENT
REMARK Flexibility Score: inf
ROOT
ATOM      1  C   UNL     1      56.493  25.624  50.387  1.00  0.00     0.000 C 
ENDROOT
BRANCH   1   2
ATOM      2  C   UNL     1      56.792  26.289  51.740  1.00  0.00     0.000 C 
BRANCH   2   3
ATOM      3  C   UNL     1      57.836  27.412  51.630  1.00  0.00     0.000 C 
BRANCH   3   4
ATOM      4  C   UNL     1      57.582  28.277  50.390  1.00  0.00     0.000 C 
BRANCH   4   5
ATOM      5  C   UNL     1      58.867  28.446  49.565  1.00  0.00     0.000 C 
BRANCH   5   6
ATOM      6  C   UNL     1      59.734  27.174  49.544  1.00  0.00     0.006 C 
BRANCH   6   7
ATOM      7  C   UNL     1      61.236  27.429  49.744  1.00  0.00     0.053 C 
BRANCH   7   8
ATOM      8  C   UNL     1      61.495  28.456  50.804  1.00  0.00     0.041 C 
ATOM      9  O   UNL     1      61.926  29.596  50.488  1.00  0.00    -0.550 OA
ATOM     10  O   UNL     1      61.227  28.166  52.135  1.00  0.00    -0.550 OA
ENDBRANCH   7   8
ENDBRANCH   6   7
ENDBRANCH   5   6
ENDBRANCH   4   5
ENDBRANCH   3   4
ENDBRANCH   2   3
ENDBRANCH   1   2
BRANCH   1  11
ATOM     11  C   UNL     1      54.988  25.533  50.092  1.00  0.00     0.000 C 
BRANCH  11  12
ATOM     12  C   UNL     1      54.165  25.763  51.365  1.00  0.00     0.000 C 
BRANCH  12  13
ATOM     13  C   UNL     1      53.161  26.906  51.173  1.00  0.00     0.000 C 
BRANCH  13  14
ATOM     14  C   UNL     1      53.637  27.881  50.089  1.00  0.00     0.000 C 
BRANCH  14  15
ATOM     15  C   UNL     1      54.087  29.213  50.708  1.00  0.00     0.000 C 
BRANCH  15  16
ATOM     16  C   UNL     1      53.622  29.377  52.164  1.00  0.00     0.006 C 
BRANCH  16  17
ATOM     17  C   UNL     1      54.419  30.444  52.923  1.00  0.00     0.053 C 
BRANCH  17  18
ATOM     18  C   UNL     1      55.698  29.868  53.444  1.00  0.00     0.041 C 
ATOM     19  O   UNL     1      55.694  28.765  54.051  1.00  0.00    -0.550 OA
ATOM     20  O   UNL     1      56.887  30.573  53.305  1.00  0.00    -0.550 OA
ENDBRANCH  17  18
ENDBRANCH  16  17
ENDBRANCH  15  16
ENDBRANCH  14  15
ENDBRANCH  13  14
ENDBRANCH  12  13
ENDBRANCH  11  12
ENDBRANCH   1  11
TORSDOF 15
ENDMDL
MODEL 7
REMARK VINA RESULT:    -3.156     11.229     13.419
REMARK INTER + INTRA:          -8.112
REMARK INTER:                  -5.945
REMARK INTRA:                  -2.167
REMARK UNBOUND:                -2.188
REMARK SMILES O=C([O-])CCCCCCCCCCCCCCC(=O)[O-]
REMARK SMILES IDX 10 1 9 2 8 3 7 4 6 5 5 6 4 7 2 8 1 9 3 10 11 11 12 12 13 13
REMARK SMILES IDX 14 14 15 15 16 16 17 17 18 18 19 19 20 20
REMARK H PARENT
REMARK Flexibility Score: inf
ROOT
ATOM      1  C   UNL     1      64.443  30.561  60.359  1.00  0.00     0.000 C 
ENDROOT
BRANCH   1   2
ATOM      2  C   UNL     1      65.685  29.678  60.162  1.00  0.00     0.000 C 
BRANCH   2   3
ATOM      3  C   UNL     1      65.436  28.212  60.549  1.00  0.00     0.000 C 
BRANCH   3   4
ATOM      4  C   UNL     1      64.777  27.445  59.396  1.00  0.00     0.000 C 
BRANCH   4   5
ATOM      5  C   UNL     1      63.392  26.920  59.805  1.00  0.00     0.000 C 
BRANCH   5   6
ATOM      6  C   UNL     1      63.354  26.400  61.254  1.00  0.00     0.006 C 
BRANCH   6   7
ATOM      7  C   UNL     1      61.947  26.344  61.869  1.00  0.00     0.053 C 
BRANCH   7   8
ATOM      8  C   UNL     1      61.837  25.284  62.923  1.00  0.00     0.041 C 
ATOM      9  O   UNL     1      62.799  24.501  63.136  1.00  0.00    -0.550 OA
ATOM     10  O   UNL     1      60.685  25.185  63.692  1.00  0.00    -0.550 OA
ENDBRANCH   7   8
ENDBRANCH   6   7
ENDBRANCH   5   6
ENDBRANCH   4   5
ENDBRANCH   3   4
ENDBRANCH   2   3
ENDBRANCH   1   2
BRANCH   1  11
ATOM     11  C   UNL     1      63.632  30.174  61.605  1.00  0.00     0.000 C 
BRANCH  11  12
ATOM     12  C   UNL     1      62.126  30.242  61.323  1.00  0.00     0.000 C 
BRANCH  12  13
ATOM     13  C   UNL     1      61.846  30.203  59.816  1.00  0.00     0.000 C 
BRANCH  13  14
ATOM     14  C   UNL     1      61.067  31.446  59.368  1.00  0.00     0.000 C 
BRANCH  14  15
ATOM     15  C   UNL     1      60.749  32.356  60.564  1.00  0.00     0.000 C 
BRANCH  15  16
ATOM     16  C   UNL     1      61.215  33.805  60.347  1.00  0.00     0.006 C 
BRANCH  16  17
ATOM     17  C   UNL     1      62.688  33.895  59.927  1.00  0.00     0.053 C 
BRANCH  17  18
ATOM     18  C   UNL     1      63.503  34.520  61.014  1.00  0.00     0.041 C 
ATOM     19  O   UNL     1      64.498  33.911  61.489  1.00  0.00    -0.550 OA
ATOM     20  O   UNL     1      63.136  35.753  61.538  1.00  0.00    -0.550 OA
ENDBRANCH  17  18
ENDBRANCH  16  17
ENDBRANCH  15  16
ENDBRANCH  14  15
ENDBRANCH  13  14
ENDBRANCH  12  13
ENDBRANCH  11  12
ENDBRANCH   1  11
TORSDOF 15
ENDMDL
MODEL 8
REMARK VINA RESULT:    -3.148      1.342      2.107
REMARK INTER + INTRA:          -8.097
REMARK INTER:                  -5.720
REMARK INTRA:                  -2.377
REMARK UNBOUND:                -2.188
REMARK SMILES O=C([O-])CCCCCCCCCCCCCCC(=O)[O-]
REMARK SMILES IDX 10 1 9 2 8 3 7 4 6 5 5 6 4 7 2 8 1 9 3 10 11 11 12 12 13 13
REMARK SMILES IDX 14 14 15 15 16 16 17 17 18 18 19 19 20 20
REMARK H PARENT
REMARK Flexibility Score: inf
ROOT
ATOM      1  C   UNL     1      58.081  27.912  52.655  1.00  0.00     0.000 C 
ENDROOT
BRANCH   1   2
ATOM      2  C   UNL     1      56.636  27.416  52.490  1.00  0.00     0.000 C 
BRANCH   2   3
ATOM      3  C   UNL     1      56.516  25.889  52.612  1.00  0.00     0.000 C 
BRANCH   3   4
ATOM      4  C   UNL     1      55.928  25.282  51.333  1.00  0.00     0.000 C 
BRANCH   4   5
ATOM      5  C   UNL     1      55.410  26.378  50.390  1.00  0.00     0.000 C 
BRANCH   5   6
ATOM      6  C   UNL     1      53.882  26.332  50.202  1.00  0.00     0.006 C 
BRANCH   6   7
ATOM      7  C   UNL     1      53.222  27.710  50.042  1.00  0.00     0.053 C 
BRANCH   7   8
ATOM      8  C   UNL     1      53.391  28.560  51.265  1.00  0.00     0.041 C 
ATOM      9  O   UNL     1      53.023  28.130  52.390  1.00  0.00    -0.550 OA
ATOM     10  O   UNL     1      53.987  29.810  51.166  1.00  0.00    -0.550 OA
ENDBRANCH   7   8
ENDBRANCH   6   7
ENDBRANCH   5   6
ENDBRANCH   4   5
ENDBRANCH   3   4
ENDBRANCH   2   3
ENDBRANCH   1   2
BRANCH   1  11
ATOM     11  C   UNL     1      58.453  29.003  51.639  1.00  0.00     0.000 C 
BRANCH  11  12
ATOM     12  C   UNL     1      58.035  28.597  50.220  1.00  0.00     0.000 C 
BRANCH  12  13
ATOM     13  C   UNL     1      59.256  28.469  49.302  1.00  0.00     0.000 C 
BRANCH  13  14
ATOM     14  C   UNL     1      60.078  27.221  49.649  1.00  0.00     0.000 C 
BRANCH  14  15
ATOM     15  C   UNL     1      59.193  25.966  49.661  1.00  0.00     0.000 C 
BRANCH  15  16
ATOM     16  C   UNL     1      59.597  24.967  50.758  1.00  0.00     0.006 C 
BRANCH  16  17
ATOM     17  C   UNL     1      60.733  25.490  51.645  1.00  0.00     0.053 C 
BRANCH  17  18
ATOM     18  C   UNL     1      61.910  24.569  51.583  1.00  0.00     0.041 C 
ATOM     19  O   UNL     1      62.735  24.531  52.534  1.00  0.00    -0.550 OA
ATOM     20  O   UNL     1      62.124  23.787  50.455  1.00  0.00    -0.550 OA
ENDBRANCH  17  18
ENDBRANCH  16  17
ENDBRANCH  15  16
ENDBRANCH  14  15
ENDBRANCH  13  14
ENDBRANCH  12  13
ENDBRANCH  11  12
ENDBRANCH   1  11
TORSDOF 15
ENDMDL
MODEL 9
REMARK VINA RESULT:    -3.142      1.675      7.127
REMARK INTER + INTRA:          -8.085
REMARK INTER:                  -5.852
REMARK INTRA:                  -2.234
REMARK UNBOUND:                -2.188
REMARK SMILES O=C([O-])CCCCCCCCCCCCCCC(=O)[O-]
REMARK SMILES IDX 10 1 9 2 8 3 7 4 6 5 5 6 4 7 2 8 1 9 3 10 11 11 12 12 13 13
REMARK SMILES IDX 14 14 15 15 16 16 17 17 18 18 19 19 20 20
REMARK H PARENT
REMARK Flexibility Score: inf
ROOT
ATOM      1  C   UNL     1      56.894  27.288  52.589  1.00  0.00     0.000 C 
ENDROOT
BRANCH   1   2
ATOM      2  C   UNL     1      57.448  28.455  51.756  1.00  0.00     0.000 C 
BRANCH   2   3
ATOM      3  C   UNL     1      57.671  28.078  50.284  1.00  0.00     0.000 C 
BRANCH   3   4
ATOM      4  C   UNL     1      59.042  28.559  49.795  1.00  0.00     0.000 C 
BRANCH   4   5
ATOM      5  C   UNL     1      59.976  27.371  49.521  1.00  0.00     0.000 C 
BRANCH   5   6
ATOM      6  C   UNL     1      59.277  26.009  49.693  1.00  0.00     0.006 C 
BRANCH   6   7
ATOM      7  C   UNL     1      60.102  24.967  50.464  1.00  0.00     0.053 C 
BRANCH   7   8
ATOM      8  C   UNL     1      59.741  24.928  51.918  1.00  0.00     0.041 C 
ATOM      9  O   UNL     1      60.139  25.837  52.693  1.00  0.00    -0.550 OA
ATOM     10  O   UNL     1      58.936  23.908  52.408  1.00  0.00    -0.550 OA
ENDBRANCH   7   8
ENDBRANCH   6   7
ENDBRANCH   5   6
ENDBRANCH   4   5
ENDBRANCH   3   4
ENDBRANCH   2   3
ENDBRANCH   1   2
BRANCH   1  11
ATOM     11  C   UNL     1      56.206  26.219  51.727  1.00  0.00     0.000 C 
BRANCH  11  12
ATOM     12  C   UNL     1      54.691  26.448  51.675  1.00  0.00     0.000 C 
BRANCH  12  13
ATOM     13  C   UNL     1      54.225  26.729  50.241  1.00  0.00     0.000 C 
BRANCH  13  14
ATOM     14  C   UNL     1      53.339  27.979  50.184  1.00  0.00     0.000 C 
BRANCH  14  15
ATOM     15  C   UNL     1      54.123  29.229  50.612  1.00  0.00     0.000 C 
BRANCH  15  16
ATOM     16  C   UNL     1      53.449  29.983  51.770  1.00  0.00     0.006 C 
BRANCH  16  17
ATOM     17  C   UNL     1      54.288  29.966  53.054  1.00  0.00     0.053 C 
BRANCH  17  18
ATOM     18  C   UNL     1      54.364  31.338  53.645  1.00  0.00     0.041 C 
ATOM     19  O   UNL     1      54.592  32.334  52.909  1.00  0.00    -0.550 OA
ATOM     20  O   UNL     1      54.231  31.513  55.017  1.00  0.00    -0.550 OA
ENDBRANCH  17  18
ENDBRANCH  16  17
ENDBRANCH  15  16
ENDBRANCH  14  15
ENDBRANCH  13  14
ENDBRANCH  12  13
ENDBRANCH  11  12
ENDBRANCH   1  11
TORSDOF 15
ENDMDL
