MODEL 1
REMARK VINA RESULT:    -6.498      0.000      0.000
REMARK INTER + INTRA:          -6.688
REMARK INTER:                  -6.688
REMARK INTRA:                   0.000
REMARK UNBOUND:                 0.000
REMARK SMILES CC1(C)CC[C@]2(C)CC[C@@]3(C)C(=CC[C@@H]4[C@@]5(C)CC[C@H](O)C(C)(C)[C@H]5CC[C@@]43C)[C@@H]2C1
REMARK SMILES IDX 1 1 2 2 4 3 5 4 6 5 8 6 9 7 10 8 12 9 13 10 14 11 15 12
REMARK SMILES IDX 28 13 27 14 26 15 25 16 16 17 18 18 19 19 20 20 22 21 23 22
REMARK SMILES IDX 24 23 17 24 29 25 30 26 31 27 11 28 7 29 3 30 21 31
REMARK H PARENT 21 32
REMARK Flexibility Score: inf
ROOT
ATOM      1  C   UNL     1      17.613 -14.921  16.246  1.00  0.00     0.011 C 
ATOM      2  C   UNL     1      18.218 -15.126  17.654  1.00  0.00    -0.035 C 
ATOM      3  C   UNL     1      18.334 -16.660  17.947  1.00  0.00     0.007 C 
ATOM      4  C   UNL     1      17.487 -17.123  19.147  1.00  0.00     0.008 C 
ATOM      5  C   UNL     1      17.804 -16.310  20.438  1.00  0.00    -0.026 C 
ATOM      6  C   UNL     1      16.834 -16.791  21.555  1.00  0.00     0.008 C 
ATOM      7  C   UNL     1      16.896 -15.950  22.858  1.00  0.00     0.012 C 
ATOM      8  C   UNL     1      16.917 -14.376  22.678  1.00  0.00    -0.006 C 
ATOM      9  C   UNL     1      16.630 -14.121  21.196  1.00  0.00    -0.064 C 
ATOM     10  C   UNL     1      15.423 -13.678  20.804  1.00  0.00    -0.027 C 
ATOM     11  C   UNL     1      14.289 -13.351  21.709  1.00  0.00     0.032 C 
ATOM     12  C   UNL     1      14.396 -13.793  23.206  1.00  0.00     0.006 C 
ATOM     13  C   UNL     1      15.889 -13.645  23.701  1.00  0.00    -0.020 C 
ATOM     14  C   UNL     1      16.158 -12.113  23.799  1.00  0.00     0.008 C 
ATOM     15  C   UNL     1      15.142 -11.336  24.656  1.00  0.00     0.005 C 
ATOM     16  C   UNL     1      13.645 -11.492  24.245  1.00  0.00     0.003 C 
ATOM     17  C   UNL     1      13.263 -13.023  24.062  1.00  0.00    -0.025 C 
ATOM     18  C   UNL     1      13.022 -13.670  25.467  1.00  0.00     0.010 C 
ATOM     19  C   UNL     1      12.026 -12.910  26.358  1.00  0.00     0.033 C 
ATOM     20  C   UNL     1      12.456 -11.445  26.557  1.00  0.00     0.120 C 
ATOM     21  C   UNL     1      12.676 -10.670  25.217  1.00  0.00    -0.006 C 
ATOM     22  C   UNL     1      11.318 -10.352  24.519  1.00  0.00     0.014 C 
ATOM     23  C   UNL     1      13.288  -9.282  25.567  1.00  0.00     0.014 C 
ATOM     24  C   UNL     1      11.920 -13.189  23.270  1.00  0.00     0.012 C 
ATOM     25  C   UNL     1      16.112 -14.294  25.115  1.00  0.00     0.012 C 
ATOM     26  C   UNL     1      17.622 -14.751  20.175  1.00  0.00     0.022 C 
ATOM     27  C   UNL     1      17.289 -14.425  18.685  1.00  0.00     0.015 C 
ATOM     28  C   UNL     1      18.362 -13.836  22.956  1.00  0.00     0.017 C 
ATOM     29  C   UNL     1      19.257 -16.674  20.868  1.00  0.00     0.012 C 
ATOM     30  C   UNL     1      19.615 -14.463  17.659  1.00  0.00     0.011 C 
ENDROOT
BRANCH  20  31
ATOM     31  O   UNL     1      11.557 -10.771  27.409  1.00  0.00    -0.393 OA
ATOM     32  H   UNL     1      12.062 -10.441  28.196  1.00  0.00     0.210 HD
ENDBRANCH  20  31
TORSDOF 1
ENDMDL
MODEL 2
REMARK VINA RESULT:    -5.884     10.334     15.418
REMARK INTER + INTRA:          -6.056
REMARK INTER:                  -6.056
REMARK INTRA:                   0.000
REMARK UNBOUND:                 0.000
REMARK SMILES CC1(C)CC[C@]2(C)CC[C@@]3(C)C(=CC[C@@H]4[C@@]5(C)CC[C@H](O)C(C)(C)[C@H]5CC[C@@]43C)[C@@H]2C1
REMARK SMILES IDX 1 1 2 2 4 3 5 4 6 5 8 6 9 7 10 8 12 9 13 10 14 11 15 12
REMARK SMILES IDX 28 13 27 14 26 15 25 16 16 17 18 18 19 19 20 20 22 21 23 22
REMARK SMILES IDX 24 23 17 24 29 25 30 26 31 27 11 28 7 29 3 30 21 31
REMARK H PARENT 21 32
REMARK Flexibility Score: inf
ROOT
ATOM      1  C   UNL     1      21.123   1.595  33.025  1.00  0.00     0.011 C 
ATOM      2  C   UNL     1      20.063   1.775  31.913  1.00  0.00    -0.035 C 
ATOM      3  C   UNL     1      18.639   1.821  32.562  1.00  0.00     0.007 C 
ATOM      4  C   UNL     1      17.718   0.673  32.109  1.00  0.00     0.008 C 
ATOM      5  C   UNL     1      17.594   0.598  30.558  1.00  0.00    -0.026 C 
ATOM      6  C   UNL     1      16.725  -0.644  30.208  1.00  0.00     0.008 C 
ATOM      7  C   UNL     1      16.656  -0.967  28.691  1.00  0.00     0.012 C 
ATOM      8  C   UNL     1      18.027  -0.915  27.899  1.00  0.00    -0.006 C 
ATOM      9  C   UNL     1      19.119  -0.770  28.963  1.00  0.00    -0.064 C 
ATOM     10  C   UNL     1      19.890  -1.821  29.292  1.00  0.00    -0.027 C 
ATOM     11  C   UNL     1      19.822  -3.170  28.670  1.00  0.00     0.032 C 
ATOM     12  C   UNL     1      18.598  -3.489  27.748  1.00  0.00     0.006 C 
ATOM     13  C   UNL     1      18.201  -2.202  26.924  1.00  0.00    -0.020 C 
ATOM     14  C   UNL     1      19.341  -1.991  25.882  1.00  0.00     0.008 C 
ATOM     15  C   UNL     1      19.645  -3.219  25.004  1.00  0.00     0.005 C 
ATOM     16  C   UNL     1      19.989  -4.535  25.769  1.00  0.00     0.003 C 
ATOM     17  C   UNL     1      18.915  -4.829  26.902  1.00  0.00    -0.025 C 
ATOM     18  C   UNL     1      17.634  -5.453  26.255  1.00  0.00     0.010 C 
ATOM     19  C   UNL     1      17.900  -6.672  25.356  1.00  0.00     0.033 C 
ATOM     20  C   UNL     1      18.904  -6.335  24.238  1.00  0.00     0.120 C 
ATOM     21  C   UNL     1      20.255  -5.751  24.765  1.00  0.00    -0.006 C 
ATOM     22  C   UNL     1      21.123  -6.857  25.441  1.00  0.00     0.014 C 
ATOM     23  C   UNL     1      21.082  -5.281  23.532  1.00  0.00     0.014 C 
ATOM     24  C   UNL     1      19.442  -5.888  27.932  1.00  0.00     0.012 C 
ATOM     25  C   UNL     1      16.839  -2.383  26.159  1.00  0.00     0.012 C 
ATOM     26  C   UNL     1      19.032   0.479  29.886  1.00  0.00     0.022 C 
ATOM     27  C   UNL     1      20.193   0.582  30.925  1.00  0.00     0.015 C 
ATOM     28  C   UNL     1      18.078   0.383  27.023  1.00  0.00     0.017 C 
ATOM     29  C   UNL     1      16.825   1.872  30.093  1.00  0.00     0.012 C 
ATOM     30  C   UNL     1      20.376   3.104  31.187  1.00  0.00     0.011 C 
ENDROOT
BRANCH  20  31
ATOM     31  O   UNL     1      19.108  -7.448  23.397  1.00  0.00    -0.393 OA
ATOM     32  H   UNL     1      18.410  -8.123  23.600  1.00  0.00     0.210 HD
ENDBRANCH  20  31
TORSDOF 1
ENDMDL
MODEL 3
REMARK VINA RESULT:    -5.723      4.484      7.421
REMARK INTER + INTRA:          -5.890
REMARK INTER:                  -5.890
REMARK INTRA:                   0.000
REMARK UNBOUND:                 0.000
REMARK SMILES CC1(C)CC[C@]2(C)CC[C@@]3(C)C(=CC[C@@H]4[C@@]5(C)CC[C@H](O)C(C)(C)[C@H]5CC[C@@]43C)[C@@H]2C1
REMARK SMILES IDX 1 1 2 2 4 3 5 4 6 5 8 6 9 7 10 8 12 9 13 10 14 11 15 12
REMARK SMILES IDX 28 13 27 14 26 15 25 16 16 17 18 18 19 19 20 20 22 21 23 22
REMARK SMILES IDX 24 23 17 24 29 25 30 26 31 27 11 28 7 29 3 30 21 31
REMARK H PARENT 21 32
REMARK Flexibility Score: inf
ROOT
ATOM      1  C   UNL     1      17.960  -4.070  24.815  1.00  0.00     0.011 C 
ATOM      2  C   UNL     1      18.984  -5.135  24.357  1.00  0.00    -0.035 C 
ATOM      3  C   UNL     1      19.361  -4.876  22.860  1.00  0.00     0.007 C 
ATOM      4  C   UNL     1      18.980  -6.034  21.919  1.00  0.00     0.008 C 
ATOM      5  C   UNL     1      19.576  -7.394  22.391  1.00  0.00    -0.026 C 
ATOM      6  C   UNL     1      19.055  -8.502  21.431  1.00  0.00     0.008 C 
ATOM      7  C   UNL     1      19.412  -9.947  21.873  1.00  0.00     0.012 C 
ATOM      8  C   UNL     1      19.194 -10.287  23.405  1.00  0.00    -0.006 C 
ATOM      9  C   UNL     1      18.442  -9.091  23.996  1.00  0.00    -0.064 C 
ATOM     10  C   UNL     1      17.130  -9.183  24.273  1.00  0.00    -0.027 C 
ATOM     11  C   UNL     1      16.295 -10.401  24.098  1.00  0.00     0.032 C 
ATOM     12  C   UNL     1      16.903 -11.595  23.290  1.00  0.00     0.006 C 
ATOM     13  C   UNL     1      18.447 -11.716  23.598  1.00  0.00    -0.020 C 
ATOM     14  C   UNL     1      18.553 -12.233  25.064  1.00  0.00     0.008 C 
ATOM     15  C   UNL     1      17.762 -13.524  25.349  1.00  0.00     0.005 C 
ATOM     16  C   UNL     1      16.240 -13.478  25.010  1.00  0.00     0.003 C 
ATOM     17  C   UNL     1      16.002 -12.912  23.545  1.00  0.00    -0.025 C 
ATOM     18  C   UNL     1      16.277 -14.044  22.499  1.00  0.00     0.010 C 
ATOM     19  C   UNL     1      15.517 -15.355  22.762  1.00  0.00     0.033 C 
ATOM     20  C   UNL     1      15.814 -15.902  24.171  1.00  0.00     0.120 C 
ATOM     21  C   UNL     1      15.524 -14.876  25.314  1.00  0.00    -0.006 C 
ATOM     22  C   UNL     1      13.991 -14.686  25.527  1.00  0.00     0.014 C 
ATOM     23  C   UNL     1      16.048 -15.489  26.646  1.00  0.00     0.014 C 
ATOM     24  C   UNL     1      14.511 -12.476  23.333  1.00  0.00     0.012 C 
ATOM     25  C   UNL     1      19.165 -12.739  22.643  1.00  0.00     0.012 C 
ATOM     26  C   UNL     1      19.143  -7.705  23.890  1.00  0.00     0.022 C 
ATOM     27  C   UNL     1      18.337  -6.536  24.540  1.00  0.00     0.015 C 
ATOM     28  C   UNL     1      20.582 -10.349  24.131  1.00  0.00     0.017 C 
ATOM     29  C   UNL     1      21.124  -7.301  22.228  1.00  0.00     0.012 C 
ATOM     30  C   UNL     1      20.229  -5.000  25.265  1.00  0.00     0.011 C 
ENDROOT
BRANCH  20  31
ATOM     31  O   UNL     1      15.144 -17.124  24.383  1.00  0.00    -0.393 OA
ATOM     32  H   UNL     1      14.177 -16.934  24.493  1.00  0.00     0.210 HD
ENDBRANCH  20  31
TORSDOF 1
ENDMDL
MODEL 4
REMARK VINA RESULT:    -5.562      3.665      5.099
REMARK INTER + INTRA:          -5.724
REMARK INTER:                  -5.724
REMARK INTRA:                   0.000
REMARK UNBOUND:                 0.000
REMARK SMILES CC1(C)CC[C@]2(C)CC[C@@]3(C)C(=CC[C@@H]4[C@@]5(C)CC[C@H](O)C(C)(C)[C@H]5CC[C@@]43C)[C@@H]2C1
REMARK SMILES IDX 1 1 2 2 4 3 5 4 6 5 8 6 9 7 10 8 12 9 13 10 14 11 15 12
REMARK SMILES IDX 28 13 27 14 26 15 25 16 16 17 18 18 19 19 20 20 22 21 23 22
REMARK SMILES IDX 24 23 17 24 29 25 30 26 31 27 11 28 7 29 3 30 21 31
REMARK H PARENT 21 32
REMARK Flexibility Score: inf
ROOT
ATOM      1  C   UNL     1      17.893 -14.968  15.875  1.00  0.00     0.011 C 
ATOM      2  C   UNL     1      17.418 -15.242  17.321  1.00  0.00    -0.035 C 
ATOM      3  C   UNL     1      15.873 -15.492  17.317  1.00  0.00     0.007 C 
ATOM      4  C   UNL     1      15.079 -14.455  18.132  1.00  0.00     0.008 C 
ATOM      5  C   UNL     1      15.595 -14.341  19.598  1.00  0.00    -0.026 C 
ATOM      6  C   UNL     1      14.793 -13.207  20.299  1.00  0.00     0.008 C 
ATOM      7  C   UNL     1      15.313 -12.842  21.716  1.00  0.00     0.012 C 
ATOM      8  C   UNL     1      16.882 -12.690  21.870  1.00  0.00    -0.006 C 
ATOM      9  C   UNL     1      17.448 -12.733  20.449  1.00  0.00    -0.064 C 
ATOM     10  C   UNL     1      17.871 -11.605  19.851  1.00  0.00    -0.027 C 
ATOM     11  C   UNL     1      17.889 -10.254  20.473  1.00  0.00     0.032 C 
ATOM     12  C   UNL     1      17.123 -10.061  21.824  1.00  0.00     0.006 C 
ATOM     13  C   UNL     1      17.272 -11.358  22.713  1.00  0.00    -0.020 C 
ATOM     14  C   UNL     1      18.756 -11.385  23.187  1.00  0.00     0.008 C 
ATOM     15  C   UNL     1      19.231 -10.097  23.886  1.00  0.00     0.005 C 
ATOM     16  C   UNL     1      19.055  -8.777  23.073  1.00  0.00     0.003 C 
ATOM     17  C   UNL     1      17.581  -8.662  22.490  1.00  0.00    -0.025 C 
ATOM     18  C   UNL     1      16.610  -8.184  23.621  1.00  0.00     0.010 C 
ATOM     19  C   UNL     1      17.061  -6.909  24.354  1.00  0.00     0.033 C 
ATOM     20  C   UNL     1      18.471  -7.075  24.952  1.00  0.00     0.120 C 
ATOM     21  C   UNL     1      19.549  -7.501  23.902  1.00  0.00    -0.006 C 
ATOM     22  C   UNL     1      19.909  -6.319  22.951  1.00  0.00     0.014 C 
ATOM     23  C   UNL     1      20.864  -7.817  24.675  1.00  0.00     0.014 C 
ATOM     24  C   UNL     1      17.495  -7.583  21.356  1.00  0.00     0.012 C 
ATOM     25  C   UNL     1      16.335 -11.324  23.974  1.00  0.00     0.012 C 
ATOM     26  C   UNL     1      17.153 -14.016  19.618  1.00  0.00     0.022 C 
ATOM     27  C   UNL     1      17.786 -14.007  18.191  1.00  0.00     0.015 C 
ATOM     28  C   UNL     1      17.457 -13.940  22.621  1.00  0.00     0.017 C 
ATOM     29  C   UNL     1      15.259 -15.685  20.312  1.00  0.00     0.012 C 
ATOM     30  C   UNL     1      18.173 -16.494  17.827  1.00  0.00     0.011 C 
ENDROOT
BRANCH  20  31
ATOM     31  O   UNL     1      18.855  -5.916  25.655  1.00  0.00    -0.393 OA
ATOM     32  H   UNL     1      19.573  -6.163  26.294  1.00  0.00     0.210 HD
ENDBRANCH  20  31
TORSDOF 1
ENDMDL
MODEL 5
REMARK VINA RESULT:    -5.550      8.333     12.759
REMARK INTER + INTRA:          -5.712
REMARK INTER:                  -5.712
REMARK INTRA:                   0.000
REMARK UNBOUND:                 0.000
REMARK SMILES CC1(C)CC[C@]2(C)CC[C@@]3(C)C(=CC[C@@H]4[C@@]5(C)CC[C@H](O)C(C)(C)[C@H]5CC[C@@]43C)[C@@H]2C1
REMARK SMILES IDX 1 1 2 2 4 3 5 4 6 5 8 6 9 7 10 8 12 9 13 10 14 11 15 12
REMARK SMILES IDX 28 13 27 14 26 15 25 16 16 17 18 18 19 19 20 20 22 21 23 22
REMARK SMILES IDX 24 23 17 24 29 25 30 26 31 27 11 28 7 29 3 30 21 31
REMARK H PARENT 21 32
REMARK Flexibility Score: inf
ROOT
ATOM      1  C   UNL     1      16.841   1.018  27.941  1.00  0.00     0.011 C 
ATOM      2  C   UNL     1      17.576  -0.225  28.494  1.00  0.00    -0.035 C 
ATOM      3  C   UNL     1      19.019   0.188  28.942  1.00  0.00     0.007 C 
ATOM      4  C   UNL     1      20.135  -0.527  28.157  1.00  0.00     0.008 C 
ATOM      5  C   UNL     1      19.986  -2.077  28.203  1.00  0.00    -0.026 C 
ATOM      6  C   UNL     1      21.099  -2.690  27.307  1.00  0.00     0.008 C 
ATOM      7  C   UNL     1      20.977  -4.224  27.100  1.00  0.00     0.012 C 
ATOM      8  C   UNL     1      19.529  -4.775  26.770  1.00  0.00    -0.006 C 
ATOM      9  C   UNL     1      18.659  -3.540  26.517  1.00  0.00    -0.064 C 
ATOM     10  C   UNL     1      18.304  -3.203  25.265  1.00  0.00    -0.027 C 
ATOM     11  C   UNL     1      18.648  -3.967  24.036  1.00  0.00     0.032 C 
ATOM     12  C   UNL     1      19.718  -5.103  24.156  1.00  0.00     0.006 C 
ATOM     13  C   UNL     1      19.561  -5.840  25.544  1.00  0.00    -0.020 C 
ATOM     14  C   UNL     1      18.236  -6.656  25.449  1.00  0.00     0.008 C 
ATOM     15  C   UNL     1      18.148  -7.598  24.233  1.00  0.00     0.005 C 
ATOM     16  C   UNL     1      18.352  -6.930  22.838  1.00  0.00     0.003 C 
ATOM     17  C   UNL     1      19.656  -6.023  22.829  1.00  0.00    -0.025 C 
ATOM     18  C   UNL     1      20.920  -6.930  22.663  1.00  0.00     0.010 C 
ATOM     19  C   UNL     1      20.860  -7.898  21.469  1.00  0.00     0.033 C 
ATOM     20  C   UNL     1      19.612  -8.798  21.539  1.00  0.00     0.120 C 
ATOM     21  C   UNL     1      18.272  -8.001  21.653  1.00  0.00    -0.006 C 
ATOM     22  C   UNL     1      17.907  -7.315  20.301  1.00  0.00     0.014 C 
ATOM     23  C   UNL     1      17.130  -9.028  21.909  1.00  0.00     0.014 C 
ATOM     24  C   UNL     1      19.662  -5.039  21.608  1.00  0.00     0.012 C 
ATOM     25  C   UNL     1      20.750  -6.829  25.828  1.00  0.00     0.012 C 
ATOM     26  C   UNL     1      18.547  -2.516  27.684  1.00  0.00     0.022 C 
ATOM     27  C   UNL     1      17.620  -1.299  27.372  1.00  0.00     0.015 C 
ATOM     28  C   UNL     1      18.939  -5.489  28.034  1.00  0.00     0.017 C 
ATOM     29  C   UNL     1      20.248  -2.522  29.674  1.00  0.00     0.012 C 
ATOM     30  C   UNL     1      16.760  -0.746  29.700  1.00  0.00     0.011 C 
ENDROOT
BRANCH  20  31
ATOM     31  O   UNL     1      19.591  -9.707  20.463  1.00  0.00    -0.393 OA
ATOM     32  H   UNL     1      20.513 -10.046  20.323  1.00  0.00     0.210 HD
ENDBRANCH  20  31
TORSDOF 1
ENDMDL
MODEL 6
REMARK VINA RESULT:    -5.452      4.030      5.554
REMARK INTER + INTRA:          -5.611
REMARK INTER:                  -5.611
REMARK INTRA:                   0.000
REMARK UNBOUND:                 0.000
REMARK SMILES CC1(C)CC[C@]2(C)CC[C@@]3(C)C(=CC[C@@H]4[C@@]5(C)CC[C@H](O)C(C)(C)[C@H]5CC[C@@]43C)[C@@H]2C1
REMARK SMILES IDX 1 1 2 2 4 3 5 4 6 5 8 6 9 7 10 8 12 9 13 10 14 11 15 12
REMARK SMILES IDX 28 13 27 14 26 15 25 16 16 17 18 18 19 19 20 20 22 21 23 22
REMARK SMILES IDX 24 23 17 24 29 25 30 26 31 27 11 28 7 29 3 30 21 31
REMARK H PARENT 21 32
REMARK Flexibility Score: inf
ROOT
ATOM      1  C   UNL     1      13.686 -16.075  17.538  1.00  0.00     0.011 C 
ATOM      2  C   UNL     1      15.209 -15.853  17.378  1.00  0.00    -0.035 C 
ATOM      3  C   UNL     1      15.970 -17.122  17.888  1.00  0.00     0.007 C 
ATOM      4  C   UNL     1      16.893 -16.845  19.090  1.00  0.00     0.008 C 
ATOM      5  C   UNL     1      17.906 -15.697  18.800  1.00  0.00    -0.026 C 
ATOM      6  C   UNL     1      18.717 -15.437  20.101  1.00  0.00     0.008 C 
ATOM      7  C   UNL     1      19.647 -14.195  20.035  1.00  0.00     0.012 C 
ATOM      8  C   UNL     1      19.020 -12.881  19.412  1.00  0.00    -0.006 C 
ATOM      9  C   UNL     1      17.525 -13.168  19.249  1.00  0.00    -0.064 C 
ATOM     10  C   UNL     1      16.633 -12.627  20.097  1.00  0.00    -0.027 C 
ATOM     11  C   UNL     1      16.956 -11.694  21.210  1.00  0.00     0.032 C 
ATOM     12  C   UNL     1      18.461 -11.522  21.606  1.00  0.00     0.006 C 
ATOM     13  C   UNL     1      19.363 -11.573  20.310  1.00  0.00    -0.020 C 
ATOM     14  C   UNL     1      19.080 -10.248  19.539  1.00  0.00     0.008 C 
ATOM     15  C   UNL     1      19.266  -8.967  20.373  1.00  0.00     0.005 C 
ATOM     16  C   UNL     1      18.439  -8.889  21.694  1.00  0.00     0.003 C 
ATOM     17  C   UNL     1      18.608 -10.218  22.548  1.00  0.00    -0.025 C 
ATOM     18  C   UNL     1      19.973 -10.175  23.312  1.00  0.00     0.010 C 
ATOM     19  C   UNL     1      20.202  -8.901  24.143  1.00  0.00     0.033 C 
ATOM     20  C   UNL     1      20.083  -7.636  23.272  1.00  0.00     0.120 C 
ATOM     21  C   UNL     1      18.730  -7.535  22.495  1.00  0.00    -0.006 C 
ATOM     22  C   UNL     1      17.552  -7.188  23.456  1.00  0.00     0.014 C 
ATOM     23  C   UNL     1      18.831  -6.325  21.521  1.00  0.00     0.014 C 
ATOM     24  C   UNL     1      17.497 -10.339  23.648  1.00  0.00     0.012 C 
ATOM     25  C   UNL     1      20.895 -11.644  20.656  1.00  0.00     0.012 C 
ATOM     26  C   UNL     1      17.140 -14.377  18.347  1.00  0.00     0.022 C 
ATOM     27  C   UNL     1      15.601 -14.593  18.199  1.00  0.00     0.015 C 
ATOM     28  C   UNL     1      19.594 -12.659  17.970  1.00  0.00     0.017 C 
ATOM     29  C   UNL     1      18.891 -16.215  17.710  1.00  0.00     0.012 C 
ATOM     30  C   UNL     1      15.486 -15.617  15.875  1.00  0.00     0.011 C 
ENDROOT
BRANCH  20  31
ATOM     31  O   UNL     1      20.335  -6.479  24.036  1.00  0.00    -0.393 OA
ATOM     32  H   UNL     1      19.491  -6.209  24.481  1.00  0.00     0.210 HD
ENDBRANCH  20  31
TORSDOF 1
ENDMDL
MODEL 7
REMARK VINA RESULT:    -5.354      3.069      8.209
REMARK INTER + INTRA:          -5.511
REMARK INTER:                  -5.511
REMARK INTRA:                   0.000
REMARK UNBOUND:                 0.000
REMARK SMILES CC1(C)CC[C@]2(C)CC[C@@]3(C)C(=CC[C@@H]4[C@@]5(C)CC[C@H](O)C(C)(C)[C@H]5CC[C@@]43C)[C@@H]2C1
REMARK SMILES IDX 1 1 2 2 4 3 5 4 6 5 8 6 9 7 10 8 12 9 13 10 14 11 15 12
REMARK SMILES IDX 28 13 27 14 26 15 25 16 16 17 18 18 19 19 20 20 22 21 23 22
REMARK SMILES IDX 24 23 17 24 29 25 30 26 31 27 11 28 7 29 3 30 21 31
REMARK H PARENT 21 32
REMARK Flexibility Score: inf
ROOT
ATOM      1  C   UNL     1      12.795  -9.614  24.760  1.00  0.00     0.011 C 
ATOM      2  C   UNL     1      13.098 -11.113  24.993  1.00  0.00    -0.035 C 
ATOM      3  C   UNL     1      14.024 -11.262  26.246  1.00  0.00     0.007 C 
ATOM      4  C   UNL     1      15.396 -11.884  25.928  1.00  0.00     0.008 C 
ATOM      5  C   UNL     1      15.265 -13.254  25.197  1.00  0.00    -0.026 C 
ATOM      6  C   UNL     1      16.698 -13.744  24.841  1.00  0.00     0.008 C 
ATOM      7  C   UNL     1      16.733 -15.011  23.945  1.00  0.00     0.012 C 
ATOM      8  C   UNL     1      15.737 -15.028  22.713  1.00  0.00    -0.006 C 
ATOM      9  C   UNL     1      15.152 -13.616  22.628  1.00  0.00    -0.064 C 
ATOM     10  C   UNL     1      15.570 -12.763  21.677  1.00  0.00    -0.027 C 
ATOM     11  C   UNL     1      16.562 -13.076  20.613  1.00  0.00     0.032 C 
ATOM     12  C   UNL     1      17.386 -14.400  20.748  1.00  0.00     0.006 C 
ATOM     13  C   UNL     1      16.474 -15.536  21.357  1.00  0.00    -0.020 C 
ATOM     14  C   UNL     1      15.449 -15.908  20.243  1.00  0.00     0.008 C 
ATOM     15  C   UNL     1      16.080 -16.280  18.888  1.00  0.00     0.005 C 
ATOM     16  C   UNL     1      17.035 -15.215  18.267  1.00  0.00     0.003 C 
ATOM     17  C   UNL     1      18.101 -14.717  19.334  1.00  0.00    -0.025 C 
ATOM     18  C   UNL     1      19.245 -15.778  19.460  1.00  0.00     0.010 C 
ATOM     19  C   UNL     1      19.887 -16.187  18.124  1.00  0.00     0.033 C 
ATOM     20  C   UNL     1      18.832 -16.715  17.134  1.00  0.00     0.120 C 
ATOM     21  C   UNL     1      17.657 -15.715  16.881  1.00  0.00    -0.006 C 
ATOM     22  C   UNL     1      18.120 -14.510  16.006  1.00  0.00     0.014 C 
ATOM     23  C   UNL     1      16.584 -16.451  16.025  1.00  0.00     0.014 C 
ATOM     24  C   UNL     1      18.791 -13.384  18.878  1.00  0.00     0.012 C 
ATOM     25  C   UNL     1      17.300 -16.818  21.739  1.00  0.00     0.012 C 
ATOM     26  C   UNL     1      14.383 -13.103  23.880  1.00  0.00     0.022 C 
ATOM     27  C   UNL     1      13.786 -11.670  23.715  1.00  0.00     0.015 C 
ATOM     28  C   UNL     1      14.540 -15.993  23.019  1.00  0.00     0.017 C 
ATOM     29  C   UNL     1      14.647 -14.262  26.213  1.00  0.00     0.012 C 
ATOM     30  C   UNL     1      11.746 -11.827  25.224  1.00  0.00     0.011 C 
ENDROOT
BRANCH  20  31
ATOM     31  O   UNL     1      19.438 -17.125  15.930  1.00  0.00    -0.393 OA
ATOM     32  H   UNL     1      18.775 -17.647  15.409  1.00  0.00     0.210 HD
ENDBRANCH  20  31
TORSDOF 1
ENDMDL
MODEL 8
REMARK VINA RESULT:    -5.309      9.021     11.879
REMARK INTER + INTRA:          -5.464
REMARK INTER:                  -5.464
REMARK INTRA:                   0.000
REMARK UNBOUND:                 0.000
REMARK SMILES CC1(C)CC[C@]2(C)CC[C@@]3(C)C(=CC[C@@H]4[C@@]5(C)CC[C@H](O)C(C)(C)[C@H]5CC[C@@]43C)[C@@H]2C1
REMARK SMILES IDX 1 1 2 2 4 3 5 4 6 5 8 6 9 7 10 8 12 9 13 10 14 11 15 12
REMARK SMILES IDX 28 13 27 14 26 15 25 16 16 17 18 18 19 19 20 20 22 21 23 22
REMARK SMILES IDX 24 23 17 24 29 25 30 26 31 27 11 28 7 29 3 30 21 31
REMARK H PARENT 21 32
REMARK Flexibility Score: inf
ROOT
ATOM      1  C   UNL     1      16.453  -9.419  24.040  1.00  0.00     0.011 C 
ATOM      2  C   UNL     1      17.333  -8.292  23.449  1.00  0.00    -0.035 C 
ATOM      3  C   UNL     1      18.742  -8.873  23.090  1.00  0.00     0.007 C 
ATOM      4  C   UNL     1      19.894  -8.228  23.881  1.00  0.00     0.008 C 
ATOM      5  C   UNL     1      19.907  -6.676  23.740  1.00  0.00    -0.026 C 
ATOM      6  C   UNL     1      21.043  -6.124  24.648  1.00  0.00     0.008 C 
ATOM      7  C   UNL     1      21.071  -4.576  24.762  1.00  0.00     0.012 C 
ATOM      8  C   UNL     1      19.675  -3.864  24.996  1.00  0.00    -0.006 C 
ATOM      9  C   UNL     1      18.675  -4.987  25.280  1.00  0.00    -0.064 C 
ATOM     10  C   UNL     1      18.240  -5.210  26.532  1.00  0.00    -0.027 C 
ATOM     11  C   UNL     1      18.614  -4.411  27.730  1.00  0.00     0.032 C 
ATOM     12  C   UNL     1      19.799  -3.397  27.593  1.00  0.00     0.006 C 
ATOM     13  C   UNL     1      19.771  -2.734  26.160  1.00  0.00    -0.020 C 
ATOM     14  C   UNL     1      18.534  -1.785  26.150  1.00  0.00     0.008 C 
ATOM     15  C   UNL     1      18.497  -0.767  27.305  1.00  0.00     0.005 C 
ATOM     16  C   UNL     1      18.579  -1.365  28.743  1.00  0.00     0.003 C 
ATOM     17  C   UNL     1      19.781  -2.397  28.861  1.00  0.00    -0.025 C 
ATOM     18  C   UNL     1      21.125  -1.612  29.031  1.00  0.00     0.010 C 
ATOM     19  C   UNL     1      21.120  -0.572  30.164  1.00  0.00     0.033 C 
ATOM     20  C   UNL     1      19.974   0.443  29.988  1.00  0.00     0.120 C 
ATOM     21  C   UNL     1      18.564  -0.221  29.861  1.00  0.00    -0.006 C 
ATOM     22  C   UNL     1      18.080  -0.783  31.233  1.00  0.00     0.014 C 
ATOM     23  C   UNL     1      17.544   0.898  29.497  1.00  0.00     0.014 C 
ATOM     24  C   UNL     1      19.640  -3.300  30.135  1.00  0.00     0.012 C 
ATOM     25  C   UNL     1      21.064  -1.889  25.872  1.00  0.00     0.012 C 
ATOM     26  C   UNL     1      18.502  -6.064  24.170  1.00  0.00     0.022 C 
ATOM     27  C   UNL     1      17.445  -7.161  24.510  1.00  0.00     0.015 C 
ATOM     28  C   UNL     1      19.211  -3.172  23.669  1.00  0.00     0.017 C 
ATOM     29  C   UNL     1      20.269  -6.350  22.259  1.00  0.00     0.012 C 
ATOM     30  C   UNL     1      16.620  -7.765  22.182  1.00  0.00     0.011 C 
ENDROOT
BRANCH  20  31
ATOM     31  O   UNL     1      20.006   1.413  31.009  1.00  0.00    -0.393 OA
ATOM     32  H   UNL     1      19.830   0.961  31.874  1.00  0.00     0.210 HD
ENDBRANCH  20  31
TORSDOF 1
ENDMDL
MODEL 9
REMARK VINA RESULT:    -5.265      5.229      9.315
REMARK INTER + INTRA:          -5.419
REMARK INTER:                  -5.419
REMARK INTRA:                   0.000
REMARK UNBOUND:                 0.000
REMARK SMILES CC1(C)CC[C@]2(C)CC[C@@]3(C)C(=CC[C@@H]4[C@@]5(C)CC[C@H](O)C(C)(C)[C@H]5CC[C@@]43C)[C@@H]2C1
REMARK SMILES IDX 1 1 2 2 4 3 5 4 6 5 8 6 9 7 10 8 12 9 13 10 14 11 15 12
REMARK SMILES IDX 28 13 27 14 26 15 25 16 16 17 18 18 19 19 20 20 22 21 23 22
REMARK SMILES IDX 24 23 17 24 29 25 30 26 31 27 11 28 7 29 3 30 21 31
REMARK H PARENT 21 32
REMARK Flexibility Score: inf
ROOT
ATOM      1  C   UNL     1      16.139  -4.648  25.625  1.00  0.00     0.011 C 
ATOM      2  C   UNL     1      17.505  -5.370  25.567  1.00  0.00    -0.035 C 
ATOM      3  C   UNL     1      18.600  -4.361  25.082  1.00  0.00     0.007 C 
ATOM      4  C   UNL     1      19.263  -4.763  23.752  1.00  0.00     0.008 C 
ATOM      5  C   UNL     1      19.853  -6.204  23.802  1.00  0.00    -0.026 C 
ATOM      6  C   UNL     1      20.409  -6.542  22.389  1.00  0.00     0.008 C 
ATOM      7  C   UNL     1      20.869  -8.015  22.221  1.00  0.00     0.012 C 
ATOM      8  C   UNL     1      19.895  -9.125  22.796  1.00  0.00    -0.006 C 
ATOM      9  C   UNL     1      18.605  -8.394  23.175  1.00  0.00    -0.064 C 
ATOM     10  C   UNL     1      17.510  -8.502  22.402  1.00  0.00    -0.027 C 
ATOM     11  C   UNL     1      17.400  -9.336  21.175  1.00  0.00     0.032 C 
ATOM     12  C   UNL     1      18.717  -9.934  20.576  1.00  0.00     0.006 C 
ATOM     13  C   UNL     1      19.696 -10.346  21.744  1.00  0.00    -0.020 C 
ATOM     14  C   UNL     1      19.056 -11.596  22.419  1.00  0.00     0.008 C 
ATOM     15  C   UNL     1      18.723 -12.749  21.454  1.00  0.00     0.005 C 
ATOM     16  C   UNL     1      17.803 -12.383  20.248  1.00  0.00     0.003 C 
ATOM     17  C   UNL     1      18.331 -11.081  19.506  1.00  0.00    -0.025 C 
ATOM     18  C   UNL     1      19.527 -11.464  18.572  1.00  0.00     0.010 C 
ATOM     19  C   UNL     1      19.238 -12.625  17.605  1.00  0.00     0.033 C 
ATOM     20  C   UNL     1      18.780 -13.885  18.364  1.00  0.00     0.120 C 
ATOM     21  C   UNL     1      17.548 -13.642  19.295  1.00  0.00    -0.006 C 
ATOM     22  C   UNL     1      16.240 -13.462  18.466  1.00  0.00     0.014 C 
ATOM     23  C   UNL     1      17.325 -14.936  20.133  1.00  0.00     0.014 C 
ATOM     24  C   UNL     1      17.230 -10.466  18.574  1.00  0.00     0.012 C 
ATOM     25  C   UNL     1      21.125 -10.729  21.212  1.00  0.00     0.012 C 
ATOM     26  C   UNL     1      18.733  -7.253  24.226  1.00  0.00     0.022 C 
ATOM     27  C   UNL     1      17.376  -6.571  24.590  1.00  0.00     0.015 C 
ATOM     28  C   UNL     1      20.490  -9.706  24.125  1.00  0.00     0.017 C 
ATOM     29  C   UNL     1      21.050  -6.179  24.800  1.00  0.00     0.012 C 
ATOM     30  C   UNL     1      17.822  -5.875  26.994  1.00  0.00     0.011 C 
ENDROOT
BRANCH  20  31
ATOM     31  O   UNL     1      18.559 -14.952  17.471  1.00  0.00    -0.393 OA
ATOM     32  H   UNL     1      17.580 -15.067  17.359  1.00  0.00     0.210 HD
ENDBRANCH  20  31
TORSDOF 1
ENDMDL
