MODEL 1
REMARK VINA RESULT:    -7.036      0.000      0.000
REMARK INTER + INTRA:          -8.587
REMARK INTER:                  -8.475
REMARK INTRA:                  -0.112
REMARK UNBOUND:                -0.112
REMARK SMILES O=c1c(O)c(-c2ccc(O)c(O)c2)oc2cc(O)cc(O)c12
REMARK SMILES IDX 5 1 3 2 2 3 1 4 22 5 20 6 19 7 17 8 16 9 15 10 14 11 6 12
REMARK SMILES IDX 7 13 8 14 9 15 13 16 11 17 10 18 12 20 4 22 21 24 18 26
REMARK H PARENT 10 19 12 21 4 23 21 25 18 27
REMARK Flexibility Score: inf
ROOT
ATOM      1  C   UNL     1      15.207  20.661 -12.280  1.00  0.00     0.180 A 
ATOM      2  C   UNL     1      16.292  20.772 -11.388  1.00  0.00     0.208 A 
ATOM      3  C   UNL     1      17.553  21.124 -11.893  1.00  0.00     0.238 A 
ATOM      4  O   UNL     1      18.532  21.216 -11.105  1.00  0.00    -0.285 OA
ATOM      5  C   UNL     1      17.705  21.380 -13.272  1.00  0.00     0.111 A 
ATOM      6  C   UNL     1      18.940  21.743 -13.860  1.00  0.00     0.134 A 
ATOM      7  C   UNL     1      19.008  21.990 -15.239  1.00  0.00     0.093 A 
ATOM      8  C   UNL     1      17.865  21.880 -16.040  1.00  0.00     0.123 A 
ATOM      9  C   UNL     1      16.646  21.520 -15.464  1.00  0.00     0.094 A 
ATOM     10  C   UNL     1      16.557  21.269 -14.092  1.00  0.00     0.146 A 
ATOM     11  O   UNL     1      15.385  20.923 -13.572  1.00  0.00    -0.452 OA
ENDROOT
BRANCH   1  12
ATOM     12  C   UNL     1      13.851  20.275 -11.827  1.00  0.00     0.025 A 
ATOM     13  C   UNL     1      13.154  21.038 -10.874  1.00  0.00     0.016 A 
ATOM     14  C   UNL     1      11.884  20.642 -10.444  1.00  0.00     0.051 A 
ATOM     15  C   UNL     1      11.300  19.475 -10.946  1.00  0.00     0.157 A 
ATOM     16  C   UNL     1      13.271  19.093 -12.313  1.00  0.00     0.062 A 
ATOM     17  C   UNL     1      11.997  18.694 -11.882  1.00  0.00     0.158 A 
BRANCH  15  18
ATOM     18  O   UNL     1      10.031  19.106 -10.499  1.00  0.00    -0.504 OA
ATOM     19  H   UNL     1       9.772  19.147  -9.521  1.00  0.00     0.293 HD
ENDBRANCH  15  18
BRANCH  17  20
ATOM     20  O   UNL     1      11.423  17.525 -12.381  1.00  0.00    -0.504 OA
ATOM     21  H   UNL     1      10.804  16.955 -11.818  1.00  0.00     0.293 HD
ENDBRANCH  17  20
ENDBRANCH   1  12
BRANCH   2  22
ATOM     22  O   UNL     1      16.104  20.562 -10.019  1.00  0.00    -0.502 OA
ATOM     23  H   UNL     1      16.590  19.833  -9.510  1.00  0.00     0.293 HD
ENDBRANCH   2  22
BRANCH   6  24
ATOM     24  O   UNL     1      20.096  21.863 -13.087  1.00  0.00    -0.507 OA
ATOM     25  H   UNL     1      20.997  21.543 -13.423  1.00  0.00     0.293 HD
ENDBRANCH   6  24
BRANCH   8  26
ATOM     26  O   UNL     1      17.932  22.125 -17.410  1.00  0.00    -0.508 OA
ATOM     27  H   UNL     1      18.106  23.054 -17.774  1.00  0.00     0.293 HD
ENDBRANCH   8  26
TORSDOF 6
ENDMDL
MODEL 2
REMARK VINA RESULT:    -6.749      1.832      7.680
REMARK INTER + INTRA:          -8.242
REMARK INTER:                  -7.978
REMARK INTRA:                  -0.264
REMARK UNBOUND:                -0.112
REMARK SMILES O=c1c(O)c(-c2ccc(O)c(O)c2)oc2cc(O)cc(O)c12
REMARK SMILES IDX 5 1 3 2 2 3 1 4 22 5 20 6 19 7 17 8 16 9 15 10 14 11 6 12
REMARK SMILES IDX 7 13 8 14 9 15 13 16 11 17 10 18 12 20 4 22 21 24 18 26
REMARK H PARENT 10 19 12 21 4 23 21 25 18 27
REMARK Flexibility Score: inf
ROOT
ATOM      1  C   UNL     1      13.482  19.945 -11.502  1.00  0.00     0.180 A 
ATOM      2  C   UNL     1      12.953  18.741 -12.004  1.00  0.00     0.208 A 
ATOM      3  C   UNL     1      11.697  18.310 -11.550  1.00  0.00     0.238 A 
ATOM      4  O   UNL     1      11.219  17.228 -11.985  1.00  0.00    -0.285 OA
ATOM      5  C   UNL     1      10.983  19.097 -10.623  1.00  0.00     0.111 A 
ATOM      6  C   UNL     1       9.710  18.736 -10.119  1.00  0.00     0.134 A 
ATOM      7  C   UNL     1       9.060  19.577  -9.205  1.00  0.00     0.093 A 
ATOM      8  C   UNL     1       9.658  20.771  -8.785  1.00  0.00     0.123 A 
ATOM      9  C   UNL     1      10.912  21.131  -9.279  1.00  0.00     0.094 A 
ATOM     10  C   UNL     1      11.578  20.305 -10.190  1.00  0.00     0.146 A 
ATOM     11  O   UNL     1      12.774  20.669 -10.638  1.00  0.00    -0.452 OA
ENDROOT
BRANCH   1  12
ATOM     12  C   UNL     1      14.809  20.457 -11.916  1.00  0.00     0.025 A 
ATOM     13  C   UNL     1      15.005  21.042 -13.179  1.00  0.00     0.016 A 
ATOM     14  C   UNL     1      16.271  21.496 -13.558  1.00  0.00     0.051 A 
ATOM     15  C   UNL     1      17.359  21.362 -12.691  1.00  0.00     0.157 A 
ATOM     16  C   UNL     1      15.908  20.303 -11.056  1.00  0.00     0.062 A 
ATOM     17  C   UNL     1      17.179  20.759 -11.435  1.00  0.00     0.158 A 
BRANCH  15  18
ATOM     18  O   UNL     1      18.611  21.825 -13.096  1.00  0.00    -0.504 OA
ATOM     19  H   UNL     1      19.420  21.218 -13.145  1.00  0.00     0.293 HD
ENDBRANCH  15  18
BRANCH  17  20
ATOM     20  O   UNL     1      18.262  20.614 -10.568  1.00  0.00    -0.504 OA
ATOM     21  H   UNL     1      18.820  21.408 -10.280  1.00  0.00     0.293 HD
ENDBRANCH  17  20
ENDBRANCH   1  12
BRANCH   2  22
ATOM     22  O   UNL     1      13.659  18.004 -12.959  1.00  0.00    -0.502 OA
ATOM     23  H   UNL     1      13.451  18.060 -13.949  1.00  0.00     0.293 HD
ENDBRANCH   2  22
BRANCH   6  24
ATOM     24  O   UNL     1       9.088  17.552 -10.520  1.00  0.00    -0.507 OA
ATOM     25  H   UNL     1       9.129  16.712  -9.955  1.00  0.00     0.293 HD
ENDBRANCH   6  24
BRANCH   8  26
ATOM     26  O   UNL     1       9.011  21.608  -7.878  1.00  0.00    -0.508 OA
ATOM     27  H   UNL     1       9.504  22.352  -7.399  1.00  0.00     0.293 HD
ENDBRANCH   8  26
TORSDOF 6
ENDMDL
MODEL 3
REMARK VINA RESULT:    -6.500      1.833      7.396
REMARK INTER + INTRA:          -7.941
REMARK INTER:                  -7.728
REMARK INTRA:                  -0.214
REMARK UNBOUND:                -0.112
REMARK SMILES O=c1c(O)c(-c2ccc(O)c(O)c2)oc2cc(O)cc(O)c12
REMARK SMILES IDX 5 1 3 2 2 3 1 4 22 5 20 6 19 7 17 8 16 9 15 10 14 11 6 12
REMARK SMILES IDX 7 13 8 14 9 15 13 16 11 17 10 18 12 20 4 22 21 24 18 26
REMARK H PARENT 10 19 12 21 4 23 21 25 18 27
REMARK Flexibility Score: inf
ROOT
ATOM      1  C   UNL     1      13.444  20.156 -11.206  1.00  0.00     0.180 A 
ATOM      2  C   UNL     1      12.783  20.944 -10.244  1.00  0.00     0.208 A 
ATOM      3  C   UNL     1      11.546  20.509  -9.744  1.00  0.00     0.238 A 
ATOM      4  O   UNL     1      10.940  21.213  -8.891  1.00  0.00    -0.285 OA
ATOM      5  C   UNL     1      11.002  19.289 -10.194  1.00  0.00     0.111 A 
ATOM      6  C   UNL     1       9.763  18.778  -9.738  1.00  0.00     0.134 A 
ATOM      7  C   UNL     1       9.294  17.551 -10.228  1.00  0.00     0.093 A 
ATOM      8  C   UNL     1      10.039  16.825 -11.165  1.00  0.00     0.123 A 
ATOM      9  C   UNL     1      11.260  17.325 -11.619  1.00  0.00     0.094 A 
ATOM     10  C   UNL     1      11.745  18.548 -11.144  1.00  0.00     0.146 A 
ATOM     11  O   UNL     1      12.907  19.003 -11.597  1.00  0.00    -0.452 OA
ENDROOT
BRANCH   1  12
ATOM     12  C   UNL     1      14.742  20.556 -11.796  1.00  0.00     0.025 A 
ATOM     13  C   UNL     1      15.921  20.562 -11.031  1.00  0.00     0.016 A 
ATOM     14  C   UNL     1      17.131  20.966 -11.602  1.00  0.00     0.051 A 
ATOM     15  C   UNL     1      17.180  21.382 -12.937  1.00  0.00     0.157 A 
ATOM     16  C   UNL     1      14.789  20.994 -13.129  1.00  0.00     0.062 A 
ATOM     17  C   UNL     1      16.003  21.400 -13.703  1.00  0.00     0.158 A 
BRANCH  15  18
ATOM     18  O   UNL     1      18.402  21.778 -13.480  1.00  0.00    -0.504 OA
ATOM     19  H   UNL     1      18.723  21.446 -14.381  1.00  0.00     0.293 HD
ENDBRANCH  15  18
BRANCH  17  20
ATOM     20  O   UNL     1      16.042  21.820 -15.032  1.00  0.00    -0.504 OA
ATOM     21  H   UNL     1      16.893  22.178 -15.451  1.00  0.00     0.293 HD
ENDBRANCH  17  20
ENDBRANCH   1  12
BRANCH   2  22
ATOM     22  O   UNL     1      13.367  22.125  -9.778  1.00  0.00    -0.502 OA
ATOM     23  H   UNL     1      13.746  22.210  -8.843  1.00  0.00     0.293 HD
ENDBRANCH   2  22
BRANCH   6  24
ATOM     24  O   UNL     1       8.998  19.478  -8.803  1.00  0.00    -0.507 OA
ATOM     25  H   UNL     1       9.420  19.924  -7.997  1.00  0.00     0.293 HD
ENDBRANCH   6  24
BRANCH   8  26
ATOM     26  O   UNL     1       9.573  15.606 -11.652  1.00  0.00    -0.508 OA
ATOM     27  H   UNL     1       9.631  14.758 -11.101  1.00  0.00     0.293 HD
ENDBRANCH   8  26
TORSDOF 6
ENDMDL
MODEL 4
REMARK VINA RESULT:    -6.261      1.118      1.337
REMARK INTER + INTRA:          -7.654
REMARK INTER:                  -7.463
REMARK INTRA:                  -0.191
REMARK UNBOUND:                -0.112
REMARK SMILES O=c1c(O)c(-c2ccc(O)c(O)c2)oc2cc(O)cc(O)c12
REMARK SMILES IDX 5 1 3 2 2 3 1 4 22 5 20 6 19 7 17 8 16 9 15 10 14 11 6 12
REMARK SMILES IDX 7 13 8 14 9 15 13 16 11 17 10 18 12 20 4 22 21 24 18 26
REMARK H PARENT 10 19 12 21 4 23 21 25 18 27
REMARK Flexibility Score: inf
ROOT
ATOM      1  C   UNL     1      16.293  21.262 -12.528  1.00  0.00     0.180 A 
ATOM      2  C   UNL     1      17.465  21.372 -11.754  1.00  0.00     0.208 A 
ATOM      3  C   UNL     1      18.693  21.561 -12.406  1.00  0.00     0.238 A 
ATOM      4  O   UNL     1      19.749  21.651 -11.724  1.00  0.00    -0.285 OA
ATOM      5  C   UNL     1      18.728  21.660 -13.812  1.00  0.00     0.111 A 
ATOM      6  C   UNL     1      19.924  21.855 -14.545  1.00  0.00     0.134 A 
ATOM      7  C   UNL     1      19.874  21.951 -15.943  1.00  0.00     0.093 A 
ATOM      8  C   UNL     1      18.653  21.856 -16.622  1.00  0.00     0.123 A 
ATOM      9  C   UNL     1      17.473  21.663 -15.904  1.00  0.00     0.094 A 
ATOM     10  C   UNL     1      17.500  21.563 -14.509  1.00  0.00     0.146 A 
ATOM     11  O   UNL     1      16.362  21.374 -13.851  1.00  0.00    -0.452 OA
ENDROOT
BRANCH   1  12
ATOM     12  C   UNL     1      14.962  21.042 -11.915  1.00  0.00     0.025 A 
ATOM     13  C   UNL     1      14.353  22.026 -11.118  1.00  0.00     0.016 A 
ATOM     14  C   UNL     1      13.107  21.787 -10.531  1.00  0.00     0.051 A 
ATOM     15  C   UNL     1      12.460  20.562 -10.719  1.00  0.00     0.157 A 
ATOM     16  C   UNL     1      14.321  19.805 -12.085  1.00  0.00     0.062 A 
ATOM     17  C   UNL     1      13.070  19.563 -11.496  1.00  0.00     0.158 A 
BRANCH  15  18
ATOM     18  O   UNL     1      11.217  20.352 -10.122  1.00  0.00    -0.504 OA
ATOM     19  H   UNL     1      11.087  19.687  -9.369  1.00  0.00     0.293 HD
ENDBRANCH  15  18
BRANCH  17  20
ATOM     20  O   UNL     1      12.435  18.336 -11.681  1.00  0.00    -0.504 OA
ATOM     21  H   UNL     1      12.149  17.763 -10.896  1.00  0.00     0.293 HD
ENDBRANCH  17  20
ENDBRANCH   1  12
BRANCH   2  22
ATOM     22  O   UNL     1      17.397  21.320 -10.359  1.00  0.00    -0.502 OA
ATOM     23  H   UNL     1      18.214  21.435  -9.771  1.00  0.00     0.293 HD
ENDBRANCH   2  22
BRANCH   6  24
ATOM     24  O   UNL     1      21.156  21.954 -13.897  1.00  0.00    -0.507 OA
ATOM     25  H   UNL     1      21.851  22.635 -14.176  1.00  0.00     0.293 HD
ENDBRANCH   6  24
BRANCH   8  26
ATOM     26  O   UNL     1      18.604  21.953 -18.011  1.00  0.00    -0.508 OA
ATOM     27  H   UNL     1      17.939  22.557 -18.477  1.00  0.00     0.293 HD
ENDBRANCH   8  26
TORSDOF 6
ENDMDL
MODEL 5
REMARK VINA RESULT:    -6.243      1.417      6.866
REMARK INTER + INTRA:          -7.632
REMARK INTER:                  -7.726
REMARK INTRA:                   0.094
REMARK UNBOUND:                -0.112
REMARK SMILES O=c1c(O)c(-c2ccc(O)c(O)c2)oc2cc(O)cc(O)c12
REMARK SMILES IDX 5 1 3 2 2 3 1 4 22 5 20 6 19 7 17 8 16 9 15 10 14 11 6 12
REMARK SMILES IDX 7 13 8 14 9 15 13 16 11 17 10 18 12 20 4 22 21 24 18 26
REMARK H PARENT 10 19 12 21 4 23 21 25 18 27
REMARK Flexibility Score: inf
ROOT
ATOM      1  C   UNL     1      14.992  20.668 -12.122  1.00  0.00     0.180 A 
ATOM      2  C   UNL     1      14.933  21.210 -10.823  1.00  0.00     0.208 A 
ATOM      3  C   UNL     1      13.907  20.796  -9.960  1.00  0.00     0.238 A 
ATOM      4  O   UNL     1      13.839  21.283  -8.799  1.00  0.00    -0.285 OA
ATOM      5  C   UNL     1      12.974  19.834 -10.398  1.00  0.00     0.111 A 
ATOM      6  C   UNL     1      11.913  19.360  -9.589  1.00  0.00     0.134 A 
ATOM      7  C   UNL     1      11.030  18.395 -10.096  1.00  0.00     0.093 A 
ATOM      8  C   UNL     1      11.188  17.895 -11.394  1.00  0.00     0.123 A 
ATOM      9  C   UNL     1      12.231  18.360 -12.195  1.00  0.00     0.094 A 
ATOM     10  C   UNL     1      13.122  19.323 -11.710  1.00  0.00     0.146 A 
ATOM     11  O   UNL     1      14.102  19.752 -12.496  1.00  0.00    -0.452 OA
ENDROOT
BRANCH   1  12
ATOM     12  C   UNL     1      16.032  21.069 -13.097  1.00  0.00     0.025 A 
ATOM     13  C   UNL     1      15.710  21.344 -14.437  1.00  0.00     0.016 A 
ATOM     14  C   UNL     1      16.711  21.697 -15.346  1.00  0.00     0.051 A 
ATOM     15  C   UNL     1      18.046  21.768 -14.935  1.00  0.00     0.157 A 
ATOM     16  C   UNL     1      17.375  21.119 -12.692  1.00  0.00     0.062 A 
ATOM     17  C   UNL     1      18.382  21.474 -13.603  1.00  0.00     0.158 A 
BRANCH  15  18
ATOM     18  O   UNL     1      19.024  22.125 -15.864  1.00  0.00    -0.504 OA
ATOM     19  H   UNL     1      19.257  23.092 -16.054  1.00  0.00     0.293 HD
ENDBRANCH  15  18
BRANCH  17  20
ATOM     20  O   UNL     1      19.712  21.535 -13.188  1.00  0.00    -0.504 OA
ATOM     21  H   UNL     1      19.968  21.906 -12.281  1.00  0.00     0.293 HD
ENDBRANCH  17  20
ENDBRANCH   1  12
BRANCH   2  22
ATOM     22  O   UNL     1      15.900  22.125 -10.397  1.00  0.00    -0.502 OA
ATOM     23  H   UNL     1      16.881  22.026 -10.629  1.00  0.00     0.293 HD
ENDBRANCH   2  22
BRANCH   6  24
ATOM     24  O   UNL     1      11.731  19.838  -8.291  1.00  0.00    -0.507 OA
ATOM     25  H   UNL     1      11.770  19.223  -7.486  1.00  0.00     0.293 HD
ENDBRANCH   6  24
BRANCH   8  26
ATOM     26  O   UNL     1      10.311  16.936 -11.896  1.00  0.00    -0.508 OA
ATOM     27  H   UNL     1       9.922  16.212 -11.305  1.00  0.00     0.293 HD
ENDBRANCH   8  26
TORSDOF 6
ENDMDL
MODEL 6
REMARK VINA RESULT:    -5.969      2.885      5.123
REMARK INTER + INTRA:          -7.302
REMARK INTER:                  -6.977
REMARK INTRA:                  -0.325
REMARK UNBOUND:                -0.112
REMARK SMILES O=c1c(O)c(-c2ccc(O)c(O)c2)oc2cc(O)cc(O)c12
REMARK SMILES IDX 5 1 3 2 2 3 1 4 22 5 20 6 19 7 17 8 16 9 15 10 14 11 6 12
REMARK SMILES IDX 7 13 8 14 9 15 13 16 11 17 10 18 12 20 4 22 21 24 18 26
REMARK H PARENT 10 19 12 21 4 23 21 25 18 27
REMARK Flexibility Score: inf
ROOT
ATOM      1  C   UNL     1      12.153  19.167 -10.448  1.00  0.00     0.180 A 
ATOM      2  C   UNL     1      12.616  19.107 -11.777  1.00  0.00     0.208 A 
ATOM      3  C   UNL     1      13.845  19.705 -12.095  1.00  0.00     0.238 A 
ATOM      4  O   UNL     1      14.263  19.665 -13.284  1.00  0.00    -0.285 OA
ATOM      5  C   UNL     1      14.599  20.331 -11.082  1.00  0.00     0.111 A 
ATOM      6  C   UNL     1      15.848  20.953 -11.319  1.00  0.00     0.134 A 
ATOM      7  C   UNL     1      16.542  21.548 -10.255  1.00  0.00     0.093 A 
ATOM      8  C   UNL     1      16.011  21.532  -8.960  1.00  0.00     0.123 A 
ATOM      9  C   UNL     1      14.779  20.921  -8.722  1.00  0.00     0.094 A 
ATOM     10  C   UNL     1      14.070  20.324  -9.769  1.00  0.00     0.146 A 
ATOM     11  O   UNL     1      12.898  19.755  -9.515  1.00  0.00    -0.452 OA
ENDROOT
BRANCH   1  12
ATOM     12  C   UNL     1      10.858  18.578 -10.037  1.00  0.00     0.025 A 
ATOM     13  C   UNL     1      10.767  17.243  -9.605  1.00  0.00     0.016 A 
ATOM     14  C   UNL     1       9.530  16.701  -9.244  1.00  0.00     0.051 A 
ATOM     15  C   UNL     1       8.368  17.476  -9.322  1.00  0.00     0.157 A 
ATOM     16  C   UNL     1       9.687  19.347 -10.134  1.00  0.00     0.062 A 
ATOM     17  C   UNL     1       8.445  18.804  -9.773  1.00  0.00     0.158 A 
BRANCH  15  18
ATOM     18  O   UNL     1       7.148  16.908  -8.954  1.00  0.00    -0.504 OA
ATOM     19  H   UNL     1       6.847  16.007  -9.305  1.00  0.00     0.293 HD
ENDBRANCH  15  18
BRANCH  17  20
ATOM     20  O   UNL     1       7.290  19.580  -9.860  1.00  0.00    -0.504 OA
ATOM     21  H   UNL     1       6.951  19.928 -10.749  1.00  0.00     0.293 HD
ENDBRANCH  17  20
ENDBRANCH   1  12
BRANCH   2  22
ATOM     22  O   UNL     1      11.873  18.437 -12.752  1.00  0.00    -0.502 OA
ATOM     23  H   UNL     1      12.219  18.291 -13.693  1.00  0.00     0.293 HD
ENDBRANCH   2  22
BRANCH   6  24
ATOM     24  O   UNL     1      16.404  20.983 -12.599  1.00  0.00    -0.507 OA
ATOM     25  H   UNL     1      15.835  21.129 -13.424  1.00  0.00     0.293 HD
ENDBRANCH   6  24
BRANCH   8  26
ATOM     26  O   UNL     1      16.700  22.123  -7.903  1.00  0.00    -0.508 OA
ATOM     27  H   UNL     1      17.491  22.735  -8.062  1.00  0.00     0.293 HD
ENDBRANCH   8  26
TORSDOF 6
ENDMDL
MODEL 7
REMARK VINA RESULT:    -5.630      2.109      3.476
REMARK INTER + INTRA:          -6.894
REMARK INTER:                  -6.562
REMARK INTRA:                  -0.332
REMARK UNBOUND:                -0.112
REMARK SMILES O=c1c(O)c(-c2ccc(O)c(O)c2)oc2cc(O)cc(O)c12
REMARK SMILES IDX 5 1 3 2 2 3 1 4 22 5 20 6 19 7 17 8 16 9 15 10 14 11 6 12
REMARK SMILES IDX 7 13 8 14 9 15 13 16 11 17 10 18 12 20 4 22 21 24 18 26
REMARK H PARENT 10 19 12 21 4 23 21 25 18 27
REMARK Flexibility Score: inf
ROOT
ATOM      1  C   UNL     1      13.004  19.814 -10.272  1.00  0.00     0.180 A 
ATOM      2  C   UNL     1      13.864  19.907  -9.160  1.00  0.00     0.208 A 
ATOM      3  C   UNL     1      15.195  20.303  -9.362  1.00  0.00     0.238 A 
ATOM      4  O   UNL     1      15.976  20.379  -8.376  1.00  0.00    -0.285 OA
ATOM      5  C   UNL     1      15.638  20.620 -10.663  1.00  0.00     0.111 A 
ATOM      6  C   UNL     1      16.961  21.031 -10.952  1.00  0.00     0.134 A 
ATOM      7  C   UNL     1      17.322  21.337 -12.272  1.00  0.00     0.093 A 
ATOM      8  C   UNL     1      16.386  21.241 -13.308  1.00  0.00     0.123 A 
ATOM      9  C   UNL     1      15.080  20.835 -13.028  1.00  0.00     0.094 A 
ATOM     10  C   UNL     1      14.700  20.523 -11.719  1.00  0.00     0.146 A 
ATOM     11  O   UNL     1      13.453  20.134 -11.483  1.00  0.00    -0.452 OA
ENDROOT
BRANCH   1  12
ATOM     12  C   UNL     1      11.593  19.384 -10.143  1.00  0.00     0.025 A 
ATOM     13  C   UNL     1      11.231  18.028 -10.217  1.00  0.00     0.016 A 
ATOM     14  C   UNL     1       9.890  17.648 -10.116  1.00  0.00     0.051 A 
ATOM     15  C   UNL     1       8.892  18.613  -9.954  1.00  0.00     0.157 A 
ATOM     16  C   UNL     1      10.586  20.353 -10.002  1.00  0.00     0.062 A 
ATOM     17  C   UNL     1       9.240  19.973  -9.901  1.00  0.00     0.158 A 
BRANCH  15  18
ATOM     18  O   UNL     1       7.562  18.204  -9.856  1.00  0.00    -0.504 OA
ATOM     19  H   UNL     1       6.824  18.837  -9.573  1.00  0.00     0.293 HD
ENDBRANCH  15  18
BRANCH  17  20
ATOM     20  O   UNL     1       8.248  20.942  -9.748  1.00  0.00    -0.504 OA
ATOM     21  H   UNL     1       7.535  20.863  -9.033  1.00  0.00     0.293 HD
ENDBRANCH  17  20
ENDBRANCH   1  12
BRANCH   2  22
ATOM     22  O   UNL     1      13.387  19.634  -7.875  1.00  0.00    -0.502 OA
ATOM     23  H   UNL     1      13.992  19.623  -7.063  1.00  0.00     0.293 HD
ENDBRANCH   2  22
BRANCH   6  24
ATOM     24  O   UNL     1      17.917  21.139  -9.940  1.00  0.00    -0.507 OA
ATOM     25  H   UNL     1      17.675  21.463  -9.011  1.00  0.00     0.293 HD
ENDBRANCH   6  24
BRANCH   8  26
ATOM     26  O   UNL     1      16.744  21.545 -14.619  1.00  0.00    -0.508 OA
ATOM     27  H   UNL     1      16.415  20.993 -15.401  1.00  0.00     0.293 HD
ENDBRANCH   8  26
TORSDOF 6
ENDMDL
