MODEL 1
REMARK VINA RESULT:    -6.068      0.000      0.000
REMARK INTER + INTRA:         -13.265
REMARK INTER:                 -10.503
REMARK INTRA:                  -2.763
REMARK UNBOUND:                -2.763
REMARK SMILES OC[C@@H]1O[C@@H](O[C@H]2[C@H](O)[C@@H](O)[C@@H](O[C@H]3[C@H](O)[C@@H](O)[C@H](O)O[C@H]3CO)O[C@H]2CO)[C@H](O)[C@@H](O)[C@@H]1O
REMARK SMILES IDX 7 1 26 2 25 3 12 4 10 5 8 6 6 7 5 8 3 9 33 10 4 11 31 12
REMARK SMILES IDX 29 13 2 14 1 15 34 17 32 19 30 21 27 23 28 24 9 26 11 28
REMARK SMILES IDX 13 30 14 31 22 32 15 33 21 34 17 35 19 36 23 37 24 38 16 40
REMARK SMILES IDX 18 42 20 44
REMARK H PARENT 1 16 34 18 32 20 30 22 28 25 9 27 11 29 24 39 16 41 18 43
REMARK H PARENT 20 45
REMARK Flexibility Score: inf
ROOT
ATOM      1  C   UNL     1     -22.966 -28.644   2.728  1.00  0.00     0.184 C 
ATOM      2  C   UNL     1     -24.057 -28.330   3.785  1.00  0.00     0.178 C 
ATOM      3  O   UNL     1     -24.563 -29.492   4.438  1.00  0.00    -0.341 OA
ATOM      4  C   UNL     1     -23.563 -30.311   5.031  1.00  0.00     0.282 C 
ATOM      5  C   UNL     1     -22.520 -30.763   3.990  1.00  0.00     0.202 C 
ATOM      6  C   UNL     1     -21.867 -29.546   3.325  1.00  0.00     0.180 C 
ENDROOT
BRANCH   1   7
ATOM      7  O   UNL     1     -22.425 -27.416   2.263  1.00  0.00    -0.341 OA
BRANCH   7   8
ATOM      8  C   UNL     1     -22.157 -27.403   0.866  1.00  0.00     0.282 C 
ATOM      9  C   UNL     1     -19.915 -26.796   1.220  1.00  0.00     0.178 C 
ATOM     10  C   UNL     1     -20.087 -25.389   0.605  1.00  0.00     0.177 C 
ATOM     11  O   UNL     1     -20.796 -27.724   0.608  1.00  0.00    -0.341 OA
ATOM     12  C   UNL     1     -21.551 -24.931   0.774  1.00  0.00     0.179 C 
ATOM     13  C   UNL     1     -22.522 -26.023   0.279  1.00  0.00     0.202 C 
BRANCH   9  14
ATOM     14  C   UNL     1     -18.473 -27.307   1.091  1.00  0.00     0.191 C 
BRANCH  14  15
ATOM     15  O   UNL     1     -18.457 -28.668   0.762  1.00  0.00    -0.394 OA
ATOM     16  H   UNL     1     -18.954 -29.133   1.483  1.00  0.00     0.210 HD
ENDBRANCH  14  15
ENDBRANCH   9  14
BRANCH  10  17
ATOM     17  O   UNL     1     -19.747 -25.412  -0.759  1.00  0.00    -0.387 OA
ATOM     18  H   UNL     1     -20.353 -24.774  -1.217  1.00  0.00     0.211 HD
ENDBRANCH  10  17
BRANCH  12  19
ATOM     19  O   UNL     1     -21.816 -24.648   2.126  1.00  0.00    -0.387 OA
ATOM     20  H   UNL     1     -22.048 -23.684   2.179  1.00  0.00     0.211 HD
ENDBRANCH  12  19
BRANCH  13  21
ATOM     21  O   UNL     1     -22.489 -26.100  -1.125  1.00  0.00    -0.385 OA
ATOM     22  H   UNL     1     -22.648 -25.180  -1.468  1.00  0.00     0.211 HD
ENDBRANCH  13  21
ENDBRANCH   7   8
ENDBRANCH   1   7
BRANCH   2  23
ATOM     23  C   UNL     1     -23.673 -27.206   4.777  1.00  0.00     0.191 C 
BRANCH  23  24
ATOM     24  O   UNL     1     -23.728 -25.953   4.150  1.00  0.00    -0.394 OA
ATOM     25  H   UNL     1     -23.212 -25.328   4.724  1.00  0.00     0.210 HD
ENDBRANCH  23  24
ENDBRANCH   2  23
BRANCH   6  26
ATOM     26  O   UNL     1     -21.012 -29.987   2.302  1.00  0.00    -0.387 OA
ATOM     27  H   UNL     1     -20.999 -30.980   2.343  1.00  0.00     0.211 HD
ENDBRANCH   6  26
BRANCH   5  28
ATOM     28  O   UNL     1     -21.531 -31.557   4.593  1.00  0.00    -0.385 OA
ATOM     29  H   UNL     1     -20.714 -30.999   4.657  1.00  0.00     0.211 HD
ENDBRANCH   5  28
BRANCH   4  30
ATOM     30  O   UNL     1     -22.948 -29.629   6.117  1.00  0.00    -0.341 OA
BRANCH  30  31
ATOM     31  C   UNL     1     -23.227 -30.214   7.383  1.00  0.00     0.184 C 
ATOM     32  C   UNL     1     -23.310 -29.112   8.466  1.00  0.00     0.178 C 
ATOM     33  C   UNL     1     -22.087 -31.190   7.740  1.00  0.00     0.180 C 
ATOM     34  O   UNL     1     -22.077 -28.414   8.568  1.00  0.00    -0.342 OA
ATOM     35  C   UNL     1     -20.783 -30.431   8.050  1.00  0.00     0.201 C 
ATOM     36  C   UNL     1     -21.037 -29.262   9.029  1.00  0.00     0.279 C 
BRANCH  32  37
ATOM     37  C   UNL     1     -24.427 -28.104   8.155  1.00  0.00     0.191 C 
BRANCH  37  38
ATOM     38  O   UNL     1     -25.448 -28.720   7.417  1.00  0.00    -0.394 OA
ATOM     39  H   UNL     1     -25.778 -28.045   6.767  1.00  0.00     0.210 HD
ENDBRANCH  37  38
ENDBRANCH  32  37
BRANCH  33  40
ATOM     40  O   UNL     1     -22.451 -31.963   8.858  1.00  0.00    -0.387 OA
ATOM     41  H   UNL     1     -21.622 -32.392   9.195  1.00  0.00     0.211 HD
ENDBRANCH  33  40
BRANCH  35  42
ATOM     42  O   UNL     1     -20.237 -29.939   6.853  1.00  0.00    -0.385 OA
ATOM     43  H   UNL     1     -20.654 -30.452   6.112  1.00  0.00     0.211 HD
ENDBRANCH  35  42
BRANCH  36  44
ATOM     44  O   UNL     1     -21.317 -29.731  10.326  1.00  0.00    -0.366 OA
ATOM     45  H   UNL     1     -22.212 -30.159  10.293  1.00  0.00     0.213 HD
ENDBRANCH  36  44
ENDBRANCH  30  31
ENDBRANCH   4  30
TORSDOF 18
ENDMDL
MODEL 2
REMARK VINA RESULT:    -5.919      5.245     11.045
REMARK INTER + INTRA:         -13.008
REMARK INTER:                 -10.429
REMARK INTRA:                  -2.579
REMARK UNBOUND:                -2.763
REMARK SMILES OC[C@@H]1O[C@@H](O[C@H]2[C@H](O)[C@@H](O)[C@@H](O[C@H]3[C@H](O)[C@@H](O)[C@H](O)O[C@H]3CO)O[C@H]2CO)[C@H](O)[C@@H](O)[C@@H]1O
REMARK SMILES IDX 7 1 26 2 25 3 12 4 10 5 8 6 6 7 5 8 3 9 33 10 4 11 31 12
REMARK SMILES IDX 29 13 2 14 1 15 34 17 32 19 30 21 27 23 28 24 9 26 11 28
REMARK SMILES IDX 13 30 14 31 22 32 15 33 21 34 17 35 19 36 23 37 24 38 16 40
REMARK SMILES IDX 18 42 20 44
REMARK H PARENT 1 16 34 18 32 20 30 22 28 25 9 27 11 29 24 39 16 41 18 43
REMARK H PARENT 20 45
REMARK Flexibility Score: inf
ROOT
ATOM      1  C   UNL     1     -19.932 -29.233  13.595  1.00  0.00     0.184 C 
ATOM      2  C   UNL     1     -18.657 -28.673  12.911  1.00  0.00     0.178 C 
ATOM      3  O   UNL     1     -17.804 -29.687  12.389  1.00  0.00    -0.341 OA
ATOM      4  C   UNL     1     -18.447 -30.593  11.501  1.00  0.00     0.282 C 
ATOM      5  C   UNL     1     -19.649 -31.281  12.178  1.00  0.00     0.202 C 
ATOM      6  C   UNL     1     -20.654 -30.235  12.672  1.00  0.00     0.180 C 
ENDROOT
BRANCH   1   7
ATOM      7  O   UNL     1     -20.778 -28.142  13.929  1.00  0.00    -0.341 OA
BRANCH   7   8
ATOM      8  C   UNL     1     -21.455 -28.306  15.171  1.00  0.00     0.282 C 
ATOM      9  C   UNL     1     -22.115 -26.050  15.198  1.00  0.00     0.178 C 
ATOM     10  C   UNL     1     -21.218 -25.691  16.403  1.00  0.00     0.177 C 
ATOM     11  O   UNL     1     -22.546 -27.400  15.275  1.00  0.00    -0.341 OA
ATOM     12  C   UNL     1     -20.003 -26.641  16.439  1.00  0.00     0.179 C 
ATOM     13  C   UNL     1     -20.460 -28.111  16.335  1.00  0.00     0.202 C 
BRANCH   9  14
ATOM     14  C   UNL     1     -23.341 -25.133  15.100  1.00  0.00     0.191 C 
BRANCH  14  15
ATOM     15  O   UNL     1     -24.379 -25.604  15.914  1.00  0.00    -0.394 OA
ATOM     16  H   UNL     1     -23.993 -25.712  16.822  1.00  0.00     0.210 HD
ENDBRANCH  14  15
ENDBRANCH   9  14
BRANCH  10  17
ATOM     17  O   UNL     1     -21.948 -25.802  17.599  1.00  0.00    -0.387 OA
ATOM     18  H   UNL     1     -22.903 -25.656  17.368  1.00  0.00     0.211 HD
ENDBRANCH  10  17
BRANCH  12  19
ATOM     19  O   UNL     1     -19.128 -26.347  15.379  1.00  0.00    -0.387 OA
ATOM     20  H   UNL     1     -19.083 -27.159  14.808  1.00  0.00     0.211 HD
ENDBRANCH  12  19
BRANCH  13  21
ATOM     21  O   UNL     1     -21.075 -28.514  17.533  1.00  0.00    -0.385 OA
ATOM     22  H   UNL     1     -20.531 -28.138  18.276  1.00  0.00     0.211 HD
ENDBRANCH  13  21
ENDBRANCH   7   8
ENDBRANCH   1   7
BRANCH   2  23
ATOM     23  C   UNL     1     -18.931 -27.538  11.894  1.00  0.00     0.191 C 
BRANCH  23  24
ATOM     24  O   UNL     1     -19.167 -26.325  12.557  1.00  0.00    -0.394 OA
ATOM     25  H   UNL     1     -19.061 -26.509  13.526  1.00  0.00     0.210 HD
ENDBRANCH  23  24
ENDBRANCH   2  23
BRANCH   6  26
ATOM     26  O   UNL     1     -21.675 -30.883  13.386  1.00  0.00    -0.387 OA
ATOM     27  H   UNL     1     -22.130 -30.191  13.934  1.00  0.00     0.211 HD
ENDBRANCH   6  26
BRANCH   5  28
ATOM     28  O   UNL     1     -20.283 -32.159  11.285  1.00  0.00    -0.385 OA
ATOM     29  H   UNL     1     -20.756 -32.836  11.834  1.00  0.00     0.211 HD
ENDBRANCH   5  28
BRANCH   4  30
ATOM     30  O   UNL     1     -18.838 -29.921  10.310  1.00  0.00    -0.341 OA
BRANCH  30  31
ATOM     31  C   UNL     1     -18.095 -30.319   9.165  1.00  0.00     0.184 C 
ATOM     32  C   UNL     1     -17.924 -29.119   8.204  1.00  0.00     0.178 C 
ATOM     33  C   UNL     1     -18.864 -31.443   8.440  1.00  0.00     0.180 C 
ATOM     34  O   UNL     1     -19.188 -28.646   7.763  1.00  0.00    -0.342 OA
ATOM     35  C   UNL     1     -20.147 -30.902   7.783  1.00  0.00     0.201 C 
ATOM     36  C   UNL     1     -19.860 -29.616   6.974  1.00  0.00     0.279 C 
BRANCH  32  37
ATOM     37  C   UNL     1     -17.170 -27.964   8.879  1.00  0.00     0.191 C 
BRANCH  37  38
ATOM     38  O   UNL     1     -16.231 -28.463   9.794  1.00  0.00    -0.394 OA
ATOM     39  H   UNL     1     -15.789 -29.237   9.356  1.00  0.00     0.210 HD
ENDBRANCH  37  38
ENDBRANCH  32  37
BRANCH  33  40
ATOM     40  O   UNL     1     -18.046 -32.025   7.455  1.00  0.00    -0.387 OA
ATOM     41  H   UNL     1     -18.649 -32.477   6.809  1.00  0.00     0.211 HD
ENDBRANCH  33  40
BRANCH  35  42
ATOM     42  O   UNL     1     -21.103 -30.636   8.777  1.00  0.00    -0.385 OA
ATOM     43  H   UNL     1     -21.810 -31.328   8.691  1.00  0.00     0.211 HD
ENDBRANCH  35  42
BRANCH  36  44
ATOM     44  O   UNL     1     -19.130 -29.897   5.804  1.00  0.00    -0.366 OA
ATOM     45  H   UNL     1     -19.783 -30.209   5.124  1.00  0.00     0.213 HD
ENDBRANCH  36  44
ENDBRANCH  30  31
ENDBRANCH   4  30
TORSDOF 18
ENDMDL
MODEL 3
REMARK VINA RESULT:    -5.889      7.190     12.661
REMARK INTER + INTRA:         -12.956
REMARK INTER:                 -10.274
REMARK INTRA:                  -2.681
REMARK UNBOUND:                -2.763
REMARK SMILES OC[C@@H]1O[C@@H](O[C@H]2[C@H](O)[C@@H](O)[C@@H](O[C@H]3[C@H](O)[C@@H](O)[C@H](O)O[C@H]3CO)O[C@H]2CO)[C@H](O)[C@@H](O)[C@@H]1O
REMARK SMILES IDX 7 1 26 2 25 3 12 4 10 5 8 6 6 7 5 8 3 9 33 10 4 11 31 12
REMARK SMILES IDX 29 13 2 14 1 15 34 17 32 19 30 21 27 23 28 24 9 26 11 28
REMARK SMILES IDX 13 30 14 31 22 32 15 33 21 34 17 35 19 36 23 37 24 38 16 40
REMARK SMILES IDX 18 42 20 44
REMARK H PARENT 1 16 34 18 32 20 30 22 28 25 9 27 11 29 24 39 16 41 18 43
REMARK H PARENT 20 45
REMARK Flexibility Score: inf
ROOT
ATOM      1  C   UNL     1     -19.905 -25.370  15.558  1.00  0.00     0.184 C 
ATOM      2  C   UNL     1     -20.016 -24.266  14.474  1.00  0.00     0.178 C 
ATOM      3  O   UNL     1     -18.755 -23.869  13.942  1.00  0.00    -0.341 OA
ATOM      4  C   UNL     1     -17.970 -24.940  13.435  1.00  0.00     0.282 C 
ATOM      5  C   UNL     1     -17.717 -26.009  14.516  1.00  0.00     0.202 C 
ATOM      6  C   UNL     1     -19.047 -26.548  15.055  1.00  0.00     0.180 C 
ENDROOT
BRANCH   1   7
ATOM      7  O   UNL     1     -21.216 -25.800  15.896  1.00  0.00    -0.341 OA
BRANCH   7   8
ATOM      8  C   UNL     1     -21.395 -26.043  17.287  1.00  0.00     0.282 C 
ATOM      9  C   UNL     1     -22.117 -28.244  16.889  1.00  0.00     0.178 C 
ATOM     10  C   UNL     1     -23.565 -27.967  17.350  1.00  0.00     0.177 C 
ATOM     11  O   UNL     1     -21.199 -27.419  17.589  1.00  0.00    -0.341 OA
ATOM     12  C   UNL     1     -23.899 -26.478  17.120  1.00  0.00     0.179 C 
ATOM     13  C   UNL     1     -22.801 -25.576  17.721  1.00  0.00     0.202 C 
BRANCH   9  14
ATOM     14  C   UNL     1     -21.724 -29.715  17.084  1.00  0.00     0.191 C 
BRANCH  14  15
ATOM     15  O   UNL     1     -20.910 -29.866  18.214  1.00  0.00    -0.394 OA
ATOM     16  H   UNL     1     -21.257 -29.231  18.892  1.00  0.00     0.210 HD
ENDBRANCH  14  15
ENDBRANCH   9  14
BRANCH  10  17
ATOM     17  O   UNL     1     -23.709 -28.286  18.711  1.00  0.00    -0.387 OA
ATOM     18  H   UNL     1     -22.969 -28.905  18.941  1.00  0.00     0.211 HD
ENDBRANCH  10  17
BRANCH  12  19
ATOM     19  O   UNL     1     -24.019 -26.216  15.744  1.00  0.00    -0.387 OA
ATOM     20  H   UNL     1     -23.125 -26.378  15.341  1.00  0.00     0.211 HD
ENDBRANCH  12  19
BRANCH  13  21
ATOM     21  O   UNL     1     -22.875 -25.591  19.125  1.00  0.00    -0.385 OA
ATOM     22  H   UNL     1     -22.063 -25.126  19.461  1.00  0.00     0.211 HD
ENDBRANCH  13  21
ENDBRANCH   7   8
ENDBRANCH   1   7
BRANCH   2  23
ATOM     23  C   UNL     1     -21.064 -24.561  13.374  1.00  0.00     0.191 C 
BRANCH  23  24
ATOM     24  O   UNL     1     -22.358 -24.277  13.834  1.00  0.00    -0.394 OA
ATOM     25  H   UNL     1     -22.859 -23.913  13.058  1.00  0.00     0.210 HD
ENDBRANCH  23  24
ENDBRANCH   2  23
BRANCH   6  26
ATOM     26  O   UNL     1     -18.786 -27.428  16.118  1.00  0.00    -0.387 OA
ATOM     27  H   UNL     1     -18.607 -28.320  15.719  1.00  0.00     0.211 HD
ENDBRANCH   6  26
BRANCH   5  28
ATOM     28  O   UNL     1     -16.955 -27.068  13.996  1.00  0.00    -0.385 OA
ATOM     29  H   UNL     1     -17.445 -27.904  14.206  1.00  0.00     0.211 HD
ENDBRANCH   5  28
BRANCH   4  30
ATOM     30  O   UNL     1     -18.590 -25.504  12.285  1.00  0.00    -0.341 OA
BRANCH  30  31
ATOM     31  C   UNL     1     -17.852 -25.300  11.086  1.00  0.00     0.184 C 
ATOM     32  C   UNL     1     -18.818 -25.226   9.879  1.00  0.00     0.178 C 
ATOM     33  C   UNL     1     -16.887 -26.487  10.891  1.00  0.00     0.180 C 
ATOM     34  O   UNL     1     -19.546 -26.437   9.745  1.00  0.00    -0.342 OA
ATOM     35  C   UNL     1     -17.654 -27.776  10.545  1.00  0.00     0.201 C 
ATOM     36  C   UNL     1     -18.692 -27.525   9.426  1.00  0.00     0.279 C 
BRANCH  32  37
ATOM     37  C   UNL     1     -19.810 -24.063  10.028  1.00  0.00     0.191 C 
BRANCH  37  38
ATOM     38  O   UNL     1     -19.272 -23.064  10.851  1.00  0.00    -0.394 OA
ATOM     39  H   UNL     1     -19.090 -22.280  10.267  1.00  0.00     0.210 HD
ENDBRANCH  37  38
ENDBRANCH  32  37
BRANCH  33  40
ATOM     40  O   UNL     1     -15.976 -26.197   9.858  1.00  0.00    -0.387 OA
ATOM     41  H   UNL     1     -15.238 -25.671  10.262  1.00  0.00     0.211 HD
ENDBRANCH  33  40
BRANCH  35  42
ATOM     42  O   UNL     1     -18.303 -28.254  11.696  1.00  0.00    -0.385 OA
ATOM     43  H   UNL     1     -18.650 -27.461  12.183  1.00  0.00     0.211 HD
ENDBRANCH  35  42
BRANCH  36  44
ATOM     44  O   UNL     1     -18.066 -27.317   8.183  1.00  0.00    -0.366 OA
ATOM     45  H   UNL     1     -17.224 -27.845   8.191  1.00  0.00     0.213 HD
ENDBRANCH  36  44
ENDBRANCH  30  31
ENDBRANCH   4  30
TORSDOF 18
ENDMDL
MODEL 4
REMARK VINA RESULT:    -5.687      4.530     10.686
REMARK INTER + INTRA:         -12.606
REMARK INTER:                 -10.224
REMARK INTRA:                  -2.382
REMARK UNBOUND:                -2.763
REMARK SMILES OC[C@@H]1O[C@@H](O[C@H]2[C@H](O)[C@@H](O)[C@@H](O[C@H]3[C@H](O)[C@@H](O)[C@H](O)O[C@H]3CO)O[C@H]2CO)[C@H](O)[C@@H](O)[C@@H]1O
REMARK SMILES IDX 7 1 26 2 25 3 12 4 10 5 8 6 6 7 5 8 3 9 33 10 4 11 31 12
REMARK SMILES IDX 29 13 2 14 1 15 34 17 32 19 30 21 27 23 28 24 9 26 11 28
REMARK SMILES IDX 13 30 14 31 22 32 15 33 21 34 17 35 19 36 23 37 24 38 16 40
REMARK SMILES IDX 18 42 20 44
REMARK H PARENT 1 16 34 18 32 20 30 22 28 25 9 27 11 29 24 39 16 41 18 43
REMARK H PARENT 20 45
REMARK Flexibility Score: inf
ROOT
ATOM      1  C   UNL     1     -20.636 -30.074  13.142  1.00  0.00     0.184 C 
ATOM      2  C   UNL     1     -19.665 -29.689  11.995  1.00  0.00     0.178 C 
ATOM      3  O   UNL     1     -19.323 -30.785  11.151  1.00  0.00    -0.341 OA
ATOM      4  C   UNL     1     -20.441 -31.472  10.604  1.00  0.00     0.282 C 
ATOM      5  C   UNL     1     -21.376 -31.994  11.712  1.00  0.00     0.202 C 
ATOM      6  C   UNL     1     -21.858 -30.837  12.593  1.00  0.00     0.180 C 
ENDROOT
BRANCH   1   7
ATOM      7  O   UNL     1     -21.033 -28.885  13.812  1.00  0.00    -0.341 OA
BRANCH   7   8
ATOM      8  C   UNL     1     -21.158 -29.041  15.221  1.00  0.00     0.282 C 
ATOM      9  C   UNL     1     -21.993 -26.858  15.467  1.00  0.00     0.178 C 
ATOM     10  C   UNL     1     -20.746 -26.351  16.224  1.00  0.00     0.177 C 
ATOM     11  O   UNL     1     -22.215 -28.235  15.727  1.00  0.00    -0.341 OA
ATOM     12  C   UNL     1     -19.516 -27.181  15.800  1.00  0.00     0.179 C 
ATOM     13  C   UNL     1     -19.819 -28.691  15.904  1.00  0.00     0.202 C 
BRANCH   9  14
ATOM     14  C   UNL     1     -23.253 -26.064  15.839  1.00  0.00     0.191 C 
BRANCH  14  15
ATOM     15  O   UNL     1     -23.839 -26.581  17.001  1.00  0.00    -0.394 OA
ATOM     16  H   UNL     1     -24.302 -27.416  16.731  1.00  0.00     0.210 HD
ENDBRANCH  14  15
ENDBRANCH   9  14
BRANCH  10  17
ATOM     17  O   UNL     1     -20.943 -26.461  17.611  1.00  0.00    -0.387 OA
ATOM     18  H   UNL     1     -20.653 -27.374  17.871  1.00  0.00     0.211 HD
ENDBRANCH  10  17
BRANCH  12  19
ATOM     19  O   UNL     1     -19.153 -26.867  14.478  1.00  0.00    -0.387 OA
ATOM     20  H   UNL     1     -19.437 -25.930  14.316  1.00  0.00     0.211 HD
ENDBRANCH  12  19
BRANCH  13  21
ATOM     21  O   UNL     1     -19.878 -29.081  17.253  1.00  0.00    -0.385 OA
ATOM     22  H   UNL     1     -19.821 -28.250  17.797  1.00  0.00     0.211 HD
ENDBRANCH  13  21
ENDBRANCH   7   8
ENDBRANCH   1   7
BRANCH   2  23
ATOM     23  C   UNL     1     -20.093 -28.432  11.198  1.00  0.00     0.191 C 
BRANCH  23  24
ATOM     24  O   UNL     1     -19.517 -27.278  11.747  1.00  0.00    -0.394 OA
ATOM     25  H   UNL     1     -19.209 -26.725  10.982  1.00  0.00     0.210 HD
ENDBRANCH  23  24
ENDBRANCH   2  23
BRANCH   6  26
ATOM     26  O   UNL     1     -22.608 -31.356  13.661  1.00  0.00    -0.387 OA
ATOM     27  H   UNL     1     -22.281 -30.913  14.488  1.00  0.00     0.211 HD
ENDBRANCH   6  26
BRANCH   5  28
ATOM     28  O   UNL     1     -22.483 -32.656  11.155  1.00  0.00    -0.385 OA
ATOM     29  H   UNL     1     -22.127 -33.307  10.499  1.00  0.00     0.211 HD
ENDBRANCH   5  28
BRANCH   4  30
ATOM     30  O   UNL     1     -21.138 -30.631   9.693  1.00  0.00    -0.341 OA
BRANCH  30  31
ATOM     31  C   UNL     1     -21.065 -31.074   8.343  1.00  0.00     0.184 C 
ATOM     32  C   UNL     1     -20.565 -29.923   7.437  1.00  0.00     0.178 C 
ATOM     33  C   UNL     1     -22.475 -31.502   7.886  1.00  0.00     0.180 C 
ATOM     34  O   UNL     1     -21.457 -28.820   7.489  1.00  0.00    -0.342 OA
ATOM     35  C   UNL     1     -23.407 -30.285   7.744  1.00  0.00     0.201 C 
ATOM     36  C   UNL     1     -22.725 -29.150   6.943  1.00  0.00     0.279 C 
BRANCH  32  37
ATOM     37  C   UNL     1     -19.165 -29.450   7.856  1.00  0.00     0.191 C 
BRANCH  37  38
ATOM     38  O   UNL     1     -18.382 -30.541   8.260  1.00  0.00    -0.394 OA
ATOM     39  H   UNL     1     -18.830 -31.358   7.915  1.00  0.00     0.210 HD
ENDBRANCH  37  38
ENDBRANCH  32  37
BRANCH  33  40
ATOM     40  O   UNL     1     -22.394 -32.172   6.651  1.00  0.00    -0.387 OA
ATOM     41  H   UNL     1     -23.078 -31.766   6.057  1.00  0.00     0.211 HD
ENDBRANCH  33  40
BRANCH  35  42
ATOM     42  O   UNL     1     -23.761 -29.819   9.021  1.00  0.00    -0.385 OA
ATOM     43  H   UNL     1     -24.752 -29.848   9.074  1.00  0.00     0.211 HD
ENDBRANCH  35  42
BRANCH  36  44
ATOM     44  O   UNL     1     -22.609 -29.482   5.581  1.00  0.00    -0.366 OA
ATOM     45  H   UNL     1     -22.331 -28.656   5.104  1.00  0.00     0.213 HD
ENDBRANCH  36  44
ENDBRANCH  30  31
ENDBRANCH   4  30
TORSDOF 18
ENDMDL
MODEL 5
REMARK VINA RESULT:    -5.631     11.384     13.450
REMARK INTER + INTRA:         -12.508
REMARK INTER:                  -9.546
REMARK INTRA:                  -2.962
REMARK UNBOUND:                -2.763
REMARK SMILES OC[C@@H]1O[C@@H](O[C@H]2[C@H](O)[C@@H](O)[C@@H](O[C@H]3[C@H](O)[C@@H](O)[C@H](O)O[C@H]3CO)O[C@H]2CO)[C@H](O)[C@@H](O)[C@@H]1O
REMARK SMILES IDX 7 1 26 2 25 3 12 4 10 5 8 6 6 7 5 8 3 9 33 10 4 11 31 12
REMARK SMILES IDX 29 13 2 14 1 15 34 17 32 19 30 21 27 23 28 24 9 26 11 28
REMARK SMILES IDX 13 30 14 31 22 32 15 33 21 34 17 35 19 36 23 37 24 38 16 40
REMARK SMILES IDX 18 42 20 44
REMARK H PARENT 1 16 34 18 32 20 30 22 28 25 9 27 11 29 24 39 16 41 18 43
REMARK H PARENT 20 45
REMARK Flexibility Score: inf
ROOT
ATOM      1  C   UNL     1     -27.372 -15.645   5.231  1.00  0.00     0.184 C 
ATOM      2  C   UNL     1     -27.411 -15.567   6.780  1.00  0.00     0.178 C 
ATOM      3  O   UNL     1     -28.640 -15.056   7.289  1.00  0.00    -0.341 OA
ATOM      4  C   UNL     1     -29.795 -15.744   6.829  1.00  0.00     0.282 C 
ATOM      5  C   UNL     1     -29.875 -15.737   5.290  1.00  0.00     0.202 C 
ATOM      6  C   UNL     1     -28.617 -16.372   4.687  1.00  0.00     0.180 C 
ENDROOT
BRANCH   1   7
ATOM      7  O   UNL     1     -26.179 -16.314   4.846  1.00  0.00    -0.341 OA
BRANCH   7   8
ATOM      8  C   UNL     1     -25.423 -15.611   3.866  1.00  0.00     0.282 C 
ATOM      9  C   UNL     1     -25.449 -17.455   2.409  1.00  0.00     0.178 C 
ATOM     10  C   UNL     1     -23.932 -17.717   2.542  1.00  0.00     0.177 C 
ATOM     11  O   UNL     1     -25.736 -16.073   2.558  1.00  0.00    -0.341 OA
ATOM     12  C   UNL     1     -23.443 -17.213   3.917  1.00  0.00     0.179 C 
ATOM     13  C   UNL     1     -23.916 -15.765   4.163  1.00  0.00     0.202 C 
BRANCH   9  14
ATOM     14  C   UNL     1     -26.000 -17.943   1.063  1.00  0.00     0.191 C 
BRANCH  14  15
ATOM     15  O   UNL     1     -27.334 -17.548   0.900  1.00  0.00    -0.394 OA
ATOM     16  H   UNL     1     -27.488 -17.488  -0.079  1.00  0.00     0.210 HD
ENDBRANCH  14  15
ENDBRANCH   9  14
BRANCH  10  17
ATOM     17  O   UNL     1     -23.235 -17.059   1.515  1.00  0.00    -0.387 OA
ATOM     18  H   UNL     1     -22.718 -17.753   1.028  1.00  0.00     0.211 HD
ENDBRANCH  10  17
BRANCH  12  19
ATOM     19  O   UNL     1     -23.933 -18.045   4.939  1.00  0.00    -0.387 OA
ATOM     20  H   UNL     1     -23.460 -17.786   5.773  1.00  0.00     0.211 HD
ENDBRANCH  12  19
BRANCH  13  21
ATOM     21  O   UNL     1     -23.196 -14.875   3.347  1.00  0.00    -0.385 OA
ATOM     22  H   UNL     1     -22.233 -15.096   3.458  1.00  0.00     0.211 HD
ENDBRANCH  13  21
ENDBRANCH   7   8
ENDBRANCH   1   7
BRANCH   2  23
ATOM     23  C   UNL     1     -26.963 -16.867   7.491  1.00  0.00     0.191 C 
BRANCH  23  24
ATOM     24  O   UNL     1     -25.571 -17.016   7.421  1.00  0.00    -0.394 OA
ATOM     25  H   UNL     1     -25.316 -16.842   6.478  1.00  0.00     0.210 HD
ENDBRANCH  23  24
ENDBRANCH   2  23
BRANCH   6  26
ATOM     26  O   UNL     1     -28.665 -16.243   3.289  1.00  0.00    -0.387 OA
ATOM     27  H   UNL     1     -28.598 -17.159   2.911  1.00  0.00     0.211 HD
ENDBRANCH   6  26
BRANCH   5  28
ATOM     28  O   UNL     1     -31.012 -16.435   4.850  1.00  0.00    -0.385 OA
ATOM     29  H   UNL     1     -31.427 -16.843   5.652  1.00  0.00     0.211 HD
ENDBRANCH   5  28
BRANCH   4  30
ATOM     30  O   UNL     1     -29.816 -17.071   7.342  1.00  0.00    -0.341 OA
BRANCH  30  31
ATOM     31  C   UNL     1     -30.832 -17.288   8.313  1.00  0.00     0.184 C 
ATOM     32  C   UNL     1     -30.330 -18.281   9.389  1.00  0.00     0.178 C 
ATOM     33  C   UNL     1     -32.069 -17.885   7.610  1.00  0.00     0.180 C 
ATOM     34  O   UNL     1     -30.008 -19.534   8.804  1.00  0.00    -0.342 OA
ATOM     35  C   UNL     1     -31.800 -19.327   7.142  1.00  0.00     0.201 C 
ATOM     36  C   UNL     1     -31.159 -20.169   8.270  1.00  0.00     0.279 C 
BRANCH  32  37
ATOM     37  C   UNL     1     -29.090 -17.739  10.115  1.00  0.00     0.191 C 
BRANCH  37  38
ATOM     38  O   UNL     1     -29.121 -16.337  10.155  1.00  0.00    -0.394 OA
ATOM     39  H   UNL     1     -29.406 -16.083  11.072  1.00  0.00     0.210 HD
ENDBRANCH  37  38
ENDBRANCH  32  37
BRANCH  33  40
ATOM     40  O   UNL     1     -33.167 -17.879   8.489  1.00  0.00    -0.387 OA
ATOM     41  H   UNL     1     -33.267 -16.949   8.820  1.00  0.00     0.211 HD
ENDBRANCH  33  40
BRANCH  35  42
ATOM     42  O   UNL     1     -30.948 -19.301   6.026  1.00  0.00    -0.385 OA
ATOM     43  H   UNL     1     -31.018 -18.394   5.628  1.00  0.00     0.211 HD
ENDBRANCH  35  42
BRANCH  36  44
ATOM     44  O   UNL     1     -32.088 -20.452   9.289  1.00  0.00    -0.366 OA
ATOM     45  H   UNL     1     -32.560 -21.286   9.027  1.00  0.00     0.213 HD
ENDBRANCH  36  44
ENDBRANCH  30  31
ENDBRANCH   4  30
TORSDOF 18
ENDMDL
MODEL 6
REMARK VINA RESULT:    -5.512      6.184      9.681
REMARK INTER + INTRA:         -12.303
REMARK INTER:                 -10.662
REMARK INTRA:                  -1.642
REMARK UNBOUND:                -2.763
REMARK SMILES OC[C@@H]1O[C@@H](O[C@H]2[C@H](O)[C@@H](O)[C@@H](O[C@H]3[C@H](O)[C@@H](O)[C@H](O)O[C@H]3CO)O[C@H]2CO)[C@H](O)[C@@H](O)[C@@H]1O
REMARK SMILES IDX 7 1 26 2 25 3 12 4 10 5 8 6 6 7 5 8 3 9 33 10 4 11 31 12
REMARK SMILES IDX 29 13 2 14 1 15 34 17 32 19 30 21 27 23 28 24 9 26 11 28
REMARK SMILES IDX 13 30 14 31 22 32 15 33 21 34 17 35 19 36 23 37 24 38 16 40
REMARK SMILES IDX 18 42 20 44
REMARK H PARENT 1 16 34 18 32 20 30 22 28 25 9 27 11 29 24 39 16 41 18 43
REMARK H PARENT 20 45
REMARK Flexibility Score: inf
ROOT
ATOM      1  C   UNL     1     -17.636 -27.509  11.974  1.00  0.00     0.184 C 
ATOM      2  C   UNL     1     -17.968 -28.680  12.936  1.00  0.00     0.178 C 
ATOM      3  O   UNL     1     -17.742 -28.367  14.307  1.00  0.00    -0.341 OA
ATOM      4  C   UNL     1     -18.408 -27.194  14.757  1.00  0.00     0.282 C 
ATOM      5  C   UNL     1     -18.009 -25.966  13.914  1.00  0.00     0.202 C 
ATOM      6  C   UNL     1     -18.327 -26.209  12.434  1.00  0.00     0.180 C 
ENDROOT
BRANCH   1   7
ATOM      7  O   UNL     1     -18.050 -27.872  10.664  1.00  0.00    -0.341 OA
BRANCH   7   8
ATOM      8  C   UNL     1     -17.181 -28.805  10.031  1.00  0.00     0.282 C 
ATOM      9  C   UNL     1     -16.853 -27.373   8.196  1.00  0.00     0.178 C 
ATOM     10  C   UNL     1     -17.604 -28.293   7.208  1.00  0.00     0.177 C 
ATOM     11  O   UNL     1     -16.227 -28.135   9.216  1.00  0.00    -0.341 OA
ATOM     12  C   UNL     1     -18.653 -29.124   7.976  1.00  0.00     0.179 C 
ATOM     13  C   UNL     1     -18.011 -29.808   9.202  1.00  0.00     0.202 C 
BRANCH   9  14
ATOM     14  C   UNL     1     -15.798 -26.511   7.490  1.00  0.00     0.191 C 
BRANCH  14  15
ATOM     15  O   UNL     1     -14.635 -26.417   8.264  1.00  0.00    -0.394 OA
ATOM     16  H   UNL     1     -14.883 -25.906   9.077  1.00  0.00     0.210 HD
ENDBRANCH  14  15
ENDBRANCH   9  14
BRANCH  10  17
ATOM     17  O   UNL     1     -16.697 -29.148   6.558  1.00  0.00    -0.387 OA
ATOM     18  H   UNL     1     -15.936 -29.285   7.180  1.00  0.00     0.211 HD
ENDBRANCH  10  17
BRANCH  12  19
ATOM     19  O   UNL     1     -19.708 -28.298   8.402  1.00  0.00    -0.387 OA
ATOM     20  H   UNL     1     -19.305 -27.429   8.666  1.00  0.00     0.211 HD
ENDBRANCH  12  19
BRANCH  13  21
ATOM     21  O   UNL     1     -17.175 -30.860   8.787  1.00  0.00    -0.385 OA
ATOM     22  H   UNL     1     -17.668 -31.359   8.083  1.00  0.00     0.211 HD
ENDBRANCH  13  21
ENDBRANCH   7   8
ENDBRANCH   1   7
BRANCH   2  23
ATOM     23  C   UNL     1     -19.352 -29.328  12.690  1.00  0.00     0.191 C 
BRANCH  23  24
ATOM     24  O   UNL     1     -19.213 -30.680  12.348  1.00  0.00    -0.394 OA
ATOM     25  H   UNL     1     -18.933 -30.703  11.396  1.00  0.00     0.210 HD
ENDBRANCH  23  24
ENDBRANCH   2  23
BRANCH   6  26
ATOM     26  O   UNL     1     -17.845 -25.127  11.679  1.00  0.00    -0.387 OA
ATOM     27  H   UNL     1     -16.959 -24.882  12.056  1.00  0.00     0.211 HD
ENDBRANCH   6  26
BRANCH   5  28
ATOM     28  O   UNL     1     -18.687 -24.819  14.359  1.00  0.00    -0.385 OA
ATOM     29  H   UNL     1     -18.774 -24.216  13.577  1.00  0.00     0.211 HD
ENDBRANCH   5  28
BRANCH   4  30
ATOM     30  O   UNL     1     -19.816 -27.392  14.748  1.00  0.00    -0.341 OA
BRANCH  30  31
ATOM     31  C   UNL     1     -20.374 -27.548  16.047  1.00  0.00     0.184 C 
ATOM     32  C   UNL     1     -21.666 -28.397  15.967  1.00  0.00     0.178 C 
ATOM     33  C   UNL     1     -20.719 -26.153  16.609  1.00  0.00     0.180 C 
ATOM     34  O   UNL     1     -22.635 -27.761  15.148  1.00  0.00    -0.342 OA
ATOM     35  C   UNL     1     -21.906 -25.528  15.854  1.00  0.00     0.201 C 
ATOM     36  C   UNL     1     -23.072 -26.536  15.715  1.00  0.00     0.279 C 
BRANCH  32  37
ATOM     37  C   UNL     1     -21.381 -29.797  15.404  1.00  0.00     0.191 C 
BRANCH  37  38
ATOM     38  O   UNL     1     -22.140 -30.761  16.083  1.00  0.00    -0.394 OA
ATOM     39  H   UNL     1     -21.518 -31.496  16.327  1.00  0.00     0.210 HD
ENDBRANCH  37  38
ENDBRANCH  32  37
BRANCH  33  40
ATOM     40  O   UNL     1     -21.038 -26.253  17.975  1.00  0.00    -0.387 OA
ATOM     41  H   UNL     1     -21.986 -25.976  18.072  1.00  0.00     0.211 HD
ENDBRANCH  33  40
BRANCH  35  42
ATOM     42  O   UNL     1     -21.481 -25.114  14.580  1.00  0.00    -0.385 OA
ATOM     43  H   UNL     1     -22.113 -25.507  13.923  1.00  0.00     0.211 HD
ENDBRANCH  35  42
BRANCH  36  44
ATOM     44  O   UNL     1     -23.706 -26.759  16.951  1.00  0.00    -0.366 OA
ATOM     45  H   UNL     1     -23.436 -27.665  17.256  1.00  0.00     0.213 HD
ENDBRANCH  36  44
ENDBRANCH  30  31
ENDBRANCH   4  30
TORSDOF 18
ENDMDL
MODEL 7
REMARK VINA RESULT:    -5.434      5.451     10.008
REMARK INTER + INTRA:         -12.167
REMARK INTER:                  -9.295
REMARK INTRA:                  -2.872
REMARK UNBOUND:                -2.763
REMARK SMILES OC[C@@H]1O[C@@H](O[C@H]2[C@H](O)[C@@H](O)[C@@H](O[C@H]3[C@H](O)[C@@H](O)[C@H](O)O[C@H]3CO)O[C@H]2CO)[C@H](O)[C@@H](O)[C@@H]1O
REMARK SMILES IDX 7 1 26 2 25 3 12 4 10 5 8 6 6 7 5 8 3 9 33 10 4 11 31 12
REMARK SMILES IDX 29 13 2 14 1 15 34 17 32 19 30 21 27 23 28 24 9 26 11 28
REMARK SMILES IDX 13 30 14 31 22 32 15 33 21 34 17 35 19 36 23 37 24 38 16 40
REMARK SMILES IDX 18 42 20 44
REMARK H PARENT 1 16 34 18 32 20 30 22 28 25 9 27 11 29 24 39 16 41 18 43
REMARK H PARENT 20 45
REMARK Flexibility Score: inf
ROOT
ATOM      1  C   UNL     1     -19.133 -28.974  12.979  1.00  0.00     0.184 C 
ATOM      2  C   UNL     1     -18.249 -29.648  11.898  1.00  0.00     0.178 C 
ATOM      3  O   UNL     1     -18.481 -31.048  11.770  1.00  0.00    -0.341 OA
ATOM      4  C   UNL     1     -19.840 -31.397  11.542  1.00  0.00     0.282 C 
ATOM      5  C   UNL     1     -20.752 -30.862  12.664  1.00  0.00     0.202 C 
ATOM      6  C   UNL     1     -20.618 -29.340  12.779  1.00  0.00     0.180 C 
ENDROOT
BRANCH   1   7
ATOM      7  O   UNL     1     -18.938 -27.569  12.907  1.00  0.00    -0.341 OA
BRANCH   7   8
ATOM      8  C   UNL     1     -18.710 -26.960  14.173  1.00  0.00     0.282 C 
ATOM      9  C   UNL     1     -20.412 -25.381  13.807  1.00  0.00     0.178 C 
ATOM     10  C   UNL     1     -19.433 -24.189  13.715  1.00  0.00     0.177 C 
ATOM     11  O   UNL     1     -19.907 -26.380  14.678  1.00  0.00    -0.341 OA
ATOM     12  C   UNL     1     -18.061 -24.690  13.217  1.00  0.00     0.179 C 
ATOM     13  C   UNL     1     -17.592 -25.903  14.048  1.00  0.00     0.202 C 
BRANCH   9  14
ATOM     14  C   UNL     1     -21.803 -24.946  14.290  1.00  0.00     0.191 C 
BRANCH  14  15
ATOM     15  O   UNL     1     -22.167 -23.721  13.716  1.00  0.00    -0.394 OA
ATOM     16  H   UNL     1     -22.484 -23.150  14.462  1.00  0.00     0.210 HD
ENDBRANCH  14  15
ENDBRANCH   9  14
BRANCH  10  17
ATOM     17  O   UNL     1     -19.294 -23.579  14.973  1.00  0.00    -0.387 OA
ATOM     18  H   UNL     1     -18.592 -22.882  14.879  1.00  0.00     0.211 HD
ENDBRANCH  10  17
BRANCH  12  19
ATOM     19  O   UNL     1     -18.141 -25.055  11.862  1.00  0.00    -0.387 OA
ATOM     20  H   UNL     1     -17.317 -24.717  11.423  1.00  0.00     0.211 HD
ENDBRANCH  12  19
BRANCH  13  21
ATOM     21  O   UNL     1     -17.209 -25.489  15.336  1.00  0.00    -0.385 OA
ATOM     22  H   UNL     1     -16.726 -26.252  15.752  1.00  0.00     0.211 HD
ENDBRANCH  13  21
ENDBRANCH   7   8
ENDBRANCH   1   7
BRANCH   2  23
ATOM     23  C   UNL     1     -18.246 -28.915  10.535  1.00  0.00     0.191 C 
BRANCH  23  24
ATOM     24  O   UNL     1     -17.495 -27.734  10.609  1.00  0.00    -0.394 OA
ATOM     25  H   UNL     1     -18.135 -27.005  10.818  1.00  0.00     0.210 HD
ENDBRANCH  23  24
ENDBRANCH   2  23
BRANCH   6  26
ATOM     26  O   UNL     1     -21.365 -28.897  13.883  1.00  0.00    -0.387 OA
ATOM     27  H   UNL     1     -21.810 -28.052  13.612  1.00  0.00     0.211 HD
ENDBRANCH   6  26
BRANCH   5  28
ATOM     28  O   UNL     1     -22.092 -31.200  12.417  1.00  0.00    -0.385 OA
ATOM     29  H   UNL     1     -22.529 -30.391  12.047  1.00  0.00     0.211 HD
ENDBRANCH   5  28
BRANCH   4  30
ATOM     30  O   UNL     1     -20.262 -30.930  10.266  1.00  0.00    -0.341 OA
BRANCH  30  31
ATOM     31  C   UNL     1     -20.471 -31.973   9.322  1.00  0.00     0.184 C 
ATOM     32  C   UNL     1     -20.004 -31.516   7.919  1.00  0.00     0.178 C 
ATOM     33  C   UNL     1     -21.978 -32.301   9.272  1.00  0.00     0.180 C 
ATOM     34  O   UNL     1     -20.741 -30.381   7.490  1.00  0.00    -0.342 OA
ATOM     35  C   UNL     1     -22.774 -31.154   8.622  1.00  0.00     0.201 C 
ATOM     36  C   UNL     1     -22.113 -30.693   7.302  1.00  0.00     0.279 C 
BRANCH  32  37
ATOM     37  C   UNL     1     -18.508 -31.167   7.915  1.00  0.00     0.191 C 
BRANCH  37  38
ATOM     38  O   UNL     1     -17.818 -31.963   8.840  1.00  0.00    -0.394 OA
ATOM     39  H   UNL     1     -18.290 -31.866   9.709  1.00  0.00     0.210 HD
ENDBRANCH  37  38
ENDBRANCH  32  37
BRANCH  33  40
ATOM     40  O   UNL     1     -22.186 -33.484   8.540  1.00  0.00    -0.387 OA
ATOM     41  H   UNL     1     -21.516 -34.143   8.859  1.00  0.00     0.211 HD
ENDBRANCH  33  40
BRANCH  35  42
ATOM     42  O   UNL     1     -22.850 -30.075   9.518  1.00  0.00    -0.385 OA
ATOM     43  H   UNL     1     -22.521 -29.273   9.034  1.00  0.00     0.211 HD
ENDBRANCH  35  42
BRANCH  36  44
ATOM     44  O   UNL     1     -22.269 -31.655   6.287  1.00  0.00    -0.366 OA
ATOM     45  H   UNL     1     -23.188 -32.023   6.375  1.00  0.00     0.213 HD
ENDBRANCH  36  44
ENDBRANCH  30  31
ENDBRANCH   4  30
TORSDOF 18
ENDMDL
MODEL 8
REMARK VINA RESULT:    -5.428      4.822     10.444
REMARK INTER + INTRA:         -12.157
REMARK INTER:                  -9.955
REMARK INTRA:                  -2.202
REMARK UNBOUND:                -2.763
REMARK SMILES OC[C@@H]1O[C@@H](O[C@H]2[C@H](O)[C@@H](O)[C@@H](O[C@H]3[C@H](O)[C@@H](O)[C@H](O)O[C@H]3CO)O[C@H]2CO)[C@H](O)[C@@H](O)[C@@H]1O
REMARK SMILES IDX 7 1 26 2 25 3 12 4 10 5 8 6 6 7 5 8 3 9 33 10 4 11 31 12
REMARK SMILES IDX 29 13 2 14 1 15 34 17 32 19 30 21 27 23 28 24 9 26 11 28
REMARK SMILES IDX 13 30 14 31 22 32 15 33 21 34 17 35 19 36 23 37 24 38 16 40
REMARK SMILES IDX 18 42 20 44
REMARK H PARENT 1 16 34 18 32 20 30 22 28 25 9 27 11 29 24 39 16 41 18 43
REMARK H PARENT 20 45
REMARK Flexibility Score: inf
ROOT
ATOM      1  C   UNL     1     -19.795 -29.244  12.738  1.00  0.00     0.184 C 
ATOM      2  C   UNL     1     -19.267 -28.783  11.354  1.00  0.00     0.178 C 
ATOM      3  O   UNL     1     -19.057 -29.858  10.442  1.00  0.00    -0.341 OA
ATOM      4  C   UNL     1     -20.192 -30.694  10.252  1.00  0.00     0.282 C 
ATOM      5  C   UNL     1     -20.680 -31.287  11.588  1.00  0.00     0.202 C 
ATOM      6  C   UNL     1     -21.019 -30.167  12.578  1.00  0.00     0.180 C 
ENDROOT
BRANCH   1   7
ATOM      7  O   UNL     1     -20.120 -28.090  13.501  1.00  0.00    -0.341 OA
BRANCH   7   8
ATOM      8  C   UNL     1     -19.474 -28.044  14.768  1.00  0.00     0.282 C 
ATOM      9  C   UNL     1     -21.525 -27.823  15.893  1.00  0.00     0.178 C 
ATOM     10  C   UNL     1     -21.240 -26.376  16.352  1.00  0.00     0.177 C 
ATOM     11  O   UNL     1     -20.320 -28.565  15.786  1.00  0.00    -0.341 OA
ATOM     12  C   UNL     1     -20.282 -25.700  15.349  1.00  0.00     0.179 C 
ATOM     13  C   UNL     1     -19.052 -26.594  15.085  1.00  0.00     0.202 C 
BRANCH   9  14
ATOM     14  C   UNL     1     -22.482 -28.550  16.848  1.00  0.00     0.191 C 
BRANCH  14  15
ATOM     15  O   UNL     1     -21.793 -29.038  17.966  1.00  0.00    -0.394 OA
ATOM     16  H   UNL     1     -21.896 -28.352  18.676  1.00  0.00     0.210 HD
ENDBRANCH  14  15
ENDBRANCH   9  14
BRANCH  10  17
ATOM     17  O   UNL     1     -20.665 -26.380  17.635  1.00  0.00    -0.387 OA
ATOM     18  H   UNL     1     -21.347 -26.751  18.254  1.00  0.00     0.211 HD
ENDBRANCH  10  17
BRANCH  12  19
ATOM     19  O   UNL     1     -20.948 -25.452  14.136  1.00  0.00    -0.387 OA
ATOM     20  H   UNL     1     -20.257 -25.172  13.479  1.00  0.00     0.211 HD
ENDBRANCH  12  19
BRANCH  13  21
ATOM     21  O   UNL     1     -18.207 -26.599  16.209  1.00  0.00    -0.385 OA
ATOM     22  H   UNL     1     -17.525 -27.305  16.053  1.00  0.00     0.211 HD
ENDBRANCH  13  21
ENDBRANCH   7   8
ENDBRANCH   1   7
BRANCH   2  23
ATOM     23  C   UNL     1     -20.067 -27.615  10.727  1.00  0.00     0.191 C 
BRANCH  23  24
ATOM     24  O   UNL     1     -19.777 -26.409  11.380  1.00  0.00    -0.394 OA
ATOM     25  H   UNL     1     -20.184 -25.687  10.834  1.00  0.00     0.210 HD
ENDBRANCH  23  24
ENDBRANCH   2  23
BRANCH   6  26
ATOM     26  O   UNL     1     -21.344 -30.737  13.820  1.00  0.00    -0.387 OA
ATOM     27  H   UNL     1     -22.168 -30.284  14.140  1.00  0.00     0.211 HD
ENDBRANCH   6  26
BRANCH   5  28
ATOM     28  O   UNL     1     -21.810 -32.097  11.387  1.00  0.00    -0.385 OA
ATOM     29  H   UNL     1     -21.983 -32.565  12.243  1.00  0.00     0.211 HD
ENDBRANCH   5  28
BRANCH   4  30
ATOM     30  O   UNL     1     -21.229 -29.975   9.596  1.00  0.00    -0.341 OA
BRANCH  30  31
ATOM     31  C   UNL     1     -20.978 -29.753   8.214  1.00  0.00     0.184 C 
ATOM     32  C   UNL     1     -22.160 -28.981   7.581  1.00  0.00     0.178 C 
ATOM     33  C   UNL     1     -20.831 -31.119   7.512  1.00  0.00     0.180 C 
ATOM     34  O   UNL     1     -23.363 -29.725   7.693  1.00  0.00    -0.342 OA
ATOM     35  C   UNL     1     -22.180 -31.859   7.449  1.00  0.00     0.201 C 
ATOM     36  C   UNL     1     -23.304 -30.926   6.940  1.00  0.00     0.279 C 
BRANCH  32  37
ATOM     37  C   UNL     1     -22.357 -27.613   8.251  1.00  0.00     0.191 C 
BRANCH  37  38
ATOM     38  O   UNL     1     -23.720 -27.289   8.306  1.00  0.00    -0.394 OA
ATOM     39  H   UNL     1     -23.786 -26.407   8.759  1.00  0.00     0.210 HD
ENDBRANCH  37  38
ENDBRANCH  32  37
BRANCH  33  40
ATOM     40  O   UNL     1     -20.340 -30.935   6.206  1.00  0.00    -0.387 OA
ATOM     41  H   UNL     1     -19.733 -30.150   6.233  1.00  0.00     0.211 HD
ENDBRANCH  33  40
BRANCH  35  42
ATOM     42  O   UNL     1     -22.505 -32.342   8.727  1.00  0.00    -0.385 OA
ATOM     43  H   UNL     1     -21.717 -32.852   9.052  1.00  0.00     0.211 HD
ENDBRANCH  35  42
BRANCH  36  44
ATOM     44  O   UNL     1     -23.157 -30.646   5.569  1.00  0.00    -0.366 OA
ATOM     45  H   UNL     1     -23.282 -31.504   5.083  1.00  0.00     0.213 HD
ENDBRANCH  36  44
ENDBRANCH  30  31
ENDBRANCH   4  30
TORSDOF 18
ENDMDL
MODEL 9
REMARK VINA RESULT:    -5.339     10.926     14.823
REMARK INTER + INTRA:         -12.004
REMARK INTER:                  -9.932
REMARK INTRA:                  -2.072
REMARK UNBOUND:                -2.763
REMARK SMILES OC[C@@H]1O[C@@H](O[C@H]2[C@H](O)[C@@H](O)[C@@H](O[C@H]3[C@H](O)[C@@H](O)[C@H](O)O[C@H]3CO)O[C@H]2CO)[C@H](O)[C@@H](O)[C@@H]1O
REMARK SMILES IDX 7 1 26 2 25 3 12 4 10 5 8 6 6 7 5 8 3 9 33 10 4 11 31 12
REMARK SMILES IDX 29 13 2 14 1 15 34 17 32 19 30 21 27 23 28 24 9 26 11 28
REMARK SMILES IDX 13 30 14 31 22 32 15 33 21 34 17 35 19 36 23 37 24 38 16 40
REMARK SMILES IDX 18 42 20 44
REMARK H PARENT 1 16 34 18 32 20 30 22 28 25 9 27 11 29 24 39 16 41 18 43
REMARK H PARENT 20 45
REMARK Flexibility Score: inf
ROOT
ATOM      1  C   UNL     1     -28.647 -15.593   5.272  1.00  0.00     0.184 C 
ATOM      2  C   UNL     1     -28.550 -15.402   3.736  1.00  0.00     0.178 C 
ATOM      3  O   UNL     1     -27.296 -14.877   3.309  1.00  0.00    -0.341 OA
ATOM      4  C   UNL     1     -26.168 -15.619   3.757  1.00  0.00     0.282 C 
ATOM      5  C   UNL     1     -26.144 -15.726   5.295  1.00  0.00     0.202 C 
ATOM      6  C   UNL     1     -27.433 -16.380   5.805  1.00  0.00     0.180 C 
ENDROOT
BRANCH   1   7
ATOM      7  O   UNL     1     -29.863 -16.267   5.566  1.00  0.00    -0.341 OA
BRANCH   7   8
ATOM      8  C   UNL     1     -30.791 -15.475   6.298  1.00  0.00     0.282 C 
ATOM      9  C   UNL     1     -30.636 -16.885   8.171  1.00  0.00     0.178 C 
ATOM     10  C   UNL     1     -32.085 -17.404   8.033  1.00  0.00     0.177 C 
ATOM     11  O   UNL     1     -30.532 -15.553   7.694  1.00  0.00    -0.341 OA
ATOM     12  C   UNL     1     -32.518 -17.329   6.554  1.00  0.00     0.179 C 
ATOM     13  C   UNL     1     -32.230 -15.928   5.975  1.00  0.00     0.202 C 
BRANCH   9  14
ATOM     14  C   UNL     1     -30.142 -16.942   9.623  1.00  0.00     0.191 C 
BRANCH  14  15
ATOM     15  O   UNL     1     -28.977 -16.181   9.781  1.00  0.00    -0.394 OA
ATOM     16  H   UNL     1     -29.186 -15.494  10.466  1.00  0.00     0.210 HD
ENDBRANCH  14  15
ENDBRANCH   9  14
BRANCH  10  17
ATOM     17  O   UNL     1     -32.952 -16.634   8.826  1.00  0.00    -0.387 OA
ATOM     18  H   UNL     1     -33.650 -16.272   8.220  1.00  0.00     0.211 HD
ENDBRANCH  10  17
BRANCH  12  19
ATOM     19  O   UNL     1     -31.831 -18.296   5.799  1.00  0.00    -0.387 OA
ATOM     20  H   UNL     1     -31.125 -18.673   6.388  1.00  0.00     0.211 HD
ENDBRANCH  12  19
BRANCH  13  21
ATOM     21  O   UNL     1     -33.134 -14.990   6.504  1.00  0.00    -0.385 OA
ATOM     22  H   UNL     1     -32.961 -14.129   6.039  1.00  0.00     0.211 HD
ENDBRANCH  13  21
ENDBRANCH   7   8
ENDBRANCH   1   7
BRANCH   2  23
ATOM     23  C   UNL     1     -28.992 -16.639   2.915  1.00  0.00     0.191 C 
BRANCH  23  24
ATOM     24  O   UNL     1     -30.373 -16.609   2.680  1.00  0.00    -0.394 OA
ATOM     25  H   UNL     1     -30.810 -16.560   3.570  1.00  0.00     0.210 HD
ENDBRANCH  23  24
ENDBRANCH   2  23
BRANCH   6  26
ATOM     26  O   UNL     1     -27.433 -16.355   7.209  1.00  0.00    -0.387 OA
ATOM     27  H   UNL     1     -27.915 -17.168   7.514  1.00  0.00     0.211 HD
ENDBRANCH   6  26
BRANCH   5  28
ATOM     28  O   UNL     1     -25.035 -16.474   5.721  1.00  0.00    -0.385 OA
ATOM     29  H   UNL     1     -24.871 -16.230   6.668  1.00  0.00     0.211 HD
ENDBRANCH   5  28
BRANCH   4  30
ATOM     30  O   UNL     1     -26.150 -16.904   3.149  1.00  0.00    -0.341 OA
BRANCH  30  31
ATOM     31  C   UNL     1     -25.417 -16.944   1.931  1.00  0.00     0.184 C 
ATOM     32  C   UNL     1     -25.798 -18.211   1.128  1.00  0.00     0.178 C 
ATOM     33  C   UNL     1     -23.911 -16.988   2.261  1.00  0.00     0.180 C 
ATOM     34  O   UNL     1     -25.488 -19.384   1.864  1.00  0.00    -0.342 OA
ATOM     35  C   UNL     1     -23.517 -18.340   2.883  1.00  0.00     0.201 C 
ATOM     36  C   UNL     1     -24.089 -19.519   2.062  1.00  0.00     0.279 C 
BRANCH  32  37
ATOM     37  C   UNL     1     -27.294 -18.223   0.780  1.00  0.00     0.191 C 
BRANCH  37  38
ATOM     38  O   UNL     1     -27.472 -18.317  -0.608  1.00  0.00    -0.394 OA
ATOM     39  H   UNL     1     -27.976 -19.157  -0.776  1.00  0.00     0.210 HD
ENDBRANCH  37  38
ENDBRANCH  32  37
BRANCH  33  40
ATOM     40  O   UNL     1     -23.159 -16.778   1.090  1.00  0.00    -0.387 OA
ATOM     41  H   UNL     1     -22.524 -17.538   1.015  1.00  0.00     0.211 HD
ENDBRANCH  33  40
BRANCH  35  42
ATOM     42  O   UNL     1     -23.996 -18.402   4.202  1.00  0.00    -0.385 OA
ATOM     43  H   UNL     1     -23.570 -19.191   4.628  1.00  0.00     0.211 HD
ENDBRANCH  35  42
BRANCH  36  44
ATOM     44  O   UNL     1     -23.424 -19.657   0.830  1.00  0.00    -0.366 OA
ATOM     45  H   UNL     1     -22.995 -20.553   0.831  1.00  0.00     0.213 HD
ENDBRANCH  36  44
ENDBRANCH  30  31
ENDBRANCH   4  30
TORSDOF 18
ENDMDL
