MODEL 1
REMARK VINA RESULT:    -4.030      0.000      0.000
REMARK INTER + INTRA:          -5.189
REMARK INTER:                  -4.972
REMARK INTRA:                  -0.217
REMARK UNBOUND:                -0.217
REMARK SMILES CCCCCC(=O)[O-]
REMARK SMILES IDX 4 1 5 2 6 3 7 4 8 5 3 6 2 7 1 8
REMARK H PARENT
REMARK Flexibility Score: inf
ROOT
ATOM      1  C   UNL     1      26.915  11.164  34.778  1.00  0.00     0.006 C 
ENDROOT
BRANCH   1   2
ATOM      2  C   UNL     1      25.458  11.471  34.410  1.00  0.00     0.053 C 
BRANCH   2   3
ATOM      3  C   UNL     1      24.623  11.593  35.646  1.00  0.00     0.041 C 
ATOM      4  O   UNL     1      23.768  10.710  35.924  1.00  0.00    -0.550 OA
ATOM      5  O   UNL     1      24.754  12.706  36.468  1.00  0.00    -0.550 OA
ENDBRANCH   2   3
ENDBRANCH   1   2
BRANCH   1   6
ATOM      6  C   UNL     1      27.907  12.184  34.189  1.00  0.00     0.000 C 
BRANCH   6   7
ATOM      7  C   UNL     1      27.319  13.582  33.930  1.00  0.00    -0.003 C 
ATOM      8  C   UNL     1      27.439  14.513  35.135  1.00  0.00     0.004 C 
ENDBRANCH   6   7
ENDBRANCH   1   6
TORSDOF 4
ENDMDL
MODEL 2
REMARK VINA RESULT:    -3.928      3.605      4.508
REMARK INTER + INTRA:          -5.063
REMARK INTER:                  -4.903
REMARK INTRA:                  -0.159
REMARK UNBOUND:                -0.217
REMARK SMILES CCCCCC(=O)[O-]
REMARK SMILES IDX 4 1 5 2 6 3 7 4 8 5 3 6 2 7 1 8
REMARK H PARENT
REMARK Flexibility Score: inf
ROOT
ATOM      1  C   UNL     1      28.370  11.825  33.886  1.00  0.00     0.006 C 
ENDROOT
BRANCH   1   2
ATOM      2  C   UNL     1      27.721  12.650  32.767  1.00  0.00     0.053 C 
BRANCH   2   3
ATOM      3  C   UNL     1      28.184  12.169  31.428  1.00  0.00     0.041 C 
ATOM      4  O   UNL     1      27.841  11.031  31.010  1.00  0.00    -0.550 OA
ATOM      5  O   UNL     1      29.034  12.956  30.662  1.00  0.00    -0.550 OA
ENDBRANCH   2   3
ENDBRANCH   1   2
BRANCH   1   6
ATOM      6  C   UNL     1      27.340  11.084  34.757  1.00  0.00     0.000 C 
BRANCH   6   7
ATOM      7  C   UNL     1      25.870  11.406  34.434  1.00  0.00    -0.003 C 
ATOM      8  C   UNL     1      24.940  11.215  35.631  1.00  0.00     0.004 C 
ENDBRANCH   6   7
ENDBRANCH   1   6
TORSDOF 4
ENDMDL
MODEL 3
REMARK VINA RESULT:    -3.886      2.448      4.116
REMARK INTER + INTRA:          -5.011
REMARK INTER:                  -4.915
REMARK INTRA:                  -0.096
REMARK UNBOUND:                -0.217
REMARK SMILES CCCCCC(=O)[O-]
REMARK SMILES IDX 4 1 5 2 6 3 7 4 8 5 3 6 2 7 1 8
REMARK H PARENT
REMARK Flexibility Score: inf
ROOT
ATOM      1  C   UNL     1      25.442  11.466  34.488  1.00  0.00     0.006 C 
ENDROOT
BRANCH   1   2
ATOM      2  C   UNL     1      26.901  11.063  34.739  1.00  0.00     0.053 C 
BRANCH   2   3
ATOM      3  C   UNL     1      27.828  12.140  34.271  1.00  0.00     0.041 C 
ATOM      4  O   UNL     1      28.439  12.020  33.176  1.00  0.00    -0.550 OA
ATOM      5  O   UNL     1      28.056  13.256  35.067  1.00  0.00    -0.550 OA
ENDBRANCH   2   3
ENDBRANCH   1   2
BRANCH   1   6
ATOM      6  C   UNL     1      24.732  11.962  35.760  1.00  0.00     0.000 C 
BRANCH   6   7
ATOM      7  C   UNL     1      23.200  12.053  35.651  1.00  0.00    -0.003 C 
ATOM      8  C   UNL     1      22.513  10.691  35.739  1.00  0.00     0.004 C 
ENDBRANCH   6   7
ENDBRANCH   1   6
TORSDOF 4
ENDMDL
MODEL 4
REMARK VINA RESULT:    -3.827      1.255      2.032
REMARK INTER + INTRA:          -4.938
REMARK INTER:                  -4.831
REMARK INTRA:                  -0.108
REMARK UNBOUND:                -0.217
REMARK SMILES CCCCCC(=O)[O-]
REMARK SMILES IDX 4 1 5 2 6 3 7 4 8 5 3 6 2 7 1 8
REMARK H PARENT
REMARK Flexibility Score: inf
ROOT
ATOM      1  C   UNL     1      27.332  11.369  34.818  1.00  0.00     0.006 C 
ENDROOT
BRANCH   1   2
ATOM      2  C   UNL     1      25.906  11.810  34.462  1.00  0.00     0.053 C 
BRANCH   2   3
ATOM      3  C   UNL     1      25.038  11.801  35.681  1.00  0.00     0.041 C 
ATOM      4  O   UNL     1      24.890  12.850  36.362  1.00  0.00    -0.550 OA
ATOM      5  O   UNL     1      24.430  10.622  36.094  1.00  0.00    -0.550 OA
ENDBRANCH   2   3
ENDBRANCH   1   2
BRANCH   1   6
ATOM      6  C   UNL     1      28.372  11.805  33.771  1.00  0.00     0.000 C 
BRANCH   6   7
ATOM      7  C   UNL     1      27.871  12.852  32.761  1.00  0.00    -0.003 C 
ATOM      8  C   UNL     1      28.379  12.604  31.342  1.00  0.00     0.004 C 
ENDBRANCH   6   7
ENDBRANCH   1   6
TORSDOF 4
ENDMDL
MODEL 5
REMARK VINA RESULT:    -3.775      2.870      4.163
REMARK INTER + INTRA:          -4.874
REMARK INTER:                  -4.721
REMARK INTRA:                  -0.153
REMARK UNBOUND:                -0.217
REMARK SMILES CCCCCC(=O)[O-]
REMARK SMILES IDX 4 1 5 2 6 3 7 4 8 5 3 6 2 7 1 8
REMARK H PARENT
REMARK Flexibility Score: inf
ROOT
ATOM      1  C   UNL     1      27.104  13.327  35.179  1.00  0.00     0.006 C 
ENDROOT
BRANCH   1   2
ATOM      2  C   UNL     1      27.285  13.539  33.670  1.00  0.00     0.053 C 
BRANCH   2   3
ATOM      3  C   UNL     1      28.092  12.427  33.079  1.00  0.00     0.041 C 
ATOM      4  O   UNL     1      28.459  11.459  33.798  1.00  0.00    -0.550 OA
ATOM      5  O   UNL     1      28.482  12.481  31.747  1.00  0.00    -0.550 OA
ENDBRANCH   2   3
ENDBRANCH   1   2
BRANCH   1   6
ATOM      6  C   UNL     1      25.660  12.957  35.562  1.00  0.00     0.000 C 
BRANCH   6   7
ATOM      7  C   UNL     1      25.366  11.447  35.591  1.00  0.00    -0.003 C 
ATOM      8  C   UNL     1      23.874  11.127  35.517  1.00  0.00     0.004 C 
ENDBRANCH   6   7
ENDBRANCH   1   6
TORSDOF 4
ENDMDL
MODEL 6
REMARK VINA RESULT:    -3.769      2.365      4.208
REMARK INTER + INTRA:          -4.867
REMARK INTER:                  -4.742
REMARK INTRA:                  -0.125
REMARK UNBOUND:                -0.217
REMARK SMILES CCCCCC(=O)[O-]
REMARK SMILES IDX 4 1 5 2 6 3 7 4 8 5 3 6 2 7 1 8
REMARK H PARENT
REMARK Flexibility Score: inf
ROOT
ATOM      1  C   UNL     1      24.929  11.466  34.905  1.00  0.00     0.006 C 
ENDROOT
BRANCH   1   2
ATOM      2  C   UNL     1      25.807  12.556  35.533  1.00  0.00     0.053 C 
BRANCH   2   3
ATOM      3  C   UNL     1      27.247  12.321  35.202  1.00  0.00     0.041 C 
ATOM      4  O   UNL     1      28.049  13.291  35.134  1.00  0.00    -0.550 OA
ATOM      5  O   UNL     1      27.696  11.037  34.921  1.00  0.00    -0.550 OA
ENDBRANCH   2   3
ENDBRANCH   1   2
BRANCH   1   6
ATOM      6  C   UNL     1      23.994  10.791  35.924  1.00  0.00     0.000 C 
BRANCH   6   7
ATOM      7  C   UNL     1      22.496  10.873  35.578  1.00  0.00    -0.003 C 
ATOM      8  C   UNL     1      22.008  12.305  35.373  1.00  0.00     0.004 C 
ENDBRANCH   6   7
ENDBRANCH   1   6
TORSDOF 4
ENDMDL
MODEL 7
REMARK VINA RESULT:    -3.763      2.580      4.473
REMARK INTER + INTRA:          -4.860
REMARK INTER:                  -4.753
REMARK INTRA:                  -0.107
REMARK UNBOUND:                -0.217
REMARK SMILES CCCCCC(=O)[O-]
REMARK SMILES IDX 4 1 5 2 6 3 7 4 8 5 3 6 2 7 1 8
REMARK H PARENT
REMARK Flexibility Score: inf
ROOT
ATOM      1  C   UNL     1      24.106  11.630  34.630  1.00  0.00     0.006 C 
ENDROOT
BRANCH   1   2
ATOM      2  C   UNL     1      25.362  11.175  35.384  1.00  0.00     0.053 C 
BRANCH   2   3
ATOM      3  C   UNL     1      26.558  11.229  34.486  1.00  0.00     0.041 C 
ATOM      4  O   UNL     1      27.698  10.927  34.929  1.00  0.00    -0.550 OA
ATOM      5  O   UNL     1      26.423  11.661  33.173  1.00  0.00    -0.550 OA
ENDBRANCH   2   3
ENDBRANCH   1   2
BRANCH   1   6
ATOM      6  C   UNL     1      23.093  12.351  35.538  1.00  0.00     0.000 C 
BRANCH   6   7
ATOM      7  C   UNL     1      21.687  11.725  35.560  1.00  0.00    -0.003 C 
ATOM      8  C   UNL     1      21.713  10.200  35.625  1.00  0.00     0.004 C 
ENDBRANCH   6   7
ENDBRANCH   1   6
TORSDOF 4
ENDMDL
MODEL 8
REMARK VINA RESULT:    -3.735      1.542      1.998
REMARK INTER + INTRA:          -4.825
REMARK INTER:                  -4.722
REMARK INTRA:                  -0.103
REMARK UNBOUND:                -0.217
REMARK SMILES CCCCCC(=O)[O-]
REMARK SMILES IDX 4 1 5 2 6 3 7 4 8 5 3 6 2 7 1 8
REMARK H PARENT
REMARK Flexibility Score: inf
ROOT
ATOM      1  C   UNL     1      25.823  11.657  34.191  1.00  0.00     0.006 C 
ENDROOT
BRANCH   1   2
ATOM      2  C   UNL     1      24.684  11.153  35.088  1.00  0.00     0.053 C 
BRANCH   2   3
ATOM      3  C   UNL     1      24.034  12.298  35.798  1.00  0.00     0.041 C 
ATOM      4  O   UNL     1      24.700  13.011  36.595  1.00  0.00    -0.550 OA
ATOM      5  O   UNL     1      22.679  12.550  35.618  1.00  0.00    -0.550 OA
ENDBRANCH   2   3
ENDBRANCH   1   2
BRANCH   1   6
ATOM      6  C   UNL     1      27.204  11.138  34.630  1.00  0.00     0.000 C 
BRANCH   6   7
ATOM      7  C   UNL     1      28.398  11.794  33.915  1.00  0.00    -0.003 C 
ATOM      8  C   UNL     1      27.994  12.553  32.652  1.00  0.00     0.004 C 
ENDBRANCH   6   7
ENDBRANCH   1   6
TORSDOF 4
ENDMDL
MODEL 9
REMARK VINA RESULT:    -3.553      2.527      4.369
REMARK INTER + INTRA:          -4.601
REMARK INTER:                  -4.422
REMARK INTRA:                  -0.178
REMARK UNBOUND:                -0.217
REMARK SMILES CCCCCC(=O)[O-]
REMARK SMILES IDX 4 1 5 2 6 3 7 4 8 5 3 6 2 7 1 8
REMARK H PARENT
REMARK Flexibility Score: inf
ROOT
ATOM      1  C   UNL     1      23.082  10.966  35.562  1.00  0.00     0.006 C 
ENDROOT
BRANCH   1   2
ATOM      2  C   UNL     1      24.233  11.565  34.744  1.00  0.00     0.053 C 
BRANCH   2   3
ATOM      3  C   UNL     1      25.211  12.250  35.645  1.00  0.00     0.041 C 
ATOM      4  O   UNL     1      24.803  12.999  36.572  1.00  0.00    -0.550 OA
ATOM      5  O   UNL     1      26.576  12.103  35.432  1.00  0.00    -0.550 OA
ENDBRANCH   2   3
ENDBRANCH   1   2
BRANCH   1   6
ATOM      6  C   UNL     1      21.696  11.375  35.031  1.00  0.00     0.000 C 
BRANCH   6   7
ATOM      7  C   UNL     1      21.222  12.771  35.471  1.00  0.00    -0.003 C 
ATOM      8  C   UNL     1      20.963  13.712  34.297  1.00  0.00     0.004 C 
ENDBRANCH   6   7
ENDBRANCH   1   6
TORSDOF 4
ENDMDL
