MODEL 1
REMARK VINA RESULT:    -4.112      0.000      0.000
REMARK INTER + INTRA:          -9.213
REMARK INTER:                  -6.275
REMARK INTRA:                  -2.937
REMARK UNBOUND:                -2.937
REMARK SMILES CC(=O)CCC=C(C)CCC=C(C)CCC=C(C)C
REMARK SMILES IDX 10 1 11 2 12 3 13 4 14 5 15 6 16 7 18 8 17 9 19 10 9 11 7 12
REMARK SMILES IDX 6 13 8 14 5 15 4 16 2 17 3 18 1 19
REMARK H PARENT
REMARK Flexibility Score: inf
ROOT
ATOM      1  C   UNL     1     114.064 126.629 108.141  1.00  0.00     0.032 C 
ENDROOT
BRANCH   1   2
ATOM      2  C   UNL     1     114.904 127.566 108.978  1.00  0.00    -0.028 C 
ATOM      3  C   UNL     1     115.361 127.313 110.228  1.00  0.00    -0.077 C 
ATOM      4  C   UNL     1     116.184 128.377 110.909  1.00  0.00     0.039 C 
BRANCH   3   5
ATOM      5  C   UNL     1     115.084 126.018 110.968  1.00  0.00     0.034 C 
BRANCH   5   6
ATOM      6  C   UNL     1     116.332 125.130 111.063  1.00  0.00     0.032 C 
BRANCH   6   7
ATOM      7  C   UNL     1     116.020 123.711 110.647  1.00  0.00    -0.028 C 
ATOM      8  C   UNL     1     116.452 121.443 109.808  1.00  0.00     0.039 C 
ATOM      9  C   UNL     1     116.936 122.804 110.240  1.00  0.00    -0.080 C 
ATOM     10  C   UNL     1     118.413 123.111 110.203  1.00  0.00     0.039 C 
ENDBRANCH   6   7
ENDBRANCH   5   6
ENDBRANCH   3   5
ENDBRANCH   1   2
BRANCH   1  11
ATOM     11  C   UNL     1     114.821 126.229 106.871  1.00  0.00     0.034 C 
BRANCH  11  12
ATOM     12  C   UNL     1     115.609 124.954 107.097  1.00  0.00    -0.077 C 
ATOM     13  C   UNL     1     116.953 124.936 107.244  1.00  0.00    -0.028 C 
ATOM     14  C   UNL     1     114.855 123.656 107.234  1.00  0.00     0.039 C 
BRANCH  13  15
ATOM     15  C   UNL     1     117.849 126.143 107.127  1.00  0.00     0.035 C 
BRANCH  15  16
ATOM     16  C   UNL     1     118.489 126.479 108.477  1.00  0.00     0.079 C 
BRANCH  16  17
ATOM     17  C   UNL     1     119.990 126.512 108.361  1.00  0.00     0.130 C 
ATOM     18  O   UNL     1     120.665 125.784 109.073  1.00  0.00    -0.300 OA
ATOM     19  C   UNL     1     120.679 127.430 107.395  1.00  0.00     0.087 C 
ENDBRANCH  16  17
ENDBRANCH  15  16
ENDBRANCH  13  15
ENDBRANCH  11  12
ENDBRANCH   1  11
TORSDOF 9
ENDMDL
MODEL 2
REMARK VINA RESULT:    -4.106      1.845      3.783
REMARK INTER + INTRA:          -9.204
REMARK INTER:                  -6.049
REMARK INTRA:                  -3.155
REMARK UNBOUND:                -2.937
REMARK SMILES CC(=O)CCC=C(C)CCC=C(C)CCC=C(C)C
REMARK SMILES IDX 10 1 11 2 12 3 13 4 14 5 15 6 16 7 18 8 17 9 19 10 9 11 7 12
REMARK SMILES IDX 6 13 8 14 5 15 4 16 2 17 3 18 1 19
REMARK H PARENT
REMARK Flexibility Score: inf
ROOT
ATOM      1  C   UNL     1     116.159 125.675 107.296  1.00  0.00     0.032 C 
ENDROOT
BRANCH   1   2
ATOM      2  C   UNL     1     115.687 124.331 106.790  1.00  0.00    -0.028 C 
ATOM      3  C   UNL     1     115.458 123.236 107.553  1.00  0.00    -0.077 C 
ATOM      4  C   UNL     1     114.992 121.978 106.864  1.00  0.00     0.039 C 
BRANCH   3   5
ATOM      5  C   UNL     1     115.649 123.216 109.058  1.00  0.00     0.034 C 
BRANCH   5   6
ATOM      6  C   UNL     1     116.698 122.183 109.491  1.00  0.00     0.032 C 
BRANCH   6   7
ATOM      7  C   UNL     1     117.998 122.855 109.869  1.00  0.00    -0.028 C 
ATOM      8  C   UNL     1     120.318 123.620 109.611  1.00  0.00     0.039 C 
ATOM      9  C   UNL     1     119.077 122.964 109.062  1.00  0.00    -0.080 C 
ATOM     10  C   UNL     1     119.077 122.450 107.643  1.00  0.00     0.039 C 
ENDBRANCH   6   7
ENDBRANCH   5   6
ENDBRANCH   3   5
ENDBRANCH   1   2
BRANCH   1  11
ATOM     11  C   UNL     1     117.660 125.840 107.041  1.00  0.00     0.034 C 
BRANCH  11  12
ATOM     12  C   UNL     1     118.341 126.470 108.240  1.00  0.00    -0.077 C 
ATOM     13  C   UNL     1     119.578 127.014 108.183  1.00  0.00    -0.028 C 
ATOM     14  C   UNL     1     117.578 126.558 109.537  1.00  0.00     0.039 C 
BRANCH  13  15
ATOM     15  C   UNL     1     120.470 127.000 106.967  1.00  0.00     0.035 C 
BRANCH  15  16
ATOM     16  C   UNL     1     121.734 126.177 107.230  1.00  0.00     0.079 C 
BRANCH  16  17
ATOM     17  C   UNL     1     121.729 124.916 106.407  1.00  0.00     0.130 C 
ATOM     18  O   UNL     1     122.538 124.034 106.653  1.00  0.00    -0.300 OA
ATOM     19  C   UNL     1     120.758 124.722 105.280  1.00  0.00     0.087 C 
ENDBRANCH  16  17
ENDBRANCH  15  16
ENDBRANCH  13  15
ENDBRANCH  11  12
ENDBRANCH   1  11
TORSDOF 9
ENDMDL
MODEL 3
REMARK VINA RESULT:    -4.088      3.643      6.635
REMARK INTER + INTRA:          -9.176
REMARK INTER:                  -6.206
REMARK INTRA:                  -2.971
REMARK UNBOUND:                -2.937
REMARK SMILES CC(=O)CCC=C(C)CCC=C(C)CCC=C(C)C
REMARK SMILES IDX 10 1 11 2 12 3 13 4 14 5 15 6 16 7 18 8 17 9 19 10 9 11 7 12
REMARK SMILES IDX 6 13 8 14 5 15 4 16 2 17 3 18 1 19
REMARK H PARENT
REMARK Flexibility Score: inf
ROOT
ATOM      1  C   UNL     1     119.549 125.696 109.725  1.00  0.00     0.032 C 
ENDROOT
BRANCH   1   2
ATOM      2  C   UNL     1     119.772 124.213 109.540  1.00  0.00    -0.028 C 
ATOM      3  C   UNL     1     120.947 123.626 109.210  1.00  0.00    -0.077 C 
ATOM      4  C   UNL     1     120.974 122.126 109.066  1.00  0.00     0.039 C 
BRANCH   3   5
ATOM      5  C   UNL     1     122.229 124.405 108.979  1.00  0.00     0.034 C 
BRANCH   5   6
ATOM      6  C   UNL     1     122.793 124.180 107.570  1.00  0.00     0.032 C 
BRANCH   6   7
ATOM      7  C   UNL     1     123.409 125.447 107.023  1.00  0.00    -0.028 C 
ATOM      8  C   UNL     1     124.201 127.040 105.330  1.00  0.00     0.039 C 
ATOM      9  C   UNL     1     123.511 125.756 105.711  1.00  0.00    -0.080 C 
ATOM     10  C   UNL     1     122.964 124.860 104.627  1.00  0.00     0.039 C 
ENDBRANCH   6   7
ENDBRANCH   5   6
ENDBRANCH   3   5
ENDBRANCH   1   2
BRANCH   1  11
ATOM     11  C   UNL     1     118.804 126.275 108.518  1.00  0.00     0.034 C 
BRANCH  11  12
ATOM     12  C   UNL     1     119.768 126.569 107.386  1.00  0.00    -0.077 C 
ATOM     13  C   UNL     1     119.765 125.885 106.219  1.00  0.00    -0.028 C 
ATOM     14  C   UNL     1     120.728 127.721 107.538  1.00  0.00     0.039 C 
BRANCH  13  15
ATOM     15  C   UNL     1     118.876 124.705 105.915  1.00  0.00     0.035 C 
BRANCH  15  16
ATOM     16  C   UNL     1     119.712 123.464 105.588  1.00  0.00     0.079 C 
BRANCH  16  17
ATOM     17  C   UNL     1     119.685 123.179 104.110  1.00  0.00     0.130 C 
ATOM     18  O   UNL     1     118.885 123.768 103.398  1.00  0.00    -0.300 OA
ATOM     19  C   UNL     1     120.614 122.178 103.489  1.00  0.00     0.087 C 
ENDBRANCH  16  17
ENDBRANCH  15  16
ENDBRANCH  13  15
ENDBRANCH  11  12
ENDBRANCH   1  11
TORSDOF 9
ENDMDL
MODEL 4
REMARK VINA RESULT:    -4.073     14.927     18.441
REMARK INTER + INTRA:          -9.153
REMARK INTER:                  -6.591
REMARK INTRA:                  -2.561
REMARK UNBOUND:                -2.937
REMARK SMILES CC(=O)CCC=C(C)CCC=C(C)CCC=C(C)C
REMARK SMILES IDX 10 1 11 2 12 3 13 4 14 5 15 6 16 7 18 8 17 9 19 10 9 11 7 12
REMARK SMILES IDX 6 13 8 14 5 15 4 16 2 17 3 18 1 19
REMARK H PARENT
REMARK Flexibility Score: inf
ROOT
ATOM      1  C   UNL     1     130.570 120.654  98.816  1.00  0.00     0.032 C 
ENDROOT
BRANCH   1   2
ATOM      2  C   UNL     1     129.296 121.117  99.484  1.00  0.00    -0.028 C 
ATOM      3  C   UNL     1     128.594 122.229  99.161  1.00  0.00    -0.077 C 
ATOM      4  C   UNL     1     127.343 122.530  99.947  1.00  0.00     0.039 C 
BRANCH   3   5
ATOM      5  C   UNL     1     129.006 123.180  98.053  1.00  0.00     0.034 C 
BRANCH   5   6
ATOM      6  C   UNL     1     129.240 124.604  98.574  1.00  0.00     0.032 C 
BRANCH   6   7
ATOM      7  C   UNL     1     130.717 124.906  98.682  1.00  0.00    -0.028 C 
ATOM      8  C   UNL     1     132.899 125.216  99.768  1.00  0.00     0.039 C 
ATOM      9  C   UNL     1     131.443 124.830  99.820  1.00  0.00    -0.080 C 
ATOM     10  C   UNL     1     130.844 124.377 101.129  1.00  0.00     0.039 C 
ENDBRANCH   6   7
ENDBRANCH   5   6
ENDBRANCH   3   5
ENDBRANCH   1   2
BRANCH   1  11
ATOM     11  C   UNL     1     131.788 121.256  99.522  1.00  0.00     0.034 C 
BRANCH  11  12
ATOM     12  C   UNL     1     133.011 121.192  98.629  1.00  0.00    -0.077 C 
ATOM     13  C   UNL     1     133.931 120.204  98.710  1.00  0.00    -0.028 C 
ATOM     14  C   UNL     1     133.174 122.236  97.554  1.00  0.00     0.039 C 
BRANCH  13  15
ATOM     15  C   UNL     1     133.916 119.095  99.731  1.00  0.00     0.035 C 
BRANCH  15  16
ATOM     16  C   UNL     1     133.098 117.902  99.226  1.00  0.00     0.079 C 
BRANCH  16  17
ATOM     17  C   UNL     1     132.071 117.491 100.247  1.00  0.00     0.130 C 
ATOM     18  O   UNL     1     131.279 116.601  99.978  1.00  0.00    -0.300 OA
ATOM     19  C   UNL     1     131.990 118.159 101.588  1.00  0.00     0.087 C 
ENDBRANCH  16  17
ENDBRANCH  15  16
ENDBRANCH  13  15
ENDBRANCH  11  12
ENDBRANCH   1  11
TORSDOF 9
ENDMDL
MODEL 5
REMARK VINA RESULT:    -4.006     14.293     17.701
REMARK INTER + INTRA:          -9.050
REMARK INTER:                  -6.649
REMARK INTRA:                  -2.401
REMARK UNBOUND:                -2.937
REMARK SMILES CC(=O)CCC=C(C)CCC=C(C)CCC=C(C)C
REMARK SMILES IDX 10 1 11 2 12 3 13 4 14 5 15 6 16 7 18 8 17 9 19 10 9 11 7 12
REMARK SMILES IDX 6 13 8 14 5 15 4 16 2 17 3 18 1 19
REMARK H PARENT
REMARK Flexibility Score: inf
ROOT
ATOM      1  C   UNL     1     129.461 121.146  98.505  1.00  0.00     0.032 C 
ENDROOT
BRANCH   1   2
ATOM      2  C   UNL     1     128.510 121.161  99.680  1.00  0.00    -0.028 C 
ATOM      3  C   UNL     1     128.682 121.864 100.825  1.00  0.00    -0.077 C 
ATOM      4  C   UNL     1     127.623 121.749 101.892  1.00  0.00     0.039 C 
BRANCH   3   5
ATOM      5  C   UNL     1     129.885 122.752 101.083  1.00  0.00     0.034 C 
BRANCH   5   6
ATOM      6  C   UNL     1     129.640 124.198 100.632  1.00  0.00     0.032 C 
BRANCH   6   7
ATOM      7  C   UNL     1     130.615 124.603  99.551  1.00  0.00    -0.028 C 
ATOM      8  C   UNL     1     131.405 125.130  97.286  1.00  0.00     0.039 C 
ATOM      9  C   UNL     1     130.301 124.776  98.248  1.00  0.00    -0.080 C 
ATOM     10  C   UNL     1     128.890 124.623  97.732  1.00  0.00     0.039 C 
ENDBRANCH   6   7
ENDBRANCH   5   6
ENDBRANCH   3   5
ENDBRANCH   1   2
BRANCH   1  11
ATOM     11  C   UNL     1     130.299 119.864  98.518  1.00  0.00     0.034 C 
BRANCH  11  12
ATOM     12  C   UNL     1     131.774 120.191  98.638  1.00  0.00    -0.077 C 
ATOM     13  C   UNL     1     132.712 119.261  98.928  1.00  0.00    -0.028 C 
ATOM     14  C   UNL     1     132.225 121.600  98.354  1.00  0.00     0.039 C 
BRANCH  13  15
ATOM     15  C   UNL     1     132.424 117.815  99.246  1.00  0.00     0.035 C 
BRANCH  15  16
ATOM     16  C   UNL     1     132.432 117.579 100.759  1.00  0.00     0.079 C 
BRANCH  16  17
ATOM     17  C   UNL     1     131.101 117.939 101.361  1.00  0.00     0.130 C 
ATOM     18  O   UNL     1     130.106 117.301 101.047  1.00  0.00    -0.300 OA
ATOM     19  C   UNL     1     130.963 119.073 102.332  1.00  0.00     0.087 C 
ENDBRANCH  16  17
ENDBRANCH  15  16
ENDBRANCH  13  15
ENDBRANCH  11  12
ENDBRANCH   1  11
TORSDOF 9
ENDMDL
MODEL 6
REMARK VINA RESULT:    -3.990     14.712     18.295
REMARK INTER + INTRA:          -9.027
REMARK INTER:                  -6.031
REMARK INTRA:                  -2.996
REMARK UNBOUND:                -2.937
REMARK SMILES CC(=O)CCC=C(C)CCC=C(C)CCC=C(C)C
REMARK SMILES IDX 10 1 11 2 12 3 13 4 14 5 15 6 16 7 18 8 17 9 19 10 9 11 7 12
REMARK SMILES IDX 6 13 8 14 5 15 4 16 2 17 3 18 1 19
REMARK H PARENT
REMARK Flexibility Score: inf
ROOT
ATOM      1  C   UNL     1     132.203 122.760 100.316  1.00  0.00     0.032 C 
ENDROOT
BRANCH   1   2
ATOM      2  C   UNL     1     130.785 122.801 100.837  1.00  0.00    -0.028 C 
ATOM      3  C   UNL     1     129.671 122.970 100.084  1.00  0.00    -0.077 C 
ATOM      4  C   UNL     1     128.338 122.988 100.786  1.00  0.00     0.039 C 
BRANCH   3   5
ATOM      5  C   UNL     1     129.706 123.142  98.577  1.00  0.00     0.034 C 
BRANCH   5   6
ATOM      6  C   UNL     1     129.835 124.616  98.168  1.00  0.00     0.032 C 
BRANCH   6   7
ATOM      7  C   UNL     1     131.030 124.826  97.266  1.00  0.00    -0.028 C 
ATOM      8  C   UNL     1     133.242 125.642  96.579  1.00  0.00     0.039 C 
ATOM      9  C   UNL     1     132.162 125.474  97.617  1.00  0.00    -0.080 C 
ATOM     10  C   UNL     1     132.375 126.031  99.003  1.00  0.00     0.039 C 
ENDBRANCH   6   7
ENDBRANCH   5   6
ENDBRANCH   3   5
ENDBRANCH   1   2
BRANCH   1  11
ATOM     11  C   UNL     1     132.642 121.311 100.088  1.00  0.00     0.034 C 
BRANCH  11  12
ATOM     12  C   UNL     1     132.703 120.997  98.606  1.00  0.00    -0.077 C 
ATOM     13  C   UNL     1     132.013 119.982  98.040  1.00  0.00    -0.028 C 
ATOM     14  C   UNL     1     133.515 121.898  97.711  1.00  0.00     0.039 C 
BRANCH  13  15
ATOM     15  C   UNL     1     131.165 118.989  98.795  1.00  0.00     0.035 C 
BRANCH  15  16
ATOM     16  C   UNL     1     129.692 119.409  98.781  1.00  0.00     0.079 C 
BRANCH  16  17
ATOM     17  C   UNL     1     129.107 119.347 100.166  1.00  0.00     0.130 C 
ATOM     18  O   UNL     1     127.910 119.533 100.323  1.00  0.00    -0.300 OA
ATOM     19  C   UNL     1     129.965 119.071 101.365  1.00  0.00     0.087 C 
ENDBRANCH  16  17
ENDBRANCH  15  16
ENDBRANCH  13  15
ENDBRANCH  11  12
ENDBRANCH   1  11
TORSDOF 9
ENDMDL
MODEL 7
REMARK VINA RESULT:    -3.929      2.630      4.380
REMARK INTER + INTRA:          -8.933
REMARK INTER:                  -6.523
REMARK INTRA:                  -2.410
REMARK UNBOUND:                -2.937
REMARK SMILES CC(=O)CCC=C(C)CCC=C(C)CCC=C(C)C
REMARK SMILES IDX 10 1 11 2 12 3 13 4 14 5 15 6 16 7 18 8 17 9 19 10 9 11 7 12
REMARK SMILES IDX 6 13 8 14 5 15 4 16 2 17 3 18 1 19
REMARK H PARENT
REMARK Flexibility Score: inf
ROOT
ATOM      1  C   UNL     1     117.331 124.824 110.377  1.00  0.00     0.032 C 
ENDROOT
BRANCH   1   2
ATOM      2  C   UNL     1     118.155 123.680 109.832  1.00  0.00    -0.028 C 
ATOM      3  C   UNL     1     117.700 122.697 109.019  1.00  0.00    -0.077 C 
ATOM      4  C   UNL     1     118.674 121.634 108.579  1.00  0.00     0.039 C 
BRANCH   3   5
ATOM      5  C   UNL     1     116.264 122.616 108.535  1.00  0.00     0.034 C 
BRANCH   5   6
ATOM      6  C   UNL     1     116.171 122.110 107.089  1.00  0.00     0.032 C 
BRANCH   6   7
ATOM      7  C   UNL     1     115.031 121.131 106.929  1.00  0.00    -0.028 C 
ATOM      8  C   UNL     1     113.931 118.959 106.604  1.00  0.00     0.039 C 
ATOM      9  C   UNL     1     115.170 119.792 106.807  1.00  0.00    -0.080 C 
ATOM     10  C   UNL     1     116.517 119.113 106.866  1.00  0.00     0.039 C 
ENDBRANCH   6   7
ENDBRANCH   5   6
ENDBRANCH   3   5
ENDBRANCH   1   2
BRANCH   1  11
ATOM     11  C   UNL     1     117.628 126.109 109.599  1.00  0.00     0.034 C 
BRANCH  11  12
ATOM     12  C   UNL     1     116.755 126.199 108.363  1.00  0.00    -0.077 C 
ATOM     13  C   UNL     1     117.231 126.013 107.111  1.00  0.00    -0.028 C 
ATOM     14  C   UNL     1     115.278 126.438 108.540  1.00  0.00     0.039 C 
BRANCH  13  15
ATOM     15  C   UNL     1     118.679 125.775 106.766  1.00  0.00     0.035 C 
BRANCH  15  16
ATOM     16  C   UNL     1     118.838 124.491 105.945  1.00  0.00     0.079 C 
BRANCH  16  17
ATOM     17  C   UNL     1     120.294 124.180 105.721  1.00  0.00     0.130 C 
ATOM     18  O   UNL     1     120.760 124.260 104.594  1.00  0.00    -0.300 OA
ATOM     19  C   UNL     1     121.187 123.762 106.851  1.00  0.00     0.087 C 
ENDBRANCH  16  17
ENDBRANCH  15  16
ENDBRANCH  13  15
ENDBRANCH  11  12
ENDBRANCH   1  11
TORSDOF 9
ENDMDL
MODEL 8
REMARK VINA RESULT:    -3.920      2.784      5.697
REMARK INTER + INTRA:          -8.920
REMARK INTER:                  -6.062
REMARK INTRA:                  -2.858
REMARK UNBOUND:                -2.937
REMARK SMILES CC(=O)CCC=C(C)CCC=C(C)CCC=C(C)C
REMARK SMILES IDX 10 1 11 2 12 3 13 4 14 5 15 6 16 7 18 8 17 9 19 10 9 11 7 12
REMARK SMILES IDX 6 13 8 14 5 15 4 16 2 17 3 18 1 19
REMARK H PARENT
REMARK Flexibility Score: inf
ROOT
ATOM      1  C   UNL     1     118.823 123.878 110.356  1.00  0.00     0.032 C 
ENDROOT
BRANCH   1   2
ATOM      2  C   UNL     1     119.446 124.909 109.442  1.00  0.00    -0.028 C 
ATOM      3  C   UNL     1     118.795 125.943 108.858  1.00  0.00    -0.077 C 
ATOM      4  C   UNL     1     119.588 126.869 107.971  1.00  0.00     0.039 C 
BRANCH   3   5
ATOM      5  C   UNL     1     117.314 126.209 109.053  1.00  0.00     0.034 C 
BRANCH   5   6
ATOM      6  C   UNL     1     116.560 126.272 107.717  1.00  0.00     0.032 C 
BRANCH   6   7
ATOM      7  C   UNL     1     115.595 125.116 107.584  1.00  0.00    -0.028 C 
ATOM      8  C   UNL     1     114.759 122.931 106.839  1.00  0.00     0.039 C 
ATOM      9  C   UNL     1     115.851 123.966 106.923  1.00  0.00    -0.080 C 
ATOM     10  C   UNL     1     117.183 123.691 106.270  1.00  0.00     0.039 C 
ENDBRANCH   6   7
ENDBRANCH   5   6
ENDBRANCH   3   5
ENDBRANCH   1   2
BRANCH   1  11
ATOM     11  C   UNL     1     118.433 122.630 109.558  1.00  0.00     0.034 C 
BRANCH  11  12
ATOM     12  C   UNL     1     117.024 122.192 109.906  1.00  0.00    -0.077 C 
ATOM     13  C   UNL     1     116.532 120.974 109.586  1.00  0.00    -0.028 C 
ATOM     14  C   UNL     1     116.155 123.128 110.706  1.00  0.00     0.039 C 
BRANCH  13  15
ATOM     15  C   UNL     1     117.269 119.930 108.785  1.00  0.00     0.035 C 
BRANCH  15  16
ATOM     16  C   UNL     1     116.975 120.085 107.289  1.00  0.00     0.079 C 
BRANCH  16  17
ATOM     17  C   UNL     1     116.057 118.992 106.812  1.00  0.00     0.130 C 
ATOM     18  O   UNL     1     116.528 117.923 106.455  1.00  0.00    -0.300 OA
ATOM     19  C   UNL     1     114.571 119.190 106.753  1.00  0.00     0.087 C 
ENDBRANCH  16  17
ENDBRANCH  15  16
ENDBRANCH  13  15
ENDBRANCH  11  12
ENDBRANCH   1  11
TORSDOF 9
ENDMDL
MODEL 9
REMARK VINA RESULT:    -3.882     15.903     18.272
REMARK INTER + INTRA:          -8.862
REMARK INTER:                  -5.668
REMARK INTRA:                  -3.194
REMARK UNBOUND:                -2.937
REMARK SMILES CC(=O)CCC=C(C)CCC=C(C)CCC=C(C)C
REMARK SMILES IDX 10 1 11 2 12 3 13 4 14 5 15 6 16 7 18 8 17 9 19 10 9 11 7 12
REMARK SMILES IDX 6 13 8 14 5 15 4 16 2 17 3 18 1 19
REMARK H PARENT
REMARK Flexibility Score: inf
ROOT
ATOM      1  C   UNL     1     132.582 119.558  98.107  1.00  0.00     0.032 C 
ENDROOT
BRANCH   1   2
ATOM      2  C   UNL     1     131.698 118.885  99.133  1.00  0.00    -0.028 C 
ATOM      3  C   UNL     1     130.379 119.129  99.320  1.00  0.00    -0.077 C 
ATOM      4  C   UNL     1     129.663 118.360 100.400  1.00  0.00     0.039 C 
BRANCH   3   5
ATOM      5  C   UNL     1     129.596 120.137  98.499  1.00  0.00     0.034 C 
BRANCH   5   6
ATOM      6  C   UNL     1     129.240 121.389  99.312  1.00  0.00     0.032 C 
BRANCH   6   7
ATOM      7  C   UNL     1     129.181 122.613  98.426  1.00  0.00    -0.028 C 
ATOM      8  C   UNL     1     129.226 124.998  97.841  1.00  0.00     0.039 C 
ATOM      9  C   UNL     1     129.370 123.884  98.846  1.00  0.00    -0.080 C 
ATOM     10  C   UNL     1     129.715 124.217 100.277  1.00  0.00     0.039 C 
ENDBRANCH   6   7
ENDBRANCH   5   6
ENDBRANCH   3   5
ENDBRANCH   1   2
BRANCH   1  11
ATOM     11  C   UNL     1     133.604 120.463  98.801  1.00  0.00     0.034 C 
BRANCH  11  12
ATOM     12  C   UNL     1     133.057 121.868  98.954  1.00  0.00    -0.077 C 
ATOM     13  C   UNL     1     132.847 122.449 100.157  1.00  0.00    -0.028 C 
ATOM     14  C   UNL     1     132.800 122.681  97.711  1.00  0.00     0.039 C 
BRANCH  13  15
ATOM     15  C   UNL     1     133.047 121.770 101.489  1.00  0.00     0.035 C 
BRANCH  15  16
ATOM     16  C   UNL     1     131.710 121.289 102.060  1.00  0.00     0.079 C 
BRANCH  16  17
ATOM     17  C   UNL     1     131.880 119.977 102.779  1.00  0.00     0.130 C 
ATOM     18  O   UNL     1     131.031 119.616 103.580  1.00  0.00    -0.300 OA
ATOM     19  C   UNL     1     133.078 119.106 102.542  1.00  0.00     0.087 C 
ENDBRANCH  16  17
ENDBRANCH  15  16
ENDBRANCH  13  15
ENDBRANCH  11  12
ENDBRANCH   1  11
TORSDOF 9
ENDMDL
