MODEL 1
REMARK VINA RESULT:    -4.255      0.000      0.000
REMARK INTER + INTRA:          -4.593
REMARK INTER:                  -4.503
REMARK INTRA:                  -0.090
REMARK UNBOUND:                -0.090
REMARK SMILES C=C(C)[C@H]1CC=C(C)C(=O)C1
REMARK SMILES IDX 8 1 7 2 6 3 5 4 4 5 11 6 9 7 10 8 2 9 1 10 3 11
REMARK H PARENT
REMARK Flexibility Score: inf
ROOT
ATOM      1  C   UNL     1      14.856 -21.310  36.849  1.00  0.00     0.048 C 
ATOM      2  C   UNL     1      14.011 -21.699  38.031  1.00  0.00    -0.012 C 
ATOM      3  C   UNL     1      13.685 -20.778  38.953  1.00  0.00    -0.019 C 
ATOM      4  C   UNL     1      12.857 -21.117  40.165  1.00  0.00     0.036 C 
ATOM      5  C   UNL     1      11.840 -22.228  39.846  1.00  0.00     0.025 C 
ATOM      6  C   UNL     1      12.557 -23.461  39.267  1.00  0.00     0.089 C 
ATOM      7  C   UNL     1      13.437 -23.066  38.112  1.00  0.00     0.158 C 
ATOM      8  O   UNL     1      13.713 -23.922  37.229  1.00  0.00    -0.295 OA
ENDROOT
BRANCH   5   9
ATOM      9  C   UNL     1      11.011 -22.593  41.070  1.00  0.00    -0.077 C 
ATOM     10  C   UNL     1       9.722 -22.939  40.931  1.00  0.00     0.008 C 
ATOM     11  C   UNL     1      11.608 -22.578  42.456  1.00  0.00     0.039 C 
ENDBRANCH   5   9
TORSDOF 1
ENDMDL
MODEL 2
REMARK VINA RESULT:    -4.135      4.022      6.275
REMARK INTER + INTRA:          -4.466
REMARK INTER:                  -4.373
REMARK INTRA:                  -0.093
REMARK UNBOUND:                -0.090
REMARK SMILES C=C(C)[C@H]1CC=C(C)C(=O)C1
REMARK SMILES IDX 8 1 7 2 6 3 5 4 4 5 11 6 9 7 10 8 2 9 1 10 3 11
REMARK H PARENT
REMARK Flexibility Score: inf
ROOT
ATOM      1  C   UNL     1       8.693 -29.063  42.309  1.00  0.00     0.048 C 
ATOM      2  C   UNL     1       9.155 -27.780  41.674  1.00  0.00    -0.012 C 
ATOM      3  C   UNL     1       8.268 -26.805  41.412  1.00  0.00    -0.019 C 
ATOM      4  C   UNL     1       8.674 -25.510  40.761  1.00  0.00     0.036 C 
ATOM      5  C   UNL     1      10.104 -25.110  41.168  1.00  0.00     0.025 C 
ATOM      6  C   UNL     1      11.089 -26.252  40.856  1.00  0.00     0.089 C 
ATOM      7  C   UNL     1      10.604 -27.545  41.454  1.00  0.00     0.158 C 
ATOM      8  O   UNL     1      11.442 -28.445  41.732  1.00  0.00    -0.295 OA
ENDROOT
BRANCH   5   9
ATOM      9  C   UNL     1      10.532 -23.811  40.499  1.00  0.00    -0.077 C 
ATOM     10  C   UNL     1       9.848 -22.679  40.729  1.00  0.00     0.008 C 
ATOM     11  C   UNL     1      11.721 -23.758  39.571  1.00  0.00     0.039 C 
ENDBRANCH   5   9
TORSDOF 1
ENDMDL
MODEL 3
REMARK VINA RESULT:    -4.097      3.186      4.216
REMARK INTER + INTRA:          -4.426
REMARK INTER:                  -4.330
REMARK INTRA:                  -0.097
REMARK UNBOUND:                -0.090
REMARK SMILES C=C(C)[C@H]1CC=C(C)C(=O)C1
REMARK SMILES IDX 8 1 7 2 6 3 5 4 4 5 11 6 9 7 10 8 2 9 1 10 3 11
REMARK H PARENT
REMARK Flexibility Score: inf
ROOT
ATOM      1  C   UNL     1      14.878 -20.551  43.549  1.00  0.00     0.048 C 
ATOM      2  C   UNL     1      13.710 -21.126  42.796  1.00  0.00    -0.012 C 
ATOM      3  C   UNL     1      13.594 -20.912  41.475  1.00  0.00    -0.019 C 
ATOM      4  C   UNL     1      12.436 -21.449  40.677  1.00  0.00     0.036 C 
ATOM      5  C   UNL     1      11.946 -22.792  41.248  1.00  0.00     0.025 C 
ATOM      6  C   UNL     1      11.606 -22.646  42.742  1.00  0.00     0.089 C 
ATOM      7  C   UNL     1      12.758 -22.030  43.488  1.00  0.00     0.158 C 
ATOM      8  O   UNL     1      12.885 -22.262  44.721  1.00  0.00    -0.295 OA
ENDROOT
BRANCH   5   9
ATOM      9  C   UNL     1      10.761 -23.334  40.459  1.00  0.00    -0.077 C 
ATOM     10  C   UNL     1       9.536 -22.819  40.647  1.00  0.00     0.008 C 
ATOM     11  C   UNL     1      10.928 -24.449  39.457  1.00  0.00     0.039 C 
ENDBRANCH   5   9
TORSDOF 1
ENDMDL
MODEL 4
REMARK VINA RESULT:    -4.080     13.746     14.999
REMARK INTER + INTRA:          -4.409
REMARK INTER:                  -4.320
REMARK INTRA:                  -0.088
REMARK UNBOUND:                -0.090
REMARK SMILES C=C(C)[C@H]1CC=C(C)C(=O)C1
REMARK SMILES IDX 8 1 7 2 6 3 5 4 4 5 11 6 9 7 10 8 2 9 1 10 3 11
REMARK H PARENT
REMARK Flexibility Score: inf
ROOT
ATOM      1  C   UNL     1      11.772 -33.125  47.266  1.00  0.00     0.048 C 
ATOM      2  C   UNL     1      11.372 -32.775  48.673  1.00  0.00    -0.012 C 
ATOM      3  C   UNL     1      12.302 -32.361  49.550  1.00  0.00    -0.019 C 
ATOM      4  C   UNL     1      11.960 -32.016  50.976  1.00  0.00     0.036 C 
ATOM      5  C   UNL     1      10.542 -31.424  51.076  1.00  0.00     0.025 C 
ATOM      6  C   UNL     1       9.515 -32.382  50.446  1.00  0.00     0.089 C 
ATOM      7  C   UNL     1       9.937 -32.768  49.054  1.00  0.00     0.158 C 
ATOM      8  O   UNL     1       9.059 -33.121  48.222  1.00  0.00    -0.295 OA
ENDROOT
BRANCH   5   9
ATOM      9  C   UNL     1      10.179 -31.090  52.516  1.00  0.00    -0.077 C 
ATOM     10  C   UNL     1       9.605 -29.912  52.810  1.00  0.00     0.008 C 
ATOM     11  C   UNL     1      10.448 -32.060  53.640  1.00  0.00     0.039 C 
ENDBRANCH   5   9
TORSDOF 1
ENDMDL
MODEL 5
REMARK VINA RESULT:    -4.034      2.203      3.746
REMARK INTER + INTRA:          -4.359
REMARK INTER:                  -4.271
REMARK INTRA:                  -0.089
REMARK UNBOUND:                -0.090
REMARK SMILES C=C(C)[C@H]1CC=C(C)C(=O)C1
REMARK SMILES IDX 8 1 7 2 6 3 5 4 4 5 11 6 9 7 10 8 2 9 1 10 3 11
REMARK H PARENT
REMARK Flexibility Score: inf
ROOT
ATOM      1  C   UNL     1       9.363 -24.799  39.098  1.00  0.00     0.048 C 
ATOM      2  C   UNL     1      10.296 -23.893  39.854  1.00  0.00    -0.012 C 
ATOM      3  C   UNL     1       9.838 -23.177  40.894  1.00  0.00    -0.019 C 
ATOM      4  C   UNL     1      10.725 -22.241  41.673  1.00  0.00     0.036 C 
ATOM      5  C   UNL     1      12.172 -22.764  41.722  1.00  0.00     0.025 C 
ATOM      6  C   UNL     1      12.699 -23.016  40.298  1.00  0.00     0.089 C 
ATOM      7  C   UNL     1      11.744 -23.886  39.528  1.00  0.00     0.158 C 
ATOM      8  O   UNL     1      12.183 -24.584  38.574  1.00  0.00    -0.295 OA
ENDROOT
BRANCH   5   9
ATOM      9  C   UNL     1      13.081 -21.814  42.491  1.00  0.00    -0.077 C 
ATOM     10  C   UNL     1      13.175 -21.906  43.827  1.00  0.00     0.008 C 
ATOM     11  C   UNL     1      13.892 -20.757  41.783  1.00  0.00     0.039 C 
ENDBRANCH   5   9
TORSDOF 1
ENDMDL
MODEL 6
REMARK VINA RESULT:    -4.034      2.623      4.018
REMARK INTER + INTRA:          -4.359
REMARK INTER:                  -4.271
REMARK INTRA:                  -0.088
REMARK UNBOUND:                -0.090
REMARK SMILES C=C(C)[C@H]1CC=C(C)C(=O)C1
REMARK SMILES IDX 8 1 7 2 6 3 5 4 4 5 11 6 9 7 10 8 2 9 1 10 3 11
REMARK H PARENT
REMARK Flexibility Score: inf
ROOT
ATOM      1  C   UNL     1      14.721 -19.969  43.838  1.00  0.00     0.048 C 
ATOM      2  C   UNL     1      13.826 -20.821  42.980  1.00  0.00    -0.012 C 
ATOM      3  C   UNL     1      13.018 -21.730  43.552  1.00  0.00    -0.019 C 
ATOM      4  C   UNL     1      12.116 -22.621  42.740  1.00  0.00     0.036 C 
ATOM      5  C   UNL     1      11.629 -21.904  41.468  1.00  0.00     0.025 C 
ATOM      6  C   UNL     1      12.828 -21.389  40.651  1.00  0.00     0.089 C 
ATOM      7  C   UNL     1      13.746 -20.572  41.519  1.00  0.00     0.158 C 
ATOM      8  O   UNL     1      14.478 -19.696  40.984  1.00  0.00    -0.295 OA
ENDROOT
BRANCH   5   9
ATOM      9  C   UNL     1      10.732 -22.804  40.630  1.00  0.00    -0.077 C 
ATOM     10  C   UNL     1       9.401 -22.785  40.809  1.00  0.00     0.008 C 
ATOM     11  C   UNL     1      11.304 -23.732  39.586  1.00  0.00     0.039 C 
ENDBRANCH   5   9
TORSDOF 1
ENDMDL
MODEL 7
REMARK VINA RESULT:    -3.978      1.932      2.883
REMARK INTER + INTRA:          -4.300
REMARK INTER:                  -4.213
REMARK INTRA:                  -0.088
REMARK UNBOUND:                -0.090
REMARK SMILES C=C(C)[C@H]1CC=C(C)C(=O)C1
REMARK SMILES IDX 8 1 7 2 6 3 5 4 4 5 11 6 9 7 10 8 2 9 1 10 3 11
REMARK H PARENT
REMARK Flexibility Score: inf
ROOT
ATOM      1  C   UNL     1      13.114 -21.137  39.394  1.00  0.00     0.048 C 
ATOM      2  C   UNL     1      12.377 -22.344  39.907  1.00  0.00    -0.012 C 
ATOM      3  C   UNL     1      11.619 -22.245  41.012  1.00  0.00    -0.019 C 
ATOM      4  C   UNL     1      10.875 -23.426  41.579  1.00  0.00     0.036 C 
ATOM      5  C   UNL     1      10.423 -24.383  40.462  1.00  0.00     0.025 C 
ATOM      6  C   UNL     1      11.626 -24.811  39.603  1.00  0.00     0.089 C 
ATOM      7  C   UNL     1      12.389 -23.605  39.125  1.00  0.00     0.158 C 
ATOM      8  O   UNL     1      13.072 -23.689  38.069  1.00  0.00    -0.295 OA
ENDROOT
BRANCH   5   9
ATOM      9  C   UNL     1       9.687 -25.590  41.026  1.00  0.00    -0.077 C 
ATOM     10  C   UNL     1       8.347 -25.581  41.117  1.00  0.00     0.008 C 
ATOM     11  C   UNL     1      10.431 -26.817  41.493  1.00  0.00     0.039 C 
ENDBRANCH   5   9
TORSDOF 1
ENDMDL
MODEL 8
REMARK VINA RESULT:    -3.934     13.258     14.752
REMARK INTER + INTRA:          -4.254
REMARK INTER:                  -4.155
REMARK INTRA:                  -0.099
REMARK UNBOUND:                -0.090
REMARK SMILES C=C(C)[C@H]1CC=C(C)C(=O)C1
REMARK SMILES IDX 8 1 7 2 6 3 5 4 4 5 11 6 9 7 10 8 2 9 1 10 3 11
REMARK H PARENT
REMARK Flexibility Score: inf
ROOT
ATOM      1  C   UNL     1       1.075 -15.794  38.001  1.00  0.00     0.048 C 
ATOM      2  C   UNL     1       0.778 -15.081  39.292  1.00  0.00    -0.012 C 
ATOM      3  C   UNL     1      -0.485 -14.727  39.586  1.00  0.00    -0.019 C 
ATOM      4  C   UNL     1      -0.835 -13.995  40.855  1.00  0.00     0.036 C 
ATOM      5  C   UNL     1       0.099 -14.408  42.007  1.00  0.00     0.025 C 
ATOM      6  C   UNL     1       1.570 -14.204  41.604  1.00  0.00     0.089 C 
ATOM      7  C   UNL     1       1.857 -14.880  40.291  1.00  0.00     0.158 C 
ATOM      8  O   UNL     1       3.036 -15.243  40.032  1.00  0.00    -0.295 OA
ENDROOT
BRANCH   5   9
ATOM      9  C   UNL     1      -0.234 -13.659  43.290  1.00  0.00    -0.077 C 
ATOM     10  C   UNL     1       0.688 -12.876  43.871  1.00  0.00     0.008 C 
ATOM     11  C   UNL     1      -1.593 -13.772  43.937  1.00  0.00     0.039 C 
ENDBRANCH   5   9
TORSDOF 1
ENDMDL
MODEL 9
REMARK VINA RESULT:    -3.862      2.793      3.851
REMARK INTER + INTRA:          -4.178
REMARK INTER:                  -4.080
REMARK INTRA:                  -0.098
REMARK UNBOUND:                -0.090
REMARK SMILES C=C(C)[C@H]1CC=C(C)C(=O)C1
REMARK SMILES IDX 8 1 7 2 6 3 5 4 4 5 11 6 9 7 10 8 2 9 1 10 3 11
REMARK H PARENT
REMARK Flexibility Score: inf
ROOT
ATOM      1  C   UNL     1      13.240 -21.812  39.424  1.00  0.00     0.048 C 
ATOM      2  C   UNL     1      12.214 -22.854  39.776  1.00  0.00    -0.012 C 
ATOM      3  C   UNL     1      12.219 -24.039  39.143  1.00  0.00    -0.019 C 
ATOM      4  C   UNL     1      11.204 -25.110  39.443  1.00  0.00     0.036 C 
ATOM      5  C   UNL     1      10.780 -25.071  40.923  1.00  0.00     0.025 C 
ATOM      6  C   UNL     1      10.273 -23.666  41.297  1.00  0.00     0.089 C 
ATOM      7  C   UNL     1      11.280 -22.620  40.905  1.00  0.00     0.158 C 
ATOM      8  O   UNL     1      11.297 -21.522  41.525  1.00  0.00    -0.295 OA
ENDROOT
BRANCH   5   9
ATOM      9  C   UNL     1       9.739 -26.138  41.232  1.00  0.00    -0.077 C 
ATOM     10  C   UNL     1       8.433 -25.867  41.080  1.00  0.00     0.008 C 
ATOM     11  C   UNL     1      10.139 -27.511  41.712  1.00  0.00     0.039 C 
ENDBRANCH   5   9
TORSDOF 1
ENDMDL
