MODEL 1
REMARK VINA RESULT:    -5.882      0.000      0.000
REMARK INTER + INTRA:          -5.882
REMARK INTER:                  -5.882
REMARK INTRA:                   0.000
REMARK UNBOUND:                 0.000
REMARK SMILES c1ccc2nc3ccccc3cc2c1
REMARK SMILES IDX 1 1 2 2 3 3 4 4 13 5 14 6 12 7 11 8 10 9 9 10 8 11 7 12 6 13
REMARK SMILES IDX 5 14
REMARK H PARENT
REMARK Flexibility Score: inf
ROOT
ATOM      1  C   UNL     1      57.445 -11.703 133.111  1.00  0.00     0.001 A 
ATOM      2  C   UNL     1      58.129 -12.891 133.389  1.00  0.00     0.002 A 
ATOM      3  C   UNL     1      57.426 -14.094 133.510  1.00  0.00     0.029 A 
ATOM      4  C   UNL     1      56.036 -14.112 133.352  1.00  0.00     0.071 A 
ATOM      5  C   UNL     1      55.343 -12.913 133.071  1.00  0.00     0.001 A 
ATOM      6  C   UNL     1      56.056 -11.710 132.952  1.00  0.00     0.010 A 
ATOM      7  C   UNL     1      53.951 -12.949 132.915  1.00  0.00     0.020 A 
ATOM      8  C   UNL     1      53.268 -14.166 133.040  1.00  0.00     0.001 A 
ATOM      9  C   UNL     1      51.874 -14.235 132.891  1.00  0.00     0.010 A 
ATOM     10  C   UNL     1      51.218 -15.464 133.020  1.00  0.00     0.001 A 
ATOM     11  C   UNL     1      51.946 -16.625 133.299  1.00  0.00     0.002 A 
ATOM     12  C   UNL     1      53.335 -16.565 133.450  1.00  0.00     0.029 A 
ATOM     13  C   UNL     1      54.002 -15.341 133.322  1.00  0.00     0.071 A 
ATOM     14  N   UNL     1      55.352 -15.282 133.468  1.00  0.00    -0.248 NA
ENDROOT
TORSDOF 0
ENDMDL
MODEL 2
REMARK VINA RESULT:    -5.870      0.270      4.837
REMARK INTER + INTRA:          -5.870
REMARK INTER:                  -5.870
REMARK INTRA:                   0.000
REMARK UNBOUND:                 0.000
REMARK SMILES c1ccc2nc3ccccc3cc2c1
REMARK SMILES IDX 1 1 2 2 3 3 4 4 13 5 14 6 12 7 11 8 10 9 9 10 8 11 7 12 6 13
REMARK SMILES IDX 5 14
REMARK H PARENT
REMARK Flexibility Score: inf
ROOT
ATOM      1  C   UNL     1      51.013 -15.623 133.085  1.00  0.00     0.001 A 
ATOM      2  C   UNL     1      51.782 -16.773 133.286  1.00  0.00     0.002 A 
ATOM      3  C   UNL     1      53.172 -16.678 133.398  1.00  0.00     0.029 A 
ATOM      4  C   UNL     1      53.799 -15.430 133.309  1.00  0.00     0.071 A 
ATOM      5  C   UNL     1      53.023 -14.266 133.105  1.00  0.00     0.001 A 
ATOM      6  C   UNL     1      51.628 -14.371 132.993  1.00  0.00     0.010 A 
ATOM      7  C   UNL     1      53.666 -13.024 133.018  1.00  0.00     0.020 A 
ATOM      8  C   UNL     1      55.060 -12.952 133.134  1.00  0.00     0.001 A 
ATOM      9  C   UNL     1      55.735 -11.724 133.051  1.00  0.00     0.010 A 
ATOM     10  C   UNL     1      57.128 -11.682 133.171  1.00  0.00     0.001 A 
ATOM     11  C   UNL     1      57.853 -12.860 133.372  1.00  0.00     0.002 A 
ATOM     12  C   UNL     1      57.190 -14.089 133.455  1.00  0.00     0.029 A 
ATOM     13  C   UNL     1      55.796 -14.143 133.337  1.00  0.00     0.071 A 
ATOM     14  N   UNL     1      55.151 -15.337 133.419  1.00  0.00    -0.248 NA
ENDROOT
TORSDOF 0
ENDMDL
MODEL 3
REMARK VINA RESULT:    -5.843      1.288      2.040
REMARK INTER + INTRA:          -5.843
REMARK INTER:                  -5.843
REMARK INTRA:                   0.000
REMARK UNBOUND:                 0.000
REMARK SMILES c1ccc2nc3ccccc3cc2c1
REMARK SMILES IDX 1 1 2 2 3 3 4 4 13 5 14 6 12 7 11 8 10 9 9 10 8 11 7 12 6 13
REMARK SMILES IDX 5 14
REMARK H PARENT
REMARK Flexibility Score: inf
ROOT
ATOM      1  C   UNL     1      55.389 -11.920 133.278  1.00  0.00     0.001 A 
ATOM      2  C   UNL     1      56.116 -13.101 133.098  1.00  0.00     0.002 A 
ATOM      3  C   UNL     1      55.451 -14.326 132.998  1.00  0.00     0.029 A 
ATOM      4  C   UNL     1      54.054 -14.374 133.077  1.00  0.00     0.071 A 
ATOM      5  C   UNL     1      53.318 -13.182 133.260  1.00  0.00     0.001 A 
ATOM      6  C   UNL     1      53.994 -11.956 133.360  1.00  0.00     0.010 A 
ATOM      7  C   UNL     1      51.921 -13.247 133.338  1.00  0.00     0.020 A 
ATOM      8  C   UNL     1      51.275 -14.487 133.235  1.00  0.00     0.001 A 
ATOM      9  C   UNL     1      49.877 -14.586 133.309  1.00  0.00     0.010 A 
ATOM     10  C   UNL     1      49.259 -15.837 133.202  1.00  0.00     0.001 A 
ATOM     11  C   UNL     1      50.029 -16.990 133.022  1.00  0.00     0.002 A 
ATOM     12  C   UNL     1      51.423 -16.900 132.947  1.00  0.00     0.029 A 
ATOM     13  C   UNL     1      52.052 -15.654 133.053  1.00  0.00     0.071 A 
ATOM     14  N   UNL     1      53.407 -15.566 132.979  1.00  0.00    -0.248 NA
ENDROOT
TORSDOF 0
ENDMDL
MODEL 4
REMARK VINA RESULT:    -5.827      1.617      3.004
REMARK INTER + INTRA:          -5.827
REMARK INTER:                  -5.827
REMARK INTRA:                   0.000
REMARK UNBOUND:                 0.000
REMARK SMILES c1ccc2nc3ccccc3cc2c1
REMARK SMILES IDX 1 1 2 2 3 3 4 4 13 5 14 6 12 7 11 8 10 9 9 10 8 11 7 12 6 13
REMARK SMILES IDX 5 14
REMARK H PARENT
REMARK Flexibility Score: inf
ROOT
ATOM      1  C   UNL     1      55.895 -12.882 133.142  1.00  0.00     0.001 A 
ATOM      2  C   UNL     1      55.076 -11.762 133.323  1.00  0.00     0.002 A 
ATOM      3  C   UNL     1      53.688 -11.911 133.396  1.00  0.00     0.029 A 
ATOM      4  C   UNL     1      53.113 -13.183 133.289  1.00  0.00     0.071 A 
ATOM      5  C   UNL     1      53.938 -14.316 133.107  1.00  0.00     0.001 A 
ATOM      6  C   UNL     1      55.331 -14.157 133.034  1.00  0.00     0.010 A 
ATOM      7  C   UNL     1      53.347 -15.581 133.001  1.00  0.00     0.020 A 
ATOM      8  C   UNL     1      51.953 -15.707 133.078  1.00  0.00     0.001 A 
ATOM      9  C   UNL     1      51.330 -16.961 132.976  1.00  0.00     0.010 A 
ATOM     10  C   UNL     1      49.937 -17.057 133.056  1.00  0.00     0.001 A 
ATOM     11  C   UNL     1      49.161 -15.907 133.237  1.00  0.00     0.002 A 
ATOM     12  C   UNL     1      49.773 -14.654 133.339  1.00  0.00     0.029 A 
ATOM     13  C   UNL     1      51.167 -14.546 133.261  1.00  0.00     0.071 A 
ATOM     14  N   UNL     1      51.763 -13.328 133.361  1.00  0.00    -0.248 NA
ENDROOT
TORSDOF 0
ENDMDL
MODEL 5
REMARK VINA RESULT:    -5.811      1.275      5.228
REMARK INTER + INTRA:          -5.811
REMARK INTER:                  -5.811
REMARK INTRA:                   0.000
REMARK UNBOUND:                 0.000
REMARK SMILES c1ccc2nc3ccccc3cc2c1
REMARK SMILES IDX 1 1 2 2 3 3 4 4 13 5 14 6 12 7 11 8 10 9 9 10 8 11 7 12 6 13
REMARK SMILES IDX 5 14
REMARK H PARENT
REMARK Flexibility Score: inf
ROOT
ATOM      1  C   UNL     1      49.320 -15.856 133.261  1.00  0.00     0.001 A 
ATOM      2  C   UNL     1      50.108 -16.995 133.070  1.00  0.00     0.002 A 
ATOM      3  C   UNL     1      51.498 -16.881 132.978  1.00  0.00     0.029 A 
ATOM      4  C   UNL     1      52.106 -15.623 133.076  1.00  0.00     0.071 A 
ATOM      5  C   UNL     1      51.311 -14.470 133.268  1.00  0.00     0.001 A 
ATOM      6  C   UNL     1      49.916 -14.595 133.360  1.00  0.00     0.010 A 
ATOM      7  C   UNL     1      51.935 -13.220 133.364  1.00  0.00     0.020 A 
ATOM      8  C   UNL     1      53.330 -13.129 133.269  1.00  0.00     0.001 A 
ATOM      9  C   UNL     1      53.985 -11.891 133.361  1.00  0.00     0.010 A 
ATOM     10  C   UNL     1      55.379 -11.829 133.263  1.00  0.00     0.001 A 
ATOM     11  C   UNL     1      56.124 -12.998 133.072  1.00  0.00     0.002 A 
ATOM     12  C   UNL     1      55.479 -14.235 132.979  1.00  0.00     0.029 A 
ATOM     13  C   UNL     1      54.085 -14.308 133.076  1.00  0.00     0.071 A 
ATOM     14  N   UNL     1      53.458 -15.511 132.986  1.00  0.00    -0.248 NA
ENDROOT
TORSDOF 0
ENDMDL
MODEL 6
REMARK VINA RESULT:    -5.799      1.555      5.643
REMARK INTER + INTRA:          -5.799
REMARK INTER:                  -5.799
REMARK INTRA:                   0.000
REMARK UNBOUND:                 0.000
REMARK SMILES c1ccc2nc3ccccc3cc2c1
REMARK SMILES IDX 1 1 2 2 3 3 4 4 13 5 14 6 12 7 11 8 10 9 9 10 8 11 7 12 6 13
REMARK SMILES IDX 5 14
REMARK H PARENT
REMARK Flexibility Score: inf
ROOT
ATOM      1  C   UNL     1      49.994 -16.949 133.103  1.00  0.00     0.001 A 
ATOM      2  C   UNL     1      49.241 -15.782 133.272  1.00  0.00     0.002 A 
ATOM      3  C   UNL     1      49.879 -14.541 133.358  1.00  0.00     0.029 A 
ATOM      4  C   UNL     1      51.275 -14.463 133.275  1.00  0.00     0.071 A 
ATOM      5  C   UNL     1      52.037 -15.641 133.105  1.00  0.00     0.001 A 
ATOM      6  C   UNL     1      51.388 -16.883 133.020  1.00  0.00     0.010 A 
ATOM      7  C   UNL     1      53.432 -15.545 133.024  1.00  0.00     0.020 A 
ATOM      8  C   UNL     1      54.050 -14.291 133.112  1.00  0.00     0.001 A 
ATOM      9  C   UNL     1      55.446 -14.162 133.035  1.00  0.00     0.010 A 
ATOM     10  C   UNL     1      56.036 -12.896 133.126  1.00  0.00     0.001 A 
ATOM     11  C   UNL     1      55.240 -11.759 133.294  1.00  0.00     0.002 A 
ATOM     12  C   UNL     1      53.849 -11.878 133.372  1.00  0.00     0.029 A 
ATOM     13  C   UNL     1      53.248 -13.139 133.283  1.00  0.00     0.071 A 
ATOM     14  N   UNL     1      51.896 -13.256 133.358  1.00  0.00    -0.248 NA
ENDROOT
TORSDOF 0
ENDMDL
MODEL 7
REMARK VINA RESULT:    -5.795      3.023      5.110
REMARK INTER + INTRA:          -5.795
REMARK INTER:                  -5.795
REMARK INTRA:                   0.000
REMARK UNBOUND:                 0.000
REMARK SMILES c1ccc2nc3ccccc3cc2c1
REMARK SMILES IDX 1 1 2 2 3 3 4 4 13 5 14 6 12 7 11 8 10 9 9 10 8 11 7 12 6 13
REMARK SMILES IDX 5 14
REMARK H PARENT
REMARK Flexibility Score: inf
ROOT
ATOM      1  C   UNL     1      53.129 -14.601 132.621  1.00  0.00     0.001 A 
ATOM      2  C   UNL     1      53.875 -15.508 133.381  1.00  0.00     0.002 A 
ATOM      3  C   UNL     1      53.261 -16.637 133.930  1.00  0.00     0.029 A 
ATOM      4  C   UNL     1      51.895 -16.864 133.720  1.00  0.00     0.071 A 
ATOM      5  C   UNL     1      51.140 -15.949 132.952  1.00  0.00     0.001 A 
ATOM      6  C   UNL     1      51.765 -14.817 132.405  1.00  0.00     0.010 A 
ATOM      7  C   UNL     1      49.774 -16.191 132.751  1.00  0.00     0.020 A 
ATOM      8  C   UNL     1      49.180 -17.330 133.310  1.00  0.00     0.001 A 
ATOM      9  C   UNL     1      47.814 -17.600 133.127  1.00  0.00     0.010 A 
ATOM     10  C   UNL     1      47.247 -18.745 133.697  1.00  0.00     0.001 A 
ATOM     11  C   UNL     1      48.035 -19.622 134.449  1.00  0.00     0.002 A 
ATOM     12  C   UNL     1      49.396 -19.360 134.636  1.00  0.00     0.029 A 
ATOM     13  C   UNL     1      49.974 -18.218 134.071  1.00  0.00     0.071 A 
ATOM     14  N   UNL     1      51.297 -17.963 134.253  1.00  0.00    -0.248 NA
ENDROOT
TORSDOF 0
ENDMDL
MODEL 8
REMARK VINA RESULT:    -5.773      0.891      5.281
REMARK INTER + INTRA:          -5.773
REMARK INTER:                  -5.773
REMARK INTRA:                   0.000
REMARK UNBOUND:                 0.000
REMARK SMILES c1ccc2nc3ccccc3cc2c1
REMARK SMILES IDX 1 1 2 2 3 3 4 4 13 5 14 6 12 7 11 8 10 9 9 10 8 11 7 12 6 13
REMARK SMILES IDX 5 14
REMARK H PARENT
REMARK Flexibility Score: inf
ROOT
ATOM      1  C   UNL     1      51.574 -16.407 133.324  1.00  0.00     0.001 A 
ATOM      2  C   UNL     1      50.915 -15.194 133.101  1.00  0.00     0.002 A 
ATOM      3  C   UNL     1      51.646 -14.008 132.983  1.00  0.00     0.029 A 
ATOM      4  C   UNL     1      53.041 -14.032 133.088  1.00  0.00     0.071 A 
ATOM      5  C   UNL     1      53.710 -15.256 133.313  1.00  0.00     0.001 A 
ATOM      6  C   UNL     1      52.968 -16.442 133.430  1.00  0.00     0.010 A 
ATOM      7  C   UNL     1      55.107 -15.262 133.415  1.00  0.00     0.020 A 
ATOM      8  C   UNL     1      55.819 -14.062 133.293  1.00  0.00     0.001 A 
ATOM      9  C   UNL     1      57.219 -14.034 133.390  1.00  0.00     0.010 A 
ATOM     10  C   UNL     1      57.905 -12.821 133.264  1.00  0.00     0.001 A 
ATOM     11  C   UNL     1      57.200 -11.634 133.042  1.00  0.00     0.002 A 
ATOM     12  C   UNL     1      55.805 -11.652 132.944  1.00  0.00     0.029 A 
ATOM     13  C   UNL     1      55.109 -12.860 133.068  1.00  0.00     0.071 A 
ATOM     14  N   UNL     1      53.753 -12.878 132.972  1.00  0.00    -0.248 NA
ENDROOT
TORSDOF 0
ENDMDL
MODEL 9
REMARK VINA RESULT:    -5.751      1.167      2.351
REMARK INTER + INTRA:          -5.751
REMARK INTER:                  -5.751
REMARK INTRA:                   0.000
REMARK UNBOUND:                 0.000
REMARK SMILES c1ccc2nc3ccccc3cc2c1
REMARK SMILES IDX 1 1 2 2 3 3 4 4 13 5 14 6 12 7 11 8 10 9 9 10 8 11 7 12 6 13
REMARK SMILES IDX 5 14
REMARK H PARENT
REMARK Flexibility Score: inf
ROOT
ATOM      1  C   UNL     1      57.093 -12.928 133.277  1.00  0.00     0.001 A 
ATOM      2  C   UNL     1      56.336 -11.766 133.097  1.00  0.00     0.002 A 
ATOM      3  C   UNL     1      54.943 -11.842 133.008  1.00  0.00     0.029 A 
ATOM      4  C   UNL     1      54.301 -13.083 133.099  1.00  0.00     0.071 A 
ATOM      5  C   UNL     1      55.065 -14.259 133.280  1.00  0.00     0.001 A 
ATOM      6  C   UNL     1      56.463 -14.173 133.368  1.00  0.00     0.010 A 
ATOM      7  C   UNL     1      54.407 -15.493 133.369  1.00  0.00     0.020 A 
ATOM      8  C   UNL     1      53.010 -15.545 133.278  1.00  0.00     0.001 A 
ATOM      9  C   UNL     1      52.321 -16.765 133.362  1.00  0.00     0.010 A 
ATOM     10  C   UNL     1      50.926 -16.788 133.268  1.00  0.00     0.001 A 
ATOM     11  C   UNL     1      50.213 -15.598 133.089  1.00  0.00     0.002 A 
ATOM     12  C   UNL     1      50.890 -14.378 133.003  1.00  0.00     0.029 A 
ATOM     13  C   UNL     1      52.287 -14.344 133.096  1.00  0.00     0.071 A 
ATOM     14  N   UNL     1      52.946 -13.157 133.013  1.00  0.00    -0.248 NA
ENDROOT
TORSDOF 0
ENDMDL
