MODEL 1
REMARK VINA RESULT:    -6.030      0.000      0.000
REMARK INTER + INTRA:          -6.030
REMARK INTER:                  -6.030
REMARK INTRA:                   0.000
REMARK UNBOUND:                 0.000
REMARK SMILES O=c1ccc2ccccc2o1
REMARK SMILES IDX 7 1 8 2 9 3 10 4 5 5 6 6 4 7 3 8 2 9 1 10 11 11
REMARK H PARENT
REMARK Flexibility Score: inf
ROOT
ATOM      1  C   UNL     1       5.851  -0.914 -21.518  1.00  0.00     0.001 A 
ATOM      2  C   UNL     1       4.765  -0.489 -20.743  1.00  0.00     0.004 A 
ATOM      3  C   UNL     1       3.629  -1.295 -20.624  1.00  0.00     0.048 A 
ATOM      4  C   UNL     1       3.573  -2.530 -21.277  1.00  0.00     0.138 A 
ATOM      5  C   UNL     1       4.669  -2.960 -22.059  1.00  0.00     0.018 A 
ATOM      6  C   UNL     1       5.806  -2.147 -22.175  1.00  0.00     0.012 A 
ATOM      7  C   UNL     1       4.586  -4.200 -22.701  1.00  0.00     0.019 A 
ATOM      8  C   UNL     1       3.432  -4.969 -22.553  1.00  0.00     0.094 A 
ATOM      9  C   UNL     1       2.386  -4.480 -21.763  1.00  0.00     0.336 A 
ATOM     10  O   UNL     1       1.337  -5.161 -21.617  1.00  0.00    -0.246 OA
ATOM     11  O   UNL     1       2.491  -3.296 -21.163  1.00  0.00    -0.423 OA
ENDROOT
TORSDOF 0
ENDMDL
MODEL 2
REMARK VINA RESULT:    -5.916     12.173     14.191
REMARK INTER + INTRA:          -5.916
REMARK INTER:                  -5.916
REMARK INTRA:                   0.000
REMARK UNBOUND:                 0.000
REMARK SMILES O=c1ccc2ccccc2o1
REMARK SMILES IDX 7 1 8 2 9 3 10 4 5 5 6 6 4 7 3 8 2 9 1 10 11 11
REMARK H PARENT
REMARK Flexibility Score: inf
ROOT
ATOM      1  C   UNL     1       4.741   8.431 -21.588  1.00  0.00     0.001 A 
ATOM      2  C   UNL     1       6.092   8.096 -21.723  1.00  0.00     0.004 A 
ATOM      3  C   UNL     1       6.941   8.895 -22.495  1.00  0.00     0.048 A 
ATOM      4  C   UNL     1       6.442  10.034 -23.134  1.00  0.00     0.138 A 
ATOM      5  C   UNL     1       5.077  10.374 -22.998  1.00  0.00     0.018 A 
ATOM      6  C   UNL     1       4.231   9.568 -22.222  1.00  0.00     0.012 A 
ATOM      7  C   UNL     1       4.606  11.519 -23.648  1.00  0.00     0.019 A 
ATOM      8  C   UNL     1       5.490  12.286 -24.407  1.00  0.00     0.094 A 
ATOM      9  C   UNL     1       6.828  11.889 -24.498  1.00  0.00     0.336 A 
ATOM     10  O   UNL     1       7.641  12.568 -25.178  1.00  0.00    -0.246 OA
ATOM     11  O   UNL     1       7.251  10.794 -23.869  1.00  0.00    -0.423 OA
ENDROOT
TORSDOF 0
ENDMDL
MODEL 3
REMARK VINA RESULT:    -5.818      1.099      2.088
REMARK INTER + INTRA:          -5.818
REMARK INTER:                  -5.818
REMARK INTRA:                   0.000
REMARK UNBOUND:                 0.000
REMARK SMILES O=c1ccc2ccccc2o1
REMARK SMILES IDX 7 1 8 2 9 3 10 4 5 5 6 6 4 7 3 8 2 9 1 10 11 11
REMARK H PARENT
REMARK Flexibility Score: inf
ROOT
ATOM      1  C   UNL     1       5.031  -0.546 -20.999  1.00  0.00     0.001 A 
ATOM      2  C   UNL     1       5.926  -1.174 -21.872  1.00  0.00     0.004 A 
ATOM      3  C   UNL     1       5.642  -2.449 -22.371  1.00  0.00     0.048 A 
ATOM      4  C   UNL     1       4.462  -3.101 -22.000  1.00  0.00     0.138 A 
ATOM      5  C   UNL     1       3.558  -2.467 -21.119  1.00  0.00     0.018 A 
ATOM      6  C   UNL     1       3.847  -1.188 -20.621  1.00  0.00     0.012 A 
ATOM      7  C   UNL     1       2.385  -3.143 -20.766  1.00  0.00     0.019 A 
ATOM      8  C   UNL     1       2.145  -4.413 -21.288  1.00  0.00     0.094 A 
ATOM      9  C   UNL     1       3.085  -4.980 -22.156  1.00  0.00     0.336 A 
ATOM     10  O   UNL     1       2.885  -6.125 -22.638  1.00  0.00    -0.246 OA
ATOM     11  O   UNL     1       4.193  -4.315 -22.476  1.00  0.00    -0.423 OA
ENDROOT
TORSDOF 0
ENDMDL
MODEL 4
REMARK VINA RESULT:    -5.746      1.451      3.784
REMARK INTER + INTRA:          -5.746
REMARK INTER:                  -5.746
REMARK INTRA:                   0.000
REMARK UNBOUND:                 0.000
REMARK SMILES O=c1ccc2ccccc2o1
REMARK SMILES IDX 7 1 8 2 9 3 10 4 5 5 6 6 4 7 3 8 2 9 1 10 11 11
REMARK H PARENT
REMARK Flexibility Score: inf
ROOT
ATOM      1  C   UNL     1       3.245  -5.428 -22.540  1.00  0.00     0.001 A 
ATOM      2  C   UNL     1       2.145  -4.971 -21.805  1.00  0.00     0.004 A 
ATOM      3  C   UNL     1       2.166  -3.698 -21.226  1.00  0.00     0.048 A 
ATOM      4  C   UNL     1       3.287  -2.877 -21.379  1.00  0.00     0.138 A 
ATOM      5  C   UNL     1       4.398  -3.337 -22.121  1.00  0.00     0.018 A 
ATOM      6  C   UNL     1       4.371  -4.614 -22.700  1.00  0.00     0.012 A 
ATOM      7  C   UNL     1       5.505  -2.493 -22.258  1.00  0.00     0.019 A 
ATOM      8  C   UNL     1       5.481  -1.232 -21.663  1.00  0.00     0.094 A 
ATOM      9  C   UNL     1       4.347  -0.843 -20.942  1.00  0.00     0.336 A 
ATOM     10  O   UNL     1       4.307   0.291 -20.398  1.00  0.00    -0.246 OA
ATOM     11  O   UNL     1       3.306  -1.666 -20.827  1.00  0.00    -0.423 OA
ENDROOT
TORSDOF 0
ENDMDL
MODEL 5
REMARK VINA RESULT:    -5.726     12.572     14.524
REMARK INTER + INTRA:          -5.726
REMARK INTER:                  -5.726
REMARK INTRA:                   0.000
REMARK UNBOUND:                 0.000
REMARK SMILES O=c1ccc2ccccc2o1
REMARK SMILES IDX 7 1 8 2 9 3 10 4 5 5 6 6 4 7 3 8 2 9 1 10 11 11
REMARK H PARENT
REMARK Flexibility Score: inf
ROOT
ATOM      1  C   UNL     1       6.099   8.464 -21.882  1.00  0.00     0.001 A 
ATOM      2  C   UNL     1       4.753   8.836 -21.978  1.00  0.00     0.004 A 
ATOM      3  C   UNL     1       4.392   9.991 -22.678  1.00  0.00     0.048 A 
ATOM      4  C   UNL     1       5.374  10.780 -23.285  1.00  0.00     0.138 A 
ATOM      5  C   UNL     1       6.733  10.405 -23.189  1.00  0.00     0.018 A 
ATOM      6  C   UNL     1       7.090   9.245 -22.486  1.00  0.00     0.012 A 
ATOM      7  C   UNL     1       7.694  11.213 -23.806  1.00  0.00     0.019 A 
ATOM      8  C   UNL     1       7.286  12.356 -24.493  1.00  0.00     0.094 A 
ATOM      9  C   UNL     1       5.923  12.665 -24.548  1.00  0.00     0.336 A 
ATOM     10  O   UNL     1       5.535  13.693 -25.163  1.00  0.00    -0.246 OA
ATOM     11  O   UNL     1       5.028  11.879 -23.951  1.00  0.00    -0.423 OA
ENDROOT
TORSDOF 0
ENDMDL
MODEL 6
REMARK VINA RESULT:    -5.453     11.658     13.411
REMARK INTER + INTRA:          -5.453
REMARK INTER:                  -5.453
REMARK INTRA:                   0.000
REMARK UNBOUND:                 0.000
REMARK SMILES O=c1ccc2ccccc2o1
REMARK SMILES IDX 7 1 8 2 9 3 10 4 5 5 6 6 4 7 3 8 2 9 1 10 11 11
REMARK H PARENT
REMARK Flexibility Score: inf
ROOT
ATOM      1  C   UNL     1       7.486   8.511 -22.238  1.00  0.00     0.001 A 
ATOM      2  C   UNL     1       6.443   7.863 -21.568  1.00  0.00     0.004 A 
ATOM      3  C   UNL     1       5.150   8.394 -21.599  1.00  0.00     0.048 A 
ATOM      4  C   UNL     1       4.894   9.576 -22.301  1.00  0.00     0.138 A 
ATOM      5  C   UNL     1       5.946  10.232 -22.979  1.00  0.00     0.018 A 
ATOM      6  C   UNL     1       7.241   9.694 -22.944  1.00  0.00     0.012 A 
ATOM      7  C   UNL     1       5.661  11.412 -23.673  1.00  0.00     0.019 A 
ATOM      8  C   UNL     1       4.356  11.904 -23.676  1.00  0.00     0.094 A 
ATOM      9  C   UNL     1       3.364  11.202 -22.983  1.00  0.00     0.336 A 
ATOM     10  O   UNL     1       2.180  11.631 -22.974  1.00  0.00    -0.246 OA
ATOM     11  O   UNL     1       3.662  10.081 -22.330  1.00  0.00    -0.423 OA
ENDROOT
TORSDOF 0
ENDMDL
MODEL 7
REMARK VINA RESULT:    -5.450     11.648     13.440
REMARK INTER + INTRA:          -5.450
REMARK INTER:                  -5.450
REMARK INTRA:                   0.000
REMARK UNBOUND:                 0.000
REMARK SMILES O=c1ccc2ccccc2o1
REMARK SMILES IDX 7 1 8 2 9 3 10 4 5 5 6 6 4 7 3 8 2 9 1 10 11 11
REMARK H PARENT
REMARK Flexibility Score: inf
ROOT
ATOM      1  C   UNL     1       6.883  12.393 -24.449  1.00  0.00     0.001 A 
ATOM      2  C   UNL     1       5.488  12.475 -24.370  1.00  0.00     0.004 A 
ATOM      3  C   UNL     1       4.764  11.497 -23.680  1.00  0.00     0.048 A 
ATOM      4  C   UNL     1       5.432  10.433 -23.067  1.00  0.00     0.138 A 
ATOM      5  C   UNL     1       6.841  10.349 -23.146  1.00  0.00     0.018 A 
ATOM      6  C   UNL     1       7.561  11.333 -23.838  1.00  0.00     0.012 A 
ATOM      7  C   UNL     1       7.482   9.274 -22.522  1.00  0.00     0.019 A 
ATOM      8  C   UNL     1       6.719   8.323 -21.846  1.00  0.00     0.094 A 
ATOM      9  C   UNL     1       5.328   8.469 -21.808  1.00  0.00     0.336 A 
ATOM     10  O   UNL     1       4.622   7.621 -21.203  1.00  0.00    -0.246 OA
ATOM     11  O   UNL     1       4.742   9.503 -22.411  1.00  0.00    -0.423 OA
ENDROOT
TORSDOF 0
ENDMDL
MODEL 8
REMARK VINA RESULT:    -5.380      2.639      4.507
REMARK INTER + INTRA:          -5.380
REMARK INTER:                  -5.380
REMARK INTRA:                   0.000
REMARK UNBOUND:                 0.000
REMARK SMILES O=c1ccc2ccccc2o1
REMARK SMILES IDX 7 1 8 2 9 3 10 4 5 5 6 6 4 7 3 8 2 9 1 10 11 11
REMARK H PARENT
REMARK Flexibility Score: inf
ROOT
ATOM      1  C   UNL     1       2.070  -3.400 -21.793  1.00  0.00     0.001 A 
ATOM      2  C   UNL     1       1.833  -3.007 -23.115  1.00  0.00     0.004 A 
ATOM      3  C   UNL     1       2.600  -1.991 -23.694  1.00  0.00     0.048 A 
ATOM      4  C   UNL     1       3.607  -1.364 -22.955  1.00  0.00     0.138 A 
ATOM      5  C   UNL     1       3.847  -1.761 -21.620  1.00  0.00     0.018 A 
ATOM      6  C   UNL     1       3.076  -2.780 -21.044  1.00  0.00     0.012 A 
ATOM      7  C   UNL     1       4.862  -1.116 -20.904  1.00  0.00     0.019 A 
ATOM      8  C   UNL     1       5.600  -0.108 -21.523  1.00  0.00     0.094 A 
ATOM      9  C   UNL     1       5.307   0.232 -22.848  1.00  0.00     0.336 A 
ATOM     10  O   UNL     1       5.963   1.139 -23.424  1.00  0.00    -0.246 OA
ATOM     11  O   UNL     1       4.336  -0.397 -23.507  1.00  0.00    -0.423 OA
ENDROOT
TORSDOF 0
ENDMDL
MODEL 9
REMARK VINA RESULT:    -5.270      1.699      1.960
REMARK INTER + INTRA:          -5.270
REMARK INTER:                  -5.270
REMARK INTRA:                   0.000
REMARK UNBOUND:                 0.000
REMARK SMILES O=c1ccc2ccccc2o1
REMARK SMILES IDX 7 1 8 2 9 3 10 4 5 5 6 6 4 7 3 8 2 9 1 10 11 11
REMARK H PARENT
REMARK Flexibility Score: inf
ROOT
ATOM      1  C   UNL     1       5.179   0.467 -23.087  1.00  0.00     0.001 A 
ATOM      2  C   UNL     1       5.673   0.202 -21.805  1.00  0.00     0.004 A 
ATOM      3  C   UNL     1       5.146  -0.853 -21.053  1.00  0.00     0.048 A 
ATOM      4  C   UNL     1       4.124  -1.648 -21.580  1.00  0.00     0.138 A 
ATOM      5  C   UNL     1       3.624  -1.381 -22.875  1.00  0.00     0.018 A 
ATOM      6  C   UNL     1       4.157  -0.322 -23.625  1.00  0.00     0.012 A 
ATOM      7  C   UNL     1       2.602  -2.192 -23.377  1.00  0.00     0.019 A 
ATOM      8  C   UNL     1       2.108  -3.233 -22.591  1.00  0.00     0.094 A 
ATOM      9  C   UNL     1       2.650  -3.439 -21.318  1.00  0.00     0.336 A 
ATOM     10  O   UNL     1       2.217  -4.373 -20.594  1.00  0.00    -0.246 OA
ATOM     11  O   UNL     1       3.623  -2.652 -20.864  1.00  0.00    -0.423 OA
ENDROOT
TORSDOF 0
ENDMDL
