MODEL 1
REMARK VINA RESULT:   129.731      0.000      0.000
REMARK INTER + INTRA:         154.186
REMARK INTER:                 152.483
REMARK INTRA:                   1.703
REMARK UNBOUND:                 1.703
REMARK SMILES C=C(C)[C@@H]1CC[C@]2(CO)CC[C@@]3(C)[C@@H](CC[C@H]4[C@@]5(C)CC[C@H](O)C(C)(C)[C@@H]5CC[C@@]43C)[C@H]12
REMARK SMILES IDX 4 1 5 2 6 3 7 4 32 5 14 6 15 7 16 8 17 9 18 10 20 11 21 12
REMARK SMILES IDX 22 13 24 14 27 15 28 16 29 17 30 18 12 19 11 20 10 21 13 22
REMARK SMILES IDX 31 23 25 24 26 25 19 26 2 27 3 28 1 29 8 30 9 31 23 33
REMARK H PARENT 9 32 23 34
REMARK Flexibility Score: inf
ROOT
ATOM      1  C   UNL     1     -36.325  31.607 -25.168  1.00  0.00     0.018 C 
ATOM      2  C   UNL     1     -36.244  30.447 -26.121  1.00  0.00     0.009 C 
ATOM      3  C   UNL     1     -35.874  29.236 -25.283  1.00  0.00     0.010 C 
ATOM      4  C   UNL     1     -35.887  29.684 -23.790  1.00  0.00    -0.003 C 
ATOM      5  C   UNL     1     -36.755  31.003 -23.826  1.00  0.00     0.008 C 
ATOM      6  C   UNL     1     -38.307  30.654 -23.701  1.00  0.00    -0.000 C 
ATOM      7  C   UNL     1     -39.194  31.886 -23.841  1.00  0.00     0.005 C 
ATOM      8  C   UNL     1     -40.692  31.543 -23.759  1.00  0.00     0.005 C 
ATOM      9  C   UNL     1     -40.998  30.971 -22.367  1.00  0.00     0.002 C 
ATOM     10  C   UNL     1     -42.522  31.072 -21.949  1.00  0.00    -0.026 C 
ATOM     11  C   UNL     1     -43.497  30.794 -23.129  1.00  0.00     0.010 C 
ATOM     12  C   UNL     1     -44.998  30.781 -22.687  1.00  0.00     0.033 C 
ATOM     13  C   UNL     1     -45.380  30.911 -21.146  1.00  0.00     0.120 C 
ATOM     14  C   UNL     1     -44.302  30.370 -20.108  1.00  0.00    -0.006 C 
ATOM     15  C   UNL     1     -42.986  30.018 -20.864  1.00  0.00     0.003 C 
ATOM     16  C   UNL     1     -41.909  29.178 -20.102  1.00  0.00     0.005 C 
ATOM     17  C   UNL     1     -40.462  29.294 -20.571  1.00  0.00     0.008 C 
ATOM     18  C   UNL     1     -40.230  29.628 -22.096  1.00  0.00    -0.024 C 
ATOM     19  C   UNL     1     -38.626  29.839 -22.393  1.00  0.00    -0.024 C 
ATOM     20  C   UNL     1     -37.953  28.468 -22.657  1.00  0.00     0.008 C 
ATOM     21  C   UNL     1     -36.427  28.546 -22.854  1.00  0.00     0.010 C 
ATOM     22  C   UNL     1     -37.921  30.509 -21.143  1.00  0.00     0.012 C 
ATOM     23  C   UNL     1     -40.831  28.450 -22.938  1.00  0.00     0.012 C 
ATOM     24  C   UNL     1     -44.018  31.353 -18.936  1.00  0.00     0.014 C 
ATOM     25  C   UNL     1     -44.888  29.119 -19.418  1.00  0.00     0.014 C 
ATOM     26  C   UNL     1     -42.727  32.621 -21.656  1.00  0.00     0.012 C 
ENDROOT
BRANCH   1  27
ATOM     27  C   UNL     1     -36.962  32.911 -25.644  1.00  0.00    -0.077 C 
ATOM     28  C   UNL     1     -36.109  34.042 -26.121  1.00  0.00     0.039 C 
ATOM     29  C   UNL     1     -38.291  33.045 -25.806  1.00  0.00     0.008 C 
ENDBRANCH   1  27
BRANCH   4  30
ATOM     30  C   UNL     1     -34.414  29.962 -23.272  1.00  0.00     0.163 C 
BRANCH  30  31
ATOM     31  O   UNL     1     -33.571  30.560 -24.218  1.00  0.00    -0.396 OA
ATOM     32  H   UNL     1     -33.414  31.476 -23.889  1.00  0.00     0.210 HD
ENDBRANCH  30  31
ENDBRANCH   4  30
BRANCH  13  33
ATOM     33  O   UNL     1     -45.788  32.217 -20.853  1.00  0.00    -0.393 OA
ATOM     34  H   UNL     1     -45.800  32.750 -21.712  1.00  0.00     0.210 HD
ENDBRANCH  13  33
TORSDOF 4
ENDMDL
MODEL 2
REMARK VINA RESULT:   130.598      1.991      3.378
REMARK INTER + INTRA:         155.205
REMARK INTER:                 155.355
REMARK INTRA:                  -0.150
REMARK UNBOUND:                 1.703
REMARK SMILES C=C(C)[C@@H]1CC[C@]2(CO)CC[C@@]3(C)[C@@H](CC[C@H]4[C@@]5(C)CC[C@H](O)C(C)(C)[C@@H]5CC[C@@]43C)[C@H]12
REMARK SMILES IDX 4 1 5 2 6 3 7 4 32 5 14 6 15 7 16 8 17 9 18 10 20 11 21 12
REMARK SMILES IDX 22 13 24 14 27 15 28 16 29 17 30 18 12 19 11 20 10 21 13 22
REMARK SMILES IDX 31 23 25 24 26 25 19 26 2 27 3 28 1 29 8 30 9 31 23 33
REMARK H PARENT 9 32 23 34
REMARK Flexibility Score: inf
ROOT
ATOM      1  C   UNL     1     -36.928  29.308 -22.416  1.00  0.00     0.018 C 
ATOM      2  C   UNL     1     -36.997  27.832 -22.138  1.00  0.00     0.009 C 
ATOM      3  C   UNL     1     -37.300  27.692 -20.658  1.00  0.00     0.010 C 
ATOM      4  C   UNL     1     -37.556  29.124 -20.100  1.00  0.00    -0.003 C 
ATOM      5  C   UNL     1     -37.879  29.957 -21.402  1.00  0.00     0.008 C 
ATOM      6  C   UNL     1     -39.431  29.854 -21.761  1.00  0.00    -0.000 C 
ATOM      7  C   UNL     1     -39.772  30.552 -23.073  1.00  0.00     0.005 C 
ATOM      8  C   UNL     1     -41.262  30.419 -23.437  1.00  0.00     0.005 C 
ATOM      9  C   UNL     1     -42.103  31.124 -22.364  1.00  0.00     0.002 C 
ATOM     10  C   UNL     1     -43.554  31.534 -22.849  1.00  0.00    -0.026 C 
ATOM     11  C   UNL     1     -44.213  30.467 -23.768  1.00  0.00     0.010 C 
ATOM     12  C   UNL     1     -45.689  30.822 -24.150  1.00  0.00     0.033 C 
ATOM     13  C   UNL     1     -46.399  32.093 -23.506  1.00  0.00     0.120 C 
ATOM     14  C   UNL     1     -45.888  32.525 -22.062  1.00  0.00    -0.006 C 
ATOM     15  C   UNL     1     -44.621  31.698 -21.691  1.00  0.00     0.003 C 
ATOM     16  C   UNL     1     -44.139  31.727 -20.204  1.00  0.00     0.005 C 
ATOM     17  C   UNL     1     -42.671  31.418 -19.932  1.00  0.00     0.008 C 
ATOM     18  C   UNL     1     -41.941  30.459 -20.951  1.00  0.00    -0.024 C 
ATOM     19  C   UNL     1     -40.344  30.340 -20.575  1.00  0.00    -0.024 C 
ATOM     20  C   UNL     1     -40.135  29.248 -19.496  1.00  0.00     0.008 C 
ATOM     21  C   UNL     1     -38.681  29.121 -19.005  1.00  0.00     0.010 C 
ATOM     22  C   UNL     1     -39.812  31.717 -20.002  1.00  0.00     0.012 C 
ATOM     23  C   UNL     1     -42.661  29.067 -20.893  1.00  0.00     0.012 C 
ATOM     24  C   UNL     1     -45.609  34.051 -21.930  1.00  0.00     0.014 C 
ATOM     25  C   UNL     1     -47.027  32.262 -21.052  1.00  0.00     0.014 C 
ATOM     26  C   UNL     1     -43.288  32.756 -23.831  1.00  0.00     0.012 C 
ENDROOT
BRANCH   1  27
ATOM     27  C   UNL     1     -36.930  29.789 -23.865  1.00  0.00    -0.077 C 
ATOM     28  C   UNL     1     -37.012  31.248 -24.179  1.00  0.00     0.039 C 
ATOM     29  C   UNL     1     -36.702  28.959 -24.898  1.00  0.00     0.008 C 
ENDBRANCH   1  27
BRANCH   4  30
ATOM     30  C   UNL     1     -36.271  29.676 -19.351  1.00  0.00     0.163 C 
BRANCH  30  31
ATOM     31  O   UNL     1     -36.302  31.051 -19.085  1.00  0.00    -0.396 OA
ATOM     32  H   UNL     1     -35.811  31.475 -19.827  1.00  0.00     0.210 HD
ENDBRANCH  30  31
ENDBRANCH   4  30
BRANCH  13  33
ATOM     33  O   UNL     1     -46.399  33.163 -24.408  1.00  0.00    -0.393 OA
ATOM     34  H   UNL     1     -46.361  32.790 -25.347  1.00  0.00     0.210 HD
ENDBRANCH  13  33
TORSDOF 4
ENDMDL
MODEL 3
REMARK VINA RESULT:   131.352      9.557     12.569
REMARK INTER + INTRA:         156.091
REMARK INTER:                 156.592
REMARK INTRA:                  -0.501
REMARK UNBOUND:                 1.703
REMARK SMILES C=C(C)[C@@H]1CC[C@]2(CO)CC[C@@]3(C)[C@@H](CC[C@H]4[C@@]5(C)CC[C@H](O)C(C)(C)[C@@H]5CC[C@@]43C)[C@H]12
REMARK SMILES IDX 4 1 5 2 6 3 7 4 32 5 14 6 15 7 16 8 17 9 18 10 20 11 21 12
REMARK SMILES IDX 22 13 24 14 27 15 28 16 29 17 30 18 12 19 11 20 10 21 13 22
REMARK SMILES IDX 31 23 25 24 26 25 19 26 2 27 3 28 1 29 8 30 9 31 23 33
REMARK H PARENT 9 32 23 34
REMARK Flexibility Score: inf
ROOT
ATOM      1  C   UNL     1     -39.819  38.502 -11.547  1.00  0.00     0.018 C 
ATOM      2  C   UNL     1     -40.279  39.810 -10.966  1.00  0.00     0.009 C 
ATOM      3  C   UNL     1     -39.328  40.868 -11.498  1.00  0.00     0.010 C 
ATOM      4  C   UNL     1     -38.388  40.170 -12.526  1.00  0.00    -0.003 C 
ATOM      5  C   UNL     1     -39.183  38.857 -12.897  1.00  0.00     0.008 C 
ATOM      6  C   UNL     1     -40.213  39.143 -14.081  1.00  0.00    -0.000 C 
ATOM      7  C   UNL     1     -41.083  37.932 -14.401  1.00  0.00     0.005 C 
ATOM      8  C   UNL     1     -42.103  38.221 -15.518  1.00  0.00     0.005 C 
ATOM      9  C   UNL     1     -41.345  38.538 -16.815  1.00  0.00     0.002 C 
ATOM     10  C   UNL     1     -42.204  38.331 -18.129  1.00  0.00    -0.026 C 
ATOM     11  C   UNL     1     -43.683  38.784 -17.968  1.00  0.00     0.010 C 
ATOM     12  C   UNL     1     -44.498  38.686 -19.301  1.00  0.00     0.033 C 
ATOM     13  C   UNL     1     -43.767  38.284 -20.658  1.00  0.00     0.120 C 
ATOM     14  C   UNL     1     -42.225  38.665 -20.763  1.00  0.00    -0.006 C 
ATOM     15  C   UNL     1     -41.721  39.172 -19.379  1.00  0.00     0.003 C 
ATOM     16  C   UNL     1     -40.335  39.894 -19.328  1.00  0.00     0.005 C 
ATOM     17  C   UNL     1     -39.588  39.894 -17.998  1.00  0.00     0.008 C 
ATOM     18  C   UNL     1     -40.465  39.832 -16.686  1.00  0.00    -0.024 C 
ATOM     19  C   UNL     1     -39.498  39.714 -15.361  1.00  0.00    -0.024 C 
ATOM     20  C   UNL     1     -39.041  41.125 -14.912  1.00  0.00     0.008 C 
ATOM     21  C   UNL     1     -38.052  41.118 -13.732  1.00  0.00     0.010 C 
ATOM     22  C   UNL     1     -38.210  38.856 -15.699  1.00  0.00     0.012 C 
ATOM     23  C   UNL     1     -41.355  41.123 -16.647  1.00  0.00     0.012 C 
ATOM     24  C   UNL     1     -41.331  37.501 -21.283  1.00  0.00     0.014 C 
ATOM     25  C   UNL     1     -42.076  39.765 -21.837  1.00  0.00     0.014 C 
ATOM     26  C   UNL     1     -42.312  36.750 -18.259  1.00  0.00     0.012 C 
ENDROOT
BRANCH   1  27
ATOM     27  C   UNL     1     -40.735  37.285 -11.443  1.00  0.00    -0.077 C 
ATOM     28  C   UNL     1     -40.183  35.905 -11.606  1.00  0.00     0.039 C 
ATOM     29  C   UNL     1     -42.018  37.382 -11.052  1.00  0.00     0.008 C 
ENDBRANCH   1  27
BRANCH   4  30
ATOM     30  C   UNL     1     -36.981  39.843 -11.871  1.00  0.00     0.163 C 
BRANCH  30  31
ATOM     31  O   UNL     1     -36.643  40.661 -10.785  1.00  0.00    -0.396 OA
ATOM     32  H   UNL     1     -35.670  40.558 -10.670  1.00  0.00     0.210 HD
ENDBRANCH  30  31
ENDBRANCH   4  30
BRANCH  13  33
ATOM     33  O   UNL     1     -44.001  36.938 -20.959  1.00  0.00    -0.393 OA
ATOM     34  H   UNL     1     -43.264  36.614 -21.572  1.00  0.00     0.210 HD
ENDBRANCH  13  33
TORSDOF 4
ENDMDL
