MODEL 1
REMARK VINA RESULT:    -4.001      0.000      0.000
REMARK INTER + INTRA:          -4.402
REMARK INTER:                  -4.235
REMARK INTRA:                  -0.167
REMARK UNBOUND:                -0.167
REMARK SMILES CC1=CCC(C(C)C)=CC1
REMARK SMILES IDX 1 1 2 2 3 3 4 4 5 5 9 6 10 7 6 8 7 9 8 10
REMARK H PARENT
REMARK Flexibility Score: inf
ROOT
ATOM      1  C   UNL     1      11.037   7.707  15.879  1.00  0.00     0.039 C 
ATOM      2  C   UNL     1      11.681   6.426  16.329  1.00  0.00    -0.073 C 
ATOM      3  C   UNL     1      12.977   6.190  16.048  1.00  0.00    -0.023 C 
ATOM      4  C   UNL     1      13.628   4.892  16.458  1.00  0.00     0.058 C 
ATOM      5  C   UNL     1      13.043   4.366  17.758  1.00  0.00    -0.068 C 
ATOM      6  C   UNL     1      11.743   4.611  18.035  1.00  0.00    -0.023 C 
ATOM      7  C   UNL     1      10.875   5.380  17.070  1.00  0.00     0.057 C 
ENDROOT
BRANCH   5   8
ATOM      8  C   UNL     1      13.905   3.602  18.751  1.00  0.00     0.009 C 
ATOM      9  C   UNL     1      14.169   4.447  20.002  1.00  0.00     0.012 C 
ATOM     10  C   UNL     1      15.219   3.143  18.108  1.00  0.00     0.012 C 
ENDBRANCH   5   8
TORSDOF 1
ENDMDL
MODEL 2
REMARK VINA RESULT:    -3.928      1.029      4.408
REMARK INTER + INTRA:          -4.324
REMARK INTER:                  -4.150
REMARK INTRA:                  -0.174
REMARK UNBOUND:                -0.167
REMARK SMILES CC1=CCC(C(C)C)=CC1
REMARK SMILES IDX 1 1 2 2 3 3 4 4 5 5 9 6 10 7 6 8 7 9 8 10
REMARK H PARENT
REMARK Flexibility Score: inf
ROOT
ATOM      1  C   UNL     1      14.920   3.189  18.061  1.00  0.00     0.039 C 
ATOM      2  C   UNL     1      13.753   3.986  17.548  1.00  0.00    -0.073 C 
ATOM      3  C   UNL     1      12.599   4.009  18.241  1.00  0.00    -0.023 C 
ATOM      4  C   UNL     1      11.405   4.771  17.721  1.00  0.00     0.058 C 
ATOM      5  C   UNL     1      11.834   6.009  16.948  1.00  0.00    -0.068 C 
ATOM      6  C   UNL     1      12.995   5.979  16.259  1.00  0.00    -0.023 C 
ATOM      7  C   UNL     1      13.853   4.738  16.238  1.00  0.00     0.057 C 
ENDROOT
BRANCH   5   8
ATOM      8  C   UNL     1      10.990   7.274  16.969  1.00  0.00     0.009 C 
ATOM      9  C   UNL     1      11.448   8.249  15.879  1.00  0.00     0.012 C 
ATOM     10  C   UNL     1      11.019   7.938  18.351  1.00  0.00     0.012 C 
ENDBRANCH   5   8
TORSDOF 1
ENDMDL
MODEL 3
REMARK VINA RESULT:    -3.920      0.494      1.201
REMARK INTER + INTRA:          -4.315
REMARK INTER:                  -4.178
REMARK INTRA:                  -0.138
REMARK UNBOUND:                -0.167
REMARK SMILES CC1=CCC(C(C)C)=CC1
REMARK SMILES IDX 1 1 2 2 3 3 4 4 5 5 9 6 10 7 6 8 7 9 8 10
REMARK H PARENT
REMARK Flexibility Score: inf
ROOT
ATOM      1  C   UNL     1      11.017   7.853  15.875  1.00  0.00     0.039 C 
ATOM      2  C   UNL     1      11.714   6.613  16.361  1.00  0.00    -0.073 C 
ATOM      3  C   UNL     1      12.974   6.351  15.966  1.00  0.00    -0.023 C 
ATOM      4  C   UNL     1      13.674   5.091  16.413  1.00  0.00     0.058 C 
ATOM      5  C   UNL     1      13.231   4.678  17.807  1.00  0.00    -0.068 C 
ATOM      6  C   UNL     1      11.967   4.948  18.198  1.00  0.00    -0.023 C 
ATOM      7  C   UNL     1      10.997   5.635  17.268  1.00  0.00     0.057 C 
ENDROOT
BRANCH   5   8
ATOM      8  C   UNL     1      14.198   3.999  18.765  1.00  0.00     0.009 C 
ATOM      9  C   UNL     1      14.986   2.897  18.049  1.00  0.00     0.012 C 
ATOM     10  C   UNL     1      13.467   3.445  19.993  1.00  0.00     0.012 C 
ENDBRANCH   5   8
TORSDOF 1
ENDMDL
MODEL 4
REMARK VINA RESULT:    -3.831      1.479      2.063
REMARK INTER + INTRA:          -4.222
REMARK INTER:                  -4.050
REMARK INTRA:                  -0.172
REMARK UNBOUND:                -0.167
REMARK SMILES CC1=CCC(C(C)C)=CC1
REMARK SMILES IDX 1 1 2 2 3 3 4 4 5 5 9 6 10 7 6 8 7 9 8 10
REMARK H PARENT
REMARK Flexibility Score: inf
ROOT
ATOM      1  C   UNL     1      11.005   9.364  16.699  1.00  0.00     0.039 C 
ATOM      2  C   UNL     1      11.057   7.971  17.261  1.00  0.00    -0.073 C 
ATOM      3  C   UNL     1      10.875   6.912  16.450  1.00  0.00    -0.023 C 
ATOM      4  C   UNL     1      10.885   5.509  17.004  1.00  0.00     0.058 C 
ATOM      5  C   UNL     1      11.837   5.387  18.183  1.00  0.00    -0.068 C 
ATOM      6  C   UNL     1      12.017   6.455  18.990  1.00  0.00    -0.023 C 
ATOM      7  C   UNL     1      11.280   7.749  18.742  1.00  0.00     0.057 C 
ENDROOT
BRANCH   5   8
ATOM      8  C   UNL     1      12.600   4.098  18.441  1.00  0.00     0.009 C 
ATOM      9  C   UNL     1      13.117   4.052  19.884  1.00  0.00     0.012 C 
ATOM     10  C   UNL     1      13.747   3.921  17.439  1.00  0.00     0.012 C 
ENDBRANCH   5   8
TORSDOF 1
ENDMDL
MODEL 5
REMARK VINA RESULT:    -3.808      0.949      4.414
REMARK INTER + INTRA:          -4.198
REMARK INTER:                  -4.031
REMARK INTRA:                  -0.166
REMARK UNBOUND:                -0.167
REMARK SMILES CC1=CCC(C(C)C)=CC1
REMARK SMILES IDX 1 1 2 2 3 3 4 4 5 5 9 6 10 7 6 8 7 9 8 10
REMARK H PARENT
REMARK Flexibility Score: inf
ROOT
ATOM      1  C   UNL     1      14.724   2.984  20.229  1.00  0.00     0.039 C 
ATOM      2  C   UNL     1      13.980   3.515  19.036  1.00  0.00    -0.073 C 
ATOM      3  C   UNL     1      12.783   4.109  19.200  1.00  0.00    -0.023 C 
ATOM      4  C   UNL     1      12.005   4.612  18.009  1.00  0.00     0.058 C 
ATOM      5  C   UNL     1      12.933   5.102  16.909  1.00  0.00    -0.068 C 
ATOM      6  C   UNL     1      14.134   4.503  16.753  1.00  0.00    -0.023 C 
ATOM      7  C   UNL     1      14.551   3.357  17.642  1.00  0.00     0.057 C 
ENDROOT
BRANCH   5   8
ATOM      8  C   UNL     1      12.537   6.265  16.013  1.00  0.00     0.009 C 
ATOM      9  C   UNL     1      13.350   7.517  16.359  1.00  0.00     0.012 C 
ATOM     10  C   UNL     1      11.032   6.544  16.097  1.00  0.00     0.012 C 
ENDBRANCH   5   8
TORSDOF 1
ENDMDL
MODEL 6
REMARK VINA RESULT:    -3.563      1.891      4.309
REMARK INTER + INTRA:          -3.938
REMARK INTER:                  -3.772
REMARK INTRA:                  -0.166
REMARK UNBOUND:                -0.167
REMARK SMILES CC1=CCC(C(C)C)=CC1
REMARK SMILES IDX 1 1 2 2 3 3 4 4 5 5 9 6 10 7 6 8 7 9 8 10
REMARK H PARENT
REMARK Flexibility Score: inf
ROOT
ATOM      1  C   UNL     1      17.261   6.240  17.314  1.00  0.00     0.039 C 
ATOM      2  C   UNL     1      15.891   6.166  16.699  1.00  0.00    -0.073 C 
ATOM      3  C   UNL     1      15.296   4.971  16.527  1.00  0.00    -0.023 C 
ATOM      4  C   UNL     1      13.938   4.876  15.875  1.00  0.00     0.058 C 
ATOM      5  C   UNL     1      13.085   6.092  16.196  1.00  0.00    -0.068 C 
ATOM      6  C   UNL     1      13.690   7.286  16.372  1.00  0.00    -0.023 C 
ATOM      7  C   UNL     1      15.187   7.425  16.240  1.00  0.00     0.057 C 
ENDROOT
BRANCH   5   8
ATOM      8  C   UNL     1      11.577   5.970  16.348  1.00  0.00     0.009 C 
ATOM      9  C   UNL     1      10.880   7.261  15.906  1.00  0.00     0.012 C 
ATOM     10  C   UNL     1      11.191   5.599  17.786  1.00  0.00     0.012 C 
ENDBRANCH   5   8
TORSDOF 1
ENDMDL
MODEL 7
REMARK VINA RESULT:    -3.496      1.878      4.663
REMARK INTER + INTRA:          -3.868
REMARK INTER:                  -3.691
REMARK INTRA:                  -0.177
REMARK UNBOUND:                -0.167
REMARK SMILES CC1=CCC(C(C)C)=CC1
REMARK SMILES IDX 1 1 2 2 3 3 4 4 5 5 9 6 10 7 6 8 7 9 8 10
REMARK H PARENT
REMARK Flexibility Score: inf
ROOT
ATOM      1  C   UNL     1      14.058   3.383  19.301  1.00  0.00     0.039 C 
ATOM      2  C   UNL     1      12.964   4.406  19.176  1.00  0.00    -0.073 C 
ATOM      3  C   UNL     1      12.884   5.415  20.064  1.00  0.00    -0.023 C 
ATOM      4  C   UNL     1      11.768   6.428  19.977  1.00  0.00     0.058 C 
ATOM      5  C   UNL     1      11.355   6.672  18.535  1.00  0.00    -0.068 C 
ATOM      6  C   UNL     1      11.443   5.656  17.649  1.00  0.00    -0.023 C 
ATOM      7  C   UNL     1      11.929   4.293  18.077  1.00  0.00     0.057 C 
ENDROOT
BRANCH   5   8
ATOM      8  C   UNL     1      10.877   8.042  18.080  1.00  0.00     0.009 C 
ATOM      9  C   UNL     1      11.421   8.371  16.685  1.00  0.00     0.012 C 
ATOM     10  C   UNL     1      11.261   9.129  19.091  1.00  0.00     0.012 C 
ENDBRANCH   5   8
TORSDOF 1
ENDMDL
MODEL 8
REMARK VINA RESULT:    -3.450      1.419      1.953
REMARK INTER + INTRA:          -3.819
REMARK INTER:                  -3.651
REMARK INTRA:                  -0.168
REMARK UNBOUND:                -0.167
REMARK SMILES CC1=CCC(C(C)C)=CC1
REMARK SMILES IDX 1 1 2 2 3 3 4 4 5 5 9 6 10 7 6 8 7 9 8 10
REMARK H PARENT
REMARK Flexibility Score: inf
ROOT
ATOM      1  C   UNL     1      12.553   9.830  16.244  1.00  0.00     0.039 C 
ATOM      2  C   UNL     1      12.756   8.342  16.178  1.00  0.00    -0.073 C 
ATOM      3  C   UNL     1      13.986   7.823  16.358  1.00  0.00    -0.023 C 
ATOM      4  C   UNL     1      14.215   6.335  16.256  1.00  0.00     0.058 C 
ATOM      5  C   UNL     1      13.001   5.555  16.734  1.00  0.00    -0.068 C 
ATOM      6  C   UNL     1      11.772   6.084  16.553  1.00  0.00    -0.023 C 
ATOM      7  C   UNL     1      11.594   7.420  15.875  1.00  0.00     0.057 C 
ENDROOT
BRANCH   5   8
ATOM      8  C   UNL     1      13.161   4.214  17.433  1.00  0.00     0.009 C 
ATOM      9  C   UNL     1      12.781   4.325  18.914  1.00  0.00     0.012 C 
ATOM     10  C   UNL     1      14.584   3.667  17.269  1.00  0.00     0.012 C 
ENDBRANCH   5   8
TORSDOF 1
ENDMDL
