MODEL 1
REMARK VINA RESULT:    -6.725      0.000      0.000
REMARK INTER + INTRA:          -8.362
REMARK INTER:                  -8.101
REMARK INTRA:                  -0.261
REMARK UNBOUND:                -0.261
REMARK SMILES O=c1c(O)c(-c2ccc(O)c(O)c2)oc2cc(O)cc(O)c12
REMARK SMILES IDX 5 1 3 2 2 3 1 4 22 5 20 6 19 7 17 8 16 9 15 10 14 11 6 12
REMARK SMILES IDX 7 13 8 14 9 15 13 16 11 17 10 18 12 20 4 22 21 24 18 26
REMARK H PARENT 10 19 12 21 4 23 21 25 18 27
REMARK Flexibility Score: inf
ROOT
ATOM      1  C   UNL     1     -28.762  69.593 158.086  1.00  0.00     0.180 A 
ATOM      2  C   UNL     1     -28.638  70.921 157.645  1.00  0.00     0.208 A 
ATOM      3  C   UNL     1     -27.977  71.851 158.464  1.00  0.00     0.238 A 
ATOM      4  O   UNL     1     -27.917  73.052 158.089  1.00  0.00    -0.285 OA
ATOM      5  C   UNL     1     -27.434  71.437 159.704  1.00  0.00     0.111 A 
ATOM      6  C   UNL     1     -26.709  72.285 160.595  1.00  0.00     0.134 A 
ATOM      7  C   UNL     1     -26.332  71.801 161.854  1.00  0.00     0.093 A 
ATOM      8  C   UNL     1     -26.595  70.481 162.228  1.00  0.00     0.123 A 
ATOM      9  C   UNL     1     -27.249  69.629 161.340  1.00  0.00     0.094 A 
ATOM     10  C   UNL     1     -27.670  70.092 160.092  1.00  0.00     0.146 A 
ATOM     11  O   UNL     1     -28.300  69.250 159.282  1.00  0.00    -0.452 OA
ENDROOT
BRANCH   1  12
ATOM     12  C   UNL     1     -29.423  68.549 157.267  1.00  0.00     0.025 A 
ATOM     13  C   UNL     1     -30.824  68.513 157.196  1.00  0.00     0.016 A 
ATOM     14  C   UNL     1     -31.469  67.525 156.446  1.00  0.00     0.051 A 
ATOM     15  C   UNL     1     -30.723  66.550 155.771  1.00  0.00     0.157 A 
ATOM     16  C   UNL     1     -28.678  67.557 156.606  1.00  0.00     0.062 A 
ATOM     17  C   UNL     1     -29.321  66.565 155.856  1.00  0.00     0.158 A 
BRANCH  15  18
ATOM     18  O   UNL     1     -31.369  65.568 155.023  1.00  0.00    -0.504 OA
ATOM     19  H   UNL     1     -31.183  65.444 154.035  1.00  0.00     0.293 HD
ENDBRANCH  15  18
BRANCH  17  20
ATOM     20  O   UNL     1     -28.550  65.600 155.207  1.00  0.00    -0.504 OA
ATOM     21  H   UNL     1     -28.866  64.644 155.096  1.00  0.00     0.293 HD
ENDBRANCH  17  20
ENDBRANCH   1  12
BRANCH   2  22
ATOM     22  O   UNL     1     -29.201  71.314 156.427  1.00  0.00    -0.502 OA
ATOM     23  H   UNL     1     -29.287  70.684 155.639  1.00  0.00     0.293 HD
ENDBRANCH   2  22
BRANCH   6  24
ATOM     24  O   UNL     1     -26.316  73.589 160.284  1.00  0.00    -0.507 OA
ATOM     25  H   UNL     1     -25.556  74.082 160.731  1.00  0.00     0.293 HD
ENDBRANCH   6  24
BRANCH   8  26
ATOM     26  O   UNL     1     -26.201  70.004 163.475  1.00  0.00    -0.508 OA
ATOM     27  H   UNL     1     -26.880  69.749 164.184  1.00  0.00     0.293 HD
ENDBRANCH   8  26
TORSDOF 6
ENDMDL
MODEL 2
REMARK VINA RESULT:    -6.623      1.040      1.096
REMARK INTER + INTRA:          -8.239
REMARK INTER:                  -7.930
REMARK INTRA:                  -0.308
REMARK UNBOUND:                -0.261
REMARK SMILES O=c1c(O)c(-c2ccc(O)c(O)c2)oc2cc(O)cc(O)c12
REMARK SMILES IDX 5 1 3 2 2 3 1 4 22 5 20 6 19 7 17 8 16 9 15 10 14 11 6 12
REMARK SMILES IDX 7 13 8 14 9 15 13 16 11 17 10 18 12 20 4 22 21 24 18 26
REMARK H PARENT 10 19 12 21 4 23 21 25 18 27
REMARK Flexibility Score: inf
ROOT
ATOM      1  C   UNL     1     -27.949  69.863 158.510  1.00  0.00     0.180 A 
ATOM      2  C   UNL     1     -28.001  71.157 157.965  1.00  0.00     0.208 A 
ATOM      3  C   UNL     1     -27.372  72.210 158.651  1.00  0.00     0.238 A 
ATOM      4  O   UNL     1     -27.469  73.376 158.187  1.00  0.00    -0.285 OA
ATOM      5  C   UNL     1     -26.686  71.951 159.862  1.00  0.00     0.111 A 
ATOM      6  C   UNL     1     -25.979  72.934 160.618  1.00  0.00     0.134 A 
ATOM      7  C   UNL     1     -25.447  72.592 161.868  1.00  0.00     0.093 A 
ATOM      8  C   UNL     1     -25.539  71.287 162.358  1.00  0.00     0.123 A 
ATOM      9  C   UNL     1     -26.175  70.307 161.598  1.00  0.00     0.094 A 
ATOM     10  C   UNL     1     -26.747  70.626 160.365  1.00  0.00     0.146 A 
ATOM     11  O   UNL     1     -27.353  69.664 159.679  1.00  0.00    -0.452 OA
ENDROOT
BRANCH   1  12
ATOM     12  C   UNL     1     -28.566  68.698 157.833  1.00  0.00     0.025 A 
ATOM     13  C   UNL     1     -29.930  68.430 158.028  1.00  0.00     0.016 A 
ATOM     14  C   UNL     1     -30.527  67.325 157.415  1.00  0.00     0.051 A 
ATOM     15  C   UNL     1     -29.767  66.463 156.614  1.00  0.00     0.157 A 
ATOM     16  C   UNL     1     -27.800  67.820 157.044  1.00  0.00     0.062 A 
ATOM     17  C   UNL     1     -28.396  66.712 156.432  1.00  0.00     0.158 A 
BRANCH  15  18
ATOM     18  O   UNL     1     -30.367  65.363 156.003  1.00  0.00    -0.504 OA
ATOM     19  H   UNL     1     -29.847  64.517 155.805  1.00  0.00     0.293 HD
ENDBRANCH  15  18
BRANCH  17  20
ATOM     20  O   UNL     1     -27.609  65.865 155.651  1.00  0.00    -0.504 OA
ATOM     21  H   UNL     1     -26.601  65.961 155.602  1.00  0.00     0.293 HD
ENDBRANCH  17  20
ENDBRANCH   1  12
BRANCH   2  22
ATOM     22  O   UNL     1     -28.704  71.395 156.781  1.00  0.00    -0.502 OA
ATOM     23  H   UNL     1     -28.295  71.888 155.995  1.00  0.00     0.293 HD
ENDBRANCH   2  22
BRANCH   6  24
ATOM     24  O   UNL     1     -25.750  74.241 160.180  1.00  0.00    -0.507 OA
ATOM     25  H   UNL     1     -25.024  74.847 160.533  1.00  0.00     0.293 HD
ENDBRANCH   6  24
BRANCH   8  26
ATOM     26  O   UNL     1     -24.993  70.952 163.594  1.00  0.00    -0.508 OA
ATOM     27  H   UNL     1     -24.636  71.660 164.226  1.00  0.00     0.293 HD
ENDBRANCH   8  26
TORSDOF 6
ENDMDL
MODEL 3
REMARK VINA RESULT:    -6.555     13.164     15.550
REMARK INTER + INTRA:          -8.157
REMARK INTER:                  -7.881
REMARK INTRA:                  -0.276
REMARK UNBOUND:                -0.261
REMARK SMILES O=c1c(O)c(-c2ccc(O)c(O)c2)oc2cc(O)cc(O)c12
REMARK SMILES IDX 5 1 3 2 2 3 1 4 22 5 20 6 19 7 17 8 16 9 15 10 14 11 6 12
REMARK SMILES IDX 7 13 8 14 9 15 13 16 11 17 10 18 12 20 4 22 21 24 18 26
REMARK H PARENT 10 19 12 21 4 23 21 25 18 27
REMARK Flexibility Score: inf
ROOT
ATOM      1  C   UNL     1     -25.994  57.125 152.076  1.00  0.00     0.180 A 
ATOM      2  C   UNL     1     -26.864  56.027 152.180  1.00  0.00     0.208 A 
ATOM      3  C   UNL     1     -28.149  56.122 151.621  1.00  0.00     0.238 A 
ATOM      4  O   UNL     1     -28.944  55.156 151.764  1.00  0.00    -0.285 OA
ATOM      5  C   UNL     1     -28.540  57.307 150.952  1.00  0.00     0.111 A 
ATOM      6  C   UNL     1     -29.803  57.497 150.314  1.00  0.00     0.134 A 
ATOM      7  C   UNL     1     -30.132  58.756 149.796  1.00  0.00     0.093 A 
ATOM      8  C   UNL     1     -29.218  59.813 149.836  1.00  0.00     0.123 A 
ATOM      9  C   UNL     1     -27.961  59.618 150.403  1.00  0.00     0.094 A 
ATOM     10  C   UNL     1     -27.617  58.384 150.960  1.00  0.00     0.146 A 
ATOM     11  O   UNL     1     -26.413  58.245 151.500  1.00  0.00    -0.452 OA
ENDROOT
BRANCH   1  12
ATOM     12  C   UNL     1     -24.615  57.092 152.618  1.00  0.00     0.025 A 
ATOM     13  C   UNL     1     -24.305  57.843 153.762  1.00  0.00     0.016 A 
ATOM     14  C   UNL     1     -23.006  57.842 154.278  1.00  0.00     0.051 A 
ATOM     15  C   UNL     1     -21.995  57.104 153.649  1.00  0.00     0.157 A 
ATOM     16  C   UNL     1     -23.594  56.368 151.976  1.00  0.00     0.062 A 
ATOM     17  C   UNL     1     -22.292  56.367 152.490  1.00  0.00     0.158 A 
BRANCH  15  18
ATOM     18  O   UNL     1     -20.702  57.103 154.167  1.00  0.00    -0.504 OA
ATOM     19  H   UNL     1     -20.345  57.883 154.706  1.00  0.00     0.293 HD
ENDBRANCH  15  18
BRANCH  17  20
ATOM     20  O   UNL     1     -21.306  55.632 151.832  1.00  0.00    -0.504 OA
ATOM     21  H   UNL     1     -21.463  54.684 151.513  1.00  0.00     0.293 HD
ENDBRANCH  17  20
ENDBRANCH   1  12
BRANCH   2  22
ATOM     22  O   UNL     1     -26.465  54.875 152.864  1.00  0.00    -0.502 OA
ATOM     23  H   UNL     1     -27.122  54.163 153.159  1.00  0.00     0.293 HD
ENDBRANCH   2  22
BRANCH   6  24
ATOM     24  O   UNL     1     -30.751  56.485 150.139  1.00  0.00    -0.507 OA
ATOM     25  H   UNL     1     -30.557  55.497 150.215  1.00  0.00     0.293 HD
ENDBRANCH   6  24
BRANCH   8  26
ATOM     26  O   UNL     1     -29.547  61.057 149.304  1.00  0.00    -0.508 OA
ATOM     27  H   UNL     1     -28.839  61.759 149.119  1.00  0.00     0.293 HD
ENDBRANCH   8  26
TORSDOF 6
ENDMDL
MODEL 4
REMARK VINA RESULT:    -6.220      1.824      6.970
REMARK INTER + INTRA:          -7.754
REMARK INTER:                  -7.419
REMARK INTRA:                  -0.334
REMARK UNBOUND:                -0.261
REMARK SMILES O=c1c(O)c(-c2ccc(O)c(O)c2)oc2cc(O)cc(O)c12
REMARK SMILES IDX 5 1 3 2 2 3 1 4 22 5 20 6 19 7 17 8 16 9 15 10 14 11 6 12
REMARK SMILES IDX 7 13 8 14 9 15 13 16 11 17 10 18 12 20 4 22 21 24 18 26
REMARK H PARENT 10 19 12 21 4 23 21 25 18 27
REMARK Flexibility Score: inf
ROOT
ATOM      1  C   UNL     1     -28.111  69.532 159.499  1.00  0.00     0.180 A 
ATOM      2  C   UNL     1     -29.493  69.773 159.583  1.00  0.00     0.208 A 
ATOM      3  C   UNL     1     -30.366  69.018 158.782  1.00  0.00     0.238 A 
ATOM      4  O   UNL     1     -31.597  69.276 158.821  1.00  0.00    -0.285 OA
ATOM      5  C   UNL     1     -29.847  68.022 157.920  1.00  0.00     0.111 A 
ATOM      6  C   UNL     1     -30.642  67.170 157.095  1.00  0.00     0.134 A 
ATOM      7  C   UNL     1     -30.015  66.309 156.186  1.00  0.00     0.093 A 
ATOM      8  C   UNL     1     -28.622  66.221 156.119  1.00  0.00     0.123 A 
ATOM      9  C   UNL     1     -27.839  67.005 156.964  1.00  0.00     0.094 A 
ATOM     10  C   UNL     1     -28.434  67.900 157.856  1.00  0.00     0.146 A 
ATOM     11  O   UNL     1     -27.651  68.636 158.634  1.00  0.00    -0.452 OA
ENDROOT
BRANCH   1  12
ATOM     12  C   UNL     1     -27.131  70.269 160.329  1.00  0.00     0.025 A 
ATOM     13  C   UNL     1     -26.508  71.414 159.809  1.00  0.00     0.016 A 
ATOM     14  C   UNL     1     -25.565  72.113 160.568  1.00  0.00     0.051 A 
ATOM     15  C   UNL     1     -25.219  71.668 161.850  1.00  0.00     0.157 A 
ATOM     16  C   UNL     1     -26.766  69.813 161.609  1.00  0.00     0.062 A 
ATOM     17  C   UNL     1     -25.821  70.509 162.370  1.00  0.00     0.158 A 
BRANCH  15  18
ATOM     18  O   UNL     1     -24.279  72.368 162.605  1.00  0.00    -0.504 OA
ATOM     19  H   UNL     1     -24.132  73.362 162.479  1.00  0.00     0.293 HD
ENDBRANCH  15  18
BRANCH  17  20
ATOM     20  O   UNL     1     -25.488  70.032 163.638  1.00  0.00    -0.504 OA
ATOM     21  H   UNL     1     -26.191  69.835 164.340  1.00  0.00     0.293 HD
ENDBRANCH  17  20
ENDBRANCH   1  12
BRANCH   2  22
ATOM     22  O   UNL     1     -29.982  70.777 160.423  1.00  0.00    -0.502 OA
ATOM     23  H   UNL     1     -30.856  71.257 160.245  1.00  0.00     0.293 HD
ENDBRANCH   2  22
BRANCH   6  24
ATOM     24  O   UNL     1     -32.037  67.113 157.147  1.00  0.00    -0.507 OA
ATOM     25  H   UNL     1     -32.593  66.334 156.825  1.00  0.00     0.293 HD
ENDBRANCH   6  24
BRANCH   8  26
ATOM     26  O   UNL     1     -28.007  65.350 155.223  1.00  0.00    -0.508 OA
ATOM     27  H   UNL     1     -27.512  65.691 154.407  1.00  0.00     0.293 HD
ENDBRANCH   8  26
TORSDOF 6
ENDMDL
MODEL 5
REMARK VINA RESULT:    -6.186      2.019      6.929
REMARK INTER + INTRA:          -7.712
REMARK INTER:                  -7.394
REMARK INTRA:                  -0.318
REMARK UNBOUND:                -0.261
REMARK SMILES O=c1c(O)c(-c2ccc(O)c(O)c2)oc2cc(O)cc(O)c12
REMARK SMILES IDX 5 1 3 2 2 3 1 4 22 5 20 6 19 7 17 8 16 9 15 10 14 11 6 12
REMARK SMILES IDX 7 13 8 14 9 15 13 16 11 17 10 18 12 20 4 22 21 24 18 26
REMARK H PARENT 10 19 12 21 4 23 21 25 18 27
REMARK Flexibility Score: inf
ROOT
ATOM      1  C   UNL     1     -27.719  70.058 158.964  1.00  0.00     0.180 A 
ATOM      2  C   UNL     1     -29.078  70.210 159.287  1.00  0.00     0.208 A 
ATOM      3  C   UNL     1     -30.010  69.301 158.759  1.00  0.00     0.238 A 
ATOM      4  O   UNL     1     -31.231  69.474 159.008  1.00  0.00    -0.285 OA
ATOM      5  C   UNL     1     -29.567  68.243 157.928  1.00  0.00     0.111 A 
ATOM      6  C   UNL     1     -30.418  67.241 157.372  1.00  0.00     0.134 A 
ATOM      7  C   UNL     1     -29.892  66.318 156.459  1.00  0.00     0.093 A 
ATOM      8  C   UNL     1     -28.534  66.321 156.133  1.00  0.00     0.123 A 
ATOM      9  C   UNL     1     -27.685  67.258 156.718  1.00  0.00     0.094 A 
ATOM     10  C   UNL     1     -28.186  68.214 157.604  1.00  0.00     0.146 A 
ATOM     11  O   UNL     1     -27.345  69.095 158.130  1.00  0.00    -0.452 OA
ENDROOT
BRANCH   1  12
ATOM     12  C   UNL     1     -26.675  70.961 159.502  1.00  0.00     0.025 A 
ATOM     13  C   UNL     1     -26.020  70.624 160.696  1.00  0.00     0.016 A 
ATOM     14  C   UNL     1     -25.047  71.472 161.233  1.00  0.00     0.051 A 
ATOM     15  C   UNL     1     -24.727  72.676 160.592  1.00  0.00     0.157 A 
ATOM     16  C   UNL     1     -26.367  72.181 158.872  1.00  0.00     0.062 A 
ATOM     17  C   UNL     1     -25.394  73.032 159.408  1.00  0.00     0.158 A 
BRANCH  15  18
ATOM     18  O   UNL     1     -23.754  73.518 161.128  1.00  0.00    -0.504 OA
ATOM     19  H   UNL     1     -23.758  74.515 160.949  1.00  0.00     0.293 HD
ENDBRANCH  15  18
BRANCH  17  20
ATOM     20  O   UNL     1     -25.109  74.231 158.753  1.00  0.00    -0.504 OA
ATOM     21  H   UNL     1     -24.481  74.274 157.959  1.00  0.00     0.293 HD
ENDBRANCH  17  20
ENDBRANCH   1  12
BRANCH   2  22
ATOM     22  O   UNL     1     -29.496  71.275 160.091  1.00  0.00    -0.502 OA
ATOM     23  H   UNL     1     -28.935  71.632 160.855  1.00  0.00     0.293 HD
ENDBRANCH   2  22
BRANCH   6  24
ATOM     24  O   UNL     1     -31.769  67.092 157.700  1.00  0.00    -0.507 OA
ATOM     25  H   UNL     1     -32.115  66.876 158.624  1.00  0.00     0.293 HD
ENDBRANCH   6  24
BRANCH   8  26
ATOM     26  O   UNL     1     -28.016  65.390 155.236  1.00  0.00    -0.508 OA
ATOM     27  H   UNL     1     -27.088  65.493 154.841  1.00  0.00     0.293 HD
ENDBRANCH   8  26
TORSDOF 6
ENDMDL
MODEL 6
REMARK VINA RESULT:    -6.100      1.325      2.842
REMARK INTER + INTRA:          -7.609
REMARK INTER:                  -7.293
REMARK INTRA:                  -0.315
REMARK UNBOUND:                -0.261
REMARK SMILES O=c1c(O)c(-c2ccc(O)c(O)c2)oc2cc(O)cc(O)c12
REMARK SMILES IDX 5 1 3 2 2 3 1 4 22 5 20 6 19 7 17 8 16 9 15 10 14 11 6 12
REMARK SMILES IDX 7 13 8 14 9 15 13 16 11 17 10 18 12 20 4 22 21 24 18 26
REMARK H PARENT 10 19 12 21 4 23 21 25 18 27
REMARK Flexibility Score: inf
ROOT
ATOM      1  C   UNL     1     -28.381  69.043 158.618  1.00  0.00     0.180 A 
ATOM      2  C   UNL     1     -28.283  68.714 159.981  1.00  0.00     0.208 A 
ATOM      3  C   UNL     1     -27.637  69.607 160.852  1.00  0.00     0.238 A 
ATOM      4  O   UNL     1     -27.504  69.282 162.061  1.00  0.00    -0.285 OA
ATOM      5  C   UNL     1     -27.113  70.823 160.352  1.00  0.00     0.111 A 
ATOM      6  C   UNL     1     -26.476  71.819 161.152  1.00  0.00     0.134 A 
ATOM      7  C   UNL     1     -25.879  72.924 160.532  1.00  0.00     0.093 A 
ATOM      8  C   UNL     1     -25.954  73.102 159.148  1.00  0.00     0.123 A 
ATOM      9  C   UNL     1     -26.627  72.165 158.367  1.00  0.00     0.094 A 
ATOM     10  C   UNL     1     -27.201  71.034 158.952  1.00  0.00     0.146 A 
ATOM     11  O   UNL     1     -27.823  70.161 158.170  1.00  0.00    -0.452 OA
ENDROOT
BRANCH   1  12
ATOM     12  C   UNL     1     -29.069  68.165 157.643  1.00  0.00     0.025 A 
ATOM     13  C   UNL     1     -30.464  68.244 157.509  1.00  0.00     0.016 A 
ATOM     14  C   UNL     1     -31.136  67.410 156.610  1.00  0.00     0.051 A 
ATOM     15  C   UNL     1     -30.425  66.476 155.845  1.00  0.00     0.157 A 
ATOM     16  C   UNL     1     -28.361  67.213 156.889  1.00  0.00     0.062 A 
ATOM     17  C   UNL     1     -29.031  66.376 155.990  1.00  0.00     0.158 A 
BRANCH  15  18
ATOM     18  O   UNL     1     -31.097  65.648 154.947  1.00  0.00    -0.504 OA
ATOM     19  H   UNL     1     -31.176  64.651 155.102  1.00  0.00     0.293 HD
ENDBRANCH  15  18
BRANCH  17  20
ATOM     20  O   UNL     1     -28.296  65.447 155.253  1.00  0.00    -0.504 OA
ATOM     21  H   UNL     1     -28.496  64.454 155.286  1.00  0.00     0.293 HD
ENDBRANCH  17  20
ENDBRANCH   1  12
BRANCH   2  22
ATOM     22  O   UNL     1     -28.788  67.497 160.449  1.00  0.00    -0.502 OA
ATOM     23  H   UNL     1     -29.721  67.173 160.225  1.00  0.00     0.293 HD
ENDBRANCH   2  22
BRANCH   6  24
ATOM     24  O   UNL     1     -26.424  71.785 162.548  1.00  0.00    -0.507 OA
ATOM     25  H   UNL     1     -27.154  71.419 163.141  1.00  0.00     0.293 HD
ENDBRANCH   6  24
BRANCH   8  26
ATOM     26  O   UNL     1     -25.372  74.212 158.541  1.00  0.00    -0.508 OA
ATOM     27  H   UNL     1     -25.844  75.108 158.510  1.00  0.00     0.293 HD
ENDBRANCH   8  26
TORSDOF 6
ENDMDL
MODEL 7
REMARK VINA RESULT:    -6.029     13.857     15.706
REMARK INTER + INTRA:          -7.523
REMARK INTER:                  -7.238
REMARK INTRA:                  -0.285
REMARK UNBOUND:                -0.261
REMARK SMILES O=c1c(O)c(-c2ccc(O)c(O)c2)oc2cc(O)cc(O)c12
REMARK SMILES IDX 5 1 3 2 2 3 1 4 22 5 20 6 19 7 17 8 16 9 15 10 14 11 6 12
REMARK SMILES IDX 7 13 8 14 9 15 13 16 11 17 10 18 12 20 4 22 21 24 18 26
REMARK H PARENT 10 19 12 21 4 23 21 25 18 27
REMARK Flexibility Score: inf
ROOT
ATOM      1  C   UNL     1     -22.987  57.379 152.257  1.00  0.00     0.180 A 
ATOM      2  C   UNL     1     -22.413  57.520 153.531  1.00  0.00     0.208 A 
ATOM      3  C   UNL     1     -21.015  57.605 153.643  1.00  0.00     0.238 A 
ATOM      4  O   UNL     1     -20.504  57.676 154.791  1.00  0.00    -0.285 OA
ATOM      5  C   UNL     1     -20.212  57.564 152.478  1.00  0.00     0.111 A 
ATOM      6  C   UNL     1     -18.790  57.683 152.471  1.00  0.00     0.134 A 
ATOM      7  C   UNL     1     -18.088  57.498 151.273  1.00  0.00     0.093 A 
ATOM      8  C   UNL     1     -18.762  57.263 150.071  1.00  0.00     0.123 A 
ATOM      9  C   UNL     1     -20.154  57.206 150.060  1.00  0.00     0.094 A 
ATOM     10  C   UNL     1     -20.880  57.351 151.244  1.00  0.00     0.146 A 
ATOM     11  O   UNL     1     -22.204  57.279 151.190  1.00  0.00    -0.452 OA
ENDROOT
BRANCH   1  12
ATOM     12  C   UNL     1     -24.453  57.309 152.056  1.00  0.00     0.025 A 
ATOM     13  C   UNL     1     -25.153  58.461 151.664  1.00  0.00     0.016 A 
ATOM     14  C   UNL     1     -26.539  58.421 151.489  1.00  0.00     0.051 A 
ATOM     15  C   UNL     1     -27.247  57.235 151.720  1.00  0.00     0.157 A 
ATOM     16  C   UNL     1     -25.170  56.124 152.307  1.00  0.00     0.062 A 
ATOM     17  C   UNL     1     -26.558  56.083 152.135  1.00  0.00     0.158 A 
BRANCH  15  18
ATOM     18  O   UNL     1     -28.630  57.199 151.542  1.00  0.00    -0.504 OA
ATOM     19  H   UNL     1     -29.263  57.095 152.326  1.00  0.00     0.293 HD
ENDBRANCH  15  18
BRANCH  17  20
ATOM     20  O   UNL     1     -27.236  54.890 152.386  1.00  0.00    -0.504 OA
ATOM     21  H   UNL     1     -27.935  54.811 153.115  1.00  0.00     0.293 HD
ENDBRANCH  17  20
ENDBRANCH   1  12
BRANCH   2  22
ATOM     22  O   UNL     1     -23.223  57.536 154.670  1.00  0.00    -0.502 OA
ATOM     23  H   UNL     1     -23.105  56.878 155.431  1.00  0.00     0.293 HD
ENDBRANCH   2  22
BRANCH   6  24
ATOM     24  O   UNL     1     -18.027  58.005 153.596  1.00  0.00    -0.507 OA
ATOM     25  H   UNL     1     -17.484  58.849 153.700  1.00  0.00     0.293 HD
ENDBRANCH   6  24
BRANCH   8  26
ATOM     26  O   UNL     1     -18.057  57.097 148.882  1.00  0.00    -0.508 OA
ATOM     27  H   UNL     1     -17.188  56.575 148.849  1.00  0.00     0.293 HD
ENDBRANCH   8  26
TORSDOF 6
ENDMDL
MODEL 8
REMARK VINA RESULT:    -5.850     12.704     16.329
REMARK INTER + INTRA:          -7.308
REMARK INTER:                  -6.985
REMARK INTRA:                  -0.323
REMARK UNBOUND:                -0.261
REMARK SMILES O=c1c(O)c(-c2ccc(O)c(O)c2)oc2cc(O)cc(O)c12
REMARK SMILES IDX 5 1 3 2 2 3 1 4 22 5 20 6 19 7 17 8 16 9 15 10 14 11 6 12
REMARK SMILES IDX 7 13 8 14 9 15 13 16 11 17 10 18 12 20 4 22 21 24 18 26
REMARK H PARENT 10 19 12 21 4 23 21 25 18 27
REMARK Flexibility Score: inf
ROOT
ATOM      1  C   UNL     1     -20.178  58.292 154.161  1.00  0.00     0.180 A 
ATOM      2  C   UNL     1     -21.079  57.268 153.824  1.00  0.00     0.208 A 
ATOM      3  C   UNL     1     -21.068  56.754 152.517  1.00  0.00     0.238 A 
ATOM      4  O   UNL     1     -21.915  55.876 152.205  1.00  0.00    -0.285 OA
ATOM      5  C   UNL     1     -20.146  57.261 151.569  1.00  0.00     0.111 A 
ATOM      6  C   UNL     1     -20.020  56.786 150.229  1.00  0.00     0.134 A 
ATOM      7  C   UNL     1     -19.164  57.448 149.340  1.00  0.00     0.093 A 
ATOM      8  C   UNL     1     -18.381  58.526 149.761  1.00  0.00     0.123 A 
ATOM      9  C   UNL     1     -18.453  58.957 151.084  1.00  0.00     0.094 A 
ATOM     10  C   UNL     1     -19.324  58.340 151.985  1.00  0.00     0.146 A 
ATOM     11  O   UNL     1     -19.370  58.790 153.233  1.00  0.00    -0.452 OA
ENDROOT
BRANCH   1  12
ATOM     12  C   UNL     1     -20.112  58.866 155.525  1.00  0.00     0.025 A 
ATOM     13  C   UNL     1     -19.292  58.260 156.490  1.00  0.00     0.016 A 
ATOM     14  C   UNL     1     -19.231  58.773 157.789  1.00  0.00     0.051 A 
ATOM     15  C   UNL     1     -20.000  59.889 158.146  1.00  0.00     0.157 A 
ATOM     16  C   UNL     1     -20.898  59.974 155.892  1.00  0.00     0.062 A 
ATOM     17  C   UNL     1     -20.840  60.488 157.192  1.00  0.00     0.158 A 
BRANCH  15  18
ATOM     18  O   UNL     1     -19.934  60.399 159.441  1.00  0.00    -0.504 OA
ATOM     19  H   UNL     1     -20.417  59.953 160.212  1.00  0.00     0.293 HD
ENDBRANCH  15  18
BRANCH  17  20
ATOM     20  O   UNL     1     -21.628  61.591 157.519  1.00  0.00    -0.504 OA
ATOM     21  H   UNL     1     -21.718  62.390 156.903  1.00  0.00     0.293 HD
ENDBRANCH  17  20
ENDBRANCH   1  12
BRANCH   2  22
ATOM     22  O   UNL     1     -21.996  56.799 154.769  1.00  0.00    -0.502 OA
ATOM     23  H   UNL     1     -22.427  55.885 154.702  1.00  0.00     0.293 HD
ENDBRANCH   2  22
BRANCH   6  24
ATOM     24  O   UNL     1     -20.687  55.663 149.732  1.00  0.00    -0.507 OA
ATOM     25  H   UNL     1     -20.777  55.435 148.752  1.00  0.00     0.293 HD
ENDBRANCH   6  24
BRANCH   8  26
ATOM     26  O   UNL     1     -17.520  59.168 148.875  1.00  0.00    -0.508 OA
ATOM     27  H   UNL     1     -16.525  59.235 149.057  1.00  0.00     0.293 HD
ENDBRANCH   8  26
TORSDOF 6
ENDMDL
MODEL 9
REMARK VINA RESULT:    -5.837     13.183     14.187
REMARK INTER + INTRA:          -7.292
REMARK INTER:                  -6.965
REMARK INTRA:                  -0.327
REMARK UNBOUND:                -0.261
REMARK SMILES O=c1c(O)c(-c2ccc(O)c(O)c2)oc2cc(O)cc(O)c12
REMARK SMILES IDX 5 1 3 2 2 3 1 4 22 5 20 6 19 7 17 8 16 9 15 10 14 11 6 12
REMARK SMILES IDX 7 13 8 14 9 15 13 16 11 17 10 18 12 20 4 22 21 24 18 26
REMARK H PARENT 10 19 12 21 4 23 21 25 18 27
REMARK Flexibility Score: inf
ROOT
ATOM      1  C   UNL     1     -21.603  57.850 155.952  1.00  0.00     0.180 A 
ATOM      2  C   UNL     1     -20.910  59.057 156.149  1.00  0.00     0.208 A 
ATOM      3  C   UNL     1     -20.357  59.326 157.411  1.00  0.00     0.238 A 
ATOM      4  O   UNL     1     -19.786  60.432 157.598  1.00  0.00    -0.285 OA
ATOM      5  C   UNL     1     -20.489  58.378 158.455  1.00  0.00     0.111 A 
ATOM      6  C   UNL     1     -19.933  58.529 159.761  1.00  0.00     0.134 A 
ATOM      7  C   UNL     1     -20.237  57.589 160.753  1.00  0.00     0.093 A 
ATOM      8  C   UNL     1     -21.022  56.469 160.468  1.00  0.00     0.123 A 
ATOM      9  C   UNL     1     -21.519  56.283 159.180  1.00  0.00     0.094 A 
ATOM     10  C   UNL     1     -21.263  57.222 158.178  1.00  0.00     0.146 A 
ATOM     11  O   UNL     1     -21.765  57.011 156.968  1.00  0.00    -0.452 OA
ENDROOT
BRANCH   1  12
ATOM     12  C   UNL     1     -22.192  57.484 154.643  1.00  0.00     0.025 A 
ATOM     13  C   UNL     1     -23.513  57.857 154.352  1.00  0.00     0.016 A 
ATOM     14  C   UNL     1     -24.095  57.505 153.131  1.00  0.00     0.051 A 
ATOM     15  C   UNL     1     -23.371  56.760 152.191  1.00  0.00     0.157 A 
ATOM     16  C   UNL     1     -21.474  56.719 153.705  1.00  0.00     0.062 A 
ATOM     17  C   UNL     1     -22.055  56.363 152.483  1.00  0.00     0.158 A 
BRANCH  15  18
ATOM     18  O   UNL     1     -23.954  56.412 150.974  1.00  0.00    -0.504 OA
ATOM     19  H   UNL     1     -24.304  55.478 150.801  1.00  0.00     0.293 HD
ENDBRANCH  15  18
BRANCH  17  20
ATOM     20  O   UNL     1     -21.312  55.610 151.574  1.00  0.00    -0.504 OA
ATOM     21  H   UNL     1     -21.536  55.584 150.586  1.00  0.00     0.293 HD
ENDBRANCH  17  20
ENDBRANCH   1  12
BRANCH   2  22
ATOM     22  O   UNL     1     -20.812  59.989 155.112  1.00  0.00    -0.502 OA
ATOM     23  H   UNL     1     -21.025  59.756 154.149  1.00  0.00     0.293 HD
ENDBRANCH   2  22
BRANCH   6  24
ATOM     24  O   UNL     1     -19.063  59.560 160.125  1.00  0.00    -0.507 OA
ATOM     25  H   UNL     1     -18.544  60.131 159.475  1.00  0.00     0.293 HD
ENDBRANCH   6  24
BRANCH   8  26
ATOM     26  O   UNL     1     -21.306  55.529 161.457  1.00  0.00    -0.508 OA
ATOM     27  H   UNL     1     -21.131  55.721 162.436  1.00  0.00     0.293 HD
ENDBRANCH   8  26
TORSDOF 6
ENDMDL
