MODEL 1
REMARK VINA RESULT:    -5.936      0.000      0.000
REMARK INTER + INTRA:          -5.936
REMARK INTER:                  -5.936
REMARK INTRA:                   0.000
REMARK UNBOUND:                 0.000
REMARK SMILES CC(C)=C1CC[C@@H](C)CC1=O
REMARK SMILES IDX 8 1 7 2 6 3 5 4 4 5 2 6 1 7 3 8 10 9 11 10 9 11
REMARK H PARENT
REMARK Flexibility Score: inf
ROOT
ATOM      1  C   UNL     1      -9.325  73.428  27.081  1.00  0.00     0.008 C 
ATOM      2  C   UNL     1      -9.354  73.480  28.611  1.00  0.00    -0.006 C 
ATOM      3  C   UNL     1      -9.254  72.065  29.203  1.00  0.00     0.008 C 
ATOM      4  C   UNL     1      -9.178  72.105  30.735  1.00  0.00     0.039 C 
ATOM      5  C   UNL     1     -10.305  72.920  31.354  1.00  0.00    -0.006 C 
ATOM      6  C   UNL     1     -10.822  72.603  32.579  1.00  0.00    -0.070 C 
ATOM      7  C   UNL     1     -10.282  71.439  33.378  1.00  0.00     0.039 C 
ATOM      8  C   UNL     1     -11.978  73.369  33.178  1.00  0.00     0.039 C 
ATOM      9  C   UNL     1     -10.723  74.140  30.602  1.00  0.00     0.159 C 
ATOM     10  O   UNL     1     -11.145  75.166  31.199  1.00  0.00    -0.295 OA
ATOM     11  C   UNL     1     -10.637  74.165  29.103  1.00  0.00     0.084 C 
ENDROOT
TORSDOF 0
ENDMDL
MODEL 2
REMARK VINA RESULT:    -5.897      1.317      4.314
REMARK INTER + INTRA:          -5.897
REMARK INTER:                  -5.897
REMARK INTRA:                   0.000
REMARK UNBOUND:                 0.000
REMARK SMILES CC(C)=C1CC[C@@H](C)CC1=O
REMARK SMILES IDX 8 1 7 2 6 3 5 4 4 5 2 6 1 7 3 8 10 9 11 10 9 11
REMARK H PARENT
REMARK Flexibility Score: inf
ROOT
ATOM      1  C   UNL     1     -10.861  72.097  32.782  1.00  0.00     0.008 C 
ATOM      2  C   UNL     1     -10.842  72.121  31.251  1.00  0.00    -0.006 C 
ATOM      3  C   UNL     1      -9.401  72.027  30.725  1.00  0.00     0.008 C 
ATOM      4  C   UNL     1      -9.369  71.946  29.194  1.00  0.00     0.039 C 
ATOM      5  C   UNL     1     -10.162  73.066  28.533  1.00  0.00    -0.006 C 
ATOM      6  C   UNL     1      -9.791  73.579  27.322  1.00  0.00    -0.070 C 
ATOM      7  C   UNL     1      -8.588  73.044  26.580  1.00  0.00     0.039 C 
ATOM      8  C   UNL     1     -10.536  74.728  26.684  1.00  0.00     0.039 C 
ATOM      9  C   UNL     1     -11.417  73.478  29.227  1.00  0.00     0.159 C 
ATOM     10  O   UNL     1     -12.417  73.892  28.580  1.00  0.00    -0.295 OA
ATOM     11  C   UNL     1     -11.512  73.397  30.723  1.00  0.00     0.084 C 
ENDROOT
TORSDOF 0
ENDMDL
MODEL 3
REMARK VINA RESULT:    -5.611      1.682      4.662
REMARK INTER + INTRA:          -5.611
REMARK INTER:                  -5.611
REMARK INTRA:                   0.000
REMARK UNBOUND:                 0.000
REMARK SMILES CC(C)=C1CC[C@@H](C)CC1=O
REMARK SMILES IDX 8 1 7 2 6 3 5 4 4 5 2 6 1 7 3 8 10 9 11 10 9 11
REMARK H PARENT
REMARK Flexibility Score: inf
ROOT
ATOM      1  C   UNL     1     -11.272  72.870  33.632  1.00  0.00     0.008 C 
ATOM      2  C   UNL     1     -10.458  73.249  32.391  1.00  0.00    -0.006 C 
ATOM      3  C   UNL     1     -11.204  74.302  31.557  1.00  0.00     0.008 C 
ATOM      4  C   UNL     1     -10.359  74.770  30.364  1.00  0.00     0.039 C 
ATOM      5  C   UNL     1      -9.848  73.609  29.520  1.00  0.00    -0.006 C 
ATOM      6  C   UNL     1      -9.663  73.739  28.173  1.00  0.00    -0.070 C 
ATOM      7  C   UNL     1      -9.940  75.046  27.466  1.00  0.00     0.039 C 
ATOM      8  C   UNL     1      -9.211  72.579  27.317  1.00  0.00     0.039 C 
ATOM      9  C   UNL     1      -9.457  72.378  30.267  1.00  0.00     0.159 C 
ATOM     10  O   UNL     1      -8.525  71.633  29.861  1.00  0.00    -0.295 OA
ATOM     11  C   UNL     1     -10.172  72.007  31.534  1.00  0.00     0.084 C 
ENDROOT
TORSDOF 0
ENDMDL
MODEL 4
REMARK VINA RESULT:    -5.285      2.919      4.597
REMARK INTER + INTRA:          -5.285
REMARK INTER:                  -5.285
REMARK INTRA:                   0.000
REMARK UNBOUND:                 0.000
REMARK SMILES CC(C)=C1CC[C@@H](C)CC1=O
REMARK SMILES IDX 8 1 7 2 6 3 5 4 4 5 2 6 1 7 3 8 10 9 11 10 9 11
REMARK H PARENT
REMARK Flexibility Score: inf
ROOT
ATOM      1  C   UNL     1      -8.980  73.517  22.482  1.00  0.00     0.008 C 
ATOM      2  C   UNL     1      -8.866  73.742  23.993  1.00  0.00    -0.006 C 
ATOM      3  C   UNL     1      -8.557  72.420  24.715  1.00  0.00     0.008 C 
ATOM      4  C   UNL     1      -8.338  72.643  26.217  1.00  0.00     0.039 C 
ATOM      5  C   UNL     1      -9.481  73.411  26.866  1.00  0.00    -0.006 C 
ATOM      6  C   UNL     1      -9.839  73.189  28.166  1.00  0.00    -0.070 C 
ATOM      7  C   UNL     1      -9.102  72.182  29.019  1.00  0.00     0.039 C 
ATOM      8  C   UNL     1     -11.007  73.904  28.803  1.00  0.00     0.039 C 
ATOM      9  C   UNL     1     -10.099  74.491  26.040  1.00  0.00     0.159 C 
ATOM     10  O   UNL     1     -10.569  75.533  26.570  1.00  0.00    -0.295 OA
ATOM     11  C   UNL     1     -10.161  74.352  24.546  1.00  0.00     0.084 C 
ENDROOT
TORSDOF 0
ENDMDL
MODEL 5
REMARK VINA RESULT:    -5.176      1.578      2.501
REMARK INTER + INTRA:          -5.176
REMARK INTER:                  -5.176
REMARK INTRA:                   0.000
REMARK UNBOUND:                 0.000
REMARK SMILES CC(C)=C1CC[C@@H](C)CC1=O
REMARK SMILES IDX 8 1 7 2 6 3 5 4 4 5 2 6 1 7 3 8 10 9 11 10 9 11
REMARK H PARENT
REMARK Flexibility Score: inf
ROOT
ATOM      1  C   UNL     1      -8.814  72.768  26.823  1.00  0.00     0.008 C 
ATOM      2  C   UNL     1      -9.706  73.031  28.040  1.00  0.00    -0.006 C 
ATOM      3  C   UNL     1      -9.654  74.514  28.439  1.00  0.00     0.008 C 
ATOM      4  C   UNL     1     -10.621  74.815  29.592  1.00  0.00     0.039 C 
ATOM      5  C   UNL     1     -10.423  73.882  30.779  1.00  0.00    -0.006 C 
ATOM      6  C   UNL     1     -10.653  74.302  32.059  1.00  0.00    -0.070 C 
ATOM      7  C   UNL     1     -11.131  75.707  32.347  1.00  0.00     0.039 C 
ATOM      8  C   UNL     1     -10.406  73.403  33.247  1.00  0.00     0.039 C 
ATOM      9  C   UNL     1     -10.081  72.467  30.450  1.00  0.00     0.159 C 
ATOM     10  O   UNL     1     -10.462  71.514  31.183  1.00  0.00    -0.295 OA
ATOM     11  C   UNL     1      -9.276  72.152  29.223  1.00  0.00     0.084 C 
ENDROOT
TORSDOF 0
ENDMDL
MODEL 6
REMARK VINA RESULT:    -5.135      1.582      2.642
REMARK INTER + INTRA:          -5.135
REMARK INTER:                  -5.135
REMARK INTRA:                   0.000
REMARK UNBOUND:                 0.000
REMARK SMILES CC(C)=C1CC[C@@H](C)CC1=O
REMARK SMILES IDX 8 1 7 2 6 3 5 4 4 5 2 6 1 7 3 8 10 9 11 10 9 11
REMARK H PARENT
REMARK Flexibility Score: inf
ROOT
ATOM      1  C   UNL     1     -10.483  74.625  25.012  1.00  0.00     0.008 C 
ATOM      2  C   UNL     1     -10.021  74.321  26.441  1.00  0.00    -0.006 C 
ATOM      3  C   UNL     1      -9.137  73.065  26.469  1.00  0.00     0.008 C 
ATOM      4  C   UNL     1      -8.582  72.804  27.876  1.00  0.00     0.039 C 
ATOM      5  C   UNL     1      -9.673  72.775  28.938  1.00  0.00    -0.006 C 
ATOM      6  C   UNL     1      -9.566  71.983  30.045  1.00  0.00    -0.070 C 
ATOM      7  C   UNL     1      -8.349  71.114  30.271  1.00  0.00     0.039 C 
ATOM      8  C   UNL     1     -10.667  71.904  31.077  1.00  0.00     0.039 C 
ATOM      9  C   UNL     1     -10.795  73.743  28.752  1.00  0.00     0.159 C 
ATOM     10  O   UNL     1     -11.390  74.254  29.739  1.00  0.00    -0.295 OA
ATOM     11  C   UNL     1     -11.230  74.134  27.369  1.00  0.00     0.084 C 
ENDROOT
TORSDOF 0
ENDMDL
MODEL 7
REMARK VINA RESULT:    -5.103      3.440      6.816
REMARK INTER + INTRA:          -5.103
REMARK INTER:                  -5.103
REMARK INTRA:                   0.000
REMARK UNBOUND:                 0.000
REMARK SMILES CC(C)=C1CC[C@@H](C)CC1=O
REMARK SMILES IDX 8 1 7 2 6 3 5 4 4 5 2 6 1 7 3 8 10 9 11 10 9 11
REMARK H PARENT
REMARK Flexibility Score: inf
ROOT
ATOM      1  C   UNL     1     -10.545  73.995  29.129  1.00  0.00     0.008 C 
ATOM      2  C   UNL     1      -9.858  74.109  27.765  1.00  0.00    -0.006 C 
ATOM      3  C   UNL     1     -10.875  74.494  26.678  1.00  0.00     0.008 C 
ATOM      4  C   UNL     1     -10.187  74.714  25.324  1.00  0.00     0.039 C 
ATOM      5  C   UNL     1      -9.311  73.537  24.916  1.00  0.00    -0.006 C 
ATOM      6  C   UNL     1      -9.137  73.202  23.603  1.00  0.00    -0.070 C 
ATOM      7  C   UNL     1      -9.794  73.999  22.499  1.00  0.00     0.039 C 
ATOM      8  C   UNL     1      -8.316  72.003  23.189  1.00  0.00     0.039 C 
ATOM      9  C   UNL     1      -8.572  72.856  26.020  1.00  0.00     0.159 C 
ATOM     10  O   UNL     1      -7.440  72.336  25.827  1.00  0.00    -0.295 OA
ATOM     11  C   UNL     1      -9.169  72.788  27.395  1.00  0.00     0.084 C 
ENDROOT
TORSDOF 0
ENDMDL
MODEL 8
REMARK VINA RESULT:    -5.089      2.224      3.541
REMARK INTER + INTRA:          -5.089
REMARK INTER:                  -5.089
REMARK INTRA:                   0.000
REMARK UNBOUND:                 0.000
REMARK SMILES CC(C)=C1CC[C@@H](C)CC1=O
REMARK SMILES IDX 8 1 7 2 6 3 5 4 4 5 2 6 1 7 3 8 10 9 11 10 9 11
REMARK H PARENT
REMARK Flexibility Score: inf
ROOT
ATOM      1  C   UNL     1      -9.348  73.728  24.461  1.00  0.00     0.008 C 
ATOM      2  C   UNL     1      -9.848  73.425  25.877  1.00  0.00    -0.006 C 
ATOM      3  C   UNL     1     -10.564  74.648  26.471  1.00  0.00     0.008 C 
ATOM      4  C   UNL     1     -11.161  74.331  27.848  1.00  0.00     0.039 C 
ATOM      5  C   UNL     1     -10.140  73.729  28.804  1.00  0.00    -0.006 C 
ATOM      6  C   UNL     1     -10.208  73.952  30.150  1.00  0.00    -0.070 C 
ATOM      7  C   UNL     1     -11.314  74.792  30.749  1.00  0.00     0.039 C 
ATOM      8  C   UNL     1      -9.168  73.407  31.101  1.00  0.00     0.039 C 
ATOM      9  C   UNL     1      -9.143  72.798  28.196  1.00  0.00     0.159 C 
ATOM     10  O   UNL     1      -8.677  71.823  28.846  1.00  0.00    -0.295 OA
ATOM     11  C   UNL     1      -8.681  73.007  26.783  1.00  0.00     0.084 C 
ENDROOT
TORSDOF 0
ENDMDL
MODEL 9
REMARK VINA RESULT:    -4.995      3.949      5.894
REMARK INTER + INTRA:          -4.995
REMARK INTER:                  -4.995
REMARK INTRA:                   0.000
REMARK UNBOUND:                 0.000
REMARK SMILES CC(C)=C1CC[C@@H](C)CC1=O
REMARK SMILES IDX 8 1 7 2 6 3 5 4 4 5 2 6 1 7 3 8 10 9 11 10 9 11
REMARK H PARENT
REMARK Flexibility Score: inf
ROOT
ATOM      1  C   UNL     1     -11.327  73.461  32.998  1.00  0.00     0.008 C 
ATOM      2  C   UNL     1     -10.680  72.952  34.290  1.00  0.00    -0.006 C 
ATOM      3  C   UNL     1     -10.183  71.509  34.115  1.00  0.00     0.008 C 
ATOM      4  C   UNL     1      -9.440  71.018  35.366  1.00  0.00     0.039 C 
ATOM      5  C   UNL     1     -10.254  71.207  36.639  1.00  0.00    -0.006 C 
ATOM      6  C   UNL     1     -10.139  70.343  37.691  1.00  0.00    -0.070 C 
ATOM      7  C   UNL     1      -9.184  69.172  37.639  1.00  0.00     0.039 C 
ATOM      8  C   UNL     1     -10.982  70.487  38.936  1.00  0.00     0.039 C 
ATOM      9  C   UNL     1     -11.085  72.445  36.709  1.00  0.00     0.159 C 
ATOM     10  O   UNL     1     -11.302  73.028  37.806  1.00  0.00    -0.295 OA
ATOM     11  C   UNL     1     -11.675  73.028  35.457  1.00  0.00     0.084 C 
ENDROOT
TORSDOF 0
ENDMDL
