MODEL 1
REMARK VINA RESULT:    -4.228      0.000      0.000
REMARK INTER + INTRA:         -11.211
REMARK INTER:                  -9.665
REMARK INTRA:                  -1.545
REMARK UNBOUND:                -1.545
REMARK SMILES CCCCCCCCCCCCCCCCCCCCCCCC(=O)[O-]
REMARK SMILES IDX 13 1 14 2 15 3 16 4 17 5 18 6 19 7 20 8 21 9 22 10 23 11
REMARK SMILES IDX 24 12 25 13 26 14 12 15 11 16 10 17 9 18 8 19 7 20 6 21 5 22
REMARK SMILES IDX 4 23 3 24 2 25 1 26
REMARK H PARENT
REMARK Flexibility Score: inf
ROOT
ATOM      1  C   UNL     1      33.238  45.669  25.733  1.00  0.00     0.000 C 
ENDROOT
BRANCH   1   2
ATOM      2  C   UNL     1      33.625  45.130  27.125  1.00  0.00     0.000 C 
BRANCH   2   3
ATOM      3  C   UNL     1      34.672  43.999  27.123  1.00  0.00     0.000 C 
BRANCH   3   4
ATOM      4  C   UNL     1      35.984  44.327  26.387  1.00  0.00     0.000 C 
BRANCH   4   5
ATOM      5  C   UNL     1      36.553  43.128  25.618  1.00  0.00     0.000 C 
BRANCH   5   6
ATOM      6  C   UNL     1      38.017  42.874  26.006  1.00  0.00     0.000 C 
BRANCH   6   7
ATOM      7  C   UNL     1      38.180  41.702  26.991  1.00  0.00     0.000 C 
BRANCH   7   8
ATOM      8  C   UNL     1      38.533  40.346  26.346  1.00  0.00     0.000 C 
BRANCH   8   9
ATOM      9  C   UNL     1      37.325  39.470  25.965  1.00  0.00     0.000 C 
BRANCH   9  10
ATOM     10  C   UNL     1      37.166  38.244  26.880  1.00  0.00     0.006 C 
BRANCH  10  11
ATOM     11  C   UNL     1      38.442  37.392  26.928  1.00  0.00     0.053 C 
BRANCH  11  12
ATOM     12  C   UNL     1      38.214  36.022  26.368  1.00  0.00     0.041 C 
ATOM     13  O   UNL     1      39.194  35.276  26.103  1.00  0.00    -0.550 OA
ATOM     14  O   UNL     1      36.923  35.581  26.107  1.00  0.00    -0.550 OA
ENDBRANCH  11  12
ENDBRANCH  10  11
ENDBRANCH   9  10
ENDBRANCH   8   9
ENDBRANCH   7   8
ENDBRANCH   6   7
ENDBRANCH   5   6
ENDBRANCH   4   5
ENDBRANCH   3   4
ENDBRANCH   2   3
ENDBRANCH   1   2
BRANCH   1  15
ATOM     15  C   UNL     1      33.795  47.063  25.395  1.00  0.00     0.000 C 
BRANCH  15  16
ATOM     16  C   UNL     1      33.968  47.955  26.636  1.00  0.00     0.000 C 
BRANCH  16  17
ATOM     17  C   UNL     1      34.266  49.419  26.267  1.00  0.00     0.000 C 
BRANCH  17  18
ATOM     18  C   UNL     1      33.051  50.341  26.475  1.00  0.00    -0.000 C 
BRANCH  18  19
ATOM     19  C   UNL     1      31.752  49.732  25.908  1.00  0.00    -0.000 C 
BRANCH  19  20
ATOM     20  C   UNL     1      31.586  49.923  24.390  1.00  0.00    -0.000 C 
BRANCH  20  21
ATOM     21  C   UNL     1      30.572  51.023  24.034  1.00  0.00    -0.000 C 
BRANCH  21  22
ATOM     22  C   UNL     1      29.286  50.937  24.871  1.00  0.00    -0.000 C 
BRANCH  22  23
ATOM     23  C   UNL     1      28.987  52.246  25.624  1.00  0.00    -0.000 C 
BRANCH  23  24
ATOM     24  C   UNL     1      30.143  52.682  26.544  1.00  0.00    -0.000 C 
BRANCH  24  25
ATOM     25  C   UNL     1      30.708  54.085  26.257  1.00  0.00    -0.003 C 
ATOM     26  C   UNL     1      30.786  54.406  24.764  1.00  0.00     0.004 C 
ENDBRANCH  24  25
ENDBRANCH  23  24
ENDBRANCH  22  23
ENDBRANCH  21  22
ENDBRANCH  20  21
ENDBRANCH  19  20
ENDBRANCH  18  19
ENDBRANCH  17  18
ENDBRANCH  16  17
ENDBRANCH  15  16
ENDBRANCH   1  15
TORSDOF 22
ENDMDL
MODEL 2
REMARK VINA RESULT:    -3.271      5.073     12.181
REMARK INTER + INTRA:          -9.023
REMARK INTER:                  -7.654
REMARK INTRA:                  -1.369
REMARK UNBOUND:                -1.545
REMARK SMILES CCCCCCCCCCCCCCCCCCCCCCCC(=O)[O-]
REMARK SMILES IDX 13 1 14 2 15 3 16 4 17 5 18 6 19 7 20 8 21 9 22 10 23 11
REMARK SMILES IDX 24 12 25 13 26 14 12 15 11 16 10 17 9 18 8 19 7 20 6 21 5 22
REMARK SMILES IDX 4 23 3 24 2 25 1 26
REMARK H PARENT
REMARK Flexibility Score: inf
ROOT
ATOM      1  C   UNL     1      32.230  45.130  24.730  1.00  0.00     0.000 C 
ENDROOT
BRANCH   1   2
ATOM      2  C   UNL     1      32.528  46.516  24.126  1.00  0.00     0.000 C 
BRANCH   2   3
ATOM      3  C   UNL     1      32.688  47.658  25.149  1.00  0.00     0.000 C 
BRANCH   3   4
ATOM      4  C   UNL     1      33.806  48.667  24.829  1.00  0.00     0.000 C 
BRANCH   4   5
ATOM      5  C   UNL     1      35.018  48.531  25.760  1.00  0.00     0.000 C 
BRANCH   5   6
ATOM      6  C   UNL     1      34.922  49.519  26.931  1.00  0.00     0.000 C 
BRANCH   6   7
ATOM      7  C   UNL     1      33.564  50.243  26.993  1.00  0.00     0.000 C 
BRANCH   7   8
ATOM      8  C   UNL     1      33.563  51.685  26.444  1.00  0.00     0.000 C 
BRANCH   8   9
ATOM      9  C   UNL     1      32.269  52.480  26.700  1.00  0.00     0.000 C 
BRANCH   9  10
ATOM     10  C   UNL     1      31.803  53.272  25.465  1.00  0.00     0.006 C 
BRANCH  10  11
ATOM     11  C   UNL     1      31.099  52.375  24.438  1.00  0.00     0.053 C 
BRANCH  11  12
ATOM     12  C   UNL     1      29.801  51.846  24.963  1.00  0.00     0.041 C 
ATOM     13  O   UNL     1      29.003  52.612  25.566  1.00  0.00    -0.550 OA
ATOM     14  O   UNL     1      29.486  50.501  24.817  1.00  0.00    -0.550 OA
ENDBRANCH  11  12
ENDBRANCH  10  11
ENDBRANCH   9  10
ENDBRANCH   8   9
ENDBRANCH   7   8
ENDBRANCH   6   7
ENDBRANCH   5   6
ENDBRANCH   4   5
ENDBRANCH   3   4
ENDBRANCH   2   3
ENDBRANCH   1   2
BRANCH   1  15
ATOM     15  C   UNL     1      32.108  45.099  26.265  1.00  0.00     0.000 C 
BRANCH  15  16
ATOM     16  C   UNL     1      33.245  44.313  26.939  1.00  0.00     0.000 C 
BRANCH  16  17
ATOM     17  C   UNL     1      34.619  44.967  26.717  1.00  0.00     0.000 C 
BRANCH  17  18
ATOM     18  C   UNL     1      35.703  43.948  26.320  1.00  0.00    -0.000 C 
BRANCH  18  19
ATOM     19  C   UNL     1      37.062  44.622  26.039  1.00  0.00    -0.000 C 
BRANCH  19  20
ATOM     20  C   UNL     1      38.263  43.883  26.656  1.00  0.00    -0.000 C 
BRANCH  20  21
ATOM     21  C   UNL     1      37.918  42.455  27.110  1.00  0.00    -0.000 C 
BRANCH  21  22
ATOM     22  C   UNL     1      38.169  41.409  26.011  1.00  0.00    -0.000 C 
BRANCH  22  23
ATOM     23  C   UNL     1      38.633  40.058  26.584  1.00  0.00    -0.000 C 
BRANCH  23  24
ATOM     24  C   UNL     1      37.562  38.958  26.463  1.00  0.00    -0.000 C 
BRANCH  24  25
ATOM     25  C   UNL     1      38.014  37.558  26.916  1.00  0.00    -0.003 C 
ATOM     26  C   UNL     1      37.286  36.428  26.187  1.00  0.00     0.004 C 
ENDBRANCH  24  25
ENDBRANCH  23  24
ENDBRANCH  22  23
ENDBRANCH  21  22
ENDBRANCH  20  21
ENDBRANCH  19  20
ENDBRANCH  18  19
ENDBRANCH  17  18
ENDBRANCH  16  17
ENDBRANCH  15  16
ENDBRANCH   1  15
TORSDOF 22
ENDMDL
MODEL 3
REMARK VINA RESULT:    -2.966      0.981      1.877
REMARK INTER + INTRA:          -8.326
REMARK INTER:                  -6.813
REMARK INTRA:                  -1.513
REMARK UNBOUND:                -1.545
REMARK SMILES CCCCCCCCCCCCCCCCCCCCCCCC(=O)[O-]
REMARK SMILES IDX 13 1 14 2 15 3 16 4 17 5 18 6 19 7 20 8 21 9 22 10 23 11
REMARK SMILES IDX 24 12 25 13 26 14 12 15 11 16 10 17 9 18 8 19 7 20 6 21 5 22
REMARK SMILES IDX 4 23 3 24 2 25 1 26
REMARK H PARENT
REMARK Flexibility Score: inf
ROOT
ATOM      1  C   UNL     1      33.945  46.791  26.546  1.00  0.00     0.000 C 
ENDROOT
BRANCH   1   2
ATOM      2  C   UNL     1      35.464  46.920  26.777  1.00  0.00     0.000 C 
BRANCH   2   3
ATOM      3  C   UNL     1      36.301  45.707  26.327  1.00  0.00     0.000 C 
BRANCH   3   4
ATOM      4  C   UNL     1      35.572  44.352  26.393  1.00  0.00     0.000 C 
BRANCH   4   5
ATOM      5  C   UNL     1      36.111  43.334  25.379  1.00  0.00     0.000 C 
BRANCH   5   6
ATOM      6  C   UNL     1      37.645  43.328  25.372  1.00  0.00     0.000 C 
BRANCH   6   7
ATOM      7  C   UNL     1      38.242  42.056  26.003  1.00  0.00     0.000 C 
BRANCH   7   8
ATOM      8  C   UNL     1      37.440  40.761  25.753  1.00  0.00     0.000 C 
BRANCH   8   9
ATOM      9  C   UNL     1      37.649  39.651  26.800  1.00  0.00     0.000 C 
BRANCH   9  10
ATOM     10  C   UNL     1      37.141  38.280  26.324  1.00  0.00     0.006 C 
BRANCH  10  11
ATOM     11  C   UNL     1      37.759  37.126  27.124  1.00  0.00     0.053 C 
BRANCH  11  12
ATOM     12  C   UNL     1      37.485  35.800  26.486  1.00  0.00     0.041 C 
ATOM     13  O   UNL     1      36.307  35.355  26.431  1.00  0.00    -0.550 OA
ATOM     14  O   UNL     1      38.532  35.039  25.981  1.00  0.00    -0.550 OA
ENDBRANCH  11  12
ENDBRANCH  10  11
ENDBRANCH   9  10
ENDBRANCH   8   9
ENDBRANCH   7   8
ENDBRANCH   6   7
ENDBRANCH   5   6
ENDBRANCH   4   5
ENDBRANCH   3   4
ENDBRANCH   2   3
ENDBRANCH   1   2
BRANCH   1  15
ATOM     15  C   UNL     1      33.250  48.071  26.048  1.00  0.00     0.000 C 
BRANCH  15  16
ATOM     16  C   UNL     1      34.057  49.345  26.348  1.00  0.00     0.000 C 
BRANCH  16  17
ATOM     17  C   UNL     1      33.368  50.613  25.815  1.00  0.00     0.000 C 
BRANCH  17  18
ATOM     18  C   UNL     1      31.844  50.447  25.681  1.00  0.00    -0.000 C 
BRANCH  18  19
ATOM     19  C   UNL     1      31.401  50.299  24.211  1.00  0.00    -0.000 C 
BRANCH  19  20
ATOM     20  C   UNL     1      30.407  51.379  23.748  1.00  0.00    -0.000 C 
BRANCH  20  21
ATOM     21  C   UNL     1      31.102  52.647  23.224  1.00  0.00    -0.000 C 
BRANCH  21  22
ATOM     22  C   UNL     1      30.661  53.916  23.973  1.00  0.00    -0.000 C 
BRANCH  22  23
ATOM     23  C   UNL     1      31.524  54.192  25.216  1.00  0.00    -0.000 C 
BRANCH  23  24
ATOM     24  C   UNL     1      30.699  54.245  26.516  1.00  0.00    -0.000 C 
BRANCH  24  25
ATOM     25  C   UNL     1      29.979  52.935  26.883  1.00  0.00    -0.003 C 
ATOM     26  C   UNL     1      28.477  53.118  27.103  1.00  0.00     0.004 C 
ENDBRANCH  24  25
ENDBRANCH  23  24
ENDBRANCH  22  23
ENDBRANCH  21  22
ENDBRANCH  20  21
ENDBRANCH  19  20
ENDBRANCH  18  19
ENDBRANCH  17  18
ENDBRANCH  16  17
ENDBRANCH  15  16
ENDBRANCH   1  15
TORSDOF 22
ENDMDL
MODEL 4
REMARK VINA RESULT:    -2.966      4.702     13.215
REMARK INTER + INTRA:          -8.325
REMARK INTER:                  -7.404
REMARK INTRA:                  -0.921
REMARK UNBOUND:                -1.545
REMARK SMILES CCCCCCCCCCCCCCCCCCCCCCCC(=O)[O-]
REMARK SMILES IDX 13 1 14 2 15 3 16 4 17 5 18 6 19 7 20 8 21 9 22 10 23 11
REMARK SMILES IDX 24 12 25 13 26 14 12 15 11 16 10 17 9 18 8 19 7 20 6 21 5 22
REMARK SMILES IDX 4 23 3 24 2 25 1 26
REMARK H PARENT
REMARK Flexibility Score: inf
ROOT
ATOM      1  C   UNL     1      33.477  46.029  25.316  1.00  0.00     0.000 C 
ENDROOT
BRANCH   1   2
ATOM      2  C   UNL     1      32.538  47.072  25.954  1.00  0.00     0.000 C 
BRANCH   2   3
ATOM      3  C   UNL     1      33.171  47.933  27.065  1.00  0.00     0.000 C 
BRANCH   3   4
ATOM      4  C   UNL     1      32.850  49.437  26.986  1.00  0.00     0.000 C 
BRANCH   4   5
ATOM      5  C   UNL     1      34.055  50.284  26.556  1.00  0.00     0.000 C 
BRANCH   5   6
ATOM      6  C   UNL     1      33.846  51.759  26.925  1.00  0.00     0.000 C 
BRANCH   6   7
ATOM      7  C   UNL     1      32.359  52.136  27.067  1.00  0.00     0.000 C 
BRANCH   7   8
ATOM      8  C   UNL     1      32.044  53.637  26.897  1.00  0.00     0.000 C 
BRANCH   8   9
ATOM      9  C   UNL     1      30.577  53.961  26.556  1.00  0.00     0.000 C 
BRANCH   9  10
ATOM     10  C   UNL     1      29.923  52.892  25.664  1.00  0.00     0.006 C 
BRANCH  10  11
ATOM     11  C   UNL     1      30.809  52.518  24.468  1.00  0.00     0.053 C 
BRANCH  11  12
ATOM     12  C   UNL     1      30.578  51.105  24.029  1.00  0.00     0.041 C 
ATOM     13  O   UNL     1      31.557  50.343  23.812  1.00  0.00    -0.550 OA
ATOM     14  O   UNL     1      29.285  50.641  23.826  1.00  0.00    -0.550 OA
ENDBRANCH  11  12
ENDBRANCH  10  11
ENDBRANCH   9  10
ENDBRANCH   8   9
ENDBRANCH   7   8
ENDBRANCH   6   7
ENDBRANCH   5   6
ENDBRANCH   4   5
ENDBRANCH   3   4
ENDBRANCH   2   3
ENDBRANCH   1   2
BRANCH   1  15
ATOM     15  C   UNL     1      33.520  44.667  26.031  1.00  0.00     0.000 C 
BRANCH  15  16
ATOM     16  C   UNL     1      34.732  44.520  26.966  1.00  0.00     0.000 C 
BRANCH  16  17
ATOM     17  C   UNL     1      35.942  43.883  26.260  1.00  0.00     0.000 C 
BRANCH  17  18
ATOM     18  C   UNL     1      36.290  42.493  26.821  1.00  0.00    -0.000 C 
BRANCH  18  19
ATOM     19  C   UNL     1      37.253  41.716  25.899  1.00  0.00    -0.000 C 
BRANCH  19  20
ATOM     20  C   UNL     1      36.729  40.333  25.474  1.00  0.00    -0.000 C 
BRANCH  20  21
ATOM     21  C   UNL     1      37.753  39.209  25.704  1.00  0.00    -0.000 C 
BRANCH  21  22
ATOM     22  C   UNL     1      37.676  38.620  27.123  1.00  0.00    -0.000 C 
BRANCH  22  23
ATOM     23  C   UNL     1      37.237  37.145  27.121  1.00  0.00    -0.000 C 
BRANCH  23  24
ATOM     24  C   UNL     1      37.886  36.330  25.987  1.00  0.00    -0.000 C 
BRANCH  24  25
ATOM     25  C   UNL     1      38.570  35.025  26.434  1.00  0.00    -0.003 C 
ATOM     26  C   UNL     1      40.095  35.092  26.362  1.00  0.00     0.004 C 
ENDBRANCH  24  25
ENDBRANCH  23  24
ENDBRANCH  22  23
ENDBRANCH  21  22
ENDBRANCH  20  21
ENDBRANCH  19  20
ENDBRANCH  18  19
ENDBRANCH  17  18
ENDBRANCH  16  17
ENDBRANCH  15  16
ENDBRANCH   1  15
TORSDOF 22
ENDMDL
MODEL 5
REMARK VINA RESULT:    -2.948      1.226      2.717
REMARK INTER + INTRA:          -8.286
REMARK INTER:                  -6.910
REMARK INTRA:                  -1.376
REMARK UNBOUND:                -1.545
REMARK SMILES CCCCCCCCCCCCCCCCCCCCCCCC(=O)[O-]
REMARK SMILES IDX 13 1 14 2 15 3 16 4 17 5 18 6 19 7 20 8 21 9 22 10 23 11
REMARK SMILES IDX 24 12 25 13 26 14 12 15 11 16 10 17 9 18 8 19 7 20 6 21 5 22
REMARK SMILES IDX 4 23 3 24 2 25 1 26
REMARK H PARENT
REMARK Flexibility Score: inf
ROOT
ATOM      1  C   UNL     1      35.025  48.587  26.723  1.00  0.00     0.000 C 
ENDROOT
BRANCH   1   2
ATOM      2  C   UNL     1      35.499  47.131  26.893  1.00  0.00     0.000 C 
BRANCH   2   3
ATOM      3  C   UNL     1      34.517  46.057  26.383  1.00  0.00     0.000 C 
BRANCH   3   4
ATOM      4  C   UNL     1      34.679  44.668  27.026  1.00  0.00     0.000 C 
BRANCH   4   5
ATOM      5  C   UNL     1      35.899  43.903  26.496  1.00  0.00     0.000 C 
BRANCH   5   6
ATOM      6  C   UNL     1      35.510  43.004  25.314  1.00  0.00     0.000 C 
BRANCH   6   7
ATOM      7  C   UNL     1      36.696  42.189  24.766  1.00  0.00     0.000 C 
BRANCH   7   8
ATOM      8  C   UNL     1      37.387  41.266  25.791  1.00  0.00     0.000 C 
BRANCH   8   9
ATOM      9  C   UNL     1      37.839  39.901  25.240  1.00  0.00     0.000 C 
BRANCH   9  10
ATOM     10  C   UNL     1      38.480  39.007  26.316  1.00  0.00     0.006 C 
BRANCH  10  11
ATOM     11  C   UNL     1      37.434  38.188  27.083  1.00  0.00     0.053 C 
BRANCH  11  12
ATOM     12  C   UNL     1      37.695  36.717  26.976  1.00  0.00     0.041 C 
ATOM     13  O   UNL     1      38.861  36.297  26.750  1.00  0.00    -0.550 OA
ATOM     14  O   UNL     1      36.647  35.813  27.092  1.00  0.00    -0.550 OA
ENDBRANCH  11  12
ENDBRANCH  10  11
ENDBRANCH   9  10
ENDBRANCH   8   9
ENDBRANCH   7   8
ENDBRANCH   6   7
ENDBRANCH   5   6
ENDBRANCH   4   5
ENDBRANCH   3   4
ENDBRANCH   2   3
ENDBRANCH   1   2
BRANCH   1  15
ATOM     15  C   UNL     1      33.513  48.808  26.909  1.00  0.00     0.000 C 
BRANCH  15  16
ATOM     16  C   UNL     1      33.147  50.286  27.122  1.00  0.00     0.000 C 
BRANCH  16  17
ATOM     17  C   UNL     1      33.653  51.185  25.981  1.00  0.00     0.000 C 
BRANCH  17  18
ATOM     18  C   UNL     1      33.348  52.675  26.220  1.00  0.00    -0.000 C 
BRANCH  18  19
ATOM     19  C   UNL     1      32.115  52.879  27.125  1.00  0.00    -0.000 C 
BRANCH  19  20
ATOM     20  C   UNL     1      31.408  54.230  26.919  1.00  0.00    -0.000 C 
BRANCH  20  21
ATOM     21  C   UNL     1      30.033  54.089  26.244  1.00  0.00    -0.000 C 
BRANCH  21  22
ATOM     22  C   UNL     1      30.094  54.319  24.725  1.00  0.00    -0.000 C 
BRANCH  22  23
ATOM     23  C   UNL     1      31.232  53.527  24.057  1.00  0.00    -0.000 C 
BRANCH  23  24
ATOM     24  C   UNL     1      30.718  52.425  23.112  1.00  0.00    -0.000 C 
BRANCH  24  25
ATOM     25  C   UNL     1      31.022  50.986  23.565  1.00  0.00    -0.003 C 
ATOM     26  C   UNL     1      30.286  50.593  24.846  1.00  0.00     0.004 C 
ENDBRANCH  24  25
ENDBRANCH  23  24
ENDBRANCH  22  23
ENDBRANCH  21  22
ENDBRANCH  20  21
ENDBRANCH  19  20
ENDBRANCH  18  19
ENDBRANCH  17  18
ENDBRANCH  16  17
ENDBRANCH  15  16
ENDBRANCH   1  15
TORSDOF 22
ENDMDL
MODEL 6
REMARK VINA RESULT:    -2.738      4.961     12.442
REMARK INTER + INTRA:          -7.804
REMARK INTER:                  -8.047
REMARK INTRA:                   0.244
REMARK UNBOUND:                -1.545
REMARK SMILES CCCCCCCCCCCCCCCCCCCCCCCC(=O)[O-]
REMARK SMILES IDX 13 1 14 2 15 3 16 4 17 5 18 6 19 7 20 8 21 9 22 10 23 11
REMARK SMILES IDX 24 12 25 13 26 14 12 15 11 16 10 17 9 18 8 19 7 20 6 21 5 22
REMARK SMILES IDX 4 23 3 24 2 25 1 26
REMARK H PARENT
REMARK Flexibility Score: inf
ROOT
ATOM      1  C   UNL     1      33.378  46.764  24.915  1.00  0.00     0.000 C 
ENDROOT
BRANCH   1   2
ATOM      2  C   UNL     1      34.514  47.316  25.798  1.00  0.00     0.000 C 
BRANCH   2   3
ATOM      3  C   UNL     1      34.797  48.823  25.638  1.00  0.00     0.000 C 
BRANCH   3   4
ATOM      4  C   UNL     1      33.812  49.751  26.373  1.00  0.00     0.000 C 
BRANCH   4   5
ATOM      5  C   UNL     1      34.274  51.214  26.395  1.00  0.00     0.000 C 
BRANCH   5   6
ATOM      6  C   UNL     1      33.184  52.122  26.981  1.00  0.00     0.000 C 
BRANCH   6   7
ATOM      7  C   UNL     1      32.462  52.960  25.909  1.00  0.00     0.000 C 
BRANCH   7   8
ATOM      8  C   UNL     1      31.371  53.911  26.444  1.00  0.00     0.000 C 
BRANCH   8   9
ATOM      9  C   UNL     1      29.924  53.425  26.240  1.00  0.00     0.000 C 
BRANCH   9  10
ATOM     10  C   UNL     1      29.653  52.065  26.907  1.00  0.00     0.006 C 
BRANCH  10  11
ATOM     11  C   UNL     1      30.214  50.897  26.083  1.00  0.00     0.053 C 
BRANCH  11  12
ATOM     12  C   UNL     1      29.728  50.934  24.668  1.00  0.00     0.041 C 
ATOM     13  O   UNL     1      30.553  50.928  23.716  1.00  0.00    -0.550 OA
ATOM     14  O   UNL     1      28.367  51.010  24.399  1.00  0.00    -0.550 OA
ENDBRANCH  11  12
ENDBRANCH  10  11
ENDBRANCH   9  10
ENDBRANCH   8   9
ENDBRANCH   7   8
ENDBRANCH   6   7
ENDBRANCH   5   6
ENDBRANCH   4   5
ENDBRANCH   3   4
ENDBRANCH   2   3
ENDBRANCH   1   2
BRANCH   1  15
ATOM     15  C   UNL     1      32.674  45.510  25.465  1.00  0.00     0.000 C 
BRANCH  15  16
ATOM     16  C   UNL     1      33.464  44.828  26.594  1.00  0.00     0.000 C 
BRANCH  16  17
ATOM     17  C   UNL     1      34.802  44.247  26.103  1.00  0.00     0.000 C 
BRANCH  17  18
ATOM     18  C   UNL     1      35.938  44.434  27.124  1.00  0.00    -0.000 C 
BRANCH  18  19
ATOM     19  C   UNL     1      37.048  43.375  26.960  1.00  0.00    -0.000 C 
BRANCH  19  20
ATOM     20  C   UNL     1      36.546  42.023  26.425  1.00  0.00    -0.000 C 
BRANCH  20  21
ATOM     21  C   UNL     1      36.783  41.851  24.916  1.00  0.00    -0.000 C 
BRANCH  21  22
ATOM     22  C   UNL     1      37.696  40.656  24.593  1.00  0.00    -0.000 C 
BRANCH  22  23
ATOM     23  C   UNL     1      38.490  40.177  25.821  1.00  0.00    -0.000 C 
BRANCH  23  24
ATOM     24  C   UNL     1      37.667  39.260  26.745  1.00  0.00    -0.000 C 
BRANCH  24  25
ATOM     25  C   UNL     1      37.407  37.847  26.193  1.00  0.00    -0.003 C 
ATOM     26  C   UNL     1      37.900  36.740  27.125  1.00  0.00     0.004 C 
ENDBRANCH  24  25
ENDBRANCH  23  24
ENDBRANCH  22  23
ENDBRANCH  21  22
ENDBRANCH  20  21
ENDBRANCH  19  20
ENDBRANCH  18  19
ENDBRANCH  17  18
ENDBRANCH  16  17
ENDBRANCH  15  16
ENDBRANCH   1  15
TORSDOF 22
ENDMDL
MODEL 7
REMARK VINA RESULT:    -1.562      1.122      2.057
REMARK INTER + INTRA:          -5.115
REMARK INTER:                  -3.437
REMARK INTRA:                  -1.678
REMARK UNBOUND:                -1.545
REMARK SMILES CCCCCCCCCCCCCCCCCCCCCCCC(=O)[O-]
REMARK SMILES IDX 13 1 14 2 15 3 16 4 17 5 18 6 19 7 20 8 21 9 22 10 23 11
REMARK SMILES IDX 24 12 25 13 26 14 12 15 11 16 10 17 9 18 8 19 7 20 6 21 5 22
REMARK SMILES IDX 4 23 3 24 2 25 1 26
REMARK H PARENT
REMARK Flexibility Score: inf
ROOT
ATOM      1  C   UNL     1      32.597  45.015  25.614  1.00  0.00     0.000 C 
ENDROOT
BRANCH   1   2
ATOM      2  C   UNL     1      33.799  44.065  25.786  1.00  0.00     0.000 C 
BRANCH   2   3
ATOM      3  C   UNL     1      35.003  44.661  26.543  1.00  0.00     0.000 C 
BRANCH   3   4
ATOM      4  C   UNL     1      36.033  43.630  27.040  1.00  0.00     0.000 C 
BRANCH   4   5
ATOM      5  C   UNL     1      36.422  42.608  25.964  1.00  0.00     0.000 C 
BRANCH   5   6
ATOM      6  C   UNL     1      37.937  42.625  25.715  1.00  0.00     0.000 C 
BRANCH   6   7
ATOM      7  C   UNL     1      38.738  41.955  26.847  1.00  0.00     0.000 C 
BRANCH   7   8
ATOM      8  C   UNL     1      38.373  40.481  27.125  1.00  0.00     0.000 C 
BRANCH   8   9
ATOM      9  C   UNL     1      39.240  39.444  26.387  1.00  0.00     0.000 C 
BRANCH   9  10
ATOM     10  C   UNL     1      39.209  38.058  27.056  1.00  0.00     0.006 C 
BRANCH  10  11
ATOM     11  C   UNL     1      37.890  37.320  26.791  1.00  0.00     0.053 C 
BRANCH  11  12
ATOM     12  C   UNL     1      38.120  35.880  26.454  1.00  0.00     0.041 C 
ATOM     13  O   UNL     1      39.293  35.427  26.381  1.00  0.00    -0.550 OA
ATOM     14  O   UNL     1      37.042  35.045  26.188  1.00  0.00    -0.550 OA
ENDBRANCH  11  12
ENDBRANCH  10  11
ENDBRANCH   9  10
ENDBRANCH   8   9
ENDBRANCH   7   8
ENDBRANCH   6   7
ENDBRANCH   5   6
ENDBRANCH   4   5
ENDBRANCH   3   4
ENDBRANCH   2   3
ENDBRANCH   1   2
BRANCH   1  15
ATOM     15  C   UNL     1      31.963  45.510  26.926  1.00  0.00     0.000 C 
BRANCH  15  16
ATOM     16  C   UNL     1      32.108  47.027  27.125  1.00  0.00     0.000 C 
BRANCH  16  17
ATOM     17  C   UNL     1      32.453  47.759  25.816  1.00  0.00     0.000 C 
BRANCH  17  18
ATOM     18  C   UNL     1      33.701  48.650  25.947  1.00  0.00    -0.000 C 
BRANCH  18  19
ATOM     19  C   UNL     1      33.420  49.930  26.762  1.00  0.00    -0.000 C 
BRANCH  19  20
ATOM     20  C   UNL     1      34.191  51.166  26.266  1.00  0.00    -0.000 C 
BRANCH  20  21
ATOM     21  C   UNL     1      33.295  52.405  26.104  1.00  0.00    -0.000 C 
BRANCH  21  22
ATOM     22  C   UNL     1      31.921  52.233  26.771  1.00  0.00    -0.000 C 
BRANCH  22  23
ATOM     23  C   UNL     1      30.788  52.882  25.955  1.00  0.00    -0.000 C 
BRANCH  23  24
ATOM     24  C   UNL     1      29.543  51.983  25.842  1.00  0.00    -0.000 C 
BRANCH  24  25
ATOM     25  C   UNL     1      29.620  50.901  24.750  1.00  0.00    -0.003 C 
ATOM     26  C   UNL     1      30.693  51.186  23.698  1.00  0.00     0.004 C 
ENDBRANCH  24  25
ENDBRANCH  23  24
ENDBRANCH  22  23
ENDBRANCH  21  22
ENDBRANCH  20  21
ENDBRANCH  19  20
ENDBRANCH  18  19
ENDBRANCH  17  18
ENDBRANCH  16  17
ENDBRANCH  15  16
ENDBRANCH   1  15
TORSDOF 22
ENDMDL
