MODEL 1
REMARK VINA RESULT:    -4.122      0.000      0.000
REMARK INTER + INTRA:          -7.035
REMARK INTER:                  -6.291
REMARK INTRA:                  -0.745
REMARK UNBOUND:                -0.745
REMARK SMILES O=C([O-])CCCCCCCCC(=O)[O-]
REMARK SMILES IDX 7 1 6 2 5 3 4 4 2 5 1 6 3 7 8 8 9 9 10 10 11 11 12 12 13 13
REMARK SMILES IDX 14 14
REMARK H PARENT
REMARK Flexibility Score: inf
ROOT
ATOM      1  C   UNL     1       7.007   4.014   8.722  1.00  0.00     0.000 C 
ENDROOT
BRANCH   1   2
ATOM      2  C   UNL     1       6.313   5.343   8.382  1.00  0.00     0.000 C 
BRANCH   2   3
ATOM      3  C   UNL     1       4.825   5.352   8.767  1.00  0.00     0.006 C 
BRANCH   3   4
ATOM      4  C   UNL     1       4.199   3.969   8.563  1.00  0.00     0.053 C 
BRANCH   4   5
ATOM      5  C   UNL     1       3.227   3.995   7.427  1.00  0.00     0.041 C 
ATOM      6  O   UNL     1       2.062   3.541   7.578  1.00  0.00    -0.550 OA
ATOM      7  O   UNL     1       3.623   4.476   6.185  1.00  0.00    -0.550 OA
ENDBRANCH   4   5
ENDBRANCH   3   4
ENDBRANCH   2   3
ENDBRANCH   1   2
BRANCH   1   8
ATOM      8  C   UNL     1       8.517   4.183   8.963  1.00  0.00     0.000 C 
BRANCH   8   9
ATOM      9  C   UNL     1       9.375   3.356   7.987  1.00  0.00     0.000 C 
BRANCH   9  10
ATOM     10  C   UNL     1       8.619   2.790   6.771  1.00  0.00     0.006 C 
BRANCH  10  11
ATOM     11  C   UNL     1       8.941   3.532   5.467  1.00  0.00     0.053 C 
BRANCH  11  12
ATOM     12  C   UNL     1       7.838   4.481   5.119  1.00  0.00     0.041 C 
ATOM     13  O   UNL     1       6.676   4.050   4.899  1.00  0.00    -0.550 OA
ATOM     14  O   UNL     1       8.082   5.848   5.087  1.00  0.00    -0.550 OA
ENDBRANCH  11  12
ENDBRANCH  10  11
ENDBRANCH   9  10
ENDBRANCH   8   9
ENDBRANCH   1   8
TORSDOF 9
ENDMDL
MODEL 2
REMARK VINA RESULT:    -4.071      1.186      5.169
REMARK INTER + INTRA:          -6.958
REMARK INTER:                  -6.270
REMARK INTRA:                  -0.689
REMARK UNBOUND:                -0.745
REMARK SMILES O=C([O-])CCCCCCCCC(=O)[O-]
REMARK SMILES IDX 7 1 6 2 5 3 4 4 2 5 1 6 3 7 8 8 9 9 10 10 11 11 12 12 13 13
REMARK SMILES IDX 14 14
REMARK H PARENT
REMARK Flexibility Score: inf
ROOT
ATOM      1  C   UNL     1       8.487   3.857   9.108  1.00  0.00     0.000 C 
ENDROOT
BRANCH   1   2
ATOM      2  C   UNL     1       9.392   3.502   7.918  1.00  0.00     0.000 C 
BRANCH   2   3
ATOM      3  C   UNL     1       8.643   2.751   6.806  1.00  0.00     0.006 C 
BRANCH   3   4
ATOM      4  C   UNL     1       8.845   3.436   5.451  1.00  0.00     0.053 C 
BRANCH   4   5
ATOM      5  C   UNL     1       7.758   4.433   5.199  1.00  0.00     0.041 C 
ATOM      6  O   UNL     1       8.017   5.665   5.193  1.00  0.00    -0.550 OA
ATOM      7  O   UNL     1       6.449   4.003   5.021  1.00  0.00    -0.550 OA
ENDBRANCH   4   5
ENDBRANCH   3   4
ENDBRANCH   2   3
ENDBRANCH   1   2
BRANCH   1   8
ATOM      8  C   UNL     1       6.991   3.775   8.757  1.00  0.00     0.000 C 
BRANCH   8   9
ATOM      9  C   UNL     1       6.365   5.155   8.481  1.00  0.00     0.000 C 
BRANCH   9  10
ATOM     10  C   UNL     1       4.867   5.133   8.122  1.00  0.00     0.006 C 
BRANCH  10  11
ATOM     11  C   UNL     1       3.959   5.404   9.329  1.00  0.00     0.053 C 
BRANCH  11  12
ATOM     12  C   UNL     1       2.526   5.171   8.966  1.00  0.00     0.041 C 
ATOM     13  O   UNL     1       1.999   5.812   8.019  1.00  0.00    -0.550 OA
ATOM     14  O   UNL     1       1.785   4.209   9.641  1.00  0.00    -0.550 OA
ENDBRANCH  11  12
ENDBRANCH  10  11
ENDBRANCH   9  10
ENDBRANCH   8   9
ENDBRANCH   1   8
TORSDOF 9
ENDMDL
MODEL 3
REMARK VINA RESULT:    -4.026     13.631     15.826
REMARK INTER + INTRA:          -6.889
REMARK INTER:                  -6.054
REMARK INTRA:                  -0.835
REMARK UNBOUND:                -0.745
REMARK SMILES O=C([O-])CCCCCCCCC(=O)[O-]
REMARK SMILES IDX 7 1 6 2 5 3 4 4 2 5 1 6 3 7 8 8 9 9 10 10 11 11 12 12 13 13
REMARK SMILES IDX 14 14
REMARK H PARENT
REMARK Flexibility Score: inf
ROOT
ATOM      1  C   UNL     1      -8.292  -1.860   8.210  1.00  0.00     0.000 C 
ENDROOT
BRANCH   1   2
ATOM      2  C   UNL     1      -9.142  -2.770   7.309  1.00  0.00     0.000 C 
BRANCH   2   3
ATOM      3  C   UNL     1      -9.020  -2.413   5.820  1.00  0.00     0.006 C 
BRANCH   3   4
ATOM      4  C   UNL     1      -9.017  -3.675   4.952  1.00  0.00     0.053 C 
BRANCH   4   5
ATOM      5  C   UNL     1      -7.826  -4.524   5.264  1.00  0.00     0.041 C 
ATOM      6  O   UNL     1      -6.666  -4.037   5.200  1.00  0.00    -0.550 OA
ATOM      7  O   UNL     1      -7.993  -5.867   5.578  1.00  0.00    -0.550 OA
ENDBRANCH   4   5
ENDBRANCH   3   4
ENDBRANCH   2   3
ENDBRANCH   1   2
BRANCH   1   8
ATOM      8  C   UNL     1      -7.288  -2.651   9.067  1.00  0.00     0.000 C 
BRANCH   8   9
ATOM      9  C   UNL     1      -7.454  -4.176   8.929  1.00  0.00     0.000 C 
BRANCH   9  10
ATOM     10  C   UNL     1      -6.167  -4.945   8.577  1.00  0.00     0.006 C 
BRANCH  10  11
ATOM     11  C   UNL     1      -4.912  -4.334   9.214  1.00  0.00     0.053 C 
BRANCH  11  12
ATOM     12  C   UNL     1      -3.709  -4.614   8.370  1.00  0.00     0.041 C 
ATOM     13  O   UNL     1      -3.790  -4.567   7.114  1.00  0.00    -0.550 OA
ATOM     14  O   UNL     1      -2.484  -4.876   8.970  1.00  0.00    -0.550 OA
ENDBRANCH  11  12
ENDBRANCH  10  11
ENDBRANCH   9  10
ENDBRANCH   8   9
ENDBRANCH   1   8
TORSDOF 9
ENDMDL
MODEL 4
REMARK VINA RESULT:    -4.020     13.491     16.088
REMARK INTER + INTRA:          -6.880
REMARK INTER:                  -6.119
REMARK INTRA:                  -0.761
REMARK UNBOUND:                -0.745
REMARK SMILES O=C([O-])CCCCCCCCC(=O)[O-]
REMARK SMILES IDX 7 1 6 2 5 3 4 4 2 5 1 6 3 7 8 8 9 9 10 10 11 11 12 12 13 13
REMARK SMILES IDX 14 14
REMARK H PARENT
REMARK Flexibility Score: inf
ROOT
ATOM      1  C   UNL     1      -8.240  -3.591   9.311  1.00  0.00     0.000 C 
ENDROOT
BRANCH   1   2
ATOM      2  C   UNL     1      -6.754  -3.401   8.965  1.00  0.00     0.000 C 
BRANCH   2   3
ATOM      3  C   UNL     1      -6.039  -4.728   8.669  1.00  0.00     0.006 C 
BRANCH   3   4
ATOM      4  C   UNL     1      -4.686  -4.792   9.384  1.00  0.00     0.053 C 
BRANCH   4   5
ATOM      5  C   UNL     1      -3.566  -4.679   8.400  1.00  0.00     0.041 C 
ATOM      6  O   UNL     1      -3.806  -4.671   7.164  1.00  0.00    -0.550 OA
ATOM      7  O   UNL     1      -2.251  -4.633   8.846  1.00  0.00    -0.550 OA
ENDBRANCH   4   5
ENDBRANCH   3   4
ENDBRANCH   2   3
ENDBRANCH   1   2
BRANCH   1   8
ATOM      8  C   UNL     1      -9.172  -2.856   8.332  1.00  0.00     0.000 C 
BRANCH   8   9
ATOM      9  C   UNL     1      -8.445  -1.777   7.509  1.00  0.00     0.000 C 
BRANCH   9  10
ATOM     10  C   UNL     1      -8.355  -2.058   5.997  1.00  0.00     0.006 C 
BRANCH  10  11
ATOM     11  C   UNL     1      -8.980  -3.401   5.600  1.00  0.00     0.053 C 
BRANCH  11  12
ATOM     12  C   UNL     1      -7.914  -4.393   5.257  1.00  0.00     0.041 C 
ATOM     13  O   UNL     1      -6.701  -4.057   5.290  1.00  0.00    -0.550 OA
ATOM     14  O   UNL     1      -8.256  -5.704   4.950  1.00  0.00    -0.550 OA
ENDBRANCH  11  12
ENDBRANCH  10  11
ENDBRANCH   9  10
ENDBRANCH   8   9
ENDBRANCH   1   8
TORSDOF 9
ENDMDL
MODEL 5
REMARK VINA RESULT:    -4.017      2.404      5.710
REMARK INTER + INTRA:          -6.876
REMARK INTER:                  -6.139
REMARK INTRA:                  -0.737
REMARK UNBOUND:                -0.745
REMARK SMILES O=C([O-])CCCCCCCCC(=O)[O-]
REMARK SMILES IDX 7 1 6 2 5 3 4 4 2 5 1 6 3 7 8 8 9 9 10 10 11 11 12 12 13 13
REMARK SMILES IDX 14 14
REMARK H PARENT
REMARK Flexibility Score: inf
ROOT
ATOM      1  C   UNL     1       2.633   5.307   8.701  1.00  0.00     0.000 C 
ENDROOT
BRANCH   1   2
ATOM      2  C   UNL     1       4.082   5.525   9.165  1.00  0.00     0.000 C 
BRANCH   2   3
ATOM      3  C   UNL     1       5.114   4.989   8.160  1.00  0.00     0.006 C 
BRANCH   3   4
ATOM      4  C   UNL     1       6.503   5.573   8.438  1.00  0.00     0.053 C 
BRANCH   4   5
ATOM      5  C   UNL     1       7.390   5.406   7.246  1.00  0.00     0.041 C 
ATOM      6  O   UNL     1       8.115   4.382   7.133  1.00  0.00    -0.550 OA
ATOM      7  O   UNL     1       7.456   6.405   6.282  1.00  0.00    -0.550 OA
ENDBRANCH   4   5
ENDBRANCH   3   4
ENDBRANCH   2   3
ENDBRANCH   1   2
BRANCH   1   8
ATOM      8  C   UNL     1       1.830   4.424   9.673  1.00  0.00     0.000 C 
BRANCH   8   9
ATOM      9  C   UNL     1       2.679   3.898  10.845  1.00  0.00     0.000 C 
BRANCH   9  10
ATOM     10  C   UNL     1       2.856   2.369  10.888  1.00  0.00     0.006 C 
BRANCH  10  11
ATOM     11  C   UNL     1       3.957   1.867   9.944  1.00  0.00     0.053 C 
BRANCH  11  12
ATOM     12  C   UNL     1       3.385   0.927   8.929  1.00  0.00     0.041 C 
ATOM     13  O   UNL     1       3.459  -0.318   9.104  1.00  0.00    -0.550 OA
ATOM     14  O   UNL     1       2.726   1.426   7.813  1.00  0.00    -0.550 OA
ENDBRANCH  11  12
ENDBRANCH  10  11
ENDBRANCH   9  10
ENDBRANCH   8   9
ENDBRANCH   1   8
TORSDOF 9
ENDMDL
MODEL 6
REMARK VINA RESULT:    -3.953     12.786     15.366
REMARK INTER + INTRA:          -6.777
REMARK INTER:                  -6.080
REMARK INTRA:                  -0.697
REMARK UNBOUND:                -0.745
REMARK SMILES O=C([O-])CCCCCCCCC(=O)[O-]
REMARK SMILES IDX 7 1 6 2 5 3 4 4 2 5 1 6 3 7 8 8 9 9 10 10 11 11 12 12 13 13
REMARK SMILES IDX 14 14
REMARK H PARENT
REMARK Flexibility Score: inf
ROOT
ATOM      1  C   UNL     1      -8.336  -3.662   9.159  1.00  0.00     0.000 C 
ENDROOT
BRANCH   1   2
ATOM      2  C   UNL     1      -9.211  -2.863   8.181  1.00  0.00     0.000 C 
BRANCH   2   3
ATOM      3  C   UNL     1      -8.472  -2.495   6.886  1.00  0.00     0.006 C 
BRANCH   3   4
ATOM      4  C   UNL     1      -8.872  -3.432   5.742  1.00  0.00     0.053 C 
BRANCH   4   5
ATOM      5  C   UNL     1      -7.769  -4.397   5.443  1.00  0.00     0.041 C 
ATOM      6  O   UNL     1      -8.002  -5.634   5.401  1.00  0.00    -0.550 OA
ATOM      7  O   UNL     1      -6.472  -3.935   5.260  1.00  0.00    -0.550 OA
ENDBRANCH   4   5
ENDBRANCH   3   4
ENDBRANCH   2   3
ENDBRANCH   1   2
BRANCH   1   8
ATOM      8  C   UNL     1      -6.832  -3.489   8.880  1.00  0.00     0.000 C 
BRANCH   8   9
ATOM      9  C   UNL     1      -6.097  -4.832   8.711  1.00  0.00     0.000 C 
BRANCH   9  10
ATOM     10  C   UNL     1      -4.801  -4.974   9.530  1.00  0.00     0.006 C 
BRANCH  10  11
ATOM     11  C   UNL     1      -3.797  -3.845   9.263  1.00  0.00     0.053 C 
BRANCH  11  12
ATOM     12  C   UNL     1      -2.906  -4.199   8.115  1.00  0.00     0.041 C 
ATOM     13  O   UNL     1      -1.956  -5.010   8.275  1.00  0.00    -0.550 OA
ATOM     14  O   UNL     1      -3.155  -3.673   6.854  1.00  0.00    -0.550 OA
ENDBRANCH  11  12
ENDBRANCH  10  11
ENDBRANCH   9  10
ENDBRANCH   8   9
ENDBRANCH   1   8
TORSDOF 9
ENDMDL
MODEL 7
REMARK VINA RESULT:    -3.898      2.992      5.459
REMARK INTER + INTRA:          -6.694
REMARK INTER:                  -6.098
REMARK INTRA:                  -0.596
REMARK UNBOUND:                -0.745
REMARK SMILES O=C([O-])CCCCCCCCC(=O)[O-]
REMARK SMILES IDX 7 1 6 2 5 3 4 4 2 5 1 6 3 7 8 8 9 9 10 10 11 11 12 12 13 13
REMARK SMILES IDX 14 14
REMARK H PARENT
REMARK Flexibility Score: inf
ROOT
ATOM      1  C   UNL     1       8.159   3.852   7.902  1.00  0.00     0.000 C 
ENDROOT
BRANCH   1   2
ATOM      2  C   UNL     1       9.424   4.048   8.752  1.00  0.00     0.000 C 
BRANCH   2   3
ATOM      3  C   UNL     1       9.425   3.185  10.023  1.00  0.00     0.006 C 
BRANCH   3   4
ATOM      4  C   UNL     1       8.363   2.084   9.939  1.00  0.00     0.053 C 
BRANCH   4   5
ATOM      5  C   UNL     1       9.008   0.743   9.791  1.00  0.00     0.041 C 
ATOM      6  O   UNL     1       9.835   0.339  10.651  1.00  0.00    -0.550 OA
ATOM      7  O   UNL     1       8.734  -0.041   8.678  1.00  0.00    -0.550 OA
ENDBRANCH   4   5
ENDBRANCH   3   4
ENDBRANCH   2   3
ENDBRANCH   1   2
BRANCH   1   8
ATOM      8  C   UNL     1       7.534   5.187   7.458  1.00  0.00     0.000 C 
BRANCH   8   9
ATOM      9  C   UNL     1       6.395   5.652   8.384  1.00  0.00     0.000 C 
BRANCH   9  10
ATOM     10  C   UNL     1       5.324   4.588   8.688  1.00  0.00     0.006 C 
BRANCH  10  11
ATOM     11  C   UNL     1       3.990   5.193   9.143  1.00  0.00     0.053 C 
BRANCH  11  12
ATOM     12  C   UNL     1       3.042   5.294   7.989  1.00  0.00     0.041 C 
ATOM     13  O   UNL     1       1.936   5.880   8.126  1.00  0.00    -0.550 OA
ATOM     14  O   UNL     1       3.402   4.786   6.747  1.00  0.00    -0.550 OA
ENDBRANCH  11  12
ENDBRANCH  10  11
ENDBRANCH   9  10
ENDBRANCH   8   9
ENDBRANCH   1   8
TORSDOF 9
ENDMDL
MODEL 8
REMARK VINA RESULT:    -3.877      1.125      4.931
REMARK INTER + INTRA:          -6.662
REMARK INTER:                  -6.042
REMARK INTRA:                  -0.620
REMARK UNBOUND:                -0.745
REMARK SMILES O=C([O-])CCCCCCCCC(=O)[O-]
REMARK SMILES IDX 7 1 6 2 5 3 4 4 2 5 1 6 3 7 8 8 9 9 10 10 11 11 12 12 13 13
REMARK SMILES IDX 14 14
REMARK H PARENT
REMARK Flexibility Score: inf
ROOT
ATOM      1  C   UNL     1       6.409   4.013   8.610  1.00  0.00     0.000 C 
ENDROOT
BRANCH   1   2
ATOM      2  C   UNL     1       7.923   4.132   8.845  1.00  0.00     0.000 C 
BRANCH   2   3
ATOM      3  C   UNL     1       8.750   3.410   7.771  1.00  0.00     0.006 C 
BRANCH   3   4
ATOM      4  C   UNL     1       7.934   3.219   6.488  1.00  0.00     0.053 C 
BRANCH   4   5
ATOM      5  C   UNL     1       8.318   4.241   5.466  1.00  0.00     0.041 C 
ATOM      6  O   UNL     1       7.589   5.250   5.273  1.00  0.00    -0.550 OA
ATOM      7  O   UNL     1       9.454   4.054   4.689  1.00  0.00    -0.550 OA
ENDBRANCH   4   5
ENDBRANCH   3   4
ENDBRANCH   2   3
ENDBRANCH   1   2
BRANCH   1   8
ATOM      8  C   UNL     1       5.726   5.384   8.461  1.00  0.00     0.000 C 
BRANCH   8   9
ATOM      9  C   UNL     1       4.313   5.419   9.072  1.00  0.00     0.000 C 
BRANCH   9  10
ATOM     10  C   UNL     1       3.160   5.354   8.054  1.00  0.00     0.006 C 
BRANCH  10  11
ATOM     11  C   UNL     1       2.608   3.935   7.863  1.00  0.00     0.053 C 
BRANCH  11  12
ATOM     12  C   UNL     1       3.139   3.334   6.600  1.00  0.00     0.041 C 
ATOM     13  O   UNL     1       3.020   2.098   6.386  1.00  0.00    -0.550 OA
ATOM     14  O   UNL     1       3.719   4.145   5.634  1.00  0.00    -0.550 OA
ENDBRANCH  11  12
ENDBRANCH  10  11
ENDBRANCH   9  10
ENDBRANCH   8   9
ENDBRANCH   1   8
TORSDOF 9
ENDMDL
MODEL 9
REMARK VINA RESULT:    -3.789     10.706     13.987
REMARK INTER + INTRA:          -6.527
REMARK INTER:                  -5.765
REMARK INTRA:                  -0.761
REMARK UNBOUND:                -0.745
REMARK SMILES O=C([O-])CCCCCCCCC(=O)[O-]
REMARK SMILES IDX 7 1 6 2 5 3 4 4 2 5 1 6 3 7 8 8 9 9 10 10 11 11 12 12 13 13
REMARK SMILES IDX 14 14
REMARK H PARENT
REMARK Flexibility Score: inf
ROOT
ATOM      1  C   UNL     1      -2.120  -4.981   8.729  1.00  0.00     0.000 C 
ENDROOT
BRANCH   1   2
ATOM      2  C   UNL     1      -1.529  -3.643   9.200  1.00  0.00     0.000 C 
BRANCH   2   3
ATOM      3  C   UNL     1      -1.234  -2.682   8.038  1.00  0.00     0.006 C 
BRANCH   3   4
ATOM      4  C   UNL     1      -1.820  -1.294   8.313  1.00  0.00     0.053 C 
BRANCH   4   5
ATOM      5  C   UNL     1      -3.081  -1.094   7.534  1.00  0.00     0.041 C 
ATOM      6  O   UNL     1      -4.008  -0.379   8.000  1.00  0.00    -0.550 OA
ATOM      7  O   UNL     1      -3.254  -1.736   6.314  1.00  0.00    -0.550 OA
ENDBRANCH   4   5
ENDBRANCH   3   4
ENDBRANCH   2   3
ENDBRANCH   1   2
BRANCH   1   8
ATOM      8  C   UNL     1      -3.511  -4.819   8.092  1.00  0.00     0.000 C 
BRANCH   8   9
ATOM      9  C   UNL     1      -4.632  -4.651   9.136  1.00  0.00     0.000 C 
BRANCH   9  10
ATOM     10  C   UNL     1      -5.739  -3.653   8.750  1.00  0.00     0.006 C 
BRANCH  10  11
ATOM     11  C   UNL     1      -7.139  -4.282   8.751  1.00  0.00     0.053 C 
BRANCH  11  12
ATOM     12  C   UNL     1      -7.437  -4.894   7.419  1.00  0.00     0.041 C 
ATOM     13  O   UNL     1      -7.927  -4.194   6.494  1.00  0.00    -0.550 OA
ATOM     14  O   UNL     1      -7.128  -6.227   7.182  1.00  0.00    -0.550 OA
ENDBRANCH  11  12
ENDBRANCH  10  11
ENDBRANCH   9  10
ENDBRANCH   8   9
ENDBRANCH   1   8
TORSDOF 9
ENDMDL
