MODEL 1
REMARK VINA RESULT:    -3.756      0.000      0.000
REMARK INTER + INTRA:          -4.038
REMARK INTER:                  -3.975
REMARK INTRA:                  -0.063
REMARK UNBOUND:                -0.063
REMARK SMILES CC(=O)c1ccccc1
REMARK SMILES IDX 4 1 5 2 6 3 7 4 8 5 9 6 2 7 1 8 3 9
REMARK H PARENT
REMARK Flexibility Score: inf
ROOT
ATOM      1  C   UNL     1      31.846 169.394 155.242  1.00  0.00     0.017 A 
ATOM      2  C   UNL     1      31.709 168.915 156.561  1.00  0.00     0.012 A 
ATOM      3  C   UNL     1      32.817 168.411 157.251  1.00  0.00     0.001 A 
ATOM      4  C   UNL     1      34.070 168.376 156.637  1.00  0.00     0.000 A 
ATOM      5  C   UNL     1      34.220 168.845 155.331  1.00  0.00     0.001 A 
ATOM      6  C   UNL     1      33.117 169.351 154.635  1.00  0.00     0.012 A 
ENDROOT
BRANCH   1   7
ATOM      7  C   UNL     1      30.680 169.935 154.491  1.00  0.00     0.159 C 
ATOM      8  C   UNL     1      30.700 171.302 153.875  1.00  0.00     0.093 C 
ATOM      9  O   UNL     1      29.639 169.235 154.362  1.00  0.00    -0.295 OA
ENDBRANCH   1   7
TORSDOF 1
ENDMDL
MODEL 2
REMARK VINA RESULT:    -3.742      0.267      1.634
REMARK INTER + INTRA:          -4.024
REMARK INTER:                  -3.959
REMARK INTRA:                  -0.065
REMARK UNBOUND:                -0.063
REMARK SMILES CC(=O)c1ccccc1
REMARK SMILES IDX 4 1 5 2 6 3 7 4 8 5 9 6 2 7 1 8 3 9
REMARK H PARENT
REMARK Flexibility Score: inf
ROOT
ATOM      1  C   UNL     1      31.954 169.300 155.409  1.00  0.00     0.017 A 
ATOM      2  C   UNL     1      33.230 169.342 154.812  1.00  0.00     0.012 A 
ATOM      3  C   UNL     1      34.344 168.827 155.482  1.00  0.00     0.001 A 
ATOM      4  C   UNL     1      34.202 168.265 156.752  1.00  0.00     0.000 A 
ATOM      5  C   UNL     1      32.945 168.218 157.356  1.00  0.00     0.001 A 
ATOM      6  C   UNL     1      31.826 168.731 156.692  1.00  0.00     0.012 A 
ENDROOT
BRANCH   1   7
ATOM      7  C   UNL     1      30.755 169.843 154.712  1.00  0.00     0.159 C 
ATOM      8  C   UNL     1      30.820 171.085 153.876  1.00  0.00     0.093 C 
ATOM      9  O   UNL     1      29.647 169.251 154.822  1.00  0.00    -0.295 OA
ENDBRANCH   1   7
TORSDOF 1
ENDMDL
MODEL 3
REMARK VINA RESULT:    -3.690      2.188      3.449
REMARK INTER + INTRA:          -3.968
REMARK INTER:                  -3.904
REMARK INTRA:                  -0.064
REMARK UNBOUND:                -0.063
REMARK SMILES CC(=O)c1ccccc1
REMARK SMILES IDX 4 1 5 2 6 3 7 4 8 5 9 6 2 7 1 8 3 9
REMARK H PARENT
REMARK Flexibility Score: inf
ROOT
ATOM      1  C   UNL     1      32.283 168.786 156.903  1.00  0.00     0.017 A 
ATOM      2  C   UNL     1      31.282 169.126 155.971  1.00  0.00     0.012 A 
ATOM      3  C   UNL     1      31.616 169.418 154.645  1.00  0.00     0.001 A 
ATOM      4  C   UNL     1      32.949 169.375 154.231  1.00  0.00     0.000 A 
ATOM      5  C   UNL     1      33.952 169.041 155.143  1.00  0.00     0.001 A 
ATOM      6  C   UNL     1      33.624 168.748 156.471  1.00  0.00     0.012 A 
ENDROOT
BRANCH   1   7
ATOM      7  C   UNL     1      31.949 168.472 158.319  1.00  0.00     0.159 C 
ATOM      8  C   UNL     1      30.930 169.260 159.085  1.00  0.00     0.093 C 
ATOM      9  O   UNL     1      32.532 167.518 158.903  1.00  0.00    -0.295 OA
ENDBRANCH   1   7
TORSDOF 1
ENDMDL
MODEL 4
REMARK VINA RESULT:    -3.678      2.182      3.596
REMARK INTER + INTRA:          -3.955
REMARK INTER:                  -3.889
REMARK INTRA:                  -0.066
REMARK UNBOUND:                -0.063
REMARK SMILES CC(=O)c1ccccc1
REMARK SMILES IDX 4 1 5 2 6 3 7 4 8 5 9 6 2 7 1 8 3 9
REMARK H PARENT
REMARK Flexibility Score: inf
ROOT
ATOM      1  C   UNL     1      32.288 168.794 156.879  1.00  0.00     0.017 A 
ATOM      2  C   UNL     1      33.619 168.782 156.416  1.00  0.00     0.012 A 
ATOM      3  C   UNL     1      33.913 169.115 155.089  1.00  0.00     0.001 A 
ATOM      4  C   UNL     1      32.886 169.463 154.209  1.00  0.00     0.000 A 
ATOM      5  C   UNL     1      31.562 169.478 154.654  1.00  0.00     0.001 A 
ATOM      6  C   UNL     1      31.262 169.146 155.979  1.00  0.00     0.012 A 
ENDROOT
BRANCH   1   7
ATOM      7  C   UNL     1      31.955 168.442 158.286  1.00  0.00     0.159 C 
ATOM      8  C   UNL     1      30.922 169.198 159.067  1.00  0.00     0.093 C 
ATOM      9  O   UNL     1      32.551 167.485 158.850  1.00  0.00    -0.295 OA
ENDBRANCH   1   7
TORSDOF 1
ENDMDL
MODEL 5
REMARK VINA RESULT:    -3.523     22.963     23.871
REMARK INTER + INTRA:          -3.791
REMARK INTER:                  -3.731
REMARK INTRA:                  -0.060
REMARK UNBOUND:                -0.063
REMARK SMILES CC(=O)c1ccccc1
REMARK SMILES IDX 4 1 5 2 6 3 7 4 8 5 9 6 2 7 1 8 3 9
REMARK H PARENT
REMARK Flexibility Score: inf
ROOT
ATOM      1  C   UNL     1      41.604 182.640 172.371  1.00  0.00     0.017 A 
ATOM      2  C   UNL     1      41.473 183.942 172.894  1.00  0.00     0.012 A 
ATOM      3  C   UNL     1      40.325 184.698 172.637  1.00  0.00     0.001 A 
ATOM      4  C   UNL     1      39.295 184.168 171.857  1.00  0.00     0.000 A 
ATOM      5  C   UNL     1      39.412 182.881 171.331  1.00  0.00     0.001 A 
ATOM      6  C   UNL     1      40.557 182.119 171.584  1.00  0.00     0.012 A 
ENDROOT
BRANCH   1   7
ATOM      7  C   UNL     1      42.817 181.819 172.633  1.00  0.00     0.159 C 
ATOM      8  C   UNL     1      43.164 181.335 174.009  1.00  0.00     0.093 C 
ATOM      9  O   UNL     1      43.585 181.514 171.679  1.00  0.00    -0.295 OA
ENDBRANCH   1   7
TORSDOF 1
ENDMDL
MODEL 6
REMARK VINA RESULT:    -3.520     22.963     23.875
REMARK INTER + INTRA:          -3.789
REMARK INTER:                  -3.728
REMARK INTRA:                  -0.061
REMARK UNBOUND:                -0.063
REMARK SMILES CC(=O)c1ccccc1
REMARK SMILES IDX 4 1 5 2 6 3 7 4 8 5 9 6 2 7 1 8 3 9
REMARK H PARENT
REMARK Flexibility Score: inf
ROOT
ATOM      1  C   UNL     1      41.569 182.634 172.368  1.00  0.00     0.017 A 
ATOM      2  C   UNL     1      40.524 182.133 171.565  1.00  0.00     0.012 A 
ATOM      3  C   UNL     1      39.381 182.901 171.327  1.00  0.00     0.001 A 
ATOM      4  C   UNL     1      39.263 184.176 171.885  1.00  0.00     0.000 A 
ATOM      5  C   UNL     1      40.289 184.685 172.682  1.00  0.00     0.001 A 
ATOM      6  C   UNL     1      41.436 183.922 172.924  1.00  0.00     0.012 A 
ENDROOT
BRANCH   1   7
ATOM      7  C   UNL     1      42.795 181.832 172.633  1.00  0.00     0.159 C 
ATOM      8  C   UNL     1      43.158 181.375 174.014  1.00  0.00     0.093 C 
ATOM      9  O   UNL     1      43.558 181.522 171.678  1.00  0.00    -0.295 OA
ENDBRANCH   1   7
TORSDOF 1
ENDMDL
MODEL 7
REMARK VINA RESULT:    -3.449     16.292     17.320
REMARK INTER + INTRA:          -3.713
REMARK INTER:                  -3.645
REMARK INTRA:                  -0.068
REMARK UNBOUND:                -0.063
REMARK SMILES CC(=O)c1ccccc1
REMARK SMILES IDX 4 1 5 2 6 3 7 4 8 5 9 6 2 7 1 8 3 9
REMARK H PARENT
REMARK Flexibility Score: inf
ROOT
ATOM      1  C   UNL     1      26.110 180.816 166.090  1.00  0.00     0.017 A 
ATOM      2  C   UNL     1      25.604 180.425 164.833  1.00  0.00     0.012 A 
ATOM      3  C   UNL     1      24.992 181.361 163.993  1.00  0.00     0.001 A 
ATOM      4  C   UNL     1      24.875 182.694 164.393  1.00  0.00     0.000 A 
ATOM      5  C   UNL     1      25.370 183.095 165.635  1.00  0.00     0.001 A 
ATOM      6  C   UNL     1      25.984 182.164 166.480  1.00  0.00     0.012 A 
ENDROOT
BRANCH   1   7
ATOM      7  C   UNL     1      26.765 179.836 166.999  1.00  0.00     0.159 C 
ATOM      8  C   UNL     1      27.875 180.235 167.925  1.00  0.00     0.093 C 
ATOM      9  O   UNL     1      26.386 178.633 167.000  1.00  0.00    -0.295 OA
ENDBRANCH   1   7
TORSDOF 1
ENDMDL
MODEL 8
REMARK VINA RESULT:    -3.347     16.172     16.628
REMARK INTER + INTRA:          -3.606
REMARK INTER:                  -3.539
REMARK INTRA:                  -0.066
REMARK UNBOUND:                -0.063
REMARK SMILES CC(=O)c1ccccc1
REMARK SMILES IDX 4 1 5 2 6 3 7 4 8 5 9 6 2 7 1 8 3 9
REMARK H PARENT
REMARK Flexibility Score: inf
ROOT
ATOM      1  C   UNL     1      26.336 180.425 166.279  1.00  0.00     0.017 A 
ATOM      2  C   UNL     1      25.742 179.147 166.268  1.00  0.00     0.012 A 
ATOM      3  C   UNL     1      26.193 178.147 167.135  1.00  0.00     0.001 A 
ATOM      4  C   UNL     1      27.241 178.405 168.021  1.00  0.00     0.000 A 
ATOM      5  C   UNL     1      27.841 179.666 168.042  1.00  0.00     0.001 A 
ATOM      6  C   UNL     1      27.393 180.671 167.178  1.00  0.00     0.012 A 
ENDROOT
BRANCH   1   7
ATOM      7  C   UNL     1      25.870 181.504 165.365  1.00  0.00     0.159 C 
ATOM      8  C   UNL     1      25.311 181.204 164.007  1.00  0.00     0.093 C 
ATOM      9  O   UNL     1      25.943 182.709 165.731  1.00  0.00    -0.295 OA
ENDBRANCH   1   7
TORSDOF 1
ENDMDL
MODEL 9
REMARK VINA RESULT:    -3.338     22.366     22.958
REMARK INTER + INTRA:          -3.596
REMARK INTER:                  -3.537
REMARK INTRA:                  -0.058
REMARK UNBOUND:                -0.063
REMARK SMILES CC(=O)c1ccccc1
REMARK SMILES IDX 4 1 5 2 6 3 7 4 8 5 9 6 2 7 1 8 3 9
REMARK H PARENT
REMARK Flexibility Score: inf
ROOT
ATOM      1  C   UNL     1      38.642 184.013 171.328  1.00  0.00     0.017 A 
ATOM      2  C   UNL     1      39.833 183.293 171.102  1.00  0.00     0.012 A 
ATOM      3  C   UNL     1      41.030 183.694 171.706  1.00  0.00     0.001 A 
ATOM      4  C   UNL     1      41.056 184.814 172.539  1.00  0.00     0.000 A 
ATOM      5  C   UNL     1      39.885 185.537 172.770  1.00  0.00     0.001 A 
ATOM      6  C   UNL     1      38.684 185.142 172.171  1.00  0.00     0.012 A 
ENDROOT
BRANCH   1   7
ATOM      7  C   UNL     1      37.358 183.604 170.696  1.00  0.00     0.159 C 
ATOM      8  C   UNL     1      36.905 184.171 169.385  1.00  0.00     0.093 C 
ATOM      9  O   UNL     1      36.621 182.757 171.270  1.00  0.00    -0.295 OA
ENDBRANCH   1   7
TORSDOF 1
ENDMDL
