MODEL 1
REMARK VINA RESULT:    -2.483      0.000      0.000
REMARK INTER + INTRA:          -3.152
REMARK INTER:                  -2.919
REMARK INTRA:                  -0.233
REMARK UNBOUND:                -0.233
REMARK SMILES [NH3+][C@@H](CO)C(=O)[O-]
REMARK SMILES IDX 3 1 2 2 1 3 5 7 6 8 7 9 4 10
REMARK H PARENT 1 4 1 5 1 6 4 11
REMARK Flexibility Score: inf
ROOT
ATOM      1  C   UNL     1     -35.629  55.699 -42.085  1.00  0.00     0.227 C 
ENDROOT
BRANCH   1   2
ATOM      2  C   UNL     1     -36.295  54.861 -43.187  1.00  0.00     0.253 C 
BRANCH   2   3
ATOM      3  N   UNL     1     -35.495  53.672 -43.503  1.00  0.00    -0.348 N 
ATOM      4  H   UNL     1     -35.634  52.941 -42.766  1.00  0.00     0.345 HD
ATOM      5  H   UNL     1     -34.478  53.912 -43.558  1.00  0.00     0.345 HD
ATOM      6  H   UNL     1     -35.803  53.270 -44.419  1.00  0.00     0.345 HD
ENDBRANCH   2   3
BRANCH   2   7
ATOM      7  C   UNL     1     -36.492  55.699 -44.422  1.00  0.00     0.102 C 
ATOM      8  O   UNL     1     -36.411  55.173 -45.564  1.00  0.00    -0.544 OA
ATOM      9  O   UNL     1     -36.777  57.054 -44.311  1.00  0.00    -0.544 OA
ENDBRANCH   2   7
ENDBRANCH   1   2
BRANCH   1  10
ATOM     10  O   UNL     1     -34.416  56.223 -42.549  1.00  0.00    -0.390 OA
ATOM     11  H   UNL     1     -34.655  56.962 -43.169  1.00  0.00     0.210 HD
ENDBRANCH   1  10
TORSDOF 4
ENDMDL
MODEL 2
REMARK VINA RESULT:    -2.336     11.843     12.321
REMARK INTER + INTRA:          -2.979
REMARK INTER:                  -2.582
REMARK INTRA:                  -0.397
REMARK UNBOUND:                -0.233
REMARK SMILES [NH3+][C@@H](CO)C(=O)[O-]
REMARK SMILES IDX 3 1 2 2 1 3 5 7 6 8 7 9 4 10
REMARK H PARENT 1 4 1 5 1 6 4 11
REMARK Flexibility Score: inf
ROOT
ATOM      1  C   UNL     1     -27.723  56.491 -52.489  1.00  0.00     0.227 C 
ENDROOT
BRANCH   1   2
ATOM      2  C   UNL     1     -26.662  57.544 -52.134  1.00  0.00     0.253 C 
BRANCH   2   3
ATOM      3  N   UNL     1     -25.810  57.086 -51.031  1.00  0.00    -0.348 N 
ATOM      4  H   UNL     1     -25.072  57.799 -50.830  1.00  0.00     0.345 HD
ATOM      5  H   UNL     1     -25.350  56.177 -51.270  1.00  0.00     0.345 HD
ATOM      6  H   UNL     1     -26.385  56.962 -50.166  1.00  0.00     0.345 HD
ENDBRANCH   2   3
BRANCH   2   7
ATOM      7  C   UNL     1     -27.330  58.844 -51.771  1.00  0.00     0.102 C 
ATOM      8  O   UNL     1     -27.392  59.209 -50.567  1.00  0.00    -0.544 OA
ATOM      9  O   UNL     1     -27.869  59.656 -52.761  1.00  0.00    -0.544 OA
ENDBRANCH   2   7
ENDBRANCH   1   2
BRANCH   1  10
ATOM     10  O   UNL     1     -28.991  56.938 -52.094  1.00  0.00    -0.390 OA
ATOM     11  H   UNL     1     -29.494  57.112 -52.933  1.00  0.00     0.210 HD
ENDBRANCH   1  10
TORSDOF 4
ENDMDL
MODEL 3
REMARK VINA RESULT:    -2.333     11.794     12.183
REMARK INTER + INTRA:          -2.975
REMARK INTER:                  -2.560
REMARK INTRA:                  -0.415
REMARK UNBOUND:                -0.233
REMARK SMILES [NH3+][C@@H](CO)C(=O)[O-]
REMARK SMILES IDX 3 1 2 2 1 3 5 7 6 8 7 9 4 10
REMARK H PARENT 1 4 1 5 1 6 4 11
REMARK Flexibility Score: inf
ROOT
ATOM      1  C   UNL     1     -27.717  59.517 -51.717  1.00  0.00     0.227 C 
ENDROOT
BRANCH   1   2
ATOM      2  C   UNL     1     -28.268  58.671 -52.875  1.00  0.00     0.253 C 
BRANCH   2   3
ATOM      3  N   UNL     1     -29.708  58.888 -53.050  1.00  0.00    -0.348 N 
ATOM      4  H   UNL     1     -29.980  58.701 -54.043  1.00  0.00     0.345 HD
ATOM      5  H   UNL     1     -29.968  59.871 -52.803  1.00  0.00     0.345 HD
ATOM      6  H   UNL     1     -30.243  58.228 -52.438  1.00  0.00     0.345 HD
ENDBRANCH   2   3
BRANCH   2   7
ATOM      7  C   UNL     1     -27.988  57.212 -52.624  1.00  0.00     0.102 C 
ATOM      8  O   UNL     1     -28.861  56.484 -52.082  1.00  0.00    -0.544 OA
ATOM      9  O   UNL     1     -26.771  56.657 -53.000  1.00  0.00    -0.544 OA
ENDBRANCH   2   7
ENDBRANCH   1   2
BRANCH   1  10
ATOM     10  O   UNL     1     -27.169  58.684 -50.733  1.00  0.00    -0.390 OA
ATOM     11  H   UNL     1     -27.695  57.841 -50.763  1.00  0.00     0.210 HD
ENDBRANCH   1  10
TORSDOF 4
ENDMDL
MODEL 4
REMARK VINA RESULT:    -2.332     10.010     10.381
REMARK INTER + INTRA:          -2.974
REMARK INTER:                  -2.565
REMARK INTRA:                  -0.409
REMARK UNBOUND:                -0.233
REMARK SMILES [NH3+][C@@H](CO)C(=O)[O-]
REMARK SMILES IDX 3 1 2 2 1 3 5 7 6 8 7 9 4 10
REMARK H PARENT 1 4 1 5 1 6 4 11
REMARK Flexibility Score: inf
ROOT
ATOM      1  C   UNL     1     -30.573  65.683 -43.834  1.00  0.00     0.227 C 
ENDROOT
BRANCH   1   2
ATOM      2  C   UNL     1     -32.089  65.575 -44.060  1.00  0.00     0.253 C 
BRANCH   2   3
ATOM      3  N   UNL     1     -32.819  66.512 -43.199  1.00  0.00    -0.348 N 
ATOM      4  H   UNL     1     -33.381  67.172 -43.786  1.00  0.00     0.345 HD
ATOM      5  H   UNL     1     -32.158  67.062 -42.604  1.00  0.00     0.345 HD
ATOM      6  H   UNL     1     -33.480  65.986 -42.582  1.00  0.00     0.345 HD
ENDBRANCH   2   3
BRANCH   2   7
ATOM      7  C   UNL     1     -32.548  64.164 -43.800  1.00  0.00     0.102 C 
ATOM      8  O   UNL     1     -32.784  63.388 -44.764  1.00  0.00    -0.544 OA
ATOM      9  O   UNL     1     -32.701  63.705 -42.498  1.00  0.00    -0.544 OA
ENDBRANCH   2   7
ENDBRANCH   1   2
BRANCH   1  10
ATOM     10  O   UNL     1     -30.015  64.404 -43.714  1.00  0.00    -0.390 OA
ATOM     11  H   UNL     1     -30.733  63.824 -43.346  1.00  0.00     0.210 HD
ENDBRANCH   1  10
TORSDOF 4
ENDMDL
MODEL 5
REMARK VINA RESULT:    -2.309      8.945      9.510
REMARK INTER + INTRA:          -2.946
REMARK INTER:                  -2.551
REMARK INTRA:                  -0.396
REMARK UNBOUND:                -0.233
REMARK SMILES [NH3+][C@@H](CO)C(=O)[O-]
REMARK SMILES IDX 3 1 2 2 1 3 5 7 6 8 7 9 4 10
REMARK H PARENT 1 4 1 5 1 6 4 11
REMARK Flexibility Score: inf
ROOT
ATOM      1  C   UNL     1     -35.485  64.261 -44.609  1.00  0.00     0.227 C 
ENDROOT
BRANCH   1   2
ATOM      2  C   UNL     1     -34.361  64.998 -43.865  1.00  0.00     0.253 C 
BRANCH   2   3
ATOM      3  N   UNL     1     -33.883  66.152 -44.636  1.00  0.00    -0.348 N 
ATOM      4  H   UNL     1     -33.357  65.824 -45.479  1.00  0.00     0.345 HD
ATOM      5  H   UNL     1     -33.257  66.754 -44.054  1.00  0.00     0.345 HD
ATOM      6  H   UNL     1     -34.698  66.720 -44.965  1.00  0.00     0.345 HD
ENDBRANCH   2   3
BRANCH   2   7
ATOM      7  C   UNL     1     -33.224  64.052 -43.585  1.00  0.00     0.102 C 
ATOM      8  O   UNL     1     -33.089  63.546 -42.439  1.00  0.00    -0.544 OA
ATOM      9  O   UNL     1     -32.323  63.721 -44.590  1.00  0.00    -0.544 OA
ENDBRANCH   2   7
ENDBRANCH   1   2
BRANCH   1  10
ATOM     10  O   UNL     1     -35.134  62.919 -44.798  1.00  0.00    -0.390 OA
ATOM     11  H   UNL     1     -35.860  62.519 -45.346  1.00  0.00     0.210 HD
ENDBRANCH   1  10
TORSDOF 4
ENDMDL
MODEL 6
REMARK VINA RESULT:    -2.279      9.979     10.408
REMARK INTER + INTRA:          -2.912
REMARK INTER:                  -2.495
REMARK INTRA:                  -0.416
REMARK UNBOUND:                -0.233
REMARK SMILES [NH3+][C@@H](CO)C(=O)[O-]
REMARK SMILES IDX 3 1 2 2 1 3 5 7 6 8 7 9 4 10
REMARK H PARENT 1 4 1 5 1 6 4 11
REMARK Flexibility Score: inf
ROOT
ATOM      1  C   UNL     1     -29.976  64.616 -42.315  1.00  0.00     0.227 C 
ENDROOT
BRANCH   1   2
ATOM      2  C   UNL     1     -31.453  64.996 -42.502  1.00  0.00     0.253 C 
BRANCH   2   3
ATOM      3  N   UNL     1     -32.322  64.172 -41.655  1.00  0.00    -0.348 N 
ATOM      4  H   UNL     1     -31.751  63.459 -41.144  1.00  0.00     0.345 HD
ATOM      5  H   UNL     1     -33.045  63.682 -42.231  1.00  0.00     0.345 HD
ATOM      6  H   UNL     1     -32.800  64.774 -40.945  1.00  0.00     0.345 HD
ENDBRANCH   2   3
BRANCH   2   7
ATOM      7  C   UNL     1     -31.842  64.849 -43.949  1.00  0.00     0.102 C 
ATOM      8  O   UNL     1     -31.842  65.852 -44.710  1.00  0.00    -0.544 OA
ATOM      9  O   UNL     1     -32.192  63.604 -44.457  1.00  0.00    -0.544 OA
ENDBRANCH   2   7
ENDBRANCH   1   2
BRANCH   1  10
ATOM     10  O   UNL     1     -29.405  64.292 -43.552  1.00  0.00    -0.390 OA
ATOM     11  H   UNL     1     -30.146  64.322 -44.213  1.00  0.00     0.210 HD
ENDBRANCH   1  10
TORSDOF 4
ENDMDL
MODEL 7
REMARK VINA RESULT:    -2.274     10.111     10.757
REMARK INTER + INTRA:          -2.905
REMARK INTER:                  -2.554
REMARK INTRA:                  -0.351
REMARK UNBOUND:                -0.233
REMARK SMILES [NH3+][C@@H](CO)C(=O)[O-]
REMARK SMILES IDX 3 1 2 2 1 3 5 7 6 8 7 9 4 10
REMARK H PARENT 1 4 1 5 1 6 4 11
REMARK Flexibility Score: inf
ROOT
ATOM      1  C   UNL     1     -32.887  64.562 -44.186  1.00  0.00     0.227 C 
ENDROOT
BRANCH   1   2
ATOM      2  C   UNL     1     -31.793  65.460 -43.588  1.00  0.00     0.253 C 
BRANCH   2   3
ATOM      3  N   UNL     1     -31.263  66.389 -44.592  1.00  0.00    -0.348 N 
ATOM      4  H   UNL     1     -31.436  67.376 -44.291  1.00  0.00     0.345 HD
ATOM      5  H   UNL     1     -31.717  66.231 -45.521  1.00  0.00     0.345 HD
ATOM      6  H   UNL     1     -30.230  66.256 -44.688  1.00  0.00     0.345 HD
ENDBRANCH   2   3
BRANCH   2   7
ATOM      7  C   UNL     1     -30.683  64.611 -43.026  1.00  0.00     0.102 C 
ATOM      8  O   UNL     1     -30.814  64.060 -41.901  1.00  0.00    -0.544 OA
ATOM      9  O   UNL     1     -29.512  64.420 -43.749  1.00  0.00    -0.544 OA
ENDBRANCH   2   7
ENDBRANCH   1   2
BRANCH   1  10
ATOM     10  O   UNL     1     -32.326  63.363 -44.642  1.00  0.00    -0.390 OA
ATOM     11  H   UNL     1     -31.363  63.401 -44.401  1.00  0.00     0.210 HD
ENDBRANCH   1  10
TORSDOF 4
ENDMDL
MODEL 8
REMARK VINA RESULT:    -2.260      8.630      8.956
REMARK INTER + INTRA:          -2.890
REMARK INTER:                  -2.482
REMARK INTRA:                  -0.408
REMARK UNBOUND:                -0.233
REMARK SMILES [NH3+][C@@H](CO)C(=O)[O-]
REMARK SMILES IDX 3 1 2 2 1 3 5 7 6 8 7 9 4 10
REMARK H PARENT 1 4 1 5 1 6 4 11
REMARK Flexibility Score: inf
ROOT
ATOM      1  C   UNL     1     -34.449  63.593 -42.324  1.00  0.00     0.227 C 
ENDROOT
BRANCH   1   2
ATOM      2  C   UNL     1     -34.390  64.065 -43.784  1.00  0.00     0.253 C 
BRANCH   2   3
ATOM      3  N   UNL     1     -35.013  63.087 -44.682  1.00  0.00    -0.348 N 
ATOM      4  H   UNL     1     -35.523  63.581 -45.451  1.00  0.00     0.345 HD
ATOM      5  H   UNL     1     -35.687  62.480 -44.161  1.00  0.00     0.345 HD
ATOM      6  H   UNL     1     -34.276  62.485 -45.118  1.00  0.00     0.345 HD
ENDBRANCH   2   3
BRANCH   2   7
ATOM      7  C   UNL     1     -32.959  64.306 -44.188  1.00  0.00     0.102 C 
ATOM      8  O   UNL     1     -32.273  63.369 -44.678  1.00  0.00    -0.544 OA
ATOM      9  O   UNL     1     -32.390  65.564 -44.036  1.00  0.00    -0.544 OA
ENDBRANCH   2   7
ENDBRANCH   1   2
BRANCH   1  10
ATOM     10  O   UNL     1     -33.156  63.517 -41.792  1.00  0.00    -0.390 OA
ATOM     11  H   UNL     1     -32.605  63.048 -42.472  1.00  0.00     0.210 HD
ENDBRANCH   1  10
TORSDOF 4
ENDMDL
MODEL 9
REMARK VINA RESULT:    -2.210      9.944     10.314
REMARK INTER + INTRA:          -2.830
REMARK INTER:                  -2.411
REMARK INTRA:                  -0.420
REMARK UNBOUND:                -0.233
REMARK SMILES [NH3+][C@@H](CO)C(=O)[O-]
REMARK SMILES IDX 3 1 2 2 1 3 5 7 6 8 7 9 4 10
REMARK H PARENT 1 4 1 5 1 6 4 11
REMARK Flexibility Score: inf
ROOT
ATOM      1  C   UNL     1     -32.661  65.134 -41.589  1.00  0.00     0.227 C 
ENDROOT
BRANCH   1   2
ATOM      2  C   UNL     1     -32.221  65.654 -42.966  1.00  0.00     0.253 C 
BRANCH   2   3
ATOM      3  N   UNL     1     -33.346  66.261 -43.687  1.00  0.00    -0.348 N 
ATOM      4  H   UNL     1     -34.229  66.134 -43.141  1.00  0.00     0.345 HD
ATOM      5  H   UNL     1     -33.461  65.824 -44.630  1.00  0.00     0.345 HD
ATOM      6  H   UNL     1     -33.180  67.288 -43.802  1.00  0.00     0.345 HD
ENDBRANCH   2   3
BRANCH   2   7
ATOM      7  C   UNL     1     -31.630  64.529 -43.775  1.00  0.00     0.102 C 
ATOM      8  O   UNL     1     -30.388  64.321 -43.757  1.00  0.00    -0.544 OA
ATOM      9  O   UNL     1     -32.451  63.707 -44.536  1.00  0.00    -0.544 OA
ENDBRANCH   2   7
ENDBRANCH   1   2
BRANCH   1  10
ATOM     10  O   UNL     1     -32.392  63.763 -41.487  1.00  0.00    -0.390 OA
ATOM     11  H   UNL     1     -32.867  63.332 -42.245  1.00  0.00     0.210 HD
ENDBRANCH   1  10
TORSDOF 4
ENDMDL
