MODEL 1
REMARK VINA RESULT:    -1.697      0.000      0.000
REMARK INTER + INTRA:          -2.476
REMARK INTER:                  -2.243
REMARK INTRA:                  -0.232
REMARK UNBOUND:                -0.232
REMARK SMILES CCCCCCCO
REMARK SMILES IDX 5 1 4 2 3 3 2 4 1 5 6 6 7 7 8 8
REMARK H PARENT 8 9
REMARK Flexibility Score: inf
ROOT
ATOM      1  C   UNL     1     125.753 109.736 135.764  1.00  0.00     0.002 C 
ENDROOT
BRANCH   1   2
ATOM      2  C   UNL     1     126.220 108.552 134.891  1.00  0.00     0.000 C 
BRANCH   2   3
ATOM      3  C   UNL     1     127.123 109.003 133.733  1.00  0.00    -0.000 C 
BRANCH   3   4
ATOM      4  C   UNL     1     127.123 110.529 133.597  1.00  0.00    -0.003 C 
ATOM      5  C   UNL     1     126.661 110.959 132.209  1.00  0.00     0.004 C 
ENDBRANCH   3   4
ENDBRANCH   2   3
ENDBRANCH   1   2
BRANCH   1   6
ATOM      6  C   UNL     1     126.004 109.530 137.269  1.00  0.00     0.028 C 
BRANCH   6   7
ATOM      7  C   UNL     1     126.587 110.758 137.973  1.00  0.00     0.156 C 
BRANCH   7   8
ATOM      8  O   UNL     1     127.109 111.656 137.034  1.00  0.00    -0.396 OA
ATOM      9  H   UNL     1     127.905 112.068 137.459  1.00  0.00     0.210 HD
ENDBRANCH   7   8
ENDBRANCH   6   7
ENDBRANCH   1   6
TORSDOF 6
ENDMDL
MODEL 2
REMARK VINA RESULT:    -1.645      1.462      2.333
REMARK INTER + INTRA:          -2.407
REMARK INTER:                  -2.270
REMARK INTRA:                  -0.137
REMARK UNBOUND:                -0.232
REMARK SMILES CCCCCCCO
REMARK SMILES IDX 5 1 4 2 3 3 2 4 1 5 6 6 7 7 8 8
REMARK H PARENT 8 9
REMARK Flexibility Score: inf
ROOT
ATOM      1  C   UNL     1     126.308 111.923 135.526  1.00  0.00     0.002 C 
ENDROOT
BRANCH   1   2
ATOM      2  C   UNL     1     126.368 110.420 135.185  1.00  0.00     0.000 C 
BRANCH   2   3
ATOM      3  C   UNL     1     126.730 110.171 133.712  1.00  0.00    -0.000 C 
BRANCH   3   4
ATOM      4  C   UNL     1     127.121 108.707 133.482  1.00  0.00    -0.003 C 
ATOM      5  C   UNL     1     126.456 107.791 134.505  1.00  0.00     0.004 C 
ENDBRANCH   3   4
ENDBRANCH   2   3
ENDBRANCH   1   2
BRANCH   1   6
ATOM      6  C   UNL     1     127.104 112.302 136.788  1.00  0.00     0.028 C 
BRANCH   6   7
ATOM      7  C   UNL     1     126.705 111.506 138.033  1.00  0.00     0.156 C 
BRANCH   7   8
ATOM      8  O   UNL     1     125.412 111.855 138.442  1.00  0.00    -0.396 OA
ATOM      9  H   UNL     1     125.084 112.518 137.781  1.00  0.00     0.210 HD
ENDBRANCH   7   8
ENDBRANCH   6   7
ENDBRANCH   1   6
TORSDOF 6
ENDMDL
MODEL 3
REMARK VINA RESULT:    -1.625      2.253      4.451
REMARK INTER + INTRA:          -2.380
REMARK INTER:                  -2.111
REMARK INTRA:                  -0.269
REMARK UNBOUND:                -0.232
REMARK SMILES CCCCCCCO
REMARK SMILES IDX 5 1 4 2 3 3 2 4 1 5 6 6 7 7 8 8
REMARK H PARENT 8 9
REMARK Flexibility Score: inf
ROOT
ATOM      1  C   UNL     1     126.800 107.824 133.949  1.00  0.00     0.002 C 
ENDROOT
BRANCH   1   2
ATOM      2  C   UNL     1     126.079 107.655 135.303  1.00  0.00     0.000 C 
BRANCH   2   3
ATOM      3  C   UNL     1     125.796 109.003 135.983  1.00  0.00    -0.000 C 
BRANCH   3   4
ATOM      4  C   UNL     1     125.898 108.882 137.508  1.00  0.00    -0.003 C 
ATOM      5  C   UNL     1     126.314 107.475 137.923  1.00  0.00     0.004 C 
ENDBRANCH   3   4
ENDBRANCH   2   3
ENDBRANCH   1   2
BRANCH   1   6
ATOM      6  C   UNL     1     127.124 109.288 133.600  1.00  0.00     0.028 C 
BRANCH   6   7
ATOM      7  C   UNL     1     126.419 109.794 132.339  1.00  0.00     0.156 C 
BRANCH   7   8
ATOM      8  O   UNL     1     125.060 109.461 132.374  1.00  0.00    -0.396 OA
ATOM      9  H   UNL     1     124.597 110.232 132.793  1.00  0.00     0.210 HD
ENDBRANCH   7   8
ENDBRANCH   6   7
ENDBRANCH   1   6
TORSDOF 6
ENDMDL
MODEL 4
REMARK VINA RESULT:    -1.534      1.832      1.933
REMARK INTER + INTRA:          -2.259
REMARK INTER:                  -2.084
REMARK INTRA:                  -0.175
REMARK UNBOUND:                -0.232
REMARK SMILES CCCCCCCO
REMARK SMILES IDX 5 1 4 2 3 3 2 4 1 5 6 6 7 7 8 8
REMARK H PARENT 8 9
REMARK Flexibility Score: inf
ROOT
ATOM      1  C   UNL     1     126.021 109.972 136.083  1.00  0.00     0.002 C 
ENDROOT
BRANCH   1   2
ATOM      2  C   UNL     1     125.999 108.527 135.542  1.00  0.00     0.000 C 
BRANCH   2   3
ATOM      3  C   UNL     1     126.696 108.405 134.179  1.00  0.00    -0.000 C 
BRANCH   3   4
ATOM      4  C   UNL     1     127.125 109.780 133.655  1.00  0.00    -0.003 C 
ATOM      5  C   UNL     1     127.055 109.836 132.132  1.00  0.00     0.004 C 
ENDBRANCH   3   4
ENDBRANCH   2   3
ENDBRANCH   1   2
BRANCH   1   6
ATOM      6  C   UNL     1     125.837 110.063 137.609  1.00  0.00     0.028 C 
BRANCH   6   7
ATOM      7  C   UNL     1     124.519 109.467 138.111  1.00  0.00     0.156 C 
BRANCH   7   8
ATOM      8  O   UNL     1     124.759 108.290 138.830  1.00  0.00    -0.396 OA
ATOM      9  H   UNL     1     125.722 108.085 138.711  1.00  0.00     0.210 HD
ENDBRANCH   7   8
ENDBRANCH   6   7
ENDBRANCH   1   6
TORSDOF 6
ENDMDL
MODEL 5
REMARK VINA RESULT:    -1.515      2.036      2.580
REMARK INTER + INTRA:          -2.234
REMARK INTER:                  -1.998
REMARK INTRA:                  -0.236
REMARK UNBOUND:                -0.232
REMARK SMILES CCCCCCCO
REMARK SMILES IDX 5 1 4 2 3 3 2 4 1 5 6 6 7 7 8 8
REMARK H PARENT 8 9
REMARK Flexibility Score: inf
ROOT
ATOM      1  C   UNL     1     125.750 108.510 134.739  1.00  0.00     0.002 C 
ENDROOT
BRANCH   1   2
ATOM      2  C   UNL     1     126.904 108.954 133.816  1.00  0.00     0.000 C 
BRANCH   2   3
ATOM      3  C   UNL     1     127.125 110.474 133.849  1.00  0.00    -0.000 C 
BRANCH   3   4
ATOM      4  C   UNL     1     126.557 111.084 135.135  1.00  0.00    -0.003 C 
ATOM      5  C   UNL     1     125.721 112.324 134.835  1.00  0.00     0.004 C 
ENDBRANCH   3   4
ENDBRANCH   2   3
ENDBRANCH   1   2
BRANCH   1   6
ATOM      6  C   UNL     1     126.094 107.290 135.613  1.00  0.00     0.028 C 
BRANCH   6   7
ATOM      7  C   UNL     1     125.999 107.560 137.117  1.00  0.00     0.156 C 
BRANCH   7   8
ATOM      8  O   UNL     1     124.955 108.453 137.387  1.00  0.00    -0.396 OA
ATOM      9  H   UNL     1     125.369 109.354 137.437  1.00  0.00     0.210 HD
ENDBRANCH   7   8
ENDBRANCH   6   7
ENDBRANCH   1   6
TORSDOF 6
ENDMDL
MODEL 6
REMARK VINA RESULT:    -1.509      2.434      4.276
REMARK INTER + INTRA:          -2.226
REMARK INTER:                  -1.919
REMARK INTRA:                  -0.307
REMARK UNBOUND:                -0.232
REMARK SMILES CCCCCCCO
REMARK SMILES IDX 5 1 4 2 3 3 2 4 1 5 6 6 7 7 8 8
REMARK H PARENT 8 9
REMARK Flexibility Score: inf
ROOT
ATOM      1  C   UNL     1     125.981 109.965 134.206  1.00  0.00     0.002 C 
ENDROOT
BRANCH   1   2
ATOM      2  C   UNL     1     126.467 111.076 135.159  1.00  0.00     0.000 C 
BRANCH   2   3
ATOM      3  C   UNL     1     126.406 110.647 136.634  1.00  0.00    -0.000 C 
BRANCH   3   4
ATOM      4  C   UNL     1     125.384 109.524 136.838  1.00  0.00    -0.003 C 
ATOM      5  C   UNL     1     126.013 108.327 137.544  1.00  0.00     0.004 C 
ENDBRANCH   3   4
ENDBRANCH   2   3
ENDBRANCH   1   2
BRANCH   1   6
ATOM      6  C   UNL     1     127.115 109.067 133.676  1.00  0.00     0.028 C 
BRANCH   6   7
ATOM      7  C   UNL     1     126.858 107.570 133.864  1.00  0.00     0.156 C 
BRANCH   7   8
ATOM      8  O   UNL     1     125.523 107.264 133.573  1.00  0.00    -0.396 OA
ATOM      9  H   UNL     1     125.540 106.712 132.748  1.00  0.00     0.210 HD
ENDBRANCH   7   8
ENDBRANCH   6   7
ENDBRANCH   1   6
TORSDOF 6
ENDMDL
MODEL 7
REMARK VINA RESULT:    -1.469      2.512      4.314
REMARK INTER + INTRA:          -2.173
REMARK INTER:                  -1.944
REMARK INTRA:                  -0.230
REMARK UNBOUND:                -0.232
REMARK SMILES CCCCCCCO
REMARK SMILES IDX 5 1 4 2 3 3 2 4 1 5 6 6 7 7 8 8
REMARK H PARENT 8 9
REMARK Flexibility Score: inf
ROOT
ATOM      1  C   UNL     1     127.124 108.678 133.408  1.00  0.00     0.002 C 
ENDROOT
BRANCH   1   2
ATOM      2  C   UNL     1     126.335 108.142 134.621  1.00  0.00     0.000 C 
BRANCH   2   3
ATOM      3  C   UNL     1     126.007 109.247 135.637  1.00  0.00    -0.000 C 
BRANCH   3   4
ATOM      4  C   UNL     1     126.375 110.629 135.086  1.00  0.00    -0.003 C 
ATOM      5  C   UNL     1     126.520 111.651 136.209  1.00  0.00     0.004 C 
ENDBRANCH   3   4
ENDBRANCH   2   3
ENDBRANCH   1   2
BRANCH   1   6
ATOM      6  C   UNL     1     126.813 107.940 132.094  1.00  0.00     0.028 C 
BRANCH   6   7
ATOM      7  C   UNL     1     126.097 108.804 131.053  1.00  0.00     0.156 C 
BRANCH   7   8
ATOM      8  O   UNL     1     125.827 110.074 131.576  1.00  0.00    -0.396 OA
ATOM      9  H   UNL     1     125.000 110.388 131.126  1.00  0.00     0.210 HD
ENDBRANCH   7   8
ENDBRANCH   6   7
ENDBRANCH   1   6
TORSDOF 6
ENDMDL
MODEL 8
REMARK VINA RESULT:    -1.450      2.176      2.592
REMARK INTER + INTRA:          -2.149
REMARK INTER:                  -1.786
REMARK INTRA:                  -0.363
REMARK UNBOUND:                -0.232
REMARK SMILES CCCCCCCO
REMARK SMILES IDX 5 1 4 2 3 3 2 4 1 5 6 6 7 7 8 8
REMARK H PARENT 8 9
REMARK Flexibility Score: inf
ROOT
ATOM      1  C   UNL     1     126.004 108.643 135.396  1.00  0.00     0.002 C 
ENDROOT
BRANCH   1   2
ATOM      2  C   UNL     1     126.712 108.168 134.110  1.00  0.00     0.000 C 
BRANCH   2   3
ATOM      3  C   UNL     1     127.115 109.339 133.200  1.00  0.00    -0.000 C 
BRANCH   3   4
ATOM      4  C   UNL     1     127.002 110.676 133.941  1.00  0.00    -0.003 C 
ATOM      5  C   UNL     1     126.431 111.762 133.035  1.00  0.00     0.004 C 
ENDBRANCH   3   4
ENDBRANCH   2   3
ENDBRANCH   1   2
BRANCH   1   6
ATOM      6  C   UNL     1     124.522 108.233 135.473  1.00  0.00     0.028 C 
BRANCH   6   7
ATOM      7  C   UNL     1     123.614 109.014 134.519  1.00  0.00     0.156 C 
BRANCH   7   8
ATOM      8  O   UNL     1     123.645 110.380 134.826  1.00  0.00    -0.396 OA
ATOM      9  H   UNL     1     122.716 110.710 134.706  1.00  0.00     0.210 HD
ENDBRANCH   7   8
ENDBRANCH   6   7
ENDBRANCH   1   6
TORSDOF 6
ENDMDL
