MODEL 1
REMARK VINA RESULT:    -6.841      0.000      0.000
REMARK INTER + INTRA:         -10.707
REMARK INTER:                 -10.641
REMARK INTRA:                  -0.066
REMARK UNBOUND:                -0.066
REMARK SMILES C[C@]12C[C@@]3(O)O[C@@H](O1)[C@]1(COC(=O)c4ccccc4)[C@H]3C[C@@]12O[C@@H]1O[C@H](CO)[C@@H](O)[C@H](O)[C@H]1O
REMARK SMILES IDX 1 1 2 2 3 3 4 4 20 5 21 6 22 7 9 8 7 9 8 10 6 11 23 12 24 13
REMARK SMILES IDX 33 14 25 15 31 16 26 17 29 18 34 19 32 21 27 23 28 24 30 26
REMARK SMILES IDX 5 28 10 30 11 31 12 32 13 33 14 34 15 35 19 36 16 37 18 38
REMARK SMILES IDX 17 39
REMARK H PARENT 34 20 32 22 28 25 30 27 5 29
REMARK Flexibility Score: inf
ROOT
ATOM      1  C   UNL     1     -31.474  12.936  54.741  1.00  0.00     0.046 C 
ATOM      2  C   UNL     1     -31.730  13.675  56.327  1.00  0.00     0.104 C 
ATOM      3  C   UNL     1     -31.600  14.718  55.913  1.00  0.00     0.104 C 
ATOM      4  C   UNL     1     -33.478  14.022  55.777  1.00  0.00     0.175 C 
ATOM      5  C   UNL     1     -34.179  14.854  56.794  1.00  0.00     0.070 C 
ATOM      6  C   UNL     1     -33.567  16.117  56.713  1.00  0.00     0.050 C 
ATOM      7  C   UNL     1     -32.355  15.312  57.316  1.00  0.00     0.115 C 
ATOM      8  C   UNL     1     -33.361  14.470  58.050  1.00  0.00     0.096 C 
ATOM      9  C   UNL     1     -33.003  12.946  57.746  1.00  0.00     0.267 C 
ATOM     10  O   UNL     1     -31.631  12.775  57.389  1.00  0.00    -0.342 OA
ATOM     11  O   UNL     1     -33.768  12.741  56.455  1.00  0.00    -0.320 OA
ENDROOT
BRANCH   7  12
ATOM     12  O   UNL     1     -31.502  16.304  58.013  1.00  0.00    -0.339 OA
BRANCH  12  13
ATOM     13  C   UNL     1     -30.327  16.909  57.351  1.00  0.00     0.282 C 
ATOM     14  C   UNL     1     -30.637  18.168  56.439  1.00  0.00     0.202 C 
ATOM     15  O   UNL     1     -29.418  17.219  58.354  1.00  0.00    -0.341 OA
ATOM     16  C   UNL     1     -30.133  19.502  57.086  1.00  0.00     0.179 C 
ATOM     17  C   UNL     1     -28.288  17.898  57.747  1.00  0.00     0.178 C 
ATOM     18  C   UNL     1     -28.696  19.393  57.668  1.00  0.00     0.177 C 
BRANCH  14  19
ATOM     19  O   UNL     1     -29.992  18.045  55.146  1.00  0.00    -0.385 OA
ATOM     20  H   UNL     1     -30.327  18.744  54.510  1.00  0.00     0.211 HD
ENDBRANCH  14  19
BRANCH  16  21
ATOM     21  O   UNL     1     -30.951  19.795  58.164  1.00  0.00    -0.387 OA
ATOM     22  H   UNL     1     -31.338  20.683  58.003  1.00  0.00     0.211 HD
ENDBRANCH  16  21
BRANCH  17  23
ATOM     23  C   UNL     1     -27.070  17.762  58.620  1.00  0.00     0.191 C 
BRANCH  23  24
ATOM     24  O   UNL     1     -27.105  18.730  59.662  1.00  0.00    -0.394 OA
ATOM     25  H   UNL     1     -26.233  18.630  60.178  1.00  0.00     0.210 HD
ENDBRANCH  23  24
ENDBRANCH  17  23
BRANCH  18  26
ATOM     26  O   UNL     1     -27.691  20.122  56.931  1.00  0.00    -0.387 OA
ATOM     27  H   UNL     1     -26.757  19.698  57.159  1.00  0.00     0.211 HD
ENDBRANCH  18  26
ENDBRANCH  12  13
ENDBRANCH   7  12
BRANCH   4  28
ATOM     28  O   UNL     1     -34.097  14.109  54.609  1.00  0.00    -0.365 OA
ATOM     29  H   UNL     1     -33.390  13.922  53.960  1.00  0.00     0.214 HD
ENDBRANCH   4  28
BRANCH   8  30
ATOM     30  C   UNL     1     -33.481  14.956  59.474  1.00  0.00     0.249 C 
BRANCH  30  31
ATOM     31  O   UNL     1     -34.900  15.033  59.840  1.00  0.00    -0.461 OA
BRANCH  31  32
ATOM     32  C   UNL     1     -35.673  13.944  60.070  1.00  0.00     0.338 C 
ATOM     33  O   UNL     1     -35.760  13.493  61.237  1.00  0.00    -0.246 OA
BRANCH  32  34
ATOM     34  C   UNL     1     -36.202  13.210  58.923  1.00  0.00     0.060 A 
ATOM     35  C   UNL     1     -36.106  11.817  58.852  1.00  0.00     0.015 A 
ATOM     36  C   UNL     1     -36.742  13.853  57.841  1.00  0.00     0.015 A 
ATOM     37  C   UNL     1     -36.592  11.105  57.729  1.00  0.00     0.001 A 
ATOM     38  C   UNL     1     -37.125  13.151  56.719  1.00  0.00     0.001 A 
ATOM     39  C   UNL     1     -37.106  11.802  56.651  1.00  0.00     0.000 A 
ENDBRANCH  32  34
ENDBRANCH  31  32
ENDBRANCH  30  31
ENDBRANCH   8  30
TORSDOF 12
ENDMDL
MODEL 2
REMARK VINA RESULT:    -6.604      1.784      3.341
REMARK INTER + INTRA:         -10.339
REMARK INTER:                  -9.907
REMARK INTRA:                  -0.431
REMARK UNBOUND:                -0.066
REMARK SMILES C[C@]12C[C@@]3(O)O[C@@H](O1)[C@]1(COC(=O)c4ccccc4)[C@H]3C[C@@]12O[C@@H]1O[C@H](CO)[C@@H](O)[C@H](O)[C@H]1O
REMARK SMILES IDX 1 1 2 2 3 3 4 4 20 5 21 6 22 7 9 8 7 9 8 10 6 11 23 12 24 13
REMARK SMILES IDX 33 14 25 15 31 16 26 17 29 18 34 19 32 21 27 23 28 24 30 26
REMARK SMILES IDX 5 28 10 30 11 31 12 32 13 33 14 34 15 35 19 36 16 37 18 38
REMARK SMILES IDX 17 39
REMARK H PARENT 34 20 32 22 28 25 30 27 5 29
REMARK Flexibility Score: inf
ROOT
ATOM      1  C   UNL     1     -32.090  14.261  59.917  1.00  0.00     0.046 C 
ATOM      2  C   UNL     1     -32.767  15.162  58.554  1.00  0.00     0.104 C 
ATOM      3  C   UNL     1     -31.749  15.313  58.089  1.00  0.00     0.104 C 
ATOM      4  C   UNL     1     -32.629  13.586  57.567  1.00  0.00     0.175 C 
ATOM      5  C   UNL     1     -32.970  13.844  56.140  1.00  0.00     0.070 C 
ATOM      6  C   UNL     1     -31.904  14.618  55.648  1.00  0.00     0.050 C 
ATOM      7  C   UNL     1     -32.531  15.683  56.625  1.00  0.00     0.115 C 
ATOM      8  C   UNL     1     -33.875  15.087  56.312  1.00  0.00     0.096 C 
ATOM      9  C   UNL     1     -34.583  14.777  57.707  1.00  0.00     0.267 C 
ATOM     10  O   UNL     1     -34.077  15.596  58.762  1.00  0.00    -0.342 OA
ATOM     11  O   UNL     1     -34.032  13.395  57.989  1.00  0.00    -0.320 OA
ENDROOT
BRANCH   7  12
ATOM     12  O   UNL     1     -32.121  17.011  56.111  1.00  0.00    -0.339 OA
BRANCH  12  13
ATOM     13  C   UNL     1     -30.922  17.702  56.631  1.00  0.00     0.282 C 
ATOM     14  C   UNL     1     -29.665  17.694  55.666  1.00  0.00     0.202 C 
ATOM     15  O   UNL     1     -31.311  18.996  56.949  1.00  0.00    -0.341 OA
ATOM     16  C   UNL     1     -29.394  19.103  55.039  1.00  0.00     0.179 C 
ATOM     17  C   UNL     1     -30.135  19.730  57.378  1.00  0.00     0.178 C 
ATOM     18  C   UNL     1     -29.477  20.258  56.076  1.00  0.00     0.177 C 
BRANCH  14  19
ATOM     19  O   UNL     1     -28.464  17.302  56.378  1.00  0.00    -0.385 OA
ATOM     20  H   UNL     1     -27.757  18.009  56.308  1.00  0.00     0.211 HD
ENDBRANCH  14  19
BRANCH  16  21
ATOM     21  O   UNL     1     -30.391  19.362  54.114  1.00  0.00    -0.387 OA
ATOM     22  H   UNL     1     -30.923  18.542  54.020  1.00  0.00     0.211 HD
ENDBRANCH  16  21
BRANCH  17  23
ATOM     23  C   UNL     1     -30.537  20.896  58.239  1.00  0.00     0.191 C 
BRANCH  23  24
ATOM     24  O   UNL     1     -30.747  22.050  57.433  1.00  0.00    -0.394 OA
ATOM     25  H   UNL     1     -29.960  22.671  57.608  1.00  0.00     0.210 HD
ENDBRANCH  23  24
ENDBRANCH  17  23
BRANCH  18  26
ATOM     26  O   UNL     1     -28.209  20.869  56.399  1.00  0.00    -0.387 OA
ATOM     27  H   UNL     1     -27.570  20.112  56.750  1.00  0.00     0.211 HD
ENDBRANCH  18  26
ENDBRANCH  12  13
ENDBRANCH   7  12
BRANCH   4  28
ATOM     28  O   UNL     1     -31.929  12.467  57.675  1.00  0.00    -0.365 OA
ATOM     29  H   UNL     1     -31.434  12.423  56.832  1.00  0.00     0.214 HD
ENDBRANCH   4  28
BRANCH   8  30
ATOM     30  C   UNL     1     -34.572  15.933  55.274  1.00  0.00     0.249 C 
BRANCH  30  31
ATOM     31  O   UNL     1     -35.988  15.552  55.211  1.00  0.00    -0.461 OA
BRANCH  31  32
ATOM     32  C   UNL     1     -36.423  14.376  54.697  1.00  0.00     0.338 C 
ATOM     33  O   UNL     1     -36.955  14.367  53.562  1.00  0.00    -0.246 OA
BRANCH  32  34
ATOM     34  C   UNL     1     -36.449  13.202  55.566  1.00  0.00     0.060 A 
ATOM     35  C   UNL     1     -37.121  13.227  56.792  1.00  0.00     0.015 A 
ATOM     36  C   UNL     1     -35.757  12.061  55.258  1.00  0.00     0.015 A 
ATOM     37  C   UNL     1     -37.125  12.101  57.649  1.00  0.00     0.001 A 
ATOM     38  C   UNL     1     -35.696  11.010  56.146  1.00  0.00     0.001 A 
ATOM     39  C   UNL     1     -36.391  10.980  57.305  1.00  0.00     0.000 A 
ENDBRANCH  32  34
ENDBRANCH  31  32
ENDBRANCH  30  31
ENDBRANCH   8  30
TORSDOF 12
ENDMDL
MODEL 3
REMARK VINA RESULT:    -6.540      2.379      7.962
REMARK INTER + INTRA:         -10.239
REMARK INTER:                 -10.093
REMARK INTRA:                  -0.146
REMARK UNBOUND:                -0.066
REMARK SMILES C[C@]12C[C@@]3(O)O[C@@H](O1)[C@]1(COC(=O)c4ccccc4)[C@H]3C[C@@]12O[C@@H]1O[C@H](CO)[C@@H](O)[C@H](O)[C@H]1O
REMARK SMILES IDX 1 1 2 2 3 3 4 4 20 5 21 6 22 7 9 8 7 9 8 10 6 11 23 12 24 13
REMARK SMILES IDX 33 14 25 15 31 16 26 17 29 18 34 19 32 21 27 23 28 24 30 26
REMARK SMILES IDX 5 28 10 30 11 31 12 32 13 33 14 34 15 35 19 36 16 37 18 38
REMARK SMILES IDX 17 39
REMARK H PARENT 34 20 32 22 28 25 30 27 5 29
REMARK Flexibility Score: inf
ROOT
ATOM      1  C   UNL     1     -28.662  19.436  53.727  1.00  0.00     0.046 C 
ATOM      2  C   UNL     1     -28.983  19.070  55.427  1.00  0.00     0.104 C 
ATOM      3  C   UNL     1     -29.324  18.020  55.184  1.00  0.00     0.104 C 
ATOM      4  C   UNL     1     -27.341  18.185  55.448  1.00  0.00     0.175 C 
ATOM      5  C   UNL     1     -27.153  17.485  56.748  1.00  0.00     0.070 C 
ATOM      6  C   UNL     1     -28.080  16.427  56.726  1.00  0.00     0.050 C 
ATOM      7  C   UNL     1     -29.098  17.624  56.822  1.00  0.00     0.115 C 
ATOM      8  C   UNL     1     -28.070  18.351  57.643  1.00  0.00     0.096 C 
ATOM      9  C   UNL     1     -27.887  19.793  56.989  1.00  0.00     0.267 C 
ATOM     10  O   UNL     1     -29.037  20.199  56.245  1.00  0.00    -0.342 OA
ATOM     11  O   UNL     1     -26.837  19.484  55.942  1.00  0.00    -0.320 OA
ENDROOT
BRANCH   7  12
ATOM     12  O   UNL     1     -30.335  17.071  57.423  1.00  0.00    -0.339 OA
BRANCH  12  13
ATOM     13  C   UNL     1     -31.223  16.166  56.661  1.00  0.00     0.282 C 
ATOM     14  C   UNL     1     -31.192  14.648  57.113  1.00  0.00     0.202 C 
ATOM     15  O   UNL     1     -32.503  16.696  56.746  1.00  0.00    -0.341 OA
ATOM     16  C   UNL     1     -32.501  14.229  57.862  1.00  0.00     0.179 C 
ATOM     17  C   UNL     1     -33.417  15.783  56.084  1.00  0.00     0.178 C 
ATOM     18  C   UNL     1     -33.794  14.724  57.154  1.00  0.00     0.177 C 
BRANCH  14  19
ATOM     19  O   UNL     1     -31.048  13.767  55.971  1.00  0.00    -0.385 OA
ATOM     20  H   UNL     1     -31.440  12.864  56.161  1.00  0.00     0.211 HD
ENDBRANCH  14  19
BRANCH  16  21
ATOM     21  O   UNL     1     -32.501  14.837  59.105  1.00  0.00    -0.387 OA
ATOM     22  H   UNL     1     -33.426  15.109  59.297  1.00  0.00     0.211 HD
ENDBRANCH  16  21
BRANCH  17  23
ATOM     23  C   UNL     1     -34.658  16.514  55.651  1.00  0.00     0.191 C 
BRANCH  23  24
ATOM     24  O   UNL     1     -35.306  15.800  54.604  1.00  0.00    -0.394 OA
ATOM     25  H   UNL     1     -36.198  15.486  54.978  1.00  0.00     0.210 HD
ENDBRANCH  23  24
ENDBRANCH  17  23
BRANCH  18  26
ATOM     26  O   UNL     1     -34.579  13.682  56.536  1.00  0.00    -0.387 OA
ATOM     27  H   UNL     1     -33.912  12.993  56.105  1.00  0.00     0.211 HD
ENDBRANCH  18  26
ENDBRANCH  12  13
ENDBRANCH   7  12
BRANCH   4  28
ATOM     28  O   UNL     1     -26.540  17.667  54.529  1.00  0.00    -0.365 OA
ATOM     29  H   UNL     1     -26.736  18.194  53.729  1.00  0.00     0.214 HD
ENDBRANCH   4  28
BRANCH   8  30
ATOM     30  C   UNL     1     -28.408  18.216  59.108  1.00  0.00     0.249 C 
BRANCH  30  31
ATOM     31  O   UNL     1     -28.875  19.510  59.619  1.00  0.00    -0.461 OA
BRANCH  31  32
ATOM     32  C   UNL     1     -30.150  19.950  59.485  1.00  0.00     0.338 C 
ATOM     33  O   UNL     1     -31.072  19.111  59.345  1.00  0.00    -0.246 OA
BRANCH  32  34
ATOM     34  C   UNL     1     -30.379  21.380  59.296  1.00  0.00     0.060 A 
ATOM     35  C   UNL     1     -30.921  22.165  60.318  1.00  0.00     0.015 A 
ATOM     36  C   UNL     1     -30.148  21.994  58.094  1.00  0.00     0.015 A 
ATOM     37  C   UNL     1     -31.171  23.545  60.128  1.00  0.00     0.001 A 
ATOM     38  C   UNL     1     -30.484  23.316  57.900  1.00  0.00     0.001 A 
ATOM     39  C   UNL     1     -30.945  24.114  58.888  1.00  0.00     0.000 A 
ENDBRANCH  32  34
ENDBRANCH  31  32
ENDBRANCH  30  31
ENDBRANCH   8  30
TORSDOF 12
ENDMDL
MODEL 4
REMARK VINA RESULT:    -6.128      2.310      8.286
REMARK INTER + INTRA:          -9.598
REMARK INTER:                  -9.493
REMARK INTRA:                  -0.105
REMARK UNBOUND:                -0.066
REMARK SMILES C[C@]12C[C@@]3(O)O[C@@H](O1)[C@]1(COC(=O)c4ccccc4)[C@H]3C[C@@]12O[C@@H]1O[C@H](CO)[C@@H](O)[C@H](O)[C@H]1O
REMARK SMILES IDX 1 1 2 2 3 3 4 4 20 5 21 6 22 7 9 8 7 9 8 10 6 11 23 12 24 13
REMARK SMILES IDX 33 14 25 15 31 16 26 17 29 18 34 19 32 21 27 23 28 24 30 26
REMARK SMILES IDX 5 28 10 30 11 31 12 32 13 33 14 34 15 35 19 36 16 37 18 38
REMARK SMILES IDX 17 39
REMARK H PARENT 34 20 32 22 28 25 30 27 5 29
REMARK Flexibility Score: inf
ROOT
ATOM      1  C   UNL     1     -30.614  21.425  58.327  1.00  0.00     0.046 C 
ATOM      2  C   UNL     1     -29.895  20.020  57.528  1.00  0.00     0.104 C 
ATOM      3  C   UNL     1     -30.905  19.624  57.213  1.00  0.00     0.104 C 
ATOM      4  C   UNL     1     -30.114  20.942  55.921  1.00  0.00     0.175 C 
ATOM      5  C   UNL     1     -29.763  20.060  54.774  1.00  0.00     0.070 C 
ATOM      6  C   UNL     1     -30.789  19.099  54.728  1.00  0.00     0.050 C 
ATOM      7  C   UNL     1     -30.108  18.646  56.074  1.00  0.00     0.115 C 
ATOM      8  C   UNL     1     -28.796  19.084  55.485  1.00  0.00     0.096 C 
ATOM      9  C   UNL     1     -28.102  20.042  56.554  1.00  0.00     0.267 C 
ATOM     10  O   UNL     1     -28.564  19.793  57.882  1.00  0.00    -0.342 OA
ATOM     11  O   UNL     1     -28.721  21.370  56.170  1.00  0.00    -0.320 OA
ENDROOT
BRANCH   7  12
ATOM     12  O   UNL     1     -30.450  17.215  56.252  1.00  0.00    -0.339 OA
BRANCH  12  13
ATOM     13  C   UNL     1     -31.798  16.795  56.691  1.00  0.00     0.282 C 
ATOM     14  C   UNL     1     -32.696  16.123  55.570  1.00  0.00     0.202 C 
ATOM     15  O   UNL     1     -31.621  15.948  57.776  1.00  0.00    -0.341 OA
ATOM     16  C   UNL     1     -32.863  14.583  55.795  1.00  0.00     0.179 C 
ATOM     17  C   UNL     1     -32.922  15.445  58.176  1.00  0.00     0.178 C 
ATOM     18  C   UNL     1     -33.186  14.213  57.270  1.00  0.00     0.177 C 
BRANCH  14  19
ATOM     19  O   UNL     1     -34.024  16.702  55.551  1.00  0.00    -0.385 OA
ATOM     20  H   UNL     1     -34.718  16.007  55.347  1.00  0.00     0.211 HD
ENDBRANCH  14  19
BRANCH  16  21
ATOM     21  O   UNL     1     -31.653  13.971  55.515  1.00  0.00    -0.387 OA
ATOM     22  H   UNL     1     -31.031  14.210  56.238  1.00  0.00     0.211 HD
ENDBRANCH  16  21
BRANCH  17  23
ATOM     23  C   UNL     1     -32.889  15.005  59.614  1.00  0.00     0.191 C 
BRANCH  23  24
ATOM     24  O   UNL     1     -34.198  14.654  60.048  1.00  0.00    -0.394 OA
ATOM     25  H   UNL     1     -34.540  15.439  60.597  1.00  0.00     0.210 HD
ENDBRANCH  23  24
ENDBRANCH  17  23
BRANCH  18  26
ATOM     26  O   UNL     1     -34.534  13.741  57.491  1.00  0.00    -0.387 OA
ATOM     27  H   UNL     1     -35.017  13.709  56.558  1.00  0.00     0.211 HD
ENDBRANCH  18  26
ENDBRANCH  12  13
ENDBRANCH   7  12
BRANCH   4  28
ATOM     28  O   UNL     1     -30.870  21.949  55.510  1.00  0.00    -0.365 OA
ATOM     29  H   UNL     1     -31.684  21.511  55.191  1.00  0.00     0.214 HD
ENDBRANCH   4  28
BRANCH   8  30
ATOM     30  C   UNL     1     -28.059  17.882  54.946  1.00  0.00     0.249 C 
BRANCH  30  31
ATOM     31  O   UNL     1     -26.936  17.563  55.836  1.00  0.00    -0.461 OA
BRANCH  31  32
ATOM     32  C   UNL     1     -27.060  16.807  56.954  1.00  0.00     0.338 C 
ATOM     33  O   UNL     1     -27.996  15.975  57.025  1.00  0.00    -0.246 OA
BRANCH  32  34
ATOM     34  C   UNL     1     -26.236  17.134  58.114  1.00  0.00     0.060 A 
ATOM     35  C   UNL     1     -26.489  18.276  58.880  1.00  0.00     0.015 A 
ATOM     36  C   UNL     1     -25.140  16.387  58.454  1.00  0.00     0.015 A 
ATOM     37  C   UNL     1     -25.674  18.612  59.988  1.00  0.00     0.001 A 
ATOM     38  C   UNL     1     -24.305  16.780  59.478  1.00  0.00     0.001 A 
ATOM     39  C   UNL     1     -24.564  17.839  60.276  1.00  0.00     0.000 A 
ENDBRANCH  32  34
ENDBRANCH  31  32
ENDBRANCH  30  31
ENDBRANCH   8  30
TORSDOF 12
ENDMDL
MODEL 5
REMARK VINA RESULT:    -6.036      2.574      8.292
REMARK INTER + INTRA:          -9.455
REMARK INTER:                  -9.322
REMARK INTRA:                  -0.133
REMARK UNBOUND:                -0.066
REMARK SMILES C[C@]12C[C@@]3(O)O[C@@H](O1)[C@]1(COC(=O)c4ccccc4)[C@H]3C[C@@]12O[C@@H]1O[C@H](CO)[C@@H](O)[C@H](O)[C@H]1O
REMARK SMILES IDX 1 1 2 2 3 3 4 4 20 5 21 6 22 7 9 8 7 9 8 10 6 11 23 12 24 13
REMARK SMILES IDX 33 14 25 15 31 16 26 17 29 18 34 19 32 21 27 23 28 24 30 26
REMARK SMILES IDX 5 28 10 30 11 31 12 32 13 33 14 34 15 35 19 36 16 37 18 38
REMARK SMILES IDX 17 39
REMARK H PARENT 34 20 32 22 28 25 30 27 5 29
REMARK Flexibility Score: inf
ROOT
ATOM      1  C   UNL     1     -26.620  17.505  58.582  1.00  0.00     0.046 C 
ATOM      2  C   UNL     1     -28.023  18.172  57.736  1.00  0.00     0.104 C 
ATOM      3  C   UNL     1     -28.735  17.482  58.277  1.00  0.00     0.104 C 
ATOM      4  C   UNL     1     -28.346  19.184  59.269  1.00  0.00     0.175 C 
ATOM      5  C   UNL     1     -29.642  19.907  59.141  1.00  0.00     0.070 C 
ATOM      6  C   UNL     1     -30.625  18.903  59.214  1.00  0.00     0.050 C 
ATOM      7  C   UNL     1     -30.004  18.518  57.819  1.00  0.00     0.115 C 
ATOM      8  C   UNL     1     -29.745  19.982  57.599  1.00  0.00     0.096 C 
ATOM      9  C   UNL     1     -28.213  20.127  57.183  1.00  0.00     0.267 C 
ATOM     10  O   UNL     1     -27.694  18.927  56.609  1.00  0.00    -0.342 OA
ATOM     11  O   UNL     1     -27.568  20.215  58.550  1.00  0.00    -0.320 OA
ENDROOT
BRANCH   7  12
ATOM     12  O   UNL     1     -31.061  17.787  57.080  1.00  0.00    -0.339 OA
BRANCH  12  13
ATOM     13  C   UNL     1     -31.418  16.394  57.424  1.00  0.00     0.282 C 
ATOM     14  C   UNL     1     -32.779  16.220  58.218  1.00  0.00     0.202 C 
ATOM     15  O   UNL     1     -31.428  15.678  56.235  1.00  0.00    -0.341 OA
ATOM     16  C   UNL     1     -33.903  15.592  57.328  1.00  0.00     0.179 C 
ATOM     17  C   UNL     1     -31.863  14.324  56.525  1.00  0.00     0.178 C 
ATOM     18  C   UNL     1     -33.414  14.372  56.497  1.00  0.00     0.177 C 
BRANCH  14  19
ATOM     19  O   UNL     1     -32.604  15.354  59.367  1.00  0.00    -0.385 OA
ATOM     20  H   UNL     1     -33.001  15.764  60.191  1.00  0.00     0.211 HD
ENDBRANCH  14  19
BRANCH  16  21
ATOM     21  O   UNL     1     -34.300  16.539  56.400  1.00  0.00    -0.387 OA
ATOM     22  H   UNL     1     -35.188  16.861  56.673  1.00  0.00     0.211 HD
ENDBRANCH  16  21
BRANCH  17  23
ATOM     23  C   UNL     1     -31.378  13.382  55.457  1.00  0.00     0.191 C 
BRANCH  23  24
ATOM     24  O   UNL     1     -31.394  12.044  55.941  1.00  0.00    -0.394 OA
ATOM     25  H   UNL     1     -31.789  11.473  55.197  1.00  0.00     0.210 HD
ENDBRANCH  23  24
ENDBRANCH  17  23
BRANCH  18  26
ATOM     26  O   UNL     1     -33.937  13.098  56.933  1.00  0.00    -0.387 OA
ATOM     27  H   UNL     1     -33.252  12.689  57.617  1.00  0.00     0.211 HD
ENDBRANCH  18  26
ENDBRANCH  12  13
ENDBRANCH   7  12
BRANCH   4  28
ATOM     28  O   UNL     1     -27.992  19.102  60.542  1.00  0.00    -0.365 OA
ATOM     29  H   UNL     1     -27.367  19.845  60.656  1.00  0.00     0.214 HD
ENDBRANCH   4  28
BRANCH   8  30
ATOM     30  C   UNL     1     -30.832  20.560  56.725  1.00  0.00     0.249 C 
BRANCH  30  31
ATOM     31  O   UNL     1     -30.282  20.845  55.394  1.00  0.00    -0.461 OA
BRANCH  31  32
ATOM     32  C   UNL     1     -30.185  19.916  54.413  1.00  0.00     0.338 C 
ATOM     33  O   UNL     1     -30.978  18.944  54.413  1.00  0.00    -0.246 OA
BRANCH  32  34
ATOM     34  C   UNL     1     -29.032  19.964  53.517  1.00  0.00     0.060 A 
ATOM     35  C   UNL     1     -29.178  20.314  52.171  1.00  0.00     0.015 A 
ATOM     36  C   UNL     1     -27.780  19.597  53.933  1.00  0.00     0.015 A 
ATOM     37  C   UNL     1     -28.068  20.334  51.294  1.00  0.00     0.001 A 
ATOM     38  C   UNL     1     -26.729  19.534  53.043  1.00  0.00     0.001 A 
ATOM     39  C   UNL     1     -26.828  19.931  51.755  1.00  0.00     0.000 A 
ENDBRANCH  32  34
ENDBRANCH  31  32
ENDBRANCH  30  31
ENDBRANCH   8  30
TORSDOF 12
ENDMDL
MODEL 6
REMARK VINA RESULT:    -5.731      1.333      2.003
REMARK INTER + INTRA:          -8.981
REMARK INTER:                  -8.915
REMARK INTRA:                  -0.065
REMARK UNBOUND:                -0.066
REMARK SMILES C[C@]12C[C@@]3(O)O[C@@H](O1)[C@]1(COC(=O)c4ccccc4)[C@H]3C[C@@]12O[C@@H]1O[C@H](CO)[C@@H](O)[C@H](O)[C@H]1O
REMARK SMILES IDX 1 1 2 2 3 3 4 4 20 5 21 6 22 7 9 8 7 9 8 10 6 11 23 12 24 13
REMARK SMILES IDX 33 14 25 15 31 16 26 17 29 18 34 19 32 21 27 23 28 24 30 26
REMARK SMILES IDX 5 28 10 30 11 31 12 32 13 33 14 34 15 35 19 36 16 37 18 38
REMARK SMILES IDX 17 39
REMARK H PARENT 34 20 32 22 28 25 30 27 5 29
REMARK Flexibility Score: inf
ROOT
ATOM      1  C   UNL     1     -30.550  11.704  55.873  1.00  0.00     0.046 C 
ATOM      2  C   UNL     1     -31.161  13.237  56.510  1.00  0.00     0.104 C 
ATOM      3  C   UNL     1     -31.209  13.698  55.480  1.00  0.00     0.104 C 
ATOM      4  C   UNL     1     -32.858  12.670  55.983  1.00  0.00     0.175 C 
ATOM      5  C   UNL     1     -33.847  13.766  56.176  1.00  0.00     0.070 C 
ATOM      6  C   UNL     1     -33.518  14.725  55.201  1.00  0.00     0.050 C 
ATOM      7  C   UNL     1     -32.248  14.884  56.117  1.00  0.00     0.115 C 
ATOM      8  C   UNL     1     -33.131  14.566  57.291  1.00  0.00     0.096 C 
ATOM      9  C   UNL     1     -32.415  13.401  58.111  1.00  0.00     0.267 C 
ATOM     10  O   UNL     1     -31.005  13.374  57.890  1.00  0.00    -0.342 OA
ATOM     11  O   UNL     1     -32.947  12.187  57.377  1.00  0.00    -0.320 OA
ENDROOT
BRANCH   7  12
ATOM     12  O   UNL     1     -31.727  16.250  55.874  1.00  0.00    -0.339 OA
BRANCH  12  13
ATOM     13  C   UNL     1     -30.726  16.864  56.773  1.00  0.00     0.282 C 
ATOM     14  C   UNL     1     -29.219  16.719  56.307  1.00  0.00     0.202 C 
ATOM     15  O   UNL     1     -31.087  18.196  56.923  1.00  0.00    -0.341 OA
ATOM     16  C   UNL     1     -28.626  18.077  55.800  1.00  0.00     0.179 C 
ATOM     17  C   UNL     1     -30.073  18.852  57.729  1.00  0.00     0.178 C 
ATOM     18  C   UNL     1     -28.961  19.275  56.733  1.00  0.00     0.177 C 
BRANCH  14  19
ATOM     19  O   UNL     1     -28.378  16.262  57.396  1.00  0.00    -0.385 OA
ATOM     20  H   UNL     1     -27.686  15.614  57.070  1.00  0.00     0.211 HD
ENDBRANCH  14  19
BRANCH  16  21
ATOM     21  O   UNL     1     -29.213  18.377  54.583  1.00  0.00    -0.387 OA
ATOM     22  H   UNL     1     -28.532  18.824  54.033  1.00  0.00     0.211 HD
ENDBRANCH  16  21
BRANCH  17  23
ATOM     23  C   UNL     1     -30.644  20.079  58.385  1.00  0.00     0.191 C 
BRANCH  23  24
ATOM     24  O   UNL     1     -31.278  20.904  57.413  1.00  0.00    -0.394 OA
ATOM     25  H   UNL     1     -32.278  20.744  57.507  1.00  0.00     0.210 HD
ENDBRANCH  23  24
ENDBRANCH  17  23
BRANCH  18  26
ATOM     26  O   UNL     1     -27.835  19.796  57.471  1.00  0.00    -0.387 OA
ATOM     27  H   UNL     1     -27.016  19.844  56.814  1.00  0.00     0.211 HD
ENDBRANCH  18  26
ENDBRANCH  12  13
ENDBRANCH   7  12
BRANCH   4  28
ATOM     28  O   UNL     1     -33.327  11.777  55.125  1.00  0.00    -0.365 OA
ATOM     29  H   UNL     1     -33.304  12.246  54.268  1.00  0.00     0.214 HD
ENDBRANCH   4  28
BRANCH   8  30
ATOM     30  C   UNL     1     -33.535  15.847  57.980  1.00  0.00     0.249 C 
BRANCH  30  31
ATOM     31  O   UNL     1     -34.864  15.676  58.580  1.00  0.00    -0.461 OA
BRANCH  31  32
ATOM     32  C   UNL     1     -35.247  14.555  59.238  1.00  0.00     0.338 C 
ATOM     33  O   UNL     1     -34.853  14.374  60.415  1.00  0.00    -0.246 OA
BRANCH  32  34
ATOM     34  C   UNL     1     -35.925  13.502  58.486  1.00  0.00     0.060 A 
ATOM     35  C   UNL     1     -35.854  12.166  58.892  1.00  0.00     0.015 A 
ATOM     36  C   UNL     1     -36.591  13.764  57.318  1.00  0.00     0.015 A 
ATOM     37  C   UNL     1     -36.486  11.139  58.150  1.00  0.00     0.001 A 
ATOM     38  C   UNL     1     -37.121  12.741  56.562  1.00  0.00     0.001 A 
ATOM     39  C   UNL     1     -37.125  11.451  56.964  1.00  0.00     0.000 A 
ENDBRANCH  32  34
ENDBRANCH  31  32
ENDBRANCH  30  31
ENDBRANCH   8  30
TORSDOF 12
ENDMDL
MODEL 7
REMARK VINA RESULT:    -5.608      2.522      8.012
REMARK INTER + INTRA:          -8.790
REMARK INTER:                  -9.317
REMARK INTRA:                   0.527
REMARK UNBOUND:                -0.066
REMARK SMILES C[C@]12C[C@@]3(O)O[C@@H](O1)[C@]1(COC(=O)c4ccccc4)[C@H]3C[C@@]12O[C@@H]1O[C@H](CO)[C@@H](O)[C@H](O)[C@H]1O
REMARK SMILES IDX 1 1 2 2 3 3 4 4 20 5 21 6 22 7 9 8 7 9 8 10 6 11 23 12 24 13
REMARK SMILES IDX 33 14 25 15 31 16 26 17 29 18 34 19 32 21 27 23 28 24 30 26
REMARK SMILES IDX 5 28 10 30 11 31 12 32 13 33 14 34 15 35 19 36 16 37 18 38
REMARK SMILES IDX 17 39
REMARK H PARENT 34 20 32 22 28 25 30 27 5 29
REMARK Flexibility Score: inf
ROOT
ATOM      1  C   UNL     1     -27.588  19.309  53.355  1.00  0.00     0.046 C 
ATOM      2  C   UNL     1     -28.980  19.116  54.429  1.00  0.00     0.104 C 
ATOM      3  C   UNL     1     -28.930  17.989  54.367  1.00  0.00     0.104 C 
ATOM      4  C   UNL     1     -27.758  18.773  55.796  1.00  0.00     0.175 C 
ATOM      5  C   UNL     1     -28.476  18.358  57.032  1.00  0.00     0.070 C 
ATOM      6  C   UNL     1     -28.989  17.081  56.741  1.00  0.00     0.050 C 
ATOM      7  C   UNL     1     -29.895  17.922  55.765  1.00  0.00     0.115 C 
ATOM      8  C   UNL     1     -29.844  19.034  56.776  1.00  0.00     0.096 C 
ATOM      9  C   UNL     1     -29.408  20.353  55.995  1.00  0.00     0.267 C 
ATOM     10  O   UNL     1     -29.722  20.286  54.603  1.00  0.00    -0.342 OA
ATOM     11  O   UNL     1     -27.900  20.221  56.059  1.00  0.00    -0.320 OA
ENDROOT
BRANCH   7  12
ATOM     12  O   UNL     1     -31.121  17.119  55.541  1.00  0.00    -0.339 OA
BRANCH  12  13
ATOM     13  C   UNL     1     -31.466  15.980  56.417  1.00  0.00     0.282 C 
ATOM     14  C   UNL     1     -32.621  16.257  57.466  1.00  0.00     0.202 C 
ATOM     15  O   UNL     1     -31.781  14.915  55.584  1.00  0.00    -0.341 OA
ATOM     16  C   UNL     1     -33.949  15.518  57.090  1.00  0.00     0.179 C 
ATOM     17  C   UNL     1     -32.212  13.804  56.412  1.00  0.00     0.178 C 
ATOM     18  C   UNL     1     -33.725  14.039  56.667  1.00  0.00     0.177 C 
BRANCH  14  19
ATOM     19  O   UNL     1     -32.239  15.810  58.792  1.00  0.00    -0.385 OA
ATOM     20  H   UNL     1     -31.309  15.436  58.792  1.00  0.00     0.211 HD
ENDBRANCH  14  19
BRANCH  16  21
ATOM     21  O   UNL     1     -34.492  16.144  55.981  1.00  0.00    -0.387 OA
ATOM     22  H   UNL     1     -35.469  16.139  56.092  1.00  0.00     0.211 HD
ENDBRANCH  16  21
BRANCH  17  23
ATOM     23  C   UNL     1     -32.030  12.505  55.675  1.00  0.00     0.191 C 
BRANCH  23  24
ATOM     24  O   UNL     1     -30.677  12.365  55.257  1.00  0.00    -0.394 OA
ATOM     25  H   UNL     1     -30.148  12.086  56.080  1.00  0.00     0.210 HD
ENDBRANCH  23  24
ENDBRANCH  17  23
BRANCH  18  26
ATOM     26  O   UNL     1     -34.204  13.062  57.617  1.00  0.00    -0.387 OA
ATOM     27  H   UNL     1     -34.098  13.473  58.578  1.00  0.00     0.211 HD
ENDBRANCH  18  26
ENDBRANCH  12  13
ENDBRANCH   7  12
BRANCH   4  28
ATOM     28  O   UNL     1     -26.492  18.388  55.850  1.00  0.00    -0.365 OA
ATOM     29  H   UNL     1     -26.153  18.581  54.953  1.00  0.00     0.214 HD
ENDBRANCH   4  28
BRANCH   8  30
ATOM     30  C   UNL     1     -31.105  19.019  57.605  1.00  0.00     0.249 C 
BRANCH  30  31
ATOM     31  O   UNL     1     -30.765  19.288  59.007  1.00  0.00    -0.461 OA
BRANCH  31  32
ATOM     32  C   UNL     1     -29.906  20.262  59.394  1.00  0.00     0.338 C 
ATOM     33  O   UNL     1     -28.842  19.940  59.975  1.00  0.00    -0.246 OA
BRANCH  32  34
ATOM     34  C   UNL     1     -30.344  21.653  59.311  1.00  0.00     0.060 A 
ATOM     35  C   UNL     1     -29.980  22.460  58.229  1.00  0.00     0.015 A 
ATOM     36  C   UNL     1     -31.059  22.245  60.317  1.00  0.00     0.015 A 
ATOM     37  C   UNL     1     -30.379  23.817  58.159  1.00  0.00     0.001 A 
ATOM     38  C   UNL     1     -31.358  23.589  60.276  1.00  0.00     0.001 A 
ATOM     39  C   UNL     1     -31.079  24.376  59.213  1.00  0.00     0.000 A 
ENDBRANCH  32  34
ENDBRANCH  31  32
ENDBRANCH  30  31
ENDBRANCH   8  30
TORSDOF 12
ENDMDL
MODEL 8
REMARK VINA RESULT:    -4.887      2.328      7.968
REMARK INTER + INTRA:          -7.667
REMARK INTER:                  -8.973
REMARK INTRA:                   1.306
REMARK UNBOUND:                -0.066
REMARK SMILES C[C@]12C[C@@]3(O)O[C@@H](O1)[C@]1(COC(=O)c4ccccc4)[C@H]3C[C@@]12O[C@@H]1O[C@H](CO)[C@@H](O)[C@H](O)[C@H]1O
REMARK SMILES IDX 1 1 2 2 3 3 4 4 20 5 21 6 22 7 9 8 7 9 8 10 6 11 23 12 24 13
REMARK SMILES IDX 33 14 25 15 31 16 26 17 29 18 34 19 32 21 27 23 28 24 30 26
REMARK SMILES IDX 5 28 10 30 11 31 12 32 13 33 14 34 15 35 19 36 16 37 18 38
REMARK SMILES IDX 17 39
REMARK H PARENT 34 20 32 22 28 25 30 27 5 29
REMARK Flexibility Score: inf
ROOT
ATOM      1  C   UNL     1     -28.927  20.242  52.886  1.00  0.00     0.046 C 
ATOM      2  C   UNL     1     -29.790  19.811  54.369  1.00  0.00     0.104 C 
ATOM      3  C   UNL     1     -29.943  18.746  54.025  1.00  0.00     0.104 C 
ATOM      4  C   UNL     1     -28.194  19.050  54.963  1.00  0.00     0.175 C 
ATOM      5  C   UNL     1     -28.417  18.333  56.249  1.00  0.00     0.070 C 
ATOM      6  C   UNL     1     -29.193  17.211  55.908  1.00  0.00     0.050 C 
ATOM      7  C   UNL     1     -30.271  18.327  55.640  1.00  0.00     0.115 C 
ATOM      8  C   UNL     1     -29.652  19.108  56.766  1.00  0.00     0.096 C 
ATOM      9  C   UNL     1     -29.365  20.575  56.212  1.00  0.00     0.267 C 
ATOM     10  O   UNL     1     -30.212  20.913  55.114  1.00  0.00    -0.342 OA
ATOM     11  O   UNL     1     -27.995  20.369  55.598  1.00  0.00    -0.320 OA
ENDROOT
BRANCH   7  12
ATOM     12  O   UNL     1     -31.593  17.670  55.773  1.00  0.00    -0.339 OA
BRANCH  12  13
ATOM     13  C   UNL     1     -31.747  16.390  56.498  1.00  0.00     0.282 C 
ATOM     14  C   UNL     1     -32.941  16.341  57.539  1.00  0.00     0.202 C 
ATOM     15  O   UNL     1     -31.869  15.397  55.536  1.00  0.00    -0.341 OA
ATOM     16  C   UNL     1     -34.121  15.441  57.039  1.00  0.00     0.179 C 
ATOM     17  C   UNL     1     -32.113  14.137  56.213  1.00  0.00     0.178 C 
ATOM     18  C   UNL     1     -33.646  14.083  56.451  1.00  0.00     0.177 C 
BRANCH  14  19
ATOM     19  O   UNL     1     -32.500  15.806  58.812  1.00  0.00    -0.385 OA
ATOM     20  H   UNL     1     -32.647  14.815  58.857  1.00  0.00     0.211 HD
ENDBRANCH  14  19
BRANCH  16  21
ATOM     21  O   UNL     1     -34.753  16.098  55.997  1.00  0.00    -0.387 OA
ATOM     22  H   UNL     1     -34.081  16.247  55.296  1.00  0.00     0.211 HD
ENDBRANCH  16  21
BRANCH  17  23
ATOM     23  C   UNL     1     -31.707  12.987  55.333  1.00  0.00     0.191 C 
BRANCH  23  24
ATOM     24  O   UNL     1     -30.423  12.508  55.714  1.00  0.00    -0.394 OA
ATOM     25  H   UNL     1     -29.974  12.175  54.864  1.00  0.00     0.210 HD
ENDBRANCH  23  24
ENDBRANCH  17  23
BRANCH  18  26
ATOM     26  O   UNL     1     -33.961  12.932  57.264  1.00  0.00    -0.387 OA
ATOM     27  H   UNL     1     -33.663  12.075  56.733  1.00  0.00     0.211 HD
ENDBRANCH  18  26
ENDBRANCH  12  13
ENDBRANCH   7  12
BRANCH   4  28
ATOM     28  O   UNL     1     -27.086  18.614  54.382  1.00  0.00    -0.365 OA
ATOM     29  H   UNL     1     -26.373  19.031  54.905  1.00  0.00     0.214 HD
ENDBRANCH   4  28
BRANCH   8  30
ATOM     30  C   UNL     1     -30.466  18.912  58.021  1.00  0.00     0.249 C 
BRANCH  30  31
ATOM     31  O   UNL     1     -29.582  18.472  59.108  1.00  0.00    -0.461 OA
BRANCH  31  32
ATOM     32  C   UNL     1     -28.422  19.097  59.425  1.00  0.00     0.338 C 
ATOM     33  O   UNL     1     -28.440  20.327  59.671  1.00  0.00    -0.246 OA
BRANCH  32  34
ATOM     34  C   UNL     1     -27.168  18.366  59.262  1.00  0.00     0.060 A 
ATOM     35  C   UNL     1     -27.059  17.318  58.343  1.00  0.00     0.015 A 
ATOM     36  C   UNL     1     -26.077  18.620  60.049  1.00  0.00     0.015 A 
ATOM     37  C   UNL     1     -25.854  16.587  58.203  1.00  0.00     0.001 A 
ATOM     38  C   UNL     1     -24.945  17.840  59.962  1.00  0.00     0.001 A 
ATOM     39  C   UNL     1     -24.788  16.866  59.038  1.00  0.00     0.000 A 
ENDBRANCH  32  34
ENDBRANCH  31  32
ENDBRANCH  30  31
ENDBRANCH   8  30
TORSDOF 12
ENDMDL
MODEL 9
REMARK VINA RESULT:    -4.446      1.788      5.820
REMARK INTER + INTRA:          -6.982
REMARK INTER:                  -8.953
REMARK INTRA:                   1.971
REMARK UNBOUND:                -0.066
REMARK SMILES C[C@]12C[C@@]3(O)O[C@@H](O1)[C@]1(COC(=O)c4ccccc4)[C@H]3C[C@@]12O[C@@H]1O[C@H](CO)[C@@H](O)[C@H](O)[C@H]1O
REMARK SMILES IDX 1 1 2 2 3 3 4 4 20 5 21 6 22 7 9 8 7 9 8 10 6 11 23 12 24 13
REMARK SMILES IDX 33 14 25 15 31 16 26 17 29 18 34 19 32 21 27 23 28 24 30 26
REMARK SMILES IDX 5 28 10 30 11 31 12 32 13 33 14 34 15 35 19 36 16 37 18 38
REMARK SMILES IDX 17 39
REMARK H PARENT 34 20 32 22 28 25 30 27 5 29
REMARK Flexibility Score: inf
ROOT
ATOM      1  C   UNL     1     -28.382  19.499  55.796  1.00  0.00     0.046 C 
ATOM      2  C   UNL     1     -29.925  18.747  56.222  1.00  0.00     0.104 C 
ATOM      3  C   UNL     1     -29.796  17.934  55.448  1.00  0.00     0.104 C 
ATOM      4  C   UNL     1     -28.939  17.511  57.214  1.00  0.00     0.175 C 
ATOM      5  C   UNL     1     -29.834  16.439  57.730  1.00  0.00     0.070 C 
ATOM      6  C   UNL     1     -30.210  15.702  56.592  1.00  0.00     0.050 C 
ATOM      7  C   UNL     1     -30.983  17.035  56.269  1.00  0.00     0.115 C 
ATOM      8  C   UNL     1     -31.176  17.209  57.749  1.00  0.00     0.096 C 
ATOM      9  C   UNL     1     -30.693  18.684  58.112  1.00  0.00     0.267 C 
ATOM     10  O   UNL     1     -30.757  19.564  56.989  1.00  0.00    -0.342 OA
ATOM     11  O   UNL     1     -29.214  18.440  58.331  1.00  0.00    -0.320 OA
ENDROOT
BRANCH   7  12
ATOM     12  O   UNL     1     -32.100  16.660  55.369  1.00  0.00    -0.339 OA
BRANCH  12  13
ATOM     13  C   UNL     1     -33.234  15.843  55.850  1.00  0.00     0.282 C 
ATOM     14  C   UNL     1     -34.641  16.571  55.851  1.00  0.00     0.202 C 
ATOM     15  O   UNL     1     -33.257  14.693  55.072  1.00  0.00    -0.341 OA
ATOM     16  C   UNL     1     -35.585  16.031  54.725  1.00  0.00     0.179 C 
ATOM     17  C   UNL     1     -34.415  13.908  55.458  1.00  0.00     0.178 C 
ATOM     18  C   UNL     1     -35.598  14.479  54.631  1.00  0.00     0.177 C 
BRANCH  14  19
ATOM     19  O   UNL     1     -35.326  16.381  57.115  1.00  0.00    -0.385 OA
ATOM     20  H   UNL     1     -35.397  17.244  57.619  1.00  0.00     0.211 HD
ENDBRANCH  14  19
BRANCH  16  21
ATOM     21  O   UNL     1     -35.100  16.473  53.506  1.00  0.00    -0.387 OA
ATOM     22  H   UNL     1     -34.429  15.821  53.205  1.00  0.00     0.211 HD
ENDBRANCH  16  21
BRANCH  17  23
ATOM     23  C   UNL     1     -34.208  12.463  55.094  1.00  0.00     0.191 C 
BRANCH  23  24
ATOM     24  O   UNL     1     -35.313  11.987  54.334  1.00  0.00    -0.394 OA
ATOM     25  H   UNL     1     -34.969  11.200  53.788  1.00  0.00     0.210 HD
ENDBRANCH  23  24
ENDBRANCH  17  23
BRANCH  18  26
ATOM     26  O   UNL     1     -36.827  13.860  55.069  1.00  0.00    -0.387 OA
ATOM     27  H   UNL     1     -36.927  14.043  56.099  1.00  0.00     0.211 HD
ENDBRANCH  18  26
ENDBRANCH  12  13
ENDBRANCH   7  12
BRANCH   4  28
ATOM     28  O   UNL     1     -27.681  17.099  57.218  1.00  0.00    -0.365 OA
ATOM     29  H   UNL     1     -27.168  17.922  57.094  1.00  0.00     0.214 HD
ENDBRANCH   4  28
BRANCH   8  30
ATOM     30  C   UNL     1     -32.558  16.742  58.135  1.00  0.00     0.249 C 
BRANCH  30  31
ATOM     31  O   UNL     1     -32.456  15.467  58.855  1.00  0.00    -0.461 OA
BRANCH  31  32
ATOM     32  C   UNL     1     -33.458  14.953  59.609  1.00  0.00     0.338 C 
ATOM     33  O   UNL     1     -33.581  15.332  60.798  1.00  0.00    -0.246 OA
BRANCH  32  34
ATOM     34  C   UNL     1     -34.222  13.826  59.080  1.00  0.00     0.060 A 
ATOM     35  C   UNL     1     -35.620  13.836  59.087  1.00  0.00     0.015 A 
ATOM     36  C   UNL     1     -33.610  12.687  58.629  1.00  0.00     0.015 A 
ATOM     37  C   UNL     1     -36.364  12.734  58.602  1.00  0.00     0.001 A 
ATOM     38  C   UNL     1     -34.350  11.590  58.246  1.00  0.00     0.001 A 
ATOM     39  C   UNL     1     -35.700  11.597  58.180  1.00  0.00     0.000 A 
ENDBRANCH  32  34
ENDBRANCH  31  32
ENDBRANCH  30  31
ENDBRANCH   8  30
TORSDOF 12
ENDMDL
