MODEL 1
REMARK VINA RESULT:    -3.427      0.000      0.000
REMARK INTER + INTRA:          -3.728
REMARK INTER:                  -3.728
REMARK INTRA:                   0.000
REMARK UNBOUND:                 0.000
REMARK SMILES Cc1cc(O)c2c(c1)C(=O)c1cc(O)cc(O)c1C2=O
REMARK SMILES IDX 1 1 2 2 8 3 7 4 6 5 4 6 3 7 19 8 20 9 18 10 11 11 9 12 10 13
REMARK SMILES IDX 12 14 13 15 15 16 16 17 5 18 17 20 14 22
REMARK H PARENT 5 19 17 21 14 23
REMARK Flexibility Score: inf
ROOT
ATOM      1  C   UNL     1       9.679 -19.998 -13.643  1.00  0.00     0.044 C 
ATOM      2  C   UNL     1       8.981 -20.554 -14.849  1.00  0.00    -0.047 A 
ATOM      3  C   UNL     1       9.718 -20.952 -15.969  1.00  0.00     0.016 A 
ATOM      4  C   UNL     1       9.077 -21.514 -17.086  1.00  0.00     0.038 A 
ATOM      5  C   UNL     1       7.678 -21.708 -17.070  1.00  0.00     0.076 A 
ATOM      6  C   UNL     1       6.930 -21.261 -15.951  1.00  0.00     0.127 A 
ATOM      7  C   UNL     1       7.592 -20.722 -14.843  1.00  0.00     0.050 A 
ATOM      8  C   UNL     1       7.058 -22.439 -18.206  1.00  0.00     0.201 C 
ATOM      9  O   UNL     1       6.018 -23.125 -18.018  1.00  0.00    -0.288 OA
ATOM     10  C   UNL     1       7.767 -22.515 -19.510  1.00  0.00     0.076 A 
ATOM     11  C   UNL     1       9.166 -22.321 -19.521  1.00  0.00     0.041 A 
ATOM     12  C   UNL     1       9.864 -21.903 -18.282  1.00  0.00     0.194 C 
ATOM     13  O   UNL     1      11.125 -21.853 -18.252  1.00  0.00    -0.289 OA
ATOM     14  C   UNL     1       9.891 -22.522 -20.708  1.00  0.00     0.059 A 
ATOM     15  C   UNL     1       9.235 -22.896 -21.884  1.00  0.00     0.120 A 
ATOM     16  C   UNL     1       7.849 -23.049 -21.887  1.00  0.00     0.093 A 
ATOM     17  C   UNL     1       7.103 -22.836 -20.723  1.00  0.00     0.131 A 
ENDROOT
BRANCH   6  18
ATOM     18  O   UNL     1       5.534 -21.303 -15.909  1.00  0.00    -0.507 OA
ATOM     19  H   UNL     1       4.941 -20.639 -16.387  1.00  0.00     0.293 HD
ENDBRANCH   6  18
BRANCH  17  20
ATOM     20  O   UNL     1       5.713 -22.919 -20.825  1.00  0.00    -0.507 OA
ATOM     21  H   UNL     1       5.078 -22.521 -20.146  1.00  0.00     0.293 HD
ENDBRANCH  17  20
BRANCH  15  22
ATOM     22  O   UNL     1       9.951 -23.107 -23.060  1.00  0.00    -0.508 OA
ATOM     23  H   UNL     1       9.567 -23.651 -23.824  1.00  0.00     0.293 HD
ENDBRANCH  15  22
TORSDOF 3
ENDMDL
MODEL 2
REMARK VINA RESULT:    -3.391      1.600      6.159
REMARK INTER + INTRA:          -3.689
REMARK INTER:                  -3.689
REMARK INTRA:                   0.000
REMARK UNBOUND:                 0.000
REMARK SMILES Cc1cc(O)c2c(c1)C(=O)c1cc(O)cc(O)c1C2=O
REMARK SMILES IDX 1 1 2 2 8 3 7 4 6 5 4 6 3 7 19 8 20 9 18 10 11 11 9 12 10 13
REMARK SMILES IDX 12 14 13 15 15 16 16 17 5 18 17 20 14 22
REMARK H PARENT 5 19 17 21 14 23
REMARK Flexibility Score: inf
ROOT
ATOM      1  C   UNL     1       8.629 -23.046 -23.634  1.00  0.00     0.044 C 
ATOM      2  C   UNL     1       8.679 -22.641 -22.190  1.00  0.00    -0.047 A 
ATOM      3  C   UNL     1       7.550 -22.791 -21.377  1.00  0.00     0.016 A 
ATOM      4  C   UNL     1       7.600 -22.455 -20.014  1.00  0.00     0.038 A 
ATOM      5  C   UNL     1       8.806 -21.988 -19.448  1.00  0.00     0.076 A 
ATOM      6  C   UNL     1       9.934 -21.795 -20.286  1.00  0.00     0.127 A 
ATOM      7  C   UNL     1       9.867 -22.155 -21.635  1.00  0.00     0.050 A 
ATOM      8  C   UNL     1       8.859 -21.785 -17.976  1.00  0.00     0.201 C 
ATOM      9  O   UNL     1       9.948 -21.938 -17.360  1.00  0.00    -0.288 OA
ATOM     10  C   UNL     1       7.599 -21.592 -17.212  1.00  0.00     0.076 A 
ATOM     11  C   UNL     1       6.395 -22.061 -17.782  1.00  0.00     0.041 A 
ATOM     12  C   UNL     1       6.389 -22.587 -19.167  1.00  0.00     0.194 C 
ATOM     13  O   UNL     1       5.347 -23.125 -19.635  1.00  0.00    -0.289 OA
ATOM     14  C   UNL     1       5.205 -22.022 -17.035  1.00  0.00     0.059 A 
ATOM     15  C   UNL     1       5.203 -21.507 -15.735  1.00  0.00     0.120 A 
ATOM     16  C   UNL     1       6.381 -21.006 -15.184  1.00  0.00     0.093 A 
ATOM     17  C   UNL     1       7.573 -21.015 -15.915  1.00  0.00     0.131 A 
ENDROOT
BRANCH   6  18
ATOM     18  O   UNL     1      11.125 -21.222 -19.831  1.00  0.00    -0.507 OA
ATOM     19  H   UNL     1      12.037 -21.624 -19.995  1.00  0.00     0.293 HD
ENDBRANCH   6  18
BRANCH  17  20
ATOM     20  O   UNL     1       8.691 -20.414 -15.333  1.00  0.00    -0.507 OA
ATOM     21  H   UNL     1       8.638 -19.610 -14.722  1.00  0.00     0.293 HD
ENDBRANCH  17  20
BRANCH  15  22
ATOM     22  O   UNL     1       4.028 -21.477 -14.986  1.00  0.00    -0.508 OA
ATOM     23  H   UNL     1       4.043 -21.346 -13.981  1.00  0.00     0.293 HD
ENDBRANCH  15  22
TORSDOF 3
ENDMDL
MODEL 3
REMARK VINA RESULT:    -0.876      1.401      5.472
REMARK INTER + INTRA:          -0.953
REMARK INTER:                  -0.953
REMARK INTRA:                   0.000
REMARK UNBOUND:                 0.000
REMARK SMILES Cc1cc(O)c2c(c1)C(=O)c1cc(O)cc(O)c1C2=O
REMARK SMILES IDX 1 1 2 2 8 3 7 4 6 5 4 6 3 7 19 8 20 9 18 10 11 11 9 12 10 13
REMARK SMILES IDX 12 14 13 15 15 16 16 17 5 18 17 20 14 22
REMARK H PARENT 5 19 17 21 14 23
REMARK Flexibility Score: inf
ROOT
ATOM      1  C   UNL     1       9.024 -23.117 -23.151  1.00  0.00     0.044 C 
ATOM      2  C   UNL     1       8.553 -22.840 -21.754  1.00  0.00    -0.047 A 
ATOM      3  C   UNL     1       9.437 -22.314 -20.804  1.00  0.00     0.016 A 
ATOM      4  C   UNL     1       8.995 -22.010 -19.506  1.00  0.00     0.038 A 
ATOM      5  C   UNL     1       7.640 -22.207 -19.159  1.00  0.00     0.076 A 
ATOM      6  C   UNL     1       6.760 -22.782 -20.111  1.00  0.00     0.127 A 
ATOM      7  C   UNL     1       7.218 -23.059 -21.403  1.00  0.00     0.050 A 
ATOM      8  C   UNL     1       7.181 -21.736 -17.827  1.00  0.00     0.201 C 
ATOM      9  O   UNL     1       5.990 -21.354 -17.673  1.00  0.00    -0.288 OA
ATOM     10  C   UNL     1       8.168 -21.537 -16.733  1.00  0.00     0.076 A 
ATOM     11  C   UNL     1       9.521 -21.339 -17.085  1.00  0.00     0.041 A 
ATOM     12  C   UNL     1       9.947 -21.483 -18.497  1.00  0.00     0.194 C 
ATOM     13  O   UNL     1      11.125 -21.183 -18.837  1.00  0.00    -0.289 OA
ATOM     14  C   UNL     1      10.461 -21.010 -16.093  1.00  0.00     0.059 A 
ATOM     15  C   UNL     1      10.067 -20.893 -14.756  1.00  0.00     0.120 A 
ATOM     16  C   UNL     1       8.740 -21.128 -14.400  1.00  0.00     0.093 A 
ATOM     17  C   UNL     1       7.791 -21.476 -15.366  1.00  0.00     0.131 A 
ENDROOT
BRANCH   6  18
ATOM     18  O   UNL     1       5.439 -23.124 -19.809  1.00  0.00    -0.507 OA
ATOM     19  H   UNL     1       4.868 -23.718 -20.394  1.00  0.00     0.293 HD
ENDBRANCH   6  18
BRANCH  17  20
ATOM     20  O   UNL     1       6.503 -21.784 -14.922  1.00  0.00    -0.507 OA
ATOM     21  H   UNL     1       6.161 -21.555 -13.999  1.00  0.00     0.293 HD
ENDBRANCH  17  20
BRANCH  15  22
ATOM     22  O   UNL     1      10.993 -20.556 -13.771  1.00  0.00    -0.508 OA
ATOM     23  H   UNL     1      11.654 -19.799 -13.901  1.00  0.00     0.293 HD
ENDBRANCH  15  22
TORSDOF 3
ENDMDL
