MODEL 1
REMARK VINA RESULT:    -6.757      0.000      0.000
REMARK INTER + INTRA:         -10.886
REMARK INTER:                  -9.720
REMARK INTRA:                  -1.166
REMARK UNBOUND:                -1.166
REMARK SMILES O=c1c(O[C@@H]2O[C@H](CO)[C@@H](O)[C@@H](O)[C@H]2O)c(-c2ccc(O)cc2)oc2cc(O)cc(O)c12
REMARK SMILES IDX 4 1 3 2 16 3 24 4 2 5 25 6 1 7 32 8 26 9 30 10 27 11 29 12
REMARK SMILES IDX 17 13 18 14 19 15 20 16 23 17 22 18 21 19 31 21 28 23 5 25
REMARK SMILES IDX 14 26 6 27 12 28 7 29 10 30 15 31 13 33 8 35 9 36 11 38
REMARK H PARENT 21 20 31 22 28 24 15 32 13 34 9 37 11 39
REMARK Flexibility Score: inf
ROOT
ATOM      1  O   UNL     1     173.909 175.522 176.292  1.00  0.00    -0.454 OA
ENDROOT
BRANCH   1   2
ATOM      2  C   UNL     1     174.415 174.263 175.934  1.00  0.00     0.214 A 
ATOM      3  C   UNL     1     174.345 173.147 176.797  1.00  0.00     0.180 A 
ATOM      4  O   UNL     1     174.928 172.005 176.445  1.00  0.00    -0.452 OA
ATOM      5  C   UNL     1     175.018 174.109 174.681  1.00  0.00     0.239 A 
ATOM      6  C   UNL     1     175.546 171.829 175.282  1.00  0.00     0.146 A 
ATOM      7  O   UNL     1     175.043 175.089 173.886  1.00  0.00    -0.285 OA
ATOM      8  C   UNL     1     175.603 172.875 174.331  1.00  0.00     0.111 A 
ATOM      9  C   UNL     1     176.129 170.591 175.002  1.00  0.00     0.094 A 
ATOM     10  C   UNL     1     176.244 172.644 173.090  1.00  0.00     0.134 A 
ATOM     11  C   UNL     1     176.764 170.368 173.778  1.00  0.00     0.123 A 
ATOM     12  C   UNL     1     176.817 171.393 172.826  1.00  0.00     0.093 A 
BRANCH   3  13
ATOM     13  C   UNL     1     173.617 173.181 178.084  1.00  0.00     0.021 A 
ATOM     14  C   UNL     1     172.212 173.239 178.123  1.00  0.00     0.016 A 
ATOM     15  C   UNL     1     171.540 173.261 179.349  1.00  0.00     0.047 A 
ATOM     16  C   UNL     1     172.260 173.207 180.547  1.00  0.00     0.115 A 
ATOM     17  C   UNL     1     174.332 173.108 179.290  1.00  0.00     0.016 A 
ATOM     18  C   UNL     1     173.658 173.125 180.514  1.00  0.00     0.047 A 
BRANCH  16  19
ATOM     19  O   UNL     1     171.578 173.229 181.761  1.00  0.00    -0.508 OA
ATOM     20  H   UNL     1     171.760 172.541 182.483  1.00  0.00     0.293 HD
ENDBRANCH  16  19
ENDBRANCH   3  13
BRANCH  10  21
ATOM     21  O   UNL     1     176.314 173.646 172.123  1.00  0.00    -0.507 OA
ATOM     22  H   UNL     1     176.188 174.624 172.358  1.00  0.00     0.293 HD
ENDBRANCH  10  21
BRANCH  11  23
ATOM     23  O   UNL     1     177.336 169.126 173.517  1.00  0.00    -0.508 OA
ATOM     24  H   UNL     1     176.794 168.271 173.568  1.00  0.00     0.293 HD
ENDBRANCH  11  23
ENDBRANCH   1   2
BRANCH   1  25
ATOM     25  C   UNL     1     172.580 175.952 175.985  1.00  0.00     0.339 C 
ATOM     26  C   UNL     1     172.613 177.394 175.385  1.00  0.00     0.214 C 
ATOM     27  O   UNL     1     172.015 175.008 175.088  1.00  0.00    -0.332 OA
ATOM     28  C   UNL     1     172.241 177.367 173.891  1.00  0.00     0.180 C 
ATOM     29  C   UNL     1     170.742 175.444 174.647  1.00  0.00     0.179 C 
ATOM     30  C   UNL     1     170.891 176.643 173.669  1.00  0.00     0.177 C 
BRANCH  26  31
ATOM     31  O   UNL     1     171.713 178.226 176.076  1.00  0.00    -0.384 OA
ATOM     32  H   UNL     1     172.234 179.012 176.389  1.00  0.00     0.211 HD
ENDBRANCH  26  31
BRANCH  28  33
ATOM     33  O   UNL     1     172.190 178.671 173.370  1.00  0.00    -0.387 OA
ATOM     34  H   UNL     1     171.370 178.724 172.812  1.00  0.00     0.211 HD
ENDBRANCH  28  33
BRANCH  29  35
ATOM     35  C   UNL     1     170.021 174.265 173.986  1.00  0.00     0.191 C 
BRANCH  35  36
ATOM     36  O   UNL     1     168.931 174.725 173.235  1.00  0.00    -0.394 OA
ATOM     37  H   UNL     1     168.180 174.827 173.875  1.00  0.00     0.210 HD
ENDBRANCH  35  36
ENDBRANCH  29  35
BRANCH  30  38
ATOM     38  O   UNL     1     169.819 177.531 173.870  1.00  0.00    -0.387 OA
ATOM     39  H   UNL     1     170.207 178.433 174.016  1.00  0.00     0.211 HD
ENDBRANCH  30  38
ENDBRANCH   1  25
TORSDOF 11
ENDMDL
MODEL 2
REMARK VINA RESULT:    -6.642      1.968      6.561
REMARK INTER + INTRA:         -10.720
REMARK INTER:                  -9.688
REMARK INTRA:                  -1.031
REMARK UNBOUND:                -1.166
REMARK SMILES O=c1c(O[C@@H]2O[C@H](CO)[C@@H](O)[C@@H](O)[C@H]2O)c(-c2ccc(O)cc2)oc2cc(O)cc(O)c12
REMARK SMILES IDX 4 1 3 2 16 3 24 4 2 5 25 6 1 7 32 8 26 9 30 10 27 11 29 12
REMARK SMILES IDX 17 13 18 14 19 15 20 16 23 17 22 18 21 19 31 21 28 23 5 25
REMARK SMILES IDX 14 26 6 27 12 28 7 29 10 30 15 31 13 33 8 35 9 36 11 38
REMARK H PARENT 21 20 31 22 28 24 15 32 13 34 9 37 11 39
REMARK Flexibility Score: inf
ROOT
ATOM      1  O   UNL     1     172.582 170.815 176.295  1.00  0.00    -0.454 OA
ENDROOT
BRANCH   1   2
ATOM      2  C   UNL     1     172.062 172.073 175.950  1.00  0.00     0.214 A 
ATOM      3  C   UNL     1     172.132 173.183 176.820  1.00  0.00     0.180 A 
ATOM      4  O   UNL     1     171.536 174.323 176.482  1.00  0.00    -0.452 OA
ATOM      5  C   UNL     1     171.446 172.231 174.704  1.00  0.00     0.239 A 
ATOM      6  C   UNL     1     170.906 174.502 175.325  1.00  0.00     0.146 A 
ATOM      7  O   UNL     1     171.422 171.257 173.902  1.00  0.00    -0.285 OA
ATOM      8  C   UNL     1     170.848 173.462 174.368  1.00  0.00     0.111 A 
ATOM      9  C   UNL     1     170.310 175.738 175.060  1.00  0.00     0.094 A 
ATOM     10  C   UNL     1     170.194 173.696 173.135  1.00  0.00     0.134 A 
ATOM     11  C   UNL     1     169.663 175.964 173.844  1.00  0.00     0.123 A 
ATOM     12  C   UNL     1     169.608 174.945 172.885  1.00  0.00     0.093 A 
BRANCH   3  13
ATOM     13  C   UNL     1     172.872 173.146 178.100  1.00  0.00     0.021 A 
ATOM     14  C   UNL     1     174.278 173.129 178.126  1.00  0.00     0.016 A 
ATOM     15  C   UNL     1     174.962 173.103 179.345  1.00  0.00     0.047 A 
ATOM     16  C   UNL     1     174.251 173.114 180.550  1.00  0.00     0.115 A 
ATOM     17  C   UNL     1     172.166 173.176 179.313  1.00  0.00     0.016 A 
ATOM     18  C   UNL     1     172.851 173.155 180.531  1.00  0.00     0.047 A 
BRANCH  16  19
ATOM     19  O   UNL     1     174.945 173.089 181.758  1.00  0.00    -0.508 OA
ATOM     20  H   UNL     1     175.924 172.829 181.801  1.00  0.00     0.293 HD
ENDBRANCH  16  19
ENDBRANCH   3  13
BRANCH  10  21
ATOM     21  O   UNL     1     170.123 172.701 172.161  1.00  0.00    -0.507 OA
ATOM     22  H   UNL     1     170.349 171.735 172.369  1.00  0.00     0.293 HD
ENDBRANCH  10  21
BRANCH  11  23
ATOM     23  O   UNL     1     169.078 177.203 173.596  1.00  0.00    -0.508 OA
ATOM     24  H   UNL     1     169.634 178.048 173.533  1.00  0.00     0.293 HD
ENDBRANCH  11  23
ENDBRANCH   1   2
BRANCH   1  25
ATOM     25  C   UNL     1     173.922 170.411 176.001  1.00  0.00     0.339 C 
ATOM     26  C   UNL     1     173.920 168.980 175.375  1.00  0.00     0.214 C 
ATOM     27  O   UNL     1     174.486 171.379 175.131  1.00  0.00    -0.332 OA
ATOM     28  C   UNL     1     174.315 169.039 173.889  1.00  0.00     0.180 C 
ATOM     29  C   UNL     1     175.773 170.970 174.703  1.00  0.00     0.179 C 
ATOM     30  C   UNL     1     175.657 169.787 173.701  1.00  0.00     0.177 C 
BRANCH  26  31
ATOM     31  O   UNL     1     174.821 168.149 176.066  1.00  0.00    -0.384 OA
ATOM     32  H   UNL     1     174.294 167.378 176.406  1.00  0.00     0.211 HD
ENDBRANCH  26  31
BRANCH  28  33
ATOM     33  O   UNL     1     174.394 167.746 173.344  1.00  0.00    -0.387 OA
ATOM     34  H   UNL     1     175.356 167.499 173.331  1.00  0.00     0.211 HD
ENDBRANCH  28  33
BRANCH  29  35
ATOM     35  C   UNL     1     176.486 172.171 174.075  1.00  0.00     0.191 C 
BRANCH  35  36
ATOM     36  O   UNL     1     176.038 173.361 174.666  1.00  0.00    -0.394 OA
ATOM     37  H   UNL     1     176.244 174.083 174.018  1.00  0.00     0.210 HD
ENDBRANCH  35  36
ENDBRANCH  29  35
BRANCH  30  38
ATOM     38  O   UNL     1     176.740 168.911 173.903  1.00  0.00    -0.387 OA
ATOM     39  H   UNL     1     176.760 168.286 173.133  1.00  0.00     0.211 HD
ENDBRANCH  30  38
ENDBRANCH   1  25
TORSDOF 11
ENDMDL
MODEL 3
REMARK VINA RESULT:    -6.582      1.834      2.700
REMARK INTER + INTRA:         -10.634
REMARK INTER:                  -9.491
REMARK INTRA:                  -1.143
REMARK UNBOUND:                -1.166
REMARK SMILES O=c1c(O[C@@H]2O[C@H](CO)[C@@H](O)[C@@H](O)[C@H]2O)c(-c2ccc(O)cc2)oc2cc(O)cc(O)c12
REMARK SMILES IDX 4 1 3 2 16 3 24 4 2 5 25 6 1 7 32 8 26 9 30 10 27 11 29 12
REMARK SMILES IDX 17 13 18 14 19 15 20 16 23 17 22 18 21 19 31 21 28 23 5 25
REMARK SMILES IDX 14 26 6 27 12 28 7 29 10 30 15 31 13 33 8 35 9 36 11 38
REMARK H PARENT 21 20 31 22 28 24 15 32 13 34 9 37 11 39
REMARK Flexibility Score: inf
ROOT
ATOM      1  O   UNL     1     172.082 173.495 175.173  1.00  0.00    -0.454 OA
ENDROOT
BRANCH   1   2
ATOM      2  C   UNL     1     172.938 172.382 175.149  1.00  0.00     0.214 A 
ATOM      3  C   UNL     1     173.600 171.914 176.305  1.00  0.00     0.180 A 
ATOM      4  O   UNL     1     174.475 170.917 176.204  1.00  0.00    -0.452 OA
ATOM      5  C   UNL     1     173.147 171.717 173.936  1.00  0.00     0.239 A 
ATOM      6  C   UNL     1     174.733 170.285 175.064  1.00  0.00     0.146 A 
ATOM      7  O   UNL     1     172.522 172.100 172.909  1.00  0.00    -0.285 OA
ATOM      8  C   UNL     1     174.062 170.646 173.872  1.00  0.00     0.111 A 
ATOM      9  C   UNL     1     175.669 169.248 175.059  1.00  0.00     0.094 A 
ATOM     10  C   UNL     1     174.339 169.933 172.682  1.00  0.00     0.134 A 
ATOM     11  C   UNL     1     175.942 168.549 173.881  1.00  0.00     0.123 A 
ATOM     12  C   UNL     1     175.276 168.890 172.698  1.00  0.00     0.093 A 
BRANCH   3  13
ATOM     13  C   UNL     1     173.344 172.473 177.650  1.00  0.00     0.021 A 
ATOM     14  C   UNL     1     172.032 172.636 178.132  1.00  0.00     0.016 A 
ATOM     15  C   UNL     1     171.809 173.156 179.410  1.00  0.00     0.047 A 
ATOM     16  C   UNL     1     172.890 173.502 180.227  1.00  0.00     0.115 A 
ATOM     17  C   UNL     1     174.424 172.804 178.483  1.00  0.00     0.016 A 
ATOM     18  C   UNL     1     174.199 173.321 179.763  1.00  0.00     0.047 A 
BRANCH  16  19
ATOM     19  O   UNL     1     172.653 174.019 181.498  1.00  0.00    -0.508 OA
ATOM     20  H   UNL     1     173.218 174.771 181.878  1.00  0.00     0.293 HD
ENDBRANCH  16  19
ENDBRANCH   3  13
BRANCH  10  21
ATOM     21  O   UNL     1     173.692 170.251 171.488  1.00  0.00    -0.507 OA
ATOM     22  H   UNL     1     173.918 171.091 170.967  1.00  0.00     0.293 HD
ENDBRANCH  10  21
BRANCH  11  23
ATOM     23  O   UNL     1     176.876 167.515 173.897  1.00  0.00    -0.508 OA
ATOM     24  H   UNL     1     176.799 166.742 174.547  1.00  0.00     0.293 HD
ENDBRANCH  11  23
ENDBRANCH   1   2
BRANCH   1  25
ATOM     25  C   UNL     1     172.533 174.839 174.983  1.00  0.00     0.339 C 
ATOM     26  C   UNL     1     171.834 175.463 173.733  1.00  0.00     0.214 C 
ATOM     27  O   UNL     1     172.256 175.561 176.173  1.00  0.00    -0.332 OA
ATOM     28  C   UNL     1     170.841 176.558 174.160  1.00  0.00     0.180 C 
ATOM     29  C   UNL     1     172.568 176.933 176.002  1.00  0.00     0.179 C 
ATOM     30  C   UNL     1     171.529 177.609 175.064  1.00  0.00     0.177 C 
BRANCH  26  31
ATOM     31  O   UNL     1     172.795 176.015 172.867  1.00  0.00    -0.384 OA
ATOM     32  H   UNL     1     173.565 175.387 172.856  1.00  0.00     0.211 HD
ENDBRANCH  26  31
BRANCH  28  33
ATOM     33  O   UNL     1     170.271 177.177 173.034  1.00  0.00    -0.387 OA
ATOM     34  H   UNL     1     169.384 177.524 173.316  1.00  0.00     0.211 HD
ENDBRANCH  28  33
BRANCH  29  35
ATOM     35  C   UNL     1     172.603 177.602 177.379  1.00  0.00     0.191 C 
BRANCH  35  36
ATOM     36  O   UNL     1     171.858 178.790 177.357  1.00  0.00    -0.394 OA
ATOM     37  H   UNL     1     172.287 179.371 176.678  1.00  0.00     0.210 HD
ENDBRANCH  35  36
ENDBRANCH  29  35
BRANCH  30  38
ATOM     38  O   UNL     1     172.184 178.577 174.281  1.00  0.00    -0.387 OA
ATOM     39  H   UNL     1     172.870 178.104 173.742  1.00  0.00     0.211 HD
ENDBRANCH  30  38
ENDBRANCH   1  25
TORSDOF 11
ENDMDL
MODEL 4
REMARK VINA RESULT:    -6.560      1.756      6.353
REMARK INTER + INTRA:         -10.602
REMARK INTER:                  -9.611
REMARK INTRA:                  -0.991
REMARK UNBOUND:                -1.166
REMARK SMILES O=c1c(O[C@@H]2O[C@H](CO)[C@@H](O)[C@@H](O)[C@H]2O)c(-c2ccc(O)cc2)oc2cc(O)cc(O)c12
REMARK SMILES IDX 4 1 3 2 16 3 24 4 2 5 25 6 1 7 32 8 26 9 30 10 27 11 29 12
REMARK SMILES IDX 17 13 18 14 19 15 20 16 23 17 22 18 21 19 31 21 28 23 5 25
REMARK SMILES IDX 14 26 6 27 12 28 7 29 10 30 15 31 13 33 8 35 9 36 11 38
REMARK H PARENT 21 20 31 22 28 24 15 32 13 34 9 37 11 39
REMARK Flexibility Score: inf
ROOT
ATOM      1  O   UNL     1     174.797 173.157 175.340  1.00  0.00    -0.454 OA
ENDROOT
BRANCH   1   2
ATOM      2  C   UNL     1     173.847 174.190 175.292  1.00  0.00     0.214 A 
ATOM      3  C   UNL     1     173.035 174.521 176.399  1.00  0.00     0.180 A 
ATOM      4  O   UNL     1     172.086 175.443 176.267  1.00  0.00    -0.452 OA
ATOM      5  C   UNL     1     173.695 174.913 174.104  1.00  0.00     0.239 A 
ATOM      6  C   UNL     1     171.881 176.124 175.144  1.00  0.00     0.146 A 
ATOM      7  O   UNL     1     174.449 174.655 173.126  1.00  0.00    -0.285 OA
ATOM      8  C   UNL     1     172.695 175.902 174.008  1.00  0.00     0.111 A 
ATOM      9  C   UNL     1     170.857 177.074 175.102  1.00  0.00     0.094 A 
ATOM     10  C   UNL     1     172.468 176.665 172.838  1.00  0.00     0.134 A 
ATOM     11  C   UNL     1     170.635 177.822 173.944  1.00  0.00     0.123 A 
ATOM     12  C   UNL     1     171.440 177.619 172.818  1.00  0.00     0.093 A 
BRANCH   3  13
ATOM     13  C   UNL     1     173.212 173.900 177.730  1.00  0.00     0.021 A 
ATOM     14  C   UNL     1     174.494 173.657 178.254  1.00  0.00     0.016 A 
ATOM     15  C   UNL     1     174.642 173.077 179.517  1.00  0.00     0.047 A 
ATOM     16  C   UNL     1     173.515 172.752 180.278  1.00  0.00     0.115 A 
ATOM     17  C   UNL     1     172.085 173.589 178.507  1.00  0.00     0.016 A 
ATOM     18  C   UNL     1     172.235 173.013 179.772  1.00  0.00     0.047 A 
BRANCH  16  19
ATOM     19  O   UNL     1     173.676 172.175 181.536  1.00  0.00    -0.508 OA
ATOM     20  H   UNL     1     173.662 171.169 181.663  1.00  0.00     0.293 HD
ENDBRANCH  16  19
ENDBRANCH   3  13
BRANCH  10  21
ATOM     21  O   UNL     1     173.254 176.484 171.701  1.00  0.00    -0.507 OA
ATOM     22  H   UNL     1     173.748 177.254 171.266  1.00  0.00     0.293 HD
ENDBRANCH  10  21
BRANCH  11  23
ATOM     23  O   UNL     1     169.611 178.767 173.923  1.00  0.00    -0.508 OA
ATOM     24  H   UNL     1     169.113 178.989 173.070  1.00  0.00     0.293 HD
ENDBRANCH  11  23
ENDBRANCH   1   2
BRANCH   1  25
ATOM     25  C   UNL     1     174.522 171.816 174.927  1.00  0.00     0.339 C 
ATOM     26  C   UNL     1     175.668 171.299 174.000  1.00  0.00     0.214 C 
ATOM     27  O   UNL     1     174.374 171.024 176.096  1.00  0.00    -0.332 OA
ATOM     28  C   UNL     1     176.489 170.209 174.712  1.00  0.00     0.180 C 
ATOM     29  C   UNL     1     174.223 169.658 175.752  1.00  0.00     0.179 C 
ATOM     30  C   UNL     1     175.571 169.079 175.239  1.00  0.00     0.177 C 
BRANCH  26  31
ATOM     31  O   UNL     1     175.129 170.776 172.811  1.00  0.00    -0.384 OA
ATOM     32  H   UNL     1     174.703 171.535 172.333  1.00  0.00     0.211 HD
ENDBRANCH  26  31
BRANCH  28  33
ATOM     33  O   UNL     1     177.468 169.685 173.852  1.00  0.00    -0.387 OA
ATOM     34  H   UNL     1     177.043 169.588 172.959  1.00  0.00     0.211 HD
ENDBRANCH  28  33
BRANCH  29  35
ATOM     35  C   UNL     1     173.714 168.897 176.980  1.00  0.00     0.191 C 
BRANCH  35  36
ATOM     36  O   UNL     1     174.495 167.753 177.196  1.00  0.00    -0.394 OA
ATOM     37  H   UNL     1     174.191 167.084 176.531  1.00  0.00     0.210 HD
ENDBRANCH  35  36
ENDBRANCH  29  35
BRANCH  30  38
ATOM     38  O   UNL     1     175.307 168.145 174.220  1.00  0.00    -0.387 OA
ATOM     39  H   UNL     1     175.962 167.406 174.322  1.00  0.00     0.211 HD
ENDBRANCH  30  38
ENDBRANCH   1  25
TORSDOF 11
ENDMDL
MODEL 5
REMARK VINA RESULT:    -6.428      1.924      2.829
REMARK INTER + INTRA:         -10.413
REMARK INTER:                  -9.693
REMARK INTRA:                  -0.719
REMARK UNBOUND:                -1.166
REMARK SMILES O=c1c(O[C@@H]2O[C@H](CO)[C@@H](O)[C@@H](O)[C@H]2O)c(-c2ccc(O)cc2)oc2cc(O)cc(O)c12
REMARK SMILES IDX 4 1 3 2 16 3 24 4 2 5 25 6 1 7 32 8 26 9 30 10 27 11 29 12
REMARK SMILES IDX 17 13 18 14 19 15 20 16 23 17 22 18 21 19 31 21 28 23 5 25
REMARK SMILES IDX 14 26 6 27 12 28 7 29 10 30 15 31 13 33 8 35 9 36 11 38
REMARK H PARENT 21 20 31 22 28 24 15 32 13 34 9 37 11 39
REMARK Flexibility Score: inf
ROOT
ATOM      1  O   UNL     1     171.744 173.368 175.261  1.00  0.00    -0.454 OA
ENDROOT
BRANCH   1   2
ATOM      2  C   UNL     1     172.667 172.312 175.214  1.00  0.00     0.214 A 
ATOM      3  C   UNL     1     173.444 171.937 176.332  1.00  0.00     0.180 A 
ATOM      4  O   UNL     1     174.372 170.994 176.202  1.00  0.00    -0.452 OA
ATOM      5  C   UNL     1     172.830 171.610 174.014  1.00  0.00     0.239 A 
ATOM      6  C   UNL     1     174.587 170.332 175.070  1.00  0.00     0.146 A 
ATOM      7  O   UNL     1     172.106 171.909 173.024  1.00  0.00    -0.285 OA
ATOM      8  C   UNL     1     173.807 170.599 173.920  1.00  0.00     0.111 A 
ATOM      9  C   UNL     1     175.587 169.357 175.031  1.00  0.00     0.094 A 
ATOM     10  C   UNL     1     174.042 169.855 172.740  1.00  0.00     0.134 A 
ATOM     11  C   UNL     1     175.818 168.627 173.863  1.00  0.00     0.123 A 
ATOM     12  C   UNL     1     175.045 168.875 172.723  1.00  0.00     0.093 A 
BRANCH   3  13
ATOM     13  C   UNL     1     173.251 172.534 177.671  1.00  0.00     0.021 A 
ATOM     14  C   UNL     1     171.963 172.805 178.167  1.00  0.00     0.016 A 
ATOM     15  C   UNL     1     171.800 173.361 179.440  1.00  0.00     0.047 A 
ATOM     16  C   UNL     1     172.916 173.635 180.236  1.00  0.00     0.115 A 
ATOM     17  C   UNL     1     174.366 172.794 178.484  1.00  0.00     0.016 A 
ATOM     18  C   UNL     1     174.200 173.346 179.757  1.00  0.00     0.047 A 
BRANCH  16  19
ATOM     19  O   UNL     1     172.739 174.189 181.502  1.00  0.00    -0.508 OA
ATOM     20  H   UNL     1     173.189 173.794 182.320  1.00  0.00     0.293 HD
ENDBRANCH  16  19
ENDBRANCH   3  13
BRANCH  10  21
ATOM     21  O   UNL     1     173.289 170.081 171.588  1.00  0.00    -0.507 OA
ATOM     22  H   UNL     1     172.765 169.338 171.139  1.00  0.00     0.293 HD
ENDBRANCH  10  21
BRANCH  11  23
ATOM     23  O   UNL     1     176.817 167.657 173.846  1.00  0.00    -0.508 OA
ATOM     24  H   UNL     1     177.354 167.464 173.009  1.00  0.00     0.293 HD
ENDBRANCH  11  23
ENDBRANCH   1   2
BRANCH   1  25
ATOM     25  C   UNL     1     171.869 174.559 174.479  1.00  0.00     0.339 C 
ATOM     26  C   UNL     1     171.128 175.739 175.184  1.00  0.00     0.214 C 
ATOM     27  O   UNL     1     173.253 174.819 174.304  1.00  0.00    -0.332 OA
ATOM     28  C   UNL     1     172.138 176.773 175.714  1.00  0.00     0.180 C 
ATOM     29  C   UNL     1     173.443 176.056 173.641  1.00  0.00     0.179 C 
ATOM     30  C   UNL     1     173.097 177.237 174.591  1.00  0.00     0.177 C 
BRANCH  26  31
ATOM     31  O   UNL     1     170.248 176.365 174.283  1.00  0.00    -0.384 OA
ATOM     32  H   UNL     1     169.348 176.349 174.704  1.00  0.00     0.211 HD
ENDBRANCH  26  31
BRANCH  28  33
ATOM     33  O   UNL     1     171.471 177.874 176.276  1.00  0.00    -0.387 OA
ATOM     34  H   UNL     1     170.763 177.508 176.869  1.00  0.00     0.211 HD
ENDBRANCH  28  33
BRANCH  29  35
ATOM     35  C   UNL     1     174.894 176.133 173.154  1.00  0.00     0.191 C 
BRANCH  35  36
ATOM     36  O   UNL     1     175.371 177.447 173.263  1.00  0.00    -0.394 OA
ATOM     37  H   UNL     1     175.003 177.803 174.112  1.00  0.00     0.210 HD
ENDBRANCH  35  36
ENDBRANCH  29  35
BRANCH  30  38
ATOM     38  O   UNL     1     172.509 178.270 173.839  1.00  0.00    -0.387 OA
ATOM     39  H   UNL     1     173.238 178.886 173.565  1.00  0.00     0.211 HD
ENDBRANCH  30  38
ENDBRANCH   1  25
TORSDOF 11
ENDMDL
MODEL 6
REMARK VINA RESULT:    -6.402      2.330      3.235
REMARK INTER + INTRA:         -10.375
REMARK INTER:                  -9.197
REMARK INTRA:                  -1.178
REMARK UNBOUND:                -1.166
REMARK SMILES O=c1c(O[C@@H]2O[C@H](CO)[C@@H](O)[C@@H](O)[C@H]2O)c(-c2ccc(O)cc2)oc2cc(O)cc(O)c12
REMARK SMILES IDX 4 1 3 2 16 3 24 4 2 5 25 6 1 7 32 8 26 9 30 10 27 11 29 12
REMARK SMILES IDX 17 13 18 14 19 15 20 16 23 17 22 18 21 19 31 21 28 23 5 25
REMARK SMILES IDX 14 26 6 27 12 28 7 29 10 30 15 31 13 33 8 35 9 36 11 38
REMARK H PARENT 21 20 31 22 28 24 15 32 13 34 9 37 11 39
REMARK Flexibility Score: inf
ROOT
ATOM      1  O   UNL     1     172.049 174.069 175.527  1.00  0.00    -0.454 OA
ENDROOT
BRANCH   1   2
ATOM      2  C   UNL     1     172.530 172.785 175.227  1.00  0.00     0.214 A 
ATOM      3  C   UNL     1     173.239 172.005 176.167  1.00  0.00     0.180 A 
ATOM      4  O   UNL     1     173.756 170.837 175.797  1.00  0.00    -0.452 OA
ATOM      5  C   UNL     1     172.305 172.261 173.949  1.00  0.00     0.239 A 
ATOM      6  C   UNL     1     173.600 170.322 174.581  1.00  0.00     0.146 A 
ATOM      7  O   UNL     1     171.633 172.932 173.118  1.00  0.00    -0.285 OA
ATOM      8  C   UNL     1     172.847 171.007 173.600  1.00  0.00     0.111 A 
ATOM      9  C   UNL     1     174.182 169.086 174.287  1.00  0.00     0.094 A 
ATOM     10  C   UNL     1     172.677 170.417 172.325  1.00  0.00     0.134 A 
ATOM     11  C   UNL     1     174.015 168.508 173.027  1.00  0.00     0.123 A 
ATOM     12  C   UNL     1     173.262 169.172 172.051  1.00  0.00     0.093 A 
BRANCH   3  13
ATOM     13  C   UNL     1     173.414 172.421 177.575  1.00  0.00     0.021 A 
ATOM     14  C   UNL     1     172.307 172.577 178.429  1.00  0.00     0.016 A 
ATOM     15  C   UNL     1     172.492 172.962 179.761  1.00  0.00     0.047 A 
ATOM     16  C   UNL     1     173.781 173.176 180.259  1.00  0.00     0.115 A 
ATOM     17  C   UNL     1     174.706 172.618 178.087  1.00  0.00     0.016 A 
ATOM     18  C   UNL     1     174.889 172.998 179.420  1.00  0.00     0.047 A 
BRANCH  16  19
ATOM     19  O   UNL     1     173.951 173.558 181.587  1.00  0.00    -0.508 OA
ATOM     20  H   UNL     1     174.853 173.493 182.045  1.00  0.00     0.293 HD
ENDBRANCH  16  19
ENDBRANCH   3  13
BRANCH  10  21
ATOM     21  O   UNL     1     171.933 171.055 171.333  1.00  0.00    -0.507 OA
ATOM     22  H   UNL     1     170.925 170.962 171.280  1.00  0.00     0.293 HD
ENDBRANCH  10  21
BRANCH  11  23
ATOM     23  O   UNL     1     174.599 167.274 172.754  1.00  0.00    -0.508 OA
ATOM     24  H   UNL     1     175.508 167.204 172.310  1.00  0.00     0.293 HD
ENDBRANCH  11  23
ENDBRANCH   1   2
BRANCH   1  25
ATOM     25  C   UNL     1     172.792 175.265 175.279  1.00  0.00     0.339 C 
ATOM     26  C   UNL     1     174.214 174.907 174.740  1.00  0.00     0.214 C 
ATOM     27  O   UNL     1     172.051 176.054 174.360  1.00  0.00    -0.332 OA
ATOM     28  C   UNL     1     174.347 175.304 173.259  1.00  0.00     0.180 C 
ATOM     29  C   UNL     1     172.794 177.198 173.979  1.00  0.00     0.179 C 
ATOM     30  C   UNL     1     173.971 176.791 173.048  1.00  0.00     0.177 C 
BRANCH  26  31
ATOM     31  O   UNL     1     175.198 175.571 175.493  1.00  0.00    -0.384 OA
ATOM     32  H   UNL     1     175.963 174.943 175.582  1.00  0.00     0.211 HD
ENDBRANCH  26  31
BRANCH  28  33
ATOM     33  O   UNL     1     175.651 175.057 172.795  1.00  0.00    -0.387 OA
ATOM     34  H   UNL     1     175.560 174.582 171.928  1.00  0.00     0.211 HD
ENDBRANCH  28  33
BRANCH  29  35
ATOM     35  C   UNL     1     171.850 178.189 173.291  1.00  0.00     0.191 C 
BRANCH  35  36
ATOM     36  O   UNL     1     172.547 178.930 172.326  1.00  0.00    -0.394 OA
ATOM     37  H   UNL     1     172.898 179.730 172.796  1.00  0.00     0.210 HD
ENDBRANCH  35  36
ENDBRANCH  29  35
BRANCH  30  38
ATOM     38  O   UNL     1     175.074 177.620 173.319  1.00  0.00    -0.387 OA
ATOM     39  H   UNL     1     175.798 177.040 173.675  1.00  0.00     0.211 HD
ENDBRANCH  30  38
ENDBRANCH   1  25
TORSDOF 11
ENDMDL
MODEL 7
REMARK VINA RESULT:    -6.262      3.884      8.627
REMARK INTER + INTRA:         -10.173
REMARK INTER:                  -8.857
REMARK INTRA:                  -1.317
REMARK UNBOUND:                -1.166
REMARK SMILES O=c1c(O[C@@H]2O[C@H](CO)[C@@H](O)[C@@H](O)[C@H]2O)c(-c2ccc(O)cc2)oc2cc(O)cc(O)c12
REMARK SMILES IDX 4 1 3 2 16 3 24 4 2 5 25 6 1 7 32 8 26 9 30 10 27 11 29 12
REMARK SMILES IDX 17 13 18 14 19 15 20 16 23 17 22 18 21 19 31 21 28 23 5 25
REMARK SMILES IDX 14 26 6 27 12 28 7 29 10 30 15 31 13 33 8 35 9 36 11 38
REMARK H PARENT 21 20 31 22 28 24 15 32 13 34 9 37 11 39
REMARK Flexibility Score: inf
ROOT
ATOM      1  O   UNL     1     176.648 170.986 172.000  1.00  0.00    -0.454 OA
ENDROOT
BRANCH   1   2
ATOM      2  C   UNL     1     175.962 170.984 173.225  1.00  0.00     0.214 A 
ATOM      3  C   UNL     1     175.096 169.934 173.604  1.00  0.00     0.180 A 
ATOM      4  O   UNL     1     174.397 170.033 174.731  1.00  0.00    -0.452 OA
ATOM      5  C   UNL     1     176.136 172.063 174.098  1.00  0.00     0.239 A 
ATOM      6  C   UNL     1     174.501 171.060 175.568  1.00  0.00     0.146 A 
ATOM      7  O   UNL     1     176.943 172.982 173.787  1.00  0.00    -0.285 OA
ATOM      8  C   UNL     1     175.396 172.121 175.297  1.00  0.00     0.111 A 
ATOM      9  C   UNL     1     173.724 171.073 176.729  1.00  0.00     0.094 A 
ATOM     10  C   UNL     1     175.504 173.185 176.224  1.00  0.00     0.134 A 
ATOM     11  C   UNL     1     173.831 172.126 177.639  1.00  0.00     0.123 A 
ATOM     12  C   UNL     1     174.721 173.177 177.387  1.00  0.00     0.093 A 
BRANCH   3  13
ATOM     13  C   UNL     1     174.948 168.698 172.807  1.00  0.00     0.021 A 
ATOM     14  C   UNL     1     175.884 167.653 172.907  1.00  0.00     0.016 A 
ATOM     15  C   UNL     1     175.723 166.486 172.152  1.00  0.00     0.047 A 
ATOM     16  C   UNL     1     174.619 166.343 171.306  1.00  0.00     0.115 A 
ATOM     17  C   UNL     1     173.832 168.539 171.970  1.00  0.00     0.016 A 
ATOM     18  C   UNL     1     173.671 167.370 171.220  1.00  0.00     0.047 A 
BRANCH  16  19
ATOM     19  O   UNL     1     174.471 165.176 170.561  1.00  0.00    -0.508 OA
ATOM     20  H   UNL     1     174.005 164.359 170.942  1.00  0.00     0.293 HD
ENDBRANCH  16  19
ENDBRANCH   3  13
BRANCH  10  21
ATOM     21  O   UNL     1     176.382 174.246 175.999  1.00  0.00    -0.507 OA
ATOM     22  H   UNL     1     176.708 174.479 175.068  1.00  0.00     0.293 HD
ENDBRANCH  10  21
BRANCH  11  23
ATOM     23  O   UNL     1     173.050 172.119 178.793  1.00  0.00    -0.508 OA
ATOM     24  H   UNL     1     172.923 171.277 179.342  1.00  0.00     0.293 HD
ENDBRANCH  11  23
ENDBRANCH   1   2
BRANCH   1  25
ATOM     25  C   UNL     1     177.976 170.479 171.842  1.00  0.00     0.339 C 
ATOM     26  C   UNL     1     178.890 171.574 171.205  1.00  0.00     0.214 C 
ATOM     27  O   UNL     1     178.438 170.068 173.120  1.00  0.00    -0.332 OA
ATOM     28  C   UNL     1     179.917 172.086 172.231  1.00  0.00     0.180 C 
ATOM     29  C   UNL     1     179.796 169.672 173.050  1.00  0.00     0.179 C 
ATOM     30  C   UNL     1     180.711 170.913 172.853  1.00  0.00     0.177 C 
BRANCH  26  31
ATOM     31  O   UNL     1     179.567 171.048 170.089  1.00  0.00    -0.384 OA
ATOM     32  H   UNL     1     180.099 171.792 169.701  1.00  0.00     0.211 HD
ENDBRANCH  26  31
BRANCH  28  33
ATOM     33  O   UNL     1     180.792 173.011 171.636  1.00  0.00    -0.387 OA
ATOM     34  H   UNL     1     181.240 173.498 172.377  1.00  0.00     0.211 HD
ENDBRANCH  28  33
BRANCH  29  35
ATOM     35  C   UNL     1     180.150 168.909 174.331  1.00  0.00     0.191 C 
BRANCH  35  36
ATOM     36  O   UNL     1     181.496 168.516 174.303  1.00  0.00    -0.394 OA
ATOM     37  H   UNL     1     182.011 169.274 174.680  1.00  0.00     0.210 HD
ENDBRANCH  35  36
ENDBRANCH  29  35
BRANCH  30  38
ATOM     38  O   UNL     1     181.791 170.556 172.025  1.00  0.00    -0.387 OA
ATOM     39  H   UNL     1     182.144 171.393 171.625  1.00  0.00     0.211 HD
ENDBRANCH  30  38
ENDBRANCH   1  25
TORSDOF 11
ENDMDL
MODEL 8
REMARK VINA RESULT:    -6.247      2.631      5.697
REMARK INTER + INTRA:         -10.152
REMARK INTER:                  -8.788
REMARK INTRA:                  -1.364
REMARK UNBOUND:                -1.166
REMARK SMILES O=c1c(O[C@@H]2O[C@H](CO)[C@@H](O)[C@@H](O)[C@H]2O)c(-c2ccc(O)cc2)oc2cc(O)cc(O)c12
REMARK SMILES IDX 4 1 3 2 16 3 24 4 2 5 25 6 1 7 32 8 26 9 30 10 27 11 29 12
REMARK SMILES IDX 17 13 18 14 19 15 20 16 23 17 22 18 21 19 31 21 28 23 5 25
REMARK SMILES IDX 14 26 6 27 12 28 7 29 10 30 15 31 13 33 8 35 9 36 11 38
REMARK H PARENT 21 20 31 22 28 24 15 32 13 34 9 37 11 39
REMARK Flexibility Score: inf
ROOT
ATOM      1  O   UNL     1     173.353 175.096 173.749  1.00  0.00    -0.454 OA
ENDROOT
BRANCH   1   2
ATOM      2  C   UNL     1     173.019 174.698 175.053  1.00  0.00     0.214 A 
ATOM      3  C   UNL     1     171.691 174.718 175.533  1.00  0.00     0.180 A 
ATOM      4  O   UNL     1     171.447 174.424 176.807  1.00  0.00    -0.452 OA
ATOM      5  C   UNL     1     174.039 174.271 175.911  1.00  0.00     0.239 A 
ATOM      6  C   UNL     1     172.392 174.053 177.665  1.00  0.00     0.146 A 
ATOM      7  O   UNL     1     175.222 174.205 175.475  1.00  0.00    -0.285 OA
ATOM      8  C   UNL     1     173.739 173.941 177.248  1.00  0.00     0.111 A 
ATOM      9  C   UNL     1     172.037 173.763 178.984  1.00  0.00     0.094 A 
ATOM     10  C   UNL     1     174.716 173.516 178.180  1.00  0.00     0.134 A 
ATOM     11  C   UNL     1     173.004 173.348 179.902  1.00  0.00     0.123 A 
ATOM     12  C   UNL     1     174.338 173.223 179.498  1.00  0.00     0.093 A 
BRANCH   3  13
ATOM     13  C   UNL     1     170.536 175.032 174.665  1.00  0.00     0.021 A 
ATOM     14  C   UNL     1     170.013 174.073 173.778  1.00  0.00     0.016 A 
ATOM     15  C   UNL     1     168.914 174.384 172.971  1.00  0.00     0.047 A 
ATOM     16  C   UNL     1     168.315 175.645 173.053  1.00  0.00     0.115 A 
ATOM     17  C   UNL     1     169.918 176.289 174.756  1.00  0.00     0.016 A 
ATOM     18  C   UNL     1     168.817 176.596 173.951  1.00  0.00     0.047 A 
BRANCH  16  19
ATOM     19  O   UNL     1     167.221 175.941 172.244  1.00  0.00    -0.508 OA
ATOM     20  H   UNL     1     166.281 175.658 172.499  1.00  0.00     0.293 HD
ENDBRANCH  16  19
ENDBRANCH   3  13
BRANCH  10  21
ATOM     21  O   UNL     1     176.053 173.383 177.807  1.00  0.00    -0.507 OA
ATOM     22  H   UNL     1     176.805 173.464 178.481  1.00  0.00     0.293 HD
ENDBRANCH  10  21
BRANCH  11  23
ATOM     23  O   UNL     1     172.629 173.060 181.212  1.00  0.00    -0.508 OA
ATOM     24  H   UNL     1     172.238 172.160 181.466  1.00  0.00     0.293 HD
ENDBRANCH  11  23
ENDBRANCH   1   2
BRANCH   1  25
ATOM     25  C   UNL     1     173.523 176.462 173.363  1.00  0.00     0.339 C 
ATOM     26  C   UNL     1     174.878 176.636 172.605  1.00  0.00     0.214 C 
ATOM     27  O   UNL     1     172.409 176.830 172.565  1.00  0.00    -0.332 OA
ATOM     28  C   UNL     1     174.631 176.935 171.116  1.00  0.00     0.180 C 
ATOM     29  C   UNL     1     172.581 178.137 172.048  1.00  0.00     0.179 C 
ATOM     30  C   UNL     1     173.676 178.141 170.945  1.00  0.00     0.177 C 
BRANCH  26  31
ATOM     31  O   UNL     1     175.621 177.685 173.176  1.00  0.00    -0.384 OA
ATOM     32  H   UNL     1     175.915 178.267 172.427  1.00  0.00     0.211 HD
ENDBRANCH  26  31
BRANCH  28  33
ATOM     33  O   UNL     1     175.845 177.172 170.450  1.00  0.00    -0.387 OA
ATOM     34  H   UNL     1     176.379 176.337 170.522  1.00  0.00     0.211 HD
ENDBRANCH  28  33
BRANCH  29  35
ATOM     35  C   UNL     1     171.235 178.631 171.507  1.00  0.00     0.191 C 
BRANCH  35  36
ATOM     36  O   UNL     1     171.431 179.387 170.342  1.00  0.00    -0.394 OA
ATOM     37  H   UNL     1     171.765 178.753 169.657  1.00  0.00     0.210 HD
ENDBRANCH  35  36
ENDBRANCH  29  35
BRANCH  30  38
ATOM     38  O   UNL     1     174.392 179.350 171.018  1.00  0.00    -0.387 OA
ATOM     39  H   UNL     1     174.561 179.533 171.979  1.00  0.00     0.211 HD
ENDBRANCH  30  38
ENDBRANCH   1  25
TORSDOF 11
ENDMDL
MODEL 9
REMARK VINA RESULT:    -6.232      2.371      6.688
REMARK INTER + INTRA:         -10.130
REMARK INTER:                  -8.858
REMARK INTRA:                  -1.272
REMARK UNBOUND:                -1.166
REMARK SMILES O=c1c(O[C@@H]2O[C@H](CO)[C@@H](O)[C@@H](O)[C@H]2O)c(-c2ccc(O)cc2)oc2cc(O)cc(O)c12
REMARK SMILES IDX 4 1 3 2 16 3 24 4 2 5 25 6 1 7 32 8 26 9 30 10 27 11 29 12
REMARK SMILES IDX 17 13 18 14 19 15 20 16 23 17 22 18 21 19 31 21 28 23 5 25
REMARK SMILES IDX 14 26 6 27 12 28 7 29 10 30 15 31 13 33 8 35 9 36 11 38
REMARK H PARENT 21 20 31 22 28 24 15 32 13 34 9 37 11 39
REMARK Flexibility Score: inf
ROOT
ATOM      1  O   UNL     1     171.813 171.793 175.322  1.00  0.00    -0.454 OA
ENDROOT
BRANCH   1   2
ATOM      2  C   UNL     1     171.533 173.159 175.163  1.00  0.00     0.214 A 
ATOM      3  C   UNL     1     171.810 174.109 176.171  1.00  0.00     0.180 A 
ATOM      4  O   UNL     1     171.435 175.374 176.004  1.00  0.00    -0.452 OA
ATOM      5  C   UNL     1     170.954 173.595 173.966  1.00  0.00     0.239 A 
ATOM      6  C   UNL     1     170.845 175.821 174.900  1.00  0.00     0.146 A 
ATOM      7  O   UNL     1     170.747 172.760 173.043  1.00  0.00    -0.285 OA
ATOM      8  C   UNL     1     170.593 174.949 173.814  1.00  0.00     0.111 A 
ATOM      9  C   UNL     1     170.488 177.169 174.818  1.00  0.00     0.094 A 
ATOM     10  C   UNL     1     169.991 175.465 172.642  1.00  0.00     0.134 A 
ATOM     11  C   UNL     1     169.890 177.673 173.661  1.00  0.00     0.123 A 
ATOM     12  C   UNL     1     169.646 176.822 172.577  1.00  0.00     0.093 A 
BRANCH   3  13
ATOM     13  C   UNL     1     172.534 173.763 177.413  1.00  0.00     0.021 A 
ATOM     14  C   UNL     1     171.841 173.382 178.576  1.00  0.00     0.016 A 
ATOM     15  C   UNL     1     172.542 173.050 179.739  1.00  0.00     0.047 A 
ATOM     16  C   UNL     1     173.941 173.075 179.748  1.00  0.00     0.115 A 
ATOM     17  C   UNL     1     173.938 173.769 177.424  1.00  0.00     0.016 A 
ATOM     18  C   UNL     1     174.638 173.431 178.587  1.00  0.00     0.047 A 
BRANCH  16  19
ATOM     19  O   UNL     1     174.627 172.741 180.913  1.00  0.00    -0.508 OA
ATOM     20  H   UNL     1     175.632 172.854 180.987  1.00  0.00     0.293 HD
ENDBRANCH  16  19
ENDBRANCH   3  13
BRANCH  10  21
ATOM     21  O   UNL     1     169.734 174.641 171.547  1.00  0.00    -0.507 OA
ATOM     22  H   UNL     1     168.891 174.081 171.487  1.00  0.00     0.293 HD
ENDBRANCH  10  21
BRANCH  11  23
ATOM     23  O   UNL     1     169.545 179.021 173.597  1.00  0.00    -0.508 OA
ATOM     24  H   UNL     1     169.887 179.688 174.279  1.00  0.00     0.293 HD
ENDBRANCH  11  23
ENDBRANCH   1   2
BRANCH   1  25
ATOM     25  C   UNL     1     172.959 171.153 174.756  1.00  0.00     0.339 C 
ATOM     26  C   UNL     1     173.805 170.481 175.885  1.00  0.00     0.214 C 
ATOM     27  O   UNL     1     172.501 170.215 173.794  1.00  0.00    -0.332 OA
ATOM     28  C   UNL     1     173.720 168.947 175.783  1.00  0.00     0.180 C 
ATOM     29  C   UNL     1     173.586 169.459 173.286  1.00  0.00     0.179 C 
ATOM     30  C   UNL     1     174.102 168.464 174.363  1.00  0.00     0.177 C 
BRANCH  26  31
ATOM     31  O   UNL     1     175.149 170.883 175.786  1.00  0.00    -0.384 OA
ATOM     32  H   UNL     1     175.418 170.748 174.839  1.00  0.00     0.211 HD
ENDBRANCH  26  31
BRANCH  28  33
ATOM     33  O   UNL     1     174.545 168.341 176.746  1.00  0.00    -0.387 OA
ATOM     34  H   UNL     1     174.821 169.056 177.378  1.00  0.00     0.211 HD
ENDBRANCH  28  33
BRANCH  29  35
ATOM     35  C   UNL     1     173.124 168.729 172.021  1.00  0.00     0.191 C 
BRANCH  35  36
ATOM     36  O   UNL     1     173.876 167.560 171.836  1.00  0.00    -0.394 OA
ATOM     37  H   UNL     1     173.239 166.870 171.519  1.00  0.00     0.210 HD
ENDBRANCH  35  36
ENDBRANCH  29  35
BRANCH  30  38
ATOM     38  O   UNL     1     175.498 168.345 174.243  1.00  0.00    -0.387 OA
ATOM     39  H   UNL     1     175.858 169.257 174.083  1.00  0.00     0.211 HD
ENDBRANCH  30  38
ENDBRANCH   1  25
TORSDOF 11
ENDMDL
