MODEL 1
REMARK VINA RESULT:    -3.715      0.000      0.000
REMARK INTER + INTRA:          -5.745
REMARK INTER:                  -5.235
REMARK INTRA:                  -0.510
REMARK UNBOUND:                -0.510
REMARK SMILES CCCCCCCCC(=O)[O-]
REMARK SMILES IDX 6 1 7 2 8 3 9 4 10 5 11 6 5 7 4 8 3 9 2 10 1 11
REMARK H PARENT
REMARK Flexibility Score: inf
ROOT
ATOM      1  C   UNL     1      -1.482  -2.682   5.989  1.00  0.00     0.000 C 
ENDROOT
BRANCH   1   2
ATOM      2  C   UNL     1       0.039  -2.603   6.214  1.00  0.00     0.006 C 
BRANCH   2   3
ATOM      3  C   UNL     1       0.752  -1.724   5.176  1.00  0.00     0.053 C 
BRANCH   3   4
ATOM      4  C   UNL     1       2.225  -1.708   5.431  1.00  0.00     0.041 C 
ATOM      5  O   UNL     1       2.677  -1.244   6.511  1.00  0.00    -0.550 OA
ATOM      6  O   UNL     1       3.099  -2.247   4.494  1.00  0.00    -0.550 OA
ENDBRANCH   3   4
ENDBRANCH   2   3
ENDBRANCH   1   2
BRANCH   1   7
ATOM      7  C   UNL     1      -1.932  -3.722   4.947  1.00  0.00     0.000 C 
BRANCH   7   8
ATOM      8  C   UNL     1      -2.664  -3.095   3.752  1.00  0.00    -0.000 C 
BRANCH   8   9
ATOM      9  C   UNL     1      -2.824  -1.582   3.937  1.00  0.00    -0.000 C 
BRANCH   9  10
ATOM     10  C   UNL     1      -4.303  -1.189   4.010  1.00  0.00    -0.003 C 
ATOM     11  C   UNL     1      -4.718  -0.860   5.441  1.00  0.00     0.004 C 
ENDBRANCH   9  10
ENDBRANCH   8   9
ENDBRANCH   7   8
ENDBRANCH   1   7
TORSDOF 7
ENDMDL
MODEL 2
REMARK VINA RESULT:    -3.702      5.896      7.338
REMARK INTER + INTRA:          -5.727
REMARK INTER:                  -5.510
REMARK INTRA:                  -0.217
REMARK UNBOUND:                -0.510
REMARK SMILES CCCCCCCCC(=O)[O-]
REMARK SMILES IDX 6 1 7 2 8 3 9 4 10 5 11 6 5 7 4 8 3 9 2 10 1 11
REMARK H PARENT
REMARK Flexibility Score: inf
ROOT
ATOM      1  C   UNL     1       0.359   3.695   8.058  1.00  0.00     0.000 C 
ENDROOT
BRANCH   1   2
ATOM      2  C   UNL     1       0.636   4.393   6.714  1.00  0.00     0.006 C 
BRANCH   2   3
ATOM      3  C   UNL     1      -0.247   5.629   6.491  1.00  0.00     0.053 C 
BRANCH   3   4
ATOM      4  C   UNL     1      -0.424   5.885   5.028  1.00  0.00     0.041 C 
ATOM      5  O   UNL     1       0.023   5.067   4.182  1.00  0.00    -0.550 OA
ATOM      6  O   UNL     1      -1.124   7.006   4.598  1.00  0.00    -0.550 OA
ENDBRANCH   3   4
ENDBRANCH   2   3
ENDBRANCH   1   2
BRANCH   1   7
ATOM      7  C   UNL     1       1.205   2.436   8.324  1.00  0.00     0.000 C 
BRANCH   7   8
ATOM      8  C   UNL     1       1.566   1.675   7.040  1.00  0.00    -0.000 C 
BRANCH   8   9
ATOM      9  C   UNL     1       1.539   0.160   7.272  1.00  0.00    -0.000 C 
BRANCH   9  10
ATOM     10  C   UNL     1       1.932  -0.599   6.000  1.00  0.00    -0.003 C 
ATOM     11  C   UNL     1       0.737  -1.343   5.411  1.00  0.00     0.004 C 
ENDBRANCH   9  10
ENDBRANCH   8   9
ENDBRANCH   7   8
ENDBRANCH   1   7
TORSDOF 7
ENDMDL
MODEL 3
REMARK VINA RESULT:    -3.540      1.071      1.951
REMARK INTER + INTRA:          -5.499
REMARK INTER:                  -5.199
REMARK INTRA:                  -0.300
REMARK UNBOUND:                -0.510
REMARK SMILES CCCCCCCCC(=O)[O-]
REMARK SMILES IDX 6 1 7 2 8 3 9 4 10 5 11 6 5 7 4 8 3 9 2 10 1 11
REMARK H PARENT
REMARK Flexibility Score: inf
ROOT
ATOM      1  C   UNL     1       0.181  -1.842   5.076  1.00  0.00     0.000 C 
ENDROOT
BRANCH   1   2
ATOM      2  C   UNL     1       1.446  -1.219   5.693  1.00  0.00     0.006 C 
BRANCH   2   3
ATOM      3  C   UNL     1       2.472  -2.269   6.141  1.00  0.00     0.053 C 
BRANCH   3   4
ATOM      4  C   UNL     1       3.760  -2.089   5.401  1.00  0.00     0.041 C 
ATOM      5  O   UNL     1       3.824  -2.340   4.169  1.00  0.00    -0.550 OA
ATOM      6  O   UNL     1       4.878  -1.598   6.064  1.00  0.00    -0.550 OA
ENDBRANCH   3   4
ENDBRANCH   2   3
ENDBRANCH   1   2
BRANCH   1   7
ATOM      7  C   UNL     1      -0.633  -2.738   6.027  1.00  0.00     0.000 C 
BRANCH   7   8
ATOM      8  C   UNL     1      -2.150  -2.573   5.853  1.00  0.00    -0.000 C 
BRANCH   8   9
ATOM      9  C   UNL     1      -2.566  -2.814   4.397  1.00  0.00    -0.000 C 
BRANCH   9  10
ATOM     10  C   UNL     1      -3.221  -1.564   3.798  1.00  0.00    -0.003 C 
ATOM     11  C   UNL     1      -4.329  -1.034   4.703  1.00  0.00     0.004 C 
ENDBRANCH   9  10
ENDBRANCH   8   9
ENDBRANCH   7   8
ENDBRANCH   1   7
TORSDOF 7
ENDMDL
MODEL 4
REMARK VINA RESULT:    -3.539      1.384      2.409
REMARK INTER + INTRA:          -5.497
REMARK INTER:                  -5.241
REMARK INTRA:                  -0.257
REMARK UNBOUND:                -0.510
REMARK SMILES CCCCCCCCC(=O)[O-]
REMARK SMILES IDX 6 1 7 2 8 3 9 4 10 5 11 6 5 7 4 8 3 9 2 10 1 11
REMARK H PARENT
REMARK Flexibility Score: inf
ROOT
ATOM      1  C   UNL     1      -2.506  -2.368   4.866  1.00  0.00     0.000 C 
ENDROOT
BRANCH   1   2
ATOM      2  C   UNL     1      -1.009  -2.300   4.513  1.00  0.00     0.006 C 
BRANCH   2   3
ATOM      3  C   UNL     1      -0.106  -2.224   5.751  1.00  0.00     0.053 C 
BRANCH   3   4
ATOM      4  C   UNL     1       1.138  -1.453   5.443  1.00  0.00     0.041 C 
ATOM      5  O   UNL     1       2.082  -1.998   4.813  1.00  0.00    -0.550 OA
ATOM      6  O   UNL     1       1.237  -0.117   5.810  1.00  0.00    -0.550 OA
ENDBRANCH   3   4
ENDBRANCH   2   3
ENDBRANCH   1   2
BRANCH   1   7
ATOM      7  C   UNL     1      -3.445  -1.681   3.858  1.00  0.00     0.000 C 
BRANCH   7   8
ATOM      8  C   UNL     1      -4.481  -0.769   4.530  1.00  0.00    -0.000 C 
BRANCH   8   9
ATOM      9  C   UNL     1      -4.757  -1.217   5.970  1.00  0.00    -0.000 C 
BRANCH   9  10
ATOM     10  C   UNL     1      -6.177  -0.836   6.403  1.00  0.00    -0.003 C 
ATOM     11  C   UNL     1      -6.190   0.503   7.135  1.00  0.00     0.004 C 
ENDBRANCH   9  10
ENDBRANCH   8   9
ENDBRANCH   7   8
ENDBRANCH   1   7
TORSDOF 7
ENDMDL
MODEL 5
REMARK VINA RESULT:    -3.404      3.488      5.855
REMARK INTER + INTRA:          -5.307
REMARK INTER:                  -4.988
REMARK INTRA:                  -0.319
REMARK UNBOUND:                -0.510
REMARK SMILES CCCCCCCCC(=O)[O-]
REMARK SMILES IDX 6 1 7 2 8 3 9 4 10 5 11 6 5 7 4 8 3 9 2 10 1 11
REMARK H PARENT
REMARK Flexibility Score: inf
ROOT
ATOM      1  C   UNL     1      -1.401  -2.657   5.774  1.00  0.00     0.000 C 
ENDROOT
BRANCH   1   2
ATOM      2  C   UNL     1      -1.758  -1.955   4.452  1.00  0.00     0.006 C 
BRANCH   2   3
ATOM      3  C   UNL     1      -2.723  -2.774   3.583  1.00  0.00     0.053 C 
BRANCH   3   4
ATOM      4  C   UNL     1      -4.099  -2.189   3.639  1.00  0.00     0.041 C 
ATOM      5  O   UNL     1      -4.262  -0.980   3.946  1.00  0.00    -0.550 OA
ATOM      6  O   UNL     1      -5.199  -2.970   3.307  1.00  0.00    -0.550 OA
ENDBRANCH   3   4
ENDBRANCH   2   3
ENDBRANCH   1   2
BRANCH   1   7
ATOM      7  C   UNL     1       0.083  -2.574   6.174  1.00  0.00     0.000 C 
BRANCH   7   8
ATOM      8  C   UNL     1       0.910  -1.690   5.230  1.00  0.00    -0.000 C 
BRANCH   8   9
ATOM      9  C   UNL     1       2.007  -0.942   5.997  1.00  0.00    -0.000 C 
BRANCH   9  10
ATOM     10  C   UNL     1       3.311  -1.748   6.019  1.00  0.00    -0.003 C 
ATOM     11  C   UNL     1       3.547  -2.452   4.686  1.00  0.00     0.004 C 
ENDBRANCH   9  10
ENDBRANCH   8   9
ENDBRANCH   7   8
ENDBRANCH   1   7
TORSDOF 7
ENDMDL
MODEL 6
REMARK VINA RESULT:    -3.366      1.347      2.267
REMARK INTER + INTRA:          -5.253
REMARK INTER:                  -4.911
REMARK INTRA:                  -0.343
REMARK UNBOUND:                -0.510
REMARK SMILES CCCCCCCCC(=O)[O-]
REMARK SMILES IDX 6 1 7 2 8 3 9 4 10 5 11 6 5 7 4 8 3 9 2 10 1 11
REMARK H PARENT
REMARK Flexibility Score: inf
ROOT
ATOM      1  C   UNL     1      -0.843  -2.524   6.097  1.00  0.00     0.000 C 
ENDROOT
BRANCH   1   2
ATOM      2  C   UNL     1       0.612  -2.186   6.470  1.00  0.00     0.006 C 
BRANCH   2   3
ATOM      3  C   UNL     1       1.458  -1.769   5.258  1.00  0.00     0.053 C 
BRANCH   3   4
ATOM      4  C   UNL     1       2.787  -2.455   5.290  1.00  0.00     0.041 C 
ATOM      5  O   UNL     1       3.071  -3.243   6.230  1.00  0.00    -0.550 OA
ATOM      6  O   UNL     1       3.695  -2.260   4.256  1.00  0.00    -0.550 OA
ENDBRANCH   3   4
ENDBRANCH   2   3
ENDBRANCH   1   2
BRANCH   1   7
ATOM      7  C   UNL     1      -1.253  -2.141   4.664  1.00  0.00     0.000 C 
BRANCH   7   8
ATOM      8  C   UNL     1      -2.762  -1.895   4.518  1.00  0.00    -0.000 C 
BRANCH   8   9
ATOM      9  C   UNL     1      -3.334  -2.674   3.329  1.00  0.00    -0.000 C 
BRANCH   9  10
ATOM     10  C   UNL     1      -2.565  -3.982   3.106  1.00  0.00    -0.003 C 
ATOM     11  C   UNL     1      -2.877  -4.579   1.737  1.00  0.00     0.004 C 
ENDBRANCH   9  10
ENDBRANCH   8   9
ENDBRANCH   7   8
ENDBRANCH   1   7
TORSDOF 7
ENDMDL
MODEL 7
REMARK VINA RESULT:    -3.269      4.555      5.765
REMARK INTER + INTRA:          -5.117
REMARK INTER:                  -4.773
REMARK INTRA:                  -0.343
REMARK UNBOUND:                -0.510
REMARK SMILES CCCCCCCCC(=O)[O-]
REMARK SMILES IDX 6 1 7 2 8 3 9 4 10 5 11 6 5 7 4 8 3 9 2 10 1 11
REMARK H PARENT
REMARK Flexibility Score: inf
ROOT
ATOM      1  C   UNL     1       1.892   1.807   7.044  1.00  0.00     0.000 C 
ENDROOT
BRANCH   1   2
ATOM      2  C   UNL     1       1.454   0.331   7.089  1.00  0.00     0.006 C 
BRANCH   2   3
ATOM      3  C   UNL     1       2.522  -0.626   6.540  1.00  0.00     0.053 C 
BRANCH   3   4
ATOM      4  C   UNL     1       1.969  -1.428   5.406  1.00  0.00     0.041 C 
ATOM      5  O   UNL     1       0.734  -1.412   5.160  1.00  0.00    -0.550 OA
ATOM      6  O   UNL     1       2.824  -2.158   4.589  1.00  0.00    -0.550 OA
ENDBRANCH   3   4
ENDBRANCH   2   3
ENDBRANCH   1   2
BRANCH   1   7
ATOM      7  C   UNL     1       0.951   2.787   7.766  1.00  0.00     0.000 C 
BRANCH   7   8
ATOM      8  C   UNL     1       0.761   4.107   7.004  1.00  0.00    -0.000 C 
BRANCH   8   9
ATOM      9  C   UNL     1       1.516   4.084   5.670  1.00  0.00    -0.000 C 
BRANCH   9  10
ATOM     10  C   UNL     1       0.728   4.818   4.579  1.00  0.00    -0.003 C 
ATOM     11  C   UNL     1      -0.405   5.646   5.179  1.00  0.00     0.004 C 
ENDBRANCH   9  10
ENDBRANCH   8   9
ENDBRANCH   7   8
ENDBRANCH   1   7
TORSDOF 7
ENDMDL
MODEL 8
REMARK VINA RESULT:    -3.262      3.270      4.549
REMARK INTER + INTRA:          -5.108
REMARK INTER:                  -4.710
REMARK INTRA:                  -0.398
REMARK UNBOUND:                -0.510
REMARK SMILES CCCCCCCCC(=O)[O-]
REMARK SMILES IDX 6 1 7 2 8 3 9 4 10 5 11 6 5 7 4 8 3 9 2 10 1 11
REMARK H PARENT
REMARK Flexibility Score: inf
ROOT
ATOM      1  C   UNL     1      -4.217  -1.355   3.934  1.00  0.00     0.000 C 
ENDROOT
BRANCH   1   2
ATOM      2  C   UNL     1      -2.717  -1.693   3.877  1.00  0.00     0.006 C 
BRANCH   2   3
ATOM      3  C   UNL     1      -2.443  -3.108   3.346  1.00  0.00     0.053 C 
BRANCH   3   4
ATOM      4  C   UNL     1      -2.354  -4.081   4.479  1.00  0.00     0.041 C 
ATOM      5  O   UNL     1      -2.115  -3.675   5.646  1.00  0.00    -0.550 OA
ATOM      6  O   UNL     1      -2.582  -5.433   4.253  1.00  0.00    -0.550 OA
ENDBRANCH   3   4
ENDBRANCH   2   3
ENDBRANCH   1   2
BRANCH   1   7
ATOM      7  C   UNL     1      -4.659  -0.565   5.179  1.00  0.00     0.000 C 
BRANCH   7   8
ATOM      8  C   UNL     1      -4.785  -1.443   6.432  1.00  0.00    -0.000 C 
BRANCH   8   9
ATOM      9  C   UNL     1      -5.764  -0.827   7.439  1.00  0.00    -0.000 C 
BRANCH   9  10
ATOM     10  C   UNL     1      -6.298   0.519   6.935  1.00  0.00    -0.003 C 
ATOM     11  C   UNL     1      -6.803   1.379   8.090  1.00  0.00     0.004 C 
ENDBRANCH   9  10
ENDBRANCH   8   9
ENDBRANCH   7   8
ENDBRANCH   1   7
TORSDOF 7
ENDMDL
MODEL 9
REMARK VINA RESULT:    -3.211      5.479      7.311
REMARK INTER + INTRA:          -5.035
REMARK INTER:                  -4.874
REMARK INTRA:                  -0.161
REMARK UNBOUND:                -0.510
REMARK SMILES CCCCCCCCC(=O)[O-]
REMARK SMILES IDX 6 1 7 2 8 3 9 4 10 5 11 6 5 7 4 8 3 9 2 10 1 11
REMARK H PARENT
REMARK Flexibility Score: inf
ROOT
ATOM      1  C   UNL     1       1.034   2.972   7.681  1.00  0.00     0.000 C 
ENDROOT
BRANCH   1   2
ATOM      2  C   UNL     1       1.019   3.801   6.384  1.00  0.00     0.006 C 
BRANCH   2   3
ATOM      3  C   UNL     1       0.460   5.216   6.585  1.00  0.00     0.053 C 
BRANCH   3   4
ATOM      4  C   UNL     1      -0.374   5.619   5.411  1.00  0.00     0.041 C 
ATOM      5  O   UNL     1      -1.403   6.325   5.576  1.00  0.00    -0.550 OA
ATOM      6  O   UNL     1       0.011   5.253   4.127  1.00  0.00    -0.550 OA
ENDBRANCH   3   4
ENDBRANCH   2   3
ENDBRANCH   1   2
BRANCH   1   7
ATOM      7  C   UNL     1       2.133   1.897   7.754  1.00  0.00     0.000 C 
BRANCH   7   8
ATOM      8  C   UNL     1       1.584   0.469   7.617  1.00  0.00    -0.000 C 
BRANCH   8   9
ATOM      9  C   UNL     1       2.661  -0.485   7.088  1.00  0.00    -0.000 C 
BRANCH   9  10
ATOM     10  C   UNL     1       2.151  -1.272   5.875  1.00  0.00    -0.003 C 
ATOM     11  C   UNL     1       3.262  -2.120   5.261  1.00  0.00     0.004 C 
ENDBRANCH   9  10
ENDBRANCH   8   9
ENDBRANCH   7   8
ENDBRANCH   1   7
TORSDOF 7
ENDMDL
