MODEL 1
REMARK VINA RESULT:     0.511      0.000      0.000
REMARK INTER + INTRA:           0.652
REMARK INTER:                   0.616
REMARK INTRA:                   0.036
REMARK UNBOUND:                 0.036
REMARK SMILES CC[C@H](C)[C@@H]([NH3+])C(=O)[O-]
REMARK SMILES IDX 3 1 4 2 5 3 6 4 7 8 8 9 9 10 2 11 1 12
REMARK H PARENT 6 5 6 6 6 7
REMARK Flexibility Score: inf
ROOT
ATOM      1  C   UNL     1      18.993  36.685 -23.278  1.00  0.00     0.050 C 
ATOM      2  C   UNL     1      19.472  35.225 -23.377  1.00  0.00     0.014 C 
ENDROOT
BRANCH   1   3
ATOM      3  C   UNL     1      17.503  36.866 -23.714  1.00  0.00     0.230 C 
BRANCH   3   4
ATOM      4  N   UNL     1      16.694  35.651 -23.523  1.00  0.00    -0.350 N 
ATOM      5  H   UNL     1      17.216  34.952 -22.951  1.00  0.00     0.345 HD
ATOM      6  H   UNL     1      15.782  35.869 -23.060  1.00  0.00     0.345 HD
ATOM      7  H   UNL     1      16.498  35.212 -24.452  1.00  0.00     0.345 HD
ENDBRANCH   3   4
BRANCH   3   8
ATOM      8  C   UNL     1      16.875  38.050 -23.019  1.00  0.00     0.099 C 
ATOM      9  O   UNL     1      17.531  38.738 -22.190  1.00  0.00    -0.544 OA
ATOM     10  O   UNL     1      15.571  38.419 -23.328  1.00  0.00    -0.544 OA
ENDBRANCH   3   8
ENDBRANCH   1   3
BRANCH   1  11
ATOM     11  C   UNL     1      19.982  37.602 -24.040  1.00  0.00     0.006 C 
ATOM     12  C   UNL     1      21.446  37.364 -23.665  1.00  0.00     0.004 C 
ENDBRANCH   1  11
TORSDOF 4
ENDMDL
MODEL 2
REMARK VINA RESULT:     1.326      2.770      3.807
REMARK INTER + INTRA:           1.633
REMARK INTER:                   0.234
REMARK INTRA:                   1.400
REMARK UNBOUND:                 0.036
REMARK SMILES CC[C@H](C)[C@@H]([NH3+])C(=O)[O-]
REMARK SMILES IDX 3 1 4 2 5 3 6 4 7 8 8 9 9 10 2 11 1 12
REMARK H PARENT 6 5 6 6 6 7
REMARK Flexibility Score: inf
ROOT
ATOM      1  C   UNL     1      17.816  36.573 -23.785  1.00  0.00     0.050 C 
ATOM      2  C   UNL     1      17.898  35.380 -22.814  1.00  0.00     0.014 C 
ENDROOT
BRANCH   1   3
ATOM      3  C   UNL     1      18.940  37.631 -23.545  1.00  0.00     0.230 C 
BRANCH   3   4
ATOM      4  N   UNL     1      18.829  38.305 -22.240  1.00  0.00    -0.350 N 
ATOM      5  H   UNL     1      18.557  39.305 -22.369  1.00  0.00     0.345 HD
ATOM      6  H   UNL     1      18.132  37.830 -21.624  1.00  0.00     0.345 HD
ATOM      7  H   UNL     1      19.759  38.294 -21.761  1.00  0.00     0.345 HD
ENDBRANCH   3   4
BRANCH   3   8
ATOM      8  C   UNL     1      20.308  37.018 -23.723  1.00  0.00     0.099 C 
ATOM      9  O   UNL     1      20.441  35.784 -23.946  1.00  0.00    -0.544 OA
ATOM     10  O   UNL     1      21.436  37.829 -23.689  1.00  0.00    -0.544 OA
ENDBRANCH   3   8
ENDBRANCH   1   3
BRANCH   1  11
ATOM     11  C   UNL     1      16.384  37.164 -23.749  1.00  0.00     0.006 C 
ATOM     12  C   UNL     1      16.287  38.482 -22.979  1.00  0.00     0.004 C 
ENDBRANCH   1  11
TORSDOF 4
ENDMDL
MODEL 3
REMARK VINA RESULT:     1.991     12.841     13.420
REMARK INTER + INTRA:           2.435
REMARK INTER:                   2.511
REMARK INTRA:                  -0.076
REMARK UNBOUND:                 0.036
REMARK SMILES CC[C@H](C)[C@@H]([NH3+])C(=O)[O-]
REMARK SMILES IDX 3 1 4 2 5 3 6 4 7 8 8 9 9 10 2 11 1 12
REMARK H PARENT 6 5 6 6 6 7
REMARK Flexibility Score: inf
ROOT
ATOM      1  C   UNL     1      20.722  43.774 -13.040  1.00  0.00     0.050 C 
ATOM      2  C   UNL     1      19.237  43.470 -13.317  1.00  0.00     0.014 C 
ENDROOT
BRANCH   1   3
ATOM      3  C   UNL     1      21.121  45.239 -13.408  1.00  0.00     0.230 C 
BRANCH   3   4
ATOM      4  N   UNL     1      20.001  46.023 -13.955  1.00  0.00    -0.350 N 
ATOM      5  H   UNL     1      20.229  47.041 -13.944  1.00  0.00     0.345 HD
ATOM      6  H   UNL     1      19.769  45.728 -14.930  1.00  0.00     0.345 HD
ATOM      7  H   UNL     1      19.154  45.886 -13.356  1.00  0.00     0.345 HD
ENDBRANCH   3   4
BRANCH   3   8
ATOM      8  C   UNL     1      21.750  45.942 -12.230  1.00  0.00     0.099 C 
ATOM      9  O   UNL     1      22.112  45.297 -11.209  1.00  0.00    -0.544 OA
ATOM     10  O   UNL     1      21.977  47.312 -12.286  1.00  0.00    -0.544 OA
ENDBRANCH   3   8
ENDBRANCH   1   3
BRANCH   1  11
ATOM     11  C   UNL     1      21.601  42.696 -13.723  1.00  0.00     0.006 C 
ATOM     12  C   UNL     1      21.601  41.354 -12.989  1.00  0.00     0.004 C 
ENDBRANCH   1  11
TORSDOF 4
ENDMDL
MODEL 4
REMARK VINA RESULT:     2.039     12.685     13.302
REMARK INTER + INTRA:           2.493
REMARK INTER:                   2.568
REMARK INTRA:                  -0.075
REMARK UNBOUND:                 0.036
REMARK SMILES CC[C@H](C)[C@@H]([NH3+])C(=O)[O-]
REMARK SMILES IDX 3 1 4 2 5 3 6 4 7 8 8 9 9 10 2 11 1 12
REMARK H PARENT 6 5 6 6 6 7
REMARK Flexibility Score: inf
ROOT
ATOM      1  C   UNL     1      21.037  45.163 -13.027  1.00  0.00     0.050 C 
ATOM      2  C   UNL     1      20.016  45.989 -13.833  1.00  0.00     0.014 C 
ENDROOT
BRANCH   1   3
ATOM      3  C   UNL     1      20.536  43.717 -12.713  1.00  0.00     0.230 C 
BRANCH   3   4
ATOM      4  N   UNL     1      19.182  43.451 -13.226  1.00  0.00    -0.350 N 
ATOM      5  H   UNL     1      18.831  44.270 -13.770  1.00  0.00     0.345 HD
ATOM      6  H   UNL     1      19.163  42.597 -13.828  1.00  0.00     0.345 HD
ATOM      7  H   UNL     1      18.526  43.306 -12.423  1.00  0.00     0.345 HD
ENDBRANCH   3   4
BRANCH   3   8
ATOM      8  C   UNL     1      21.516  42.683 -13.213  1.00  0.00     0.099 C 
ATOM      9  O   UNL     1      22.666  43.019 -13.607  1.00  0.00    -0.544 OA
ATOM     10  O   UNL     1      21.168  41.338 -13.194  1.00  0.00    -0.544 OA
ENDBRANCH   3   8
ENDBRANCH   1   3
BRANCH   1  11
ATOM     11  C   UNL     1      21.465  45.963 -11.771  1.00  0.00     0.006 C 
ATOM     12  C   UNL     1      22.320  47.190 -12.091  1.00  0.00     0.004 C 
ENDBRANCH   1  11
TORSDOF 4
ENDMDL
MODEL 5
REMARK VINA RESULT:     2.166     12.541     13.137
REMARK INTER + INTRA:           2.646
REMARK INTER:                   1.940
REMARK INTRA:                   0.706
REMARK UNBOUND:                 0.036
REMARK SMILES CC[C@H](C)[C@@H]([NH3+])C(=O)[O-]
REMARK SMILES IDX 3 1 4 2 5 3 6 4 7 8 8 9 9 10 2 11 1 12
REMARK H PARENT 6 5 6 6 6 7
REMARK Flexibility Score: inf
ROOT
ATOM      1  C   UNL     1      21.143  45.093 -13.393  1.00  0.00     0.050 C 
ATOM      2  C   UNL     1      19.738  45.567 -13.811  1.00  0.00     0.014 C 
ENDROOT
BRANCH   1   3
ATOM      3  C   UNL     1      21.406  43.593 -13.740  1.00  0.00     0.230 C 
BRANCH   3   4
ATOM      4  N   UNL     1      22.747  43.134 -13.338  1.00  0.00    -0.350 N 
ATOM      5  H   UNL     1      23.136  43.754 -12.594  1.00  0.00     0.345 HD
ATOM      6  H   UNL     1      22.725  42.147 -12.994  1.00  0.00     0.345 HD
ATOM      7  H   UNL     1      23.394  43.186 -14.158  1.00  0.00     0.345 HD
ENDBRANCH   3   4
BRANCH   3   8
ATOM      8  C   UNL     1      20.333  42.705 -13.158  1.00  0.00     0.099 C 
ATOM      9  O   UNL     1      19.138  43.098 -13.083  1.00  0.00    -0.544 OA
ATOM     10  O   UNL     1      20.654  41.419 -12.741  1.00  0.00    -0.544 OA
ENDBRANCH   3   8
ENDBRANCH   1   3
BRANCH   1  11
ATOM     11  C   UNL     1      21.377  45.440 -11.901  1.00  0.00     0.006 C 
ATOM     12  C   UNL     1      22.119  46.762 -11.691  1.00  0.00     0.004 C 
ENDBRANCH   1  11
TORSDOF 4
ENDMDL
MODEL 6
REMARK VINA RESULT:     2.241     12.534     13.095
REMARK INTER + INTRA:           2.736
REMARK INTER:                   2.803
REMARK INTRA:                  -0.068
REMARK UNBOUND:                 0.036
REMARK SMILES CC[C@H](C)[C@@H]([NH3+])C(=O)[O-]
REMARK SMILES IDX 3 1 4 2 5 3 6 4 7 8 8 9 9 10 2 11 1 12
REMARK H PARENT 6 5 6 6 6 7
REMARK Flexibility Score: inf
ROOT
ATOM      1  C   UNL     1      20.848  44.910 -12.692  1.00  0.00     0.050 C 
ATOM      2  C   UNL     1      21.920  45.299 -11.656  1.00  0.00     0.014 C 
ENDROOT
BRANCH   1   3
ATOM      3  C   UNL     1      21.222  43.625 -13.499  1.00  0.00     0.230 C 
BRANCH   3   4
ATOM      4  N   UNL     1      22.616  43.199 -13.294  1.00  0.00    -0.350 N 
ATOM      5  H   UNL     1      22.905  42.527 -14.038  1.00  0.00     0.345 HD
ATOM      6  H   UNL     1      23.268  44.016 -13.290  1.00  0.00     0.345 HD
ATOM      7  H   UNL     1      22.699  42.703 -12.376  1.00  0.00     0.345 HD
ENDBRANCH   3   4
BRANCH   3   8
ATOM      8  C   UNL     1      20.262  42.499 -13.199  1.00  0.00     0.099 C 
ATOM      9  O   UNL     1      20.680  41.322 -13.022  1.00  0.00    -0.544 OA
ATOM     10  O   UNL     1      18.905  42.766 -13.070  1.00  0.00    -0.544 OA
ENDBRANCH   3   8
ENDBRANCH   1   3
BRANCH   1  11
ATOM     11  C   UNL     1      20.528  46.136 -13.583  1.00  0.00     0.006 C 
ATOM     12  C   UNL     1      21.367  47.371 -13.247  1.00  0.00     0.004 C 
ENDBRANCH   1  11
TORSDOF 4
ENDMDL
MODEL 7
REMARK VINA RESULT:     2.275     12.599     13.179
REMARK INTER + INTRA:           2.777
REMARK INTER:                   2.844
REMARK INTRA:                  -0.067
REMARK UNBOUND:                 0.036
REMARK SMILES CC[C@H](C)[C@@H]([NH3+])C(=O)[O-]
REMARK SMILES IDX 3 1 4 2 5 3 6 4 7 8 8 9 9 10 2 11 1 12
REMARK H PARENT 6 5 6 6 6 7
REMARK Flexibility Score: inf
ROOT
ATOM      1  C   UNL     1      20.862  44.983 -12.644  1.00  0.00     0.050 C 
ATOM      2  C   UNL     1      21.948  45.296 -11.598  1.00  0.00     0.014 C 
ENDROOT
BRANCH   1   3
ATOM      3  C   UNL     1      21.169  43.692 -13.470  1.00  0.00     0.230 C 
BRANCH   3   4
ATOM      4  N   UNL     1      22.558  43.228 -13.322  1.00  0.00    -0.350 N 
ATOM      5  H   UNL     1      23.078  43.841 -12.656  1.00  0.00     0.345 HD
ATOM      6  H   UNL     1      22.596  42.238 -12.987  1.00  0.00     0.345 HD
ATOM      7  H   UNL     1      23.047  43.286 -14.245  1.00  0.00     0.345 HD
ENDBRANCH   3   4
BRANCH   3   8
ATOM      8  C   UNL     1      20.192  42.590 -13.136  1.00  0.00     0.099 C 
ATOM      9  O   UNL     1      18.953  42.818 -13.083  1.00  0.00    -0.544 OA
ATOM     10  O   UNL     1      20.656  41.297 -12.931  1.00  0.00    -0.544 OA
ENDBRANCH   3   8
ENDBRANCH   1   3
BRANCH   1  11
ATOM     11  C   UNL     1      20.615  46.238 -13.517  1.00  0.00     0.006 C 
ATOM     12  C   UNL     1      21.507  47.424 -13.148  1.00  0.00     0.004 C 
ENDBRANCH   1  11
TORSDOF 4
ENDMDL
MODEL 8
REMARK VINA RESULT:     2.374     12.812     13.368
REMARK INTER + INTRA:           2.896
REMARK INTER:                   2.964
REMARK INTRA:                  -0.068
REMARK UNBOUND:                 0.036
REMARK SMILES CC[C@H](C)[C@@H]([NH3+])C(=O)[O-]
REMARK SMILES IDX 3 1 4 2 5 3 6 4 7 8 8 9 9 10 2 11 1 12
REMARK H PARENT 6 5 6 6 6 7
REMARK Flexibility Score: inf
ROOT
ATOM      1  C   UNL     1      21.101  43.894 -13.407  1.00  0.00     0.050 C 
ATOM      2  C   UNL     1      22.433  43.121 -13.386  1.00  0.00     0.014 C 
ENDROOT
BRANCH   1   3
ATOM      3  C   UNL     1      21.082  45.099 -12.412  1.00  0.00     0.230 C 
BRANCH   3   4
ATOM      4  N   UNL     1      22.257  45.135 -11.526  1.00  0.00    -0.350 N 
ATOM      5  H   UNL     1      22.414  44.199 -11.090  1.00  0.00     0.345 HD
ATOM      6  H   UNL     1      23.117  45.427 -12.045  1.00  0.00     0.345 HD
ATOM      7  H   UNL     1      22.090  45.816 -10.750  1.00  0.00     0.345 HD
ENDBRANCH   3   4
BRANCH   3   8
ATOM      8  C   UNL     1      20.918  46.407 -13.147  1.00  0.00     0.099 C 
ATOM      9  O   UNL     1      21.624  47.409 -12.852  1.00  0.00    -0.544 OA
ATOM     10  O   UNL     1      20.011  46.498 -14.196  1.00  0.00    -0.544 OA
ENDBRANCH   3   8
ENDBRANCH   1   3
BRANCH   1  11
ATOM     11  C   UNL     1      19.929  42.901 -13.208  1.00  0.00     0.006 C 
ATOM     12  C   UNL     1      20.385  41.472 -12.906  1.00  0.00     0.004 C 
ENDBRANCH   1  11
TORSDOF 4
ENDMDL
MODEL 9
REMARK VINA RESULT:     3.178     17.476     18.358
REMARK INTER + INTRA:           3.864
REMARK INTER:                   3.842
REMARK INTRA:                   0.023
REMARK UNBOUND:                 0.036
REMARK SMILES CC[C@H](C)[C@@H]([NH3+])C(=O)[O-]
REMARK SMILES IDX 3 1 4 2 5 3 6 4 7 8 8 9 9 10 2 11 1 12
REMARK H PARENT 6 5 6 6 6 7
REMARK Flexibility Score: inf
ROOT
ATOM      1  C   UNL     1      28.026  36.042  -7.389  1.00  0.00     0.050 C 
ATOM      2  C   UNL     1      26.705  35.251  -7.340  1.00  0.00     0.014 C 
ENDROOT
BRANCH   1   3
ATOM      3  C   UNL     1      28.430  36.461  -8.839  1.00  0.00     0.230 C 
BRANCH   3   4
ATOM      4  N   UNL     1      27.996  35.494  -9.861  1.00  0.00    -0.350 N 
ATOM      5  H   UNL     1      27.820  35.978 -10.769  1.00  0.00     0.345 HD
ATOM      6  H   UNL     1      28.707  34.740 -10.000  1.00  0.00     0.345 HD
ATOM      7  H   UNL     1      27.096  35.051  -9.564  1.00  0.00     0.345 HD
ENDBRANCH   3   4
BRANCH   3   8
ATOM      8  C   UNL     1      27.933  37.849  -9.162  1.00  0.00     0.099 C 
ATOM      9  O   UNL     1      26.810  38.247  -8.748  1.00  0.00    -0.544 OA
ATOM     10  O   UNL     1      28.741  38.719  -9.883  1.00  0.00    -0.544 OA
ENDBRANCH   3   8
ENDBRANCH   1   3
BRANCH   1  11
ATOM     11  C   UNL     1      29.125  35.251  -6.638  1.00  0.00     0.006 C 
ATOM     12  C   UNL     1      29.112  35.474  -5.124  1.00  0.00     0.004 C 
ENDBRANCH   1  11
TORSDOF 4
ENDMDL
