MODEL 1
REMARK VINA RESULT:    -6.237      0.000      0.000
REMARK INTER + INTRA:          -7.557
REMARK INTER:                  -7.330
REMARK INTRA:                  -0.227
REMARK UNBOUND:                -0.227
REMARK SMILES O=c1c(O)c(-c2ccc(O)cc2)oc2cc(O)cc(O)c12
REMARK SMILES IDX 5 1 3 2 2 3 1 4 21 5 19 6 18 7 16 8 15 9 14 10 13 11 6 12
REMARK SMILES IDX 7 13 8 14 9 15 12 16 11 17 10 18 4 20 20 22 17 24
REMARK H PARENT 10 19 4 21 20 23 17 25
REMARK Flexibility Score: inf
ROOT
ATOM      1  C   UNL     1     -11.312   6.903   5.621  1.00  0.00     0.180 A 
ATOM      2  C   UNL     1     -12.393   7.793   5.782  1.00  0.00     0.208 A 
ATOM      3  C   UNL     1     -12.138   9.173   5.807  1.00  0.00     0.238 A 
ATOM      4  O   UNL     1     -13.096   9.978   5.961  1.00  0.00    -0.285 OA
ATOM      5  C   UNL     1     -10.817   9.640   5.650  1.00  0.00     0.111 A 
ATOM      6  C   UNL     1     -10.475  11.014   5.659  1.00  0.00     0.134 A 
ATOM      7  C   UNL     1      -9.137  11.401   5.488  1.00  0.00     0.093 A 
ATOM      8  C   UNL     1      -8.136  10.439   5.308  1.00  0.00     0.123 A 
ATOM      9  C   UNL     1      -8.468   9.083   5.298  1.00  0.00     0.094 A 
ATOM     10  C   UNL     1      -9.795   8.678   5.470  1.00  0.00     0.146 A 
ATOM     11  O   UNL     1     -10.081   7.382   5.462  1.00  0.00    -0.452 OA
ENDROOT
BRANCH   1  12
ATOM     12  C   UNL     1     -11.497   5.435   5.604  1.00  0.00     0.021 A 
ATOM     13  C   UNL     1     -11.103   4.633   6.692  1.00  0.00     0.016 A 
ATOM     14  C   UNL     1     -11.267   3.246   6.642  1.00  0.00     0.047 A 
ATOM     15  C   UNL     1     -11.811   2.641   5.503  1.00  0.00     0.115 A 
ATOM     16  C   UNL     1     -12.023   4.817   4.457  1.00  0.00     0.016 A 
ATOM     17  C   UNL     1     -12.186   3.430   4.412  1.00  0.00     0.047 A 
BRANCH  15  18
ATOM     18  O   UNL     1     -11.980   1.259   5.443  1.00  0.00    -0.508 OA
ATOM     19  H   UNL     1     -11.559   0.644   6.129  1.00  0.00     0.293 HD
ENDBRANCH  15  18
ENDBRANCH   1  12
BRANCH   2  20
ATOM     20  O   UNL     1     -13.698   7.306   5.885  1.00  0.00    -0.502 OA
ATOM     21  H   UNL     1     -13.908   6.394   6.273  1.00  0.00     0.293 HD
ENDBRANCH   2  20
BRANCH   6  22
ATOM     22  O   UNL     1     -11.452  11.996   5.836  1.00  0.00    -0.507 OA
ATOM     23  H   UNL     1     -11.735  12.609   5.080  1.00  0.00     0.293 HD
ENDBRANCH   6  22
BRANCH   8  24
ATOM     24  O   UNL     1      -6.808  10.822   5.137  1.00  0.00    -0.508 OA
ATOM     25  H   UNL     1      -6.090  10.151   4.890  1.00  0.00     0.293 HD
ENDBRANCH   8  24
TORSDOF 5
ENDMDL
MODEL 2
REMARK VINA RESULT:    -6.163      1.795      3.409
REMARK INTER + INTRA:          -7.470
REMARK INTER:                  -7.354
REMARK INTRA:                  -0.116
REMARK UNBOUND:                -0.227
REMARK SMILES O=c1c(O)c(-c2ccc(O)cc2)oc2cc(O)cc(O)c12
REMARK SMILES IDX 5 1 3 2 2 3 1 4 21 5 19 6 18 7 16 8 15 9 14 10 13 11 6 12
REMARK SMILES IDX 7 13 8 14 9 15 12 16 11 17 10 18 4 20 20 22 17 24
REMARK H PARENT 10 19 4 21 20 23 17 25
REMARK Flexibility Score: inf
ROOT
ATOM      1  C   UNL     1     -11.722   7.417   5.733  1.00  0.00     0.180 A 
ATOM      2  C   UNL     1     -10.383   7.795   5.508  1.00  0.00     0.208 A 
ATOM      3  C   UNL     1     -10.108   9.112   5.109  1.00  0.00     0.238 A 
ATOM      4  O   UNL     1      -8.915   9.459   4.894  1.00  0.00    -0.285 OA
ATOM      5  C   UNL     1     -11.168  10.031   4.961  1.00  0.00     0.111 A 
ATOM      6  C   UNL     1     -10.976  11.377   4.566  1.00  0.00     0.134 A 
ATOM      7  C   UNL     1     -12.082  12.233   4.450  1.00  0.00     0.093 A 
ATOM      8  C   UNL     1     -13.373  11.768   4.721  1.00  0.00     0.123 A 
ATOM      9  C   UNL     1     -13.568  10.442   5.111  1.00  0.00     0.094 A 
ATOM     10  C   UNL     1     -12.479   9.573   5.230  1.00  0.00     0.146 A 
ATOM     11  O   UNL     1     -12.694   8.315   5.598  1.00  0.00    -0.452 OA
ENDROOT
BRANCH   1  12
ATOM     12  C   UNL     1     -12.094   6.042   6.137  1.00  0.00     0.021 A 
ATOM     13  C   UNL     1     -12.909   5.233   5.323  1.00  0.00     0.016 A 
ATOM     14  C   UNL     1     -13.266   3.947   5.738  1.00  0.00     0.047 A 
ATOM     15  C   UNL     1     -12.827   3.459   6.975  1.00  0.00     0.115 A 
ATOM     16  C   UNL     1     -11.675   5.552   7.386  1.00  0.00     0.016 A 
ATOM     17  C   UNL     1     -12.034   4.265   7.796  1.00  0.00     0.047 A 
BRANCH  15  18
ATOM     18  O   UNL     1     -13.176   2.177   7.398  1.00  0.00    -0.508 OA
ATOM     19  H   UNL     1     -12.831   1.796   8.270  1.00  0.00     0.293 HD
ENDBRANCH  15  18
ENDBRANCH   1  12
BRANCH   2  20
ATOM     20  O   UNL     1      -9.348   6.879   5.710  1.00  0.00    -0.502 OA
ATOM     21  H   UNL     1      -9.512   5.883   5.789  1.00  0.00     0.293 HD
ENDBRANCH   2  20
BRANCH   6  22
ATOM     22  O   UNL     1      -9.699  11.869   4.289  1.00  0.00    -0.507 OA
ATOM     23  H   UNL     1      -9.099  12.236   5.019  1.00  0.00     0.293 HD
ENDBRANCH   6  22
BRANCH   8  24
ATOM     24  O   UNL     1     -14.471  12.618   4.607  1.00  0.00    -0.508 OA
ATOM     25  H   UNL     1     -14.914  12.794   3.713  1.00  0.00     0.293 HD
ENDBRANCH   8  24
TORSDOF 5
ENDMDL
MODEL 3
REMARK VINA RESULT:    -6.078      0.111      1.062
REMARK INTER + INTRA:          -7.370
REMARK INTER:                  -7.186
REMARK INTRA:                  -0.184
REMARK UNBOUND:                -0.227
REMARK SMILES O=c1c(O)c(-c2ccc(O)cc2)oc2cc(O)cc(O)c12
REMARK SMILES IDX 5 1 3 2 2 3 1 4 21 5 19 6 18 7 16 8 15 9 14 10 13 11 6 12
REMARK SMILES IDX 7 13 8 14 9 15 12 16 11 17 10 18 4 20 20 22 17 24
REMARK H PARENT 10 19 4 21 20 23 17 25
REMARK Flexibility Score: inf
ROOT
ATOM      1  C   UNL     1     -11.336   6.898   5.606  1.00  0.00     0.180 A 
ATOM      2  C   UNL     1     -12.426   7.775   5.779  1.00  0.00     0.208 A 
ATOM      3  C   UNL     1     -12.180   9.154   5.856  1.00  0.00     0.238 A 
ATOM      4  O   UNL     1     -13.146   9.949   6.022  1.00  0.00    -0.285 OA
ATOM      5  C   UNL     1     -10.860   9.635   5.739  1.00  0.00     0.111 A 
ATOM      6  C   UNL     1     -10.528  11.010   5.801  1.00  0.00     0.134 A 
ATOM      7  C   UNL     1      -9.189  11.410   5.666  1.00  0.00     0.093 A 
ATOM      8  C   UNL     1      -8.179  10.461   5.470  1.00  0.00     0.123 A 
ATOM      9  C   UNL     1      -8.501   9.105   5.408  1.00  0.00     0.094 A 
ATOM     10  C   UNL     1      -9.829   8.686   5.542  1.00  0.00     0.146 A 
ATOM     11  O   UNL     1     -10.106   7.389   5.484  1.00  0.00    -0.452 OA
ENDROOT
BRANCH   1  12
ATOM     12  C   UNL     1     -11.512   5.430   5.535  1.00  0.00     0.021 A 
ATOM     13  C   UNL     1     -12.135   4.818   4.431  1.00  0.00     0.016 A 
ATOM     14  C   UNL     1     -12.310   3.431   4.398  1.00  0.00     0.047 A 
ATOM     15  C   UNL     1     -11.879   2.641   5.471  1.00  0.00     0.115 A 
ATOM     16  C   UNL     1     -11.101   4.631   6.615  1.00  0.00     0.016 A 
ATOM     17  C   UNL     1     -11.277   3.245   6.578  1.00  0.00     0.047 A 
BRANCH  15  18
ATOM     18  O   UNL     1     -12.047   1.258   5.447  1.00  0.00    -0.508 OA
ATOM     19  H   UNL     1     -12.098   0.717   6.302  1.00  0.00     0.293 HD
ENDBRANCH  15  18
ENDBRANCH   1  12
BRANCH   2  20
ATOM     20  O   UNL     1     -13.729   7.277   5.843  1.00  0.00    -0.502 OA
ATOM     21  H   UNL     1     -14.348   7.472   6.621  1.00  0.00     0.293 HD
ENDBRANCH   2  20
BRANCH   6  22
ATOM     22  O   UNL     1     -11.513  11.979   5.995  1.00  0.00    -0.507 OA
ATOM     23  H   UNL     1     -11.281  12.955   6.136  1.00  0.00     0.293 HD
ENDBRANCH   6  22
BRANCH   8  24
ATOM     24  O   UNL     1      -6.851  10.858   5.335  1.00  0.00    -0.508 OA
ATOM     25  H   UNL     1      -6.106  10.399   5.847  1.00  0.00     0.293 HD
ENDBRANCH   8  24
TORSDOF 5
ENDMDL
MODEL 4
REMARK VINA RESULT:    -5.936      2.290      3.971
REMARK INTER + INTRA:          -7.204
REMARK INTER:                  -6.911
REMARK INTRA:                  -0.293
REMARK UNBOUND:                -0.227
REMARK SMILES O=c1c(O)c(-c2ccc(O)cc2)oc2cc(O)cc(O)c12
REMARK SMILES IDX 5 1 3 2 2 3 1 4 21 5 19 6 18 7 16 8 15 9 14 10 13 11 6 12
REMARK SMILES IDX 7 13 8 14 9 15 12 16 11 17 10 18 4 20 20 22 17 24
REMARK H PARENT 10 19 4 21 20 23 17 25
REMARK Flexibility Score: inf
ROOT
ATOM      1  C   UNL     1     -11.684   5.944   6.838  1.00  0.00     0.180 A 
ATOM      2  C   UNL     1     -10.438   6.344   6.316  1.00  0.00     0.208 A 
ATOM      3  C   UNL     1     -10.362   7.538   5.583  1.00  0.00     0.238 A 
ATOM      4  O   UNL     1      -9.255   7.902   5.101  1.00  0.00    -0.285 OA
ATOM      5  C   UNL     1     -11.522   8.320   5.401  1.00  0.00     0.111 A 
ATOM      6  C   UNL     1     -11.530   9.538   4.679  1.00  0.00     0.134 A 
ATOM      7  C   UNL     1     -12.724  10.263   4.550  1.00  0.00     0.093 A 
ATOM      8  C   UNL     1     -13.908   9.794   5.130  1.00  0.00     0.123 A 
ATOM      9  C   UNL     1     -13.906   8.594   5.843  1.00  0.00     0.094 A 
ATOM     10  C   UNL     1     -12.726   7.855   5.980  1.00  0.00     0.146 A 
ATOM     11  O   UNL     1     -12.754   6.714   6.659  1.00  0.00    -0.452 OA
ENDROOT
BRANCH   1  12
ATOM     12  C   UNL     1     -11.849   4.689   7.605  1.00  0.00     0.021 A 
ATOM     13  C   UNL     1     -12.240   3.491   6.978  1.00  0.00     0.016 A 
ATOM     14  C   UNL     1     -12.412   2.324   7.728  1.00  0.00     0.047 A 
ATOM     15  C   UNL     1     -12.211   2.342   9.113  1.00  0.00     0.115 A 
ATOM     16  C   UNL     1     -11.670   4.702   8.999  1.00  0.00     0.016 A 
ATOM     17  C   UNL     1     -11.842   3.533   9.745  1.00  0.00     0.047 A 
BRANCH  15  18
ATOM     18  O   UNL     1     -12.379   1.184   9.871  1.00  0.00    -0.508 OA
ATOM     19  H   UNL     1     -12.604   0.296   9.438  1.00  0.00     0.293 HD
ENDBRANCH  15  18
ENDBRANCH   1  12
BRANCH   2  20
ATOM     20  O   UNL     1      -9.295   5.578   6.552  1.00  0.00    -0.502 OA
ATOM     21  H   UNL     1      -8.644   5.333   5.816  1.00  0.00     0.293 HD
ENDBRANCH   2  20
BRANCH   6  22
ATOM     22  O   UNL     1     -10.364  10.032   4.091  1.00  0.00    -0.507 OA
ATOM     23  H   UNL     1      -9.501   9.501   4.090  1.00  0.00     0.293 HD
ENDBRANCH   6  22
BRANCH   8  24
ATOM     24  O   UNL     1     -15.094  10.514   5.003  1.00  0.00    -0.508 OA
ATOM     25  H   UNL     1     -15.409  10.863   4.105  1.00  0.00     0.293 HD
ENDBRANCH   8  24
TORSDOF 5
ENDMDL
MODEL 5
REMARK VINA RESULT:    -5.831      1.399      6.423
REMARK INTER + INTRA:          -7.081
REMARK INTER:                  -6.814
REMARK INTRA:                  -0.267
REMARK UNBOUND:                -0.227
REMARK SMILES O=c1c(O)c(-c2ccc(O)cc2)oc2cc(O)cc(O)c12
REMARK SMILES IDX 5 1 3 2 2 3 1 4 21 5 19 6 18 7 16 8 15 9 14 10 13 11 6 12
REMARK SMILES IDX 7 13 8 14 9 15 12 16 11 17 10 18 4 20 20 22 17 24
REMARK H PARENT 10 19 4 21 20 23 17 25
REMARK Flexibility Score: inf
ROOT
ATOM      1  C   UNL     1      -9.961   8.324   5.862  1.00  0.00     0.180 A 
ATOM      2  C   UNL     1     -11.251   8.837   5.622  1.00  0.00     0.208 A 
ATOM      3  C   UNL     1     -12.331   7.945   5.537  1.00  0.00     0.238 A 
ATOM      4  O   UNL     1     -13.489   8.391   5.313  1.00  0.00    -0.285 OA
ATOM      5  C   UNL     1     -12.108   6.563   5.713  1.00  0.00     0.111 A 
ATOM      6  C   UNL     1     -13.142   5.598   5.647  1.00  0.00     0.134 A 
ATOM      7  C   UNL     1     -12.842   4.241   5.841  1.00  0.00     0.093 A 
ATOM      8  C   UNL     1     -11.528   3.833   6.100  1.00  0.00     0.123 A 
ATOM      9  C   UNL     1     -10.506   4.781   6.166  1.00  0.00     0.094 A 
ATOM     10  C   UNL     1     -10.785   6.137   5.973  1.00  0.00     0.146 A 
ATOM     11  O   UNL     1      -9.792   7.017   6.036  1.00  0.00    -0.452 OA
ENDROOT
BRANCH   1  12
ATOM     12  C   UNL     1      -8.770   9.199   5.945  1.00  0.00     0.021 A 
ATOM     13  C   UNL     1      -7.880   9.333   4.863  1.00  0.00     0.016 A 
ATOM     14  C   UNL     1      -6.749  10.147   4.975  1.00  0.00     0.047 A 
ATOM     15  C   UNL     1      -6.485  10.824   6.171  1.00  0.00     0.115 A 
ATOM     16  C   UNL     1      -8.485   9.867   7.149  1.00  0.00     0.016 A 
ATOM     17  C   UNL     1      -7.354  10.680   7.256  1.00  0.00     0.047 A 
BRANCH  15  18
ATOM     18  O   UNL     1      -5.360  11.640   6.293  1.00  0.00    -0.508 OA
ATOM     19  H   UNL     1      -4.995  12.159   5.504  1.00  0.00     0.293 HD
ENDBRANCH  15  18
ENDBRANCH   1  12
BRANCH   2  20
ATOM     20  O   UNL     1     -11.452  10.214   5.502  1.00  0.00    -0.502 OA
ATOM     21  H   UNL     1     -10.751  10.834   5.115  1.00  0.00     0.293 HD
ENDBRANCH   2  20
BRANCH   6  22
ATOM     22  O   UNL     1     -14.462   5.975   5.390  1.00  0.00    -0.507 OA
ATOM     23  H   UNL     1     -14.707   6.929   5.150  1.00  0.00     0.293 HD
ENDBRANCH   6  22
BRANCH   8  24
ATOM     24  O   UNL     1     -11.229   2.487   6.294  1.00  0.00    -0.508 OA
ATOM     25  H   UNL     1     -11.874   1.864   6.767  1.00  0.00     0.293 HD
ENDBRANCH   8  24
TORSDOF 5
ENDMDL
MODEL 6
REMARK VINA RESULT:    -5.640      1.163      1.404
REMARK INTER + INTRA:          -6.856
REMARK INTER:                  -6.642
REMARK INTRA:                  -0.214
REMARK UNBOUND:                -0.227
REMARK SMILES O=c1c(O)c(-c2ccc(O)cc2)oc2cc(O)cc(O)c12
REMARK SMILES IDX 5 1 3 2 2 3 1 4 21 5 19 6 18 7 16 8 15 9 14 10 13 11 6 12
REMARK SMILES IDX 7 13 8 14 9 15 12 16 11 17 10 18 4 20 20 22 17 24
REMARK H PARENT 10 19 4 21 20 23 17 25
REMARK Flexibility Score: inf
ROOT
ATOM      1  C   UNL     1     -12.321   6.878   5.594  1.00  0.00     0.180 A 
ATOM      2  C   UNL     1     -13.583   7.501   5.660  1.00  0.00     0.208 A 
ATOM      3  C   UNL     1     -13.646   8.901   5.717  1.00  0.00     0.238 A 
ATOM      4  O   UNL     1     -14.769   9.470   5.787  1.00  0.00    -0.285 OA
ATOM      5  C   UNL     1     -12.453   9.654   5.686  1.00  0.00     0.111 A 
ATOM      6  C   UNL     1     -12.430  11.069   5.735  1.00  0.00     0.134 A 
ATOM      7  C   UNL     1     -11.202  11.747   5.691  1.00  0.00     0.093 A 
ATOM      8  C   UNL     1     -10.000  11.037   5.598  1.00  0.00     0.123 A 
ATOM      9  C   UNL     1     -10.018   9.642   5.550  1.00  0.00     0.094 A 
ATOM     10  C   UNL     1     -11.231   8.948   5.595  1.00  0.00     0.146 A 
ATOM     11  O   UNL     1     -11.218   7.621   5.552  1.00  0.00    -0.452 OA
ENDROOT
BRANCH   1  12
ATOM     12  C   UNL     1     -12.171   5.406   5.551  1.00  0.00     0.021 A 
ATOM     13  C   UNL     1     -11.680   4.685   6.655  1.00  0.00     0.016 A 
ATOM     14  C   UNL     1     -11.525   3.298   6.582  1.00  0.00     0.047 A 
ATOM     15  C   UNL     1     -11.845   2.615   5.402  1.00  0.00     0.115 A 
ATOM     16  C   UNL     1     -12.470   4.715   4.364  1.00  0.00     0.016 A 
ATOM     17  C   UNL     1     -12.315   3.327   4.295  1.00  0.00     0.047 A 
BRANCH  15  18
ATOM     18  O   UNL     1     -11.696   1.232   5.318  1.00  0.00    -0.508 OA
ATOM     19  H   UNL     1     -10.839   0.774   5.604  1.00  0.00     0.293 HD
ENDBRANCH  15  18
ENDBRANCH   1  12
BRANCH   2  20
ATOM     20  O   UNL     1     -14.750   6.734   5.638  1.00  0.00    -0.502 OA
ATOM     21  H   UNL     1     -15.053   6.184   6.433  1.00  0.00     0.293 HD
ENDBRANCH   2  20
BRANCH   6  22
ATOM     22  O   UNL     1     -13.613  11.805   5.827  1.00  0.00    -0.507 OA
ATOM     23  H   UNL     1     -13.896  12.452   5.100  1.00  0.00     0.293 HD
ENDBRANCH   6  22
BRANCH   8  24
ATOM     24  O   UNL     1      -8.781  11.709   5.553  1.00  0.00    -0.508 OA
ATOM     25  H   UNL     1      -8.272  11.828   4.685  1.00  0.00     0.293 HD
ENDBRANCH   8  24
TORSDOF 5
ENDMDL
MODEL 7
REMARK VINA RESULT:    -5.620      3.569      6.716
REMARK INTER + INTRA:          -6.832
REMARK INTER:                  -6.535
REMARK INTRA:                  -0.297
REMARK UNBOUND:                -0.227
REMARK SMILES O=c1c(O)c(-c2ccc(O)cc2)oc2cc(O)cc(O)c12
REMARK SMILES IDX 5 1 3 2 2 3 1 4 21 5 19 6 18 7 16 8 15 9 14 10 13 11 6 12
REMARK SMILES IDX 7 13 8 14 9 15 12 16 11 17 10 18 4 20 20 22 17 24
REMARK H PARENT 10 19 4 21 20 23 17 25
REMARK Flexibility Score: inf
ROOT
ATOM      1  C   UNL     1     -10.976  10.742   4.981  1.00  0.00     0.180 A 
ATOM      2  C   UNL     1     -11.331  11.569   3.896  1.00  0.00     0.208 A 
ATOM      3  C   UNL     1     -12.566  11.362   3.262  1.00  0.00     0.238 A 
ATOM      4  O   UNL     1     -12.891  12.088   2.283  1.00  0.00    -0.285 OA
ATOM      5  C   UNL     1     -13.431  10.352   3.733  1.00  0.00     0.111 A 
ATOM      6  C   UNL     1     -14.694  10.082   3.153  1.00  0.00     0.134 A 
ATOM      7  C   UNL     1     -15.502   9.065   3.685  1.00  0.00     0.093 A 
ATOM      8  C   UNL     1     -15.070   8.315   4.784  1.00  0.00     0.123 A 
ATOM      9  C   UNL     1     -13.825   8.577   5.360  1.00  0.00     0.094 A 
ATOM     10  C   UNL     1     -13.005   9.585   4.843  1.00  0.00     0.146 A 
ATOM     11  O   UNL     1     -11.824   9.810   5.406  1.00  0.00    -0.452 OA
ENDROOT
BRANCH   1  12
ATOM     12  C   UNL     1      -9.684  10.885   5.689  1.00  0.00     0.021 A 
ATOM     13  C   UNL     1      -8.520  10.242   5.228  1.00  0.00     0.016 A 
ATOM     14  C   UNL     1      -7.317  10.373   5.928  1.00  0.00     0.047 A 
ATOM     15  C   UNL     1      -7.264  11.135   7.101  1.00  0.00     0.115 A 
ATOM     16  C   UNL     1      -9.626  11.631   6.878  1.00  0.00     0.016 A 
ATOM     17  C   UNL     1      -8.421  11.761   7.574  1.00  0.00     0.047 A 
BRANCH  15  18
ATOM     18  O   UNL     1      -6.069  11.274   7.806  1.00  0.00    -0.508 OA
ATOM     19  H   UNL     1      -5.369  11.952   7.532  1.00  0.00     0.293 HD
ENDBRANCH  15  18
ENDBRANCH   1  12
BRANCH   2  20
ATOM     20  O   UNL     1     -10.479  12.594   3.482  1.00  0.00    -0.502 OA
ATOM     21  H   UNL     1     -10.821  13.442   3.046  1.00  0.00     0.293 HD
ENDBRANCH   2  20
BRANCH   6  22
ATOM     22  O   UNL     1     -15.152  10.814   2.056  1.00  0.00    -0.507 OA
ATOM     23  H   UNL     1     -14.666  11.639   1.725  1.00  0.00     0.293 HD
ENDBRANCH   6  22
BRANCH   8  24
ATOM     24  O   UNL     1     -15.871   7.306   5.313  1.00  0.00    -0.508 OA
ATOM     25  H   UNL     1     -16.870   7.280   5.145  1.00  0.00     0.293 HD
ENDBRANCH   8  24
TORSDOF 5
ENDMDL
MODEL 8
REMARK VINA RESULT:    -5.509      4.534      5.354
REMARK INTER + INTRA:          -6.702
REMARK INTER:                  -6.519
REMARK INTRA:                  -0.183
REMARK UNBOUND:                -0.227
REMARK SMILES O=c1c(O)c(-c2ccc(O)cc2)oc2cc(O)cc(O)c12
REMARK SMILES IDX 5 1 3 2 2 3 1 4 21 5 19 6 18 7 16 8 15 9 14 10 13 11 6 12
REMARK SMILES IDX 7 13 8 14 9 15 12 16 11 17 10 18 4 20 20 22 17 24
REMARK H PARENT 10 19 4 21 20 23 17 25
REMARK Flexibility Score: inf
ROOT
ATOM      1  C   UNL     1     -11.340  11.092   5.237  1.00  0.00     0.180 A 
ATOM      2  C   UNL     1     -11.648  11.715   6.463  1.00  0.00     0.208 A 
ATOM      3  C   UNL     1     -10.633  11.870   7.418  1.00  0.00     0.238 A 
ATOM      4  O   UNL     1     -10.899  12.416   8.524  1.00  0.00    -0.285 OA
ATOM      5  C   UNL     1      -9.328  11.423   7.127  1.00  0.00     0.111 A 
ATOM      6  C   UNL     1      -8.247  11.546   8.034  1.00  0.00     0.134 A 
ATOM      7  C   UNL     1      -6.974  11.083   7.667  1.00  0.00     0.093 A 
ATOM      8  C   UNL     1      -6.762  10.502   6.411  1.00  0.00     0.123 A 
ATOM      9  C   UNL     1      -7.824  10.378   5.514  1.00  0.00     0.094 A 
ATOM     10  C   UNL     1      -9.101  10.831   5.863  1.00  0.00     0.146 A 
ATOM     11  O   UNL     1     -10.094  10.696   4.992  1.00  0.00    -0.452 OA
ENDROOT
BRANCH   1  12
ATOM     12  C   UNL     1     -12.360  10.875   4.186  1.00  0.00     0.021 A 
ATOM     13  C   UNL     1     -13.434   9.985   4.379  1.00  0.00     0.016 A 
ATOM     14  C   UNL     1     -14.371   9.778   3.363  1.00  0.00     0.047 A 
ATOM     15  C   UNL     1     -14.241  10.445   2.139  1.00  0.00     0.115 A 
ATOM     16  C   UNL     1     -12.226  11.524   2.947  1.00  0.00     0.016 A 
ATOM     17  C   UNL     1     -13.166  11.315   1.934  1.00  0.00     0.047 A 
BRANCH  15  18
ATOM     18  O   UNL     1     -15.171  10.248   1.119  1.00  0.00    -0.508 OA
ATOM     19  H   UNL     1     -15.736   9.409   1.074  1.00  0.00     0.293 HD
ENDBRANCH  15  18
ENDBRANCH   1  12
BRANCH   2  20
ATOM     20  O   UNL     1     -12.938  12.194   6.706  1.00  0.00    -0.502 OA
ATOM     21  H   UNL     1     -13.767  11.692   6.414  1.00  0.00     0.293 HD
ENDBRANCH   2  20
BRANCH   6  22
ATOM     22  O   UNL     1      -8.427  12.122   9.293  1.00  0.00    -0.507 OA
ATOM     23  H   UNL     1      -9.328  12.475   9.594  1.00  0.00     0.293 HD
ENDBRANCH   6  22
BRANCH   8  24
ATOM     24  O   UNL     1      -5.499  10.044   6.046  1.00  0.00    -0.508 OA
ATOM     25  H   UNL     1      -5.381   9.240   5.440  1.00  0.00     0.293 HD
ENDBRANCH   8  24
TORSDOF 5
ENDMDL
MODEL 9
REMARK VINA RESULT:    -5.475      2.089      7.062
REMARK INTER + INTRA:          -6.661
REMARK INTER:                  -6.383
REMARK INTRA:                  -0.278
REMARK UNBOUND:                -0.227
REMARK SMILES O=c1c(O)c(-c2ccc(O)cc2)oc2cc(O)cc(O)c12
REMARK SMILES IDX 5 1 3 2 2 3 1 4 21 5 19 6 18 7 16 8 15 9 14 10 13 11 6 12
REMARK SMILES IDX 7 13 8 14 9 15 12 16 11 17 10 18 4 20 20 22 17 24
REMARK H PARENT 10 19 4 21 20 23 17 25
REMARK Flexibility Score: inf
ROOT
ATOM      1  C   UNL     1      -9.833   6.598   6.035  1.00  0.00     0.180 A 
ATOM      2  C   UNL     1      -9.831   5.774   4.892  1.00  0.00     0.208 A 
ATOM      3  C   UNL     1     -10.356   4.476   4.990  1.00  0.00     0.238 A 
ATOM      4  O   UNL     1     -10.350   3.726   3.976  1.00  0.00    -0.285 OA
ATOM      5  C   UNL     1     -10.890   4.032   6.217  1.00  0.00     0.111 A 
ATOM      6  C   UNL     1     -11.442   2.740   6.399  1.00  0.00     0.134 A 
ATOM      7  C   UNL     1     -11.963   2.375   7.650  1.00  0.00     0.093 A 
ATOM      8  C   UNL     1     -11.943   3.277   8.720  1.00  0.00     0.123 A 
ATOM      9  C   UNL     1     -11.400   4.551   8.546  1.00  0.00     0.094 A 
ATOM     10  C   UNL     1     -10.874   4.933   7.308  1.00  0.00     0.146 A 
ATOM     11  O   UNL     1     -10.359   6.149   7.172  1.00  0.00    -0.452 OA
ENDROOT
BRANCH   1  12
ATOM     12  C   UNL     1      -9.280   7.971   6.017  1.00  0.00     0.021 A 
ATOM     13  C   UNL     1      -7.978   8.244   6.475  1.00  0.00     0.016 A 
ATOM     14  C   UNL     1      -7.487   9.552   6.470  1.00  0.00     0.047 A 
ATOM     15  C   UNL     1      -8.293  10.605   6.021  1.00  0.00     0.115 A 
ATOM     16  C   UNL     1     -10.089   9.036   5.587  1.00  0.00     0.016 A 
ATOM     17  C   UNL     1      -9.594  10.343   5.582  1.00  0.00     0.047 A 
BRANCH  15  18
ATOM     18  O   UNL     1      -7.813  11.914   6.010  1.00  0.00    -0.508 OA
ATOM     19  H   UNL     1      -7.023  12.192   6.579  1.00  0.00     0.293 HD
ENDBRANCH  15  18
ENDBRANCH   1  12
BRANCH   2  20
ATOM     20  O   UNL     1      -9.341   6.256   3.676  1.00  0.00    -0.502 OA
ATOM     21  H   UNL     1      -8.365   6.486   3.537  1.00  0.00     0.293 HD
ENDBRANCH   2  20
BRANCH   6  22
ATOM     22  O   UNL     1     -11.477   1.820   5.350  1.00  0.00    -0.507 OA
ATOM     23  H   UNL     1     -11.974   2.012   4.488  1.00  0.00     0.293 HD
ENDBRANCH   6  22
BRANCH   8  24
ATOM     24  O   UNL     1     -12.461   2.916   9.961  1.00  0.00    -0.508 OA
ATOM     25  H   UNL     1     -12.819   3.609  10.608  1.00  0.00     0.293 HD
ENDBRANCH   8  24
TORSDOF 5
ENDMDL
