MODEL 1
REMARK VINA RESULT:    -3.733      0.000      0.000
REMARK INTER + INTRA:          -5.549
REMARK INTER:                  -5.042
REMARK INTRA:                  -0.507
REMARK UNBOUND:                -0.507
REMARK SMILES C[C@@H](O)[C@H](O)[C@H](O)[C@H](O)C=O
REMARK SMILES IDX 4 1 2 2 1 3 3 4 6 6 8 7 10 8 11 9 9 10 7 12 5 14
REMARK H PARENT 3 5 9 11 7 13 5 15
REMARK Flexibility Score: inf
ROOT
ATOM      1  C   UNL     1       0.801  -4.450  -8.055  1.00  0.00     0.174 C 
ENDROOT
BRANCH   1   2
ATOM      2  C   UNL     1       1.004  -5.106  -6.665  1.00  0.00     0.142 C 
ATOM      3  C   UNL     1       0.282  -6.452  -6.578  1.00  0.00     0.041 C 
BRANCH   2   4
ATOM      4  O   UNL     1       2.371  -5.309  -6.414  1.00  0.00    -0.391 OA
ATOM      5  H   UNL     1       2.497  -6.280  -6.254  1.00  0.00     0.211 HD
ENDBRANCH   2   4
ENDBRANCH   1   2
BRANCH   1   6
ATOM      6  C   UNL     1       0.085  -3.076  -7.949  1.00  0.00     0.181 C 
BRANCH   6   7
ATOM      7  C   UNL     1       0.173  -2.266  -9.271  1.00  0.00     0.209 C 
BRANCH   7   8
ATOM      8  C   UNL     1      -0.854  -1.164  -9.313  1.00  0.00     0.258 C 
ATOM      9  O   UNL     1      -1.065  -0.469  -8.332  1.00  0.00    -0.300 OA
ENDBRANCH   7   8
BRANCH   7  10
ATOM     10  O   UNL     1       1.458  -1.728  -9.469  1.00  0.00    -0.383 OA
ATOM     11  H   UNL     1       1.730  -1.930 -10.403  1.00  0.00     0.211 HD
ENDBRANCH   7  10
ENDBRANCH   6   7
BRANCH   6  12
ATOM     12  O   UNL     1      -1.262  -3.248  -7.579  1.00  0.00    -0.387 OA
ATOM     13  H   UNL     1      -1.293  -3.324  -6.589  1.00  0.00     0.211 HD
ENDBRANCH   6  12
ENDBRANCH   1   6
BRANCH   1  14
ATOM     14  O   UNL     1       2.051  -4.279  -8.678  1.00  0.00    -0.388 OA
ATOM     15  H   UNL     1       2.447  -3.443  -8.320  1.00  0.00     0.211 HD
ENDBRANCH   1  14
TORSDOF 8
ENDMDL
MODEL 2
REMARK VINA RESULT:    -3.721      2.622      3.665
REMARK INTER + INTRA:          -5.534
REMARK INTER:                  -5.155
REMARK INTRA:                  -0.379
REMARK UNBOUND:                -0.507
REMARK SMILES C[C@@H](O)[C@H](O)[C@H](O)[C@H](O)C=O
REMARK SMILES IDX 4 1 2 2 1 3 3 4 6 6 8 7 10 8 11 9 9 10 7 12 5 14
REMARK H PARENT 3 5 9 11 7 13 5 15
REMARK Flexibility Score: inf
ROOT
ATOM      1  C   UNL     1       1.977  -4.826  -7.198  1.00  0.00     0.174 C 
ENDROOT
BRANCH   1   2
ATOM      2  C   UNL     1       2.139  -5.437  -8.612  1.00  0.00     0.142 C 
ATOM      3  C   UNL     1       1.769  -4.424  -9.698  1.00  0.00     0.041 C 
BRANCH   2   4
ATOM      4  O   UNL     1       3.465  -5.855  -8.817  1.00  0.00    -0.391 OA
ATOM      5  H   UNL     1       3.426  -6.723  -9.298  1.00  0.00     0.211 HD
ENDBRANCH   2   4
ENDBRANCH   1   2
BRANCH   1   6
ATOM      6  C   UNL     1       0.654  -5.275  -6.520  1.00  0.00     0.181 C 
BRANCH   6   7
ATOM      7  C   UNL     1      -0.588  -4.578  -7.142  1.00  0.00     0.209 C 
BRANCH   7   8
ATOM      8  C   UNL     1      -1.525  -5.577  -7.770  1.00  0.00     0.258 C 
ATOM      9  O   UNL     1      -1.285  -6.053  -8.869  1.00  0.00    -0.300 OA
ENDBRANCH   7   8
BRANCH   7  10
ATOM     10  O   UNL     1      -1.281  -3.804  -6.193  1.00  0.00    -0.383 OA
ATOM     11  H   UNL     1      -2.163  -4.234  -6.037  1.00  0.00     0.211 HD
ENDBRANCH   7  10
ENDBRANCH   6   7
BRANCH   6  12
ATOM     12  O   UNL     1       0.509  -6.673  -6.597  1.00  0.00    -0.387 OA
ATOM     13  H   UNL     1      -0.140  -6.866  -7.324  1.00  0.00     0.211 HD
ENDBRANCH   6  12
ENDBRANCH   1   6
BRANCH   1  14
ATOM     14  O   UNL     1       3.067  -5.212  -6.395  1.00  0.00    -0.388 OA
ATOM     15  H   UNL     1       3.037  -4.658  -5.571  1.00  0.00     0.211 HD
ENDBRANCH   1  14
TORSDOF 8
ENDMDL
MODEL 3
REMARK VINA RESULT:    -3.628      1.176      1.932
REMARK INTER + INTRA:          -5.408
REMARK INTER:                  -4.838
REMARK INTRA:                  -0.571
REMARK UNBOUND:                -0.507
REMARK SMILES C[C@@H](O)[C@H](O)[C@H](O)[C@H](O)C=O
REMARK SMILES IDX 4 1 2 2 1 3 3 4 6 6 8 7 10 8 11 9 9 10 7 12 5 14
REMARK H PARENT 3 5 9 11 7 13 5 15
REMARK Flexibility Score: inf
ROOT
ATOM      1  C   UNL     1       1.028  -4.738  -8.422  1.00  0.00     0.174 C 
ENDROOT
BRANCH   1   2
ATOM      2  C   UNL     1       1.461  -5.050  -6.967  1.00  0.00     0.142 C 
ATOM      3  C   UNL     1       0.714  -6.266  -6.416  1.00  0.00     0.041 C 
BRANCH   2   4
ATOM      4  O   UNL     1       2.841  -5.303  -6.910  1.00  0.00    -0.391 OA
ATOM      5  H   UNL     1       3.022  -5.740  -6.038  1.00  0.00     0.211 HD
ENDBRANCH   2   4
ENDBRANCH   1   2
BRANCH   1   6
ATOM      6  C   UNL     1      -0.453  -4.276  -8.500  1.00  0.00     0.181 C 
BRANCH   6   7
ATOM      7  C   UNL     1      -0.796  -3.222  -7.411  1.00  0.00     0.209 C 
BRANCH   7   8
ATOM      8  C   UNL     1      -0.984  -1.851  -8.010  1.00  0.00     0.258 C 
ATOM      9  O   UNL     1      -0.041  -1.248  -8.497  1.00  0.00    -0.300 OA
ENDBRANCH   7   8
BRANCH   7  10
ATOM     10  O   UNL     1      -1.940  -3.584  -6.677  1.00  0.00    -0.383 OA
ATOM     11  H   UNL     1      -1.847  -3.203  -5.764  1.00  0.00     0.211 HD
ENDBRANCH   7  10
ENDBRANCH   6   7
BRANCH   6  12
ATOM     12  O   UNL     1      -0.743  -3.759  -9.777  1.00  0.00    -0.387 OA
ATOM     13  H   UNL     1      -0.738  -2.768  -9.707  1.00  0.00     0.211 HD
ENDBRANCH   6  12
ENDBRANCH   1   6
BRANCH   1  14
ATOM     14  O   UNL     1       1.859  -3.735  -8.953  1.00  0.00    -0.388 OA
ATOM     15  H   UNL     1       2.783  -3.921  -8.640  1.00  0.00     0.211 HD
ENDBRANCH   1  14
TORSDOF 8
ENDMDL
MODEL 4
REMARK VINA RESULT:    -3.593      1.062      4.461
REMARK INTER + INTRA:          -5.360
REMARK INTER:                  -4.631
REMARK INTRA:                  -0.729
REMARK UNBOUND:                -0.507
REMARK SMILES C[C@@H](O)[C@H](O)[C@H](O)[C@H](O)C=O
REMARK SMILES IDX 4 1 2 2 1 3 3 4 6 6 8 7 10 8 11 9 9 10 7 12 5 14
REMARK H PARENT 3 5 9 11 7 13 5 15
REMARK Flexibility Score: inf
ROOT
ATOM      1  C   UNL     1      -0.518  -3.219  -9.073  1.00  0.00     0.174 C 
ENDROOT
BRANCH   1   2
ATOM      2  C   UNL     1      -0.420  -1.700  -9.365  1.00  0.00     0.142 C 
ATOM      3  C   UNL     1      -0.897  -0.874  -8.169  1.00  0.00     0.041 C 
BRANCH   2   4
ATOM      4  O   UNL     1       0.906  -1.343  -9.660  1.00  0.00    -0.391 OA
ATOM      5  H   UNL     1       1.494  -1.989  -9.188  1.00  0.00     0.211 HD
ENDBRANCH   2   4
ENDBRANCH   1   2
BRANCH   1   6
ATOM      6  C   UNL     1       0.572  -3.689  -8.072  1.00  0.00     0.181 C 
BRANCH   6   7
ATOM      7  C   UNL     1       0.030  -4.741  -7.065  1.00  0.00     0.209 C 
BRANCH   7   8
ATOM      8  C   UNL     1       1.103  -5.714  -6.652  1.00  0.00     0.258 C 
ATOM      9  O   UNL     1       2.205  -5.320  -6.305  1.00  0.00    -0.300 OA
ENDBRANCH   7   8
BRANCH   7  10
ATOM     10  O   UNL     1      -0.528  -4.132  -5.926  1.00  0.00    -0.383 OA
ATOM     11  H   UNL     1       0.123  -3.459  -5.592  1.00  0.00     0.211 HD
ENDBRANCH   7  10
ENDBRANCH   6   7
BRANCH   6  12
ATOM     12  O   UNL     1       1.682  -4.213  -8.762  1.00  0.00    -0.387 OA
ATOM     13  H   UNL     1       2.242  -4.699  -8.100  1.00  0.00     0.211 HD
ENDBRANCH   6  12
ENDBRANCH   1   6
BRANCH   1  14
ATOM     14  O   UNL     1      -1.791  -3.512  -8.549  1.00  0.00    -0.388 OA
ATOM     15  H   UNL     1      -2.208  -4.186  -9.147  1.00  0.00     0.211 HD
ENDBRANCH   1  14
TORSDOF 8
ENDMDL
MODEL 5
REMARK VINA RESULT:    -3.498      1.235      2.094
REMARK INTER + INTRA:          -5.233
REMARK INTER:                  -4.616
REMARK INTRA:                  -0.616
REMARK UNBOUND:                -0.507
REMARK SMILES C[C@@H](O)[C@H](O)[C@H](O)[C@H](O)C=O
REMARK SMILES IDX 4 1 2 2 1 3 3 4 6 6 8 7 10 8 11 9 9 10 7 12 5 14
REMARK H PARENT 3 5 9 11 7 13 5 15
REMARK Flexibility Score: inf
ROOT
ATOM      1  C   UNL     1       0.167  -4.136  -6.838  1.00  0.00     0.174 C 
ENDROOT
BRANCH   1   2
ATOM      2  C   UNL     1       0.814  -5.390  -6.196  1.00  0.00     0.142 C 
ATOM      3  C   UNL     1       0.185  -6.675  -6.737  1.00  0.00     0.041 C 
BRANCH   2   4
ATOM      4  O   UNL     1       2.194  -5.417  -6.457  1.00  0.00    -0.391 OA
ATOM      5  H   UNL     1       2.371  -6.223  -7.009  1.00  0.00     0.211 HD
ENDBRANCH   2   4
ENDBRANCH   1   2
BRANCH   1   6
ATOM      6  C   UNL     1       0.205  -4.194  -8.389  1.00  0.00     0.181 C 
BRANCH   6   7
ATOM      7  C   UNL     1      -0.860  -3.265  -9.036  1.00  0.00     0.209 C 
BRANCH   7   8
ATOM      8  C   UNL     1      -0.256  -1.955  -9.474  1.00  0.00     0.258 C 
ATOM      9  O   UNL     1       0.205  -1.175  -8.656  1.00  0.00    -0.300 OA
ENDBRANCH   7   8
BRANCH   7  10
ATOM     10  O   UNL     1      -1.500  -3.884 -10.125  1.00  0.00    -0.383 OA
ATOM     11  H   UNL     1      -2.460  -3.990  -9.892  1.00  0.00     0.211 HD
ENDBRANCH   7  10
ENDBRANCH   6   7
BRANCH   6  12
ATOM     12  O   UNL     1       1.486  -3.861  -8.866  1.00  0.00    -0.387 OA
ATOM     13  H   UNL     1       1.489  -2.886  -9.059  1.00  0.00     0.211 HD
ENDBRANCH   6  12
ENDBRANCH   1   6
BRANCH   1  14
ATOM     14  O   UNL     1      -1.167  -4.025  -6.406  1.00  0.00    -0.388 OA
ATOM     15  H   UNL     1      -1.372  -3.057  -6.325  1.00  0.00     0.211 HD
ENDBRANCH   1  14
TORSDOF 8
ENDMDL
MODEL 6
REMARK VINA RESULT:    -3.466     12.111     13.021
REMARK INTER + INTRA:          -5.189
REMARK INTER:                  -4.615
REMARK INTRA:                  -0.574
REMARK UNBOUND:                -0.507
REMARK SMILES C[C@@H](O)[C@H](O)[C@H](O)[C@H](O)C=O
REMARK SMILES IDX 4 1 2 2 1 3 3 4 6 6 8 7 10 8 11 9 9 10 7 12 5 14
REMARK H PARENT 3 5 9 11 7 13 5 15
REMARK Flexibility Score: inf
ROOT
ATOM      1  C   UNL     1       8.427   6.025  -4.284  1.00  0.00     0.174 C 
ENDROOT
BRANCH   1   2
ATOM      2  C   UNL     1       7.690   6.196  -5.637  1.00  0.00     0.142 C 
ATOM      3  C   UNL     1       8.349   7.280  -6.493  1.00  0.00     0.041 C 
BRANCH   2   4
ATOM      4  O   UNL     1       7.695   4.988  -6.354  1.00  0.00    -0.391 OA
ATOM      5  H   UNL     1       8.088   4.298  -5.759  1.00  0.00     0.211 HD
ENDBRANCH   2   4
ENDBRANCH   1   2
BRANCH   1   6
ATOM      6  C   UNL     1       7.638   5.113  -3.306  1.00  0.00     0.181 C 
BRANCH   6   7
ATOM      7  C   UNL     1       7.732   5.611  -1.837  1.00  0.00     0.209 C 
BRANCH   7   8
ATOM      8  C   UNL     1       7.271   7.040  -1.708  1.00  0.00     0.258 C 
ATOM      9  O   UNL     1       6.129   7.357  -2.001  1.00  0.00    -0.300 OA
ENDBRANCH   7   8
BRANCH   7  10
ATOM     10  O   UNL     1       6.997   4.791  -0.961  1.00  0.00    -0.383 OA
ATOM     11  H   UNL     1       6.674   5.359  -0.213  1.00  0.00     0.211 HD
ENDBRANCH   7  10
ENDBRANCH   6   7
BRANCH   6  12
ATOM     12  O   UNL     1       6.289   5.019  -3.696  1.00  0.00    -0.387 OA
ATOM     13  H   UNL     1       5.746   5.492  -3.012  1.00  0.00     0.211 HD
ENDBRANCH   6  12
ENDBRANCH   1   6
BRANCH   1  14
ATOM     14  O   UNL     1       9.701   5.474  -4.512  1.00  0.00    -0.388 OA
ATOM     15  H   UNL     1      10.232   6.152  -5.007  1.00  0.00     0.211 HD
ENDBRANCH   1  14
TORSDOF 8
ENDMDL
MODEL 7
REMARK VINA RESULT:    -3.428      2.154      3.133
REMARK INTER + INTRA:          -5.138
REMARK INTER:                  -4.782
REMARK INTRA:                  -0.356
REMARK UNBOUND:                -0.507
REMARK SMILES C[C@@H](O)[C@H](O)[C@H](O)[C@H](O)C=O
REMARK SMILES IDX 4 1 2 2 1 3 3 4 6 6 8 7 10 8 11 9 9 10 7 12 5 14
REMARK H PARENT 3 5 9 11 7 13 5 15
REMARK Flexibility Score: inf
ROOT
ATOM      1  C   UNL     1       2.157  -5.470  -8.551  1.00  0.00     0.174 C 
ENDROOT
BRANCH   1   2
ATOM      2  C   UNL     1       2.045  -5.000  -7.079  1.00  0.00     0.142 C 
ATOM      3  C   UNL     1       0.859  -5.662  -6.375  1.00  0.00     0.041 C 
BRANCH   2   4
ATOM      4  O   UNL     1       3.220  -5.311  -6.375  1.00  0.00    -0.391 OA
ATOM      5  H   UNL     1       2.946  -5.631  -5.476  1.00  0.00     0.211 HD
ENDBRANCH   2   4
ENDBRANCH   1   2
BRANCH   1   6
ATOM      6  C   UNL     1       1.618  -4.404  -9.544  1.00  0.00     0.181 C 
BRANCH   6   7
ATOM      7  C   UNL     1       0.138  -4.665  -9.937  1.00  0.00     0.209 C 
BRANCH   7   8
ATOM      8  C   UNL     1      -0.188  -6.136  -9.916  1.00  0.00     0.258 C 
ATOM      9  O   UNL     1      -1.189  -6.547  -9.350  1.00  0.00    -0.300 OA
ENDBRANCH   7   8
BRANCH   7  10
ATOM     10  O   UNL     1      -0.755  -3.966  -9.104  1.00  0.00    -0.383 OA
ATOM     11  H   UNL     1      -0.453  -3.021  -9.062  1.00  0.00     0.211 HD
ENDBRANCH   7  10
ENDBRANCH   6   7
BRANCH   6  12
ATOM     12  O   UNL     1       1.750  -3.112  -9.001  1.00  0.00    -0.387 OA
ATOM     13  H   UNL     1       0.835  -2.743  -8.882  1.00  0.00     0.211 HD
ENDBRANCH   6  12
ENDBRANCH   1   6
BRANCH   1  14
ATOM     14  O   UNL     1       3.503  -5.750  -8.852  1.00  0.00    -0.388 OA
ATOM     15  H   UNL     1       3.516  -6.251  -9.709  1.00  0.00     0.211 HD
ENDBRANCH   1  14
TORSDOF 8
ENDMDL
MODEL 8
REMARK VINA RESULT:    -3.392      1.374      4.277
REMARK INTER + INTRA:          -5.089
REMARK INTER:                  -4.676
REMARK INTRA:                  -0.413
REMARK UNBOUND:                -0.507
REMARK SMILES C[C@@H](O)[C@H](O)[C@H](O)[C@H](O)C=O
REMARK SMILES IDX 4 1 2 2 1 3 3 4 6 6 8 7 10 8 11 9 9 10 7 12 5 14
REMARK H PARENT 3 5 9 11 7 13 5 15
REMARK Flexibility Score: inf
ROOT
ATOM      1  C   UNL     1       0.624  -3.388  -8.071  1.00  0.00     0.174 C 
ENDROOT
BRANCH   1   2
ATOM      2  C   UNL     1       0.231  -2.242  -9.038  1.00  0.00     0.142 C 
ATOM      3  C   UNL     1      -0.580  -1.163  -8.318  1.00  0.00     0.041 C 
BRANCH   2   4
ATOM      4  O   UNL     1       1.380  -1.652  -9.590  1.00  0.00    -0.391 OA
ATOM      5  H   UNL     1       1.189  -1.485 -10.550  1.00  0.00     0.211 HD
ENDBRANCH   2   4
ENDBRANCH   1   2
BRANCH   1   6
ATOM      6  C   UNL     1      -0.616  -4.183  -7.579  1.00  0.00     0.181 C 
BRANCH   6   7
ATOM      7  C   UNL     1      -0.477  -5.708  -7.842  1.00  0.00     0.209 C 
BRANCH   7   8
ATOM      8  C   UNL     1       0.145  -6.416  -6.666  1.00  0.00     0.258 C 
ATOM      9  O   UNL     1       1.296  -6.183  -6.333  1.00  0.00    -0.300 OA
ENDBRANCH   7   8
BRANCH   7  10
ATOM     10  O   UNL     1      -1.714  -6.298  -8.156  1.00  0.00    -0.383 OA
ATOM     11  H   UNL     1      -1.536  -7.217  -8.488  1.00  0.00     0.211 HD
ENDBRANCH   7  10
ENDBRANCH   6   7
BRANCH   6  12
ATOM     12  O   UNL     1      -0.841  -3.950  -6.209  1.00  0.00    -0.387 OA
ATOM     13  H   UNL     1      -0.523  -4.751  -5.714  1.00  0.00     0.211 HD
ENDBRANCH   6  12
ENDBRANCH   1   6
BRANCH   1  14
ATOM     14  O   UNL     1       1.513  -4.264  -8.720  1.00  0.00    -0.388 OA
ATOM     15  H   UNL     1       2.287  -3.724  -9.029  1.00  0.00     0.211 HD
ENDBRANCH   1  14
TORSDOF 8
ENDMDL
MODEL 9
REMARK VINA RESULT:    -3.364      2.235      3.334
REMARK INTER + INTRA:          -5.051
REMARK INTER:                  -4.617
REMARK INTRA:                  -0.433
REMARK UNBOUND:                -0.507
REMARK SMILES C[C@@H](O)[C@H](O)[C@H](O)[C@H](O)C=O
REMARK SMILES IDX 4 1 2 2 1 3 3 4 6 6 8 7 10 8 11 9 9 10 7 12 5 14
REMARK H PARENT 3 5 9 11 7 13 5 15
REMARK Flexibility Score: inf
ROOT
ATOM      1  C   UNL     1       0.126  -5.558  -7.619  1.00  0.00     0.174 C 
ENDROOT
BRANCH   1   2
ATOM      2  C   UNL     1       0.070  -4.307  -6.707  1.00  0.00     0.142 C 
ATOM      3  C   UNL     1      -1.247  -3.550  -6.886  1.00  0.00     0.041 C 
BRANCH   2   4
ATOM      4  O   UNL     1       0.199  -4.678  -5.358  1.00  0.00    -0.391 OA
ATOM      5  H   UNL     1       0.309  -5.665  -5.336  1.00  0.00     0.211 HD
ENDBRANCH   2   4
ENDBRANCH   1   2
BRANCH   1   6
ATOM      6  C   UNL     1       1.559  -5.821  -8.156  1.00  0.00     0.181 C 
BRANCH   6   7
ATOM      7  C   UNL     1       1.691  -5.481  -9.667  1.00  0.00     0.209 C 
BRANCH   7   8
ATOM      8  C   UNL     1       1.207  -4.085  -9.963  1.00  0.00     0.258 C 
ATOM      9  O   UNL     1       1.699  -3.120  -9.399  1.00  0.00    -0.300 OA
ENDBRANCH   7   8
BRANCH   7  10
ATOM     10  O   UNL     1       3.012  -5.635 -10.123  1.00  0.00    -0.383 OA
ATOM     11  H   UNL     1       3.022  -5.437 -11.096  1.00  0.00     0.211 HD
ENDBRANCH   7  10
ENDBRANCH   6   7
BRANCH   6  12
ATOM     12  O   UNL     1       2.506  -5.089  -7.415  1.00  0.00    -0.387 OA
ATOM     13  H   UNL     1       2.172  -4.157  -7.341  1.00  0.00     0.211 HD
ENDBRANCH   6  12
ENDBRANCH   1   6
BRANCH   1  14
ATOM     14  O   UNL     1      -0.316  -6.683  -6.898  1.00  0.00    -0.388 OA
ATOM     15  H   UNL     1      -1.266  -6.835  -7.143  1.00  0.00     0.211 HD
ENDBRANCH   1  14
TORSDOF 8
ENDMDL
