MODEL 1
REMARK VINA RESULT:    -7.104      0.000      0.000
REMARK INTER + INTRA:          -9.126
REMARK INTER:                  -8.765
REMARK INTRA:                  -0.362
REMARK UNBOUND:                -0.362
REMARK SMILES Oc1cc(O)c2cc(O)c(-c3cc(O)c(O)c(O)c3)[o+]c2c1
REMARK SMILES IDX 10 1 20 2 21 3 22 4 2 5 3 6 4 7 6 8 7 9 8 10 11 11 12 12
REMARK SMILES IDX 13 13 19 14 15 15 17 16 14 17 16 19 18 21 9 23 1 25 5 27
REMARK H PARENT 14 18 16 20 18 22 9 24 1 26 5 28
REMARK Flexibility Score: inf
ROOT
ATOM      1  C   UNL     1     -39.198  12.300   7.717  1.00  0.00     0.402 A 
ATOM      2  O   UNL     1     -39.989  13.307   8.080  1.00  0.00    -0.202 OA
ATOM      3  C   UNL     1     -40.961  13.186   8.977  1.00  0.00     0.368 A 
ATOM      4  C   UNL     1     -41.737  14.304   9.295  1.00  0.00     0.162 A 
ATOM      5  C   UNL     1     -42.762  14.207  10.236  1.00  0.00     0.128 A 
ATOM      6  C   UNL     1     -43.015  12.983  10.867  1.00  0.00     0.093 A 
ATOM      7  C   UNL     1     -42.252  11.848  10.567  1.00  0.00     0.136 A 
ATOM      8  C   UNL     1     -41.209  11.943   9.608  1.00  0.00     0.125 A 
ATOM      9  C   UNL     1     -40.403  10.856   9.235  1.00  0.00     0.078 A 
ATOM     10  C   UNL     1     -39.398  11.024   8.278  1.00  0.00     0.223 A 
ENDROOT
BRANCH   1  11
ATOM     11  C   UNL     1     -38.143  12.564   6.712  1.00  0.00     0.091 A 
ATOM     12  C   UNL     1     -36.801  12.733   7.089  1.00  0.00     0.068 A 
ATOM     13  C   UNL     1     -35.814  13.005   6.133  1.00  0.00     0.162 A 
ATOM     14  C   UNL     1     -38.495  12.703   5.363  1.00  0.00     0.068 A 
ATOM     15  C   UNL     1     -36.176  13.120   4.770  1.00  0.00     0.200 A 
ATOM     16  C   UNL     1     -37.519  12.973   4.396  1.00  0.00     0.162 A 
BRANCH  13  17
ATOM     17  O   UNL     1     -34.501  13.161   6.582  1.00  0.00    -0.504 OA
ATOM     18  H   UNL     1     -34.179  13.946   7.129  1.00  0.00     0.293 HD
ENDBRANCH  13  17
BRANCH  15  19
ATOM     19  O   UNL     1     -35.240  13.379   3.765  1.00  0.00    -0.502 OA
ATOM     20  H   UNL     1     -34.459  14.011   3.868  1.00  0.00     0.293 HD
ENDBRANCH  15  19
BRANCH  16  21
ATOM     21  O   UNL     1     -37.877  13.095   3.055  1.00  0.00    -0.504 OA
ATOM     22  H   UNL     1     -37.819  13.981   2.567  1.00  0.00     0.293 HD
ENDBRANCH  16  21
ENDBRANCH   1  11
BRANCH  10  23
ATOM     23  O   UNL     1     -38.629   9.934   7.870  1.00  0.00    -0.500 OA
ATOM     24  H   UNL     1     -38.006   9.991   7.072  1.00  0.00     0.294 HD
ENDBRANCH  10  23
BRANCH   5  25
ATOM     25  O   UNL     1     -43.525  15.333  10.539  1.00  0.00    -0.507 OA
ATOM     26  H   UNL     1     -44.504  15.258  10.786  1.00  0.00     0.293 HD
ENDBRANCH   5  25
BRANCH   7  27
ATOM     27  O   UNL     1     -42.564  10.666  11.242  1.00  0.00    -0.507 OA
ATOM     28  H   UNL     1     -42.072   9.793  11.122  1.00  0.00     0.293 HD
ENDBRANCH   7  27
TORSDOF 7
ENDMDL
MODEL 2
REMARK VINA RESULT:    -6.875      1.406      7.099
REMARK INTER + INTRA:          -8.844
REMARK INTER:                  -8.526
REMARK INTRA:                  -0.318
REMARK UNBOUND:                -0.362
REMARK SMILES Oc1cc(O)c2cc(O)c(-c3cc(O)c(O)c(O)c3)[o+]c2c1
REMARK SMILES IDX 10 1 20 2 21 3 22 4 2 5 3 6 4 7 6 8 7 9 8 10 11 11 12 12
REMARK SMILES IDX 13 13 19 14 15 15 17 16 14 17 16 19 18 21 9 23 1 25 5 27
REMARK H PARENT 14 18 16 20 18 22 9 24 1 26 5 28
REMARK Flexibility Score: inf
ROOT
ATOM      1  C   UNL     1     -39.402  12.054   8.007  1.00  0.00     0.402 A 
ATOM      2  O   UNL     1     -39.663  11.882   6.714  1.00  0.00    -0.202 OA
ATOM      3  C   UNL     1     -38.789  12.152   5.750  1.00  0.00     0.368 A 
ATOM      4  C   UNL     1     -39.155  11.934   4.419  1.00  0.00     0.162 A 
ATOM      5  C   UNL     1     -38.257  12.206   3.387  1.00  0.00     0.128 A 
ATOM      6  C   UNL     1     -36.981  12.698   3.685  1.00  0.00     0.093 A 
ATOM      7  C   UNL     1     -36.590  12.925   5.010  1.00  0.00     0.136 A 
ATOM      8  C   UNL     1     -37.502  12.651   6.064  1.00  0.00     0.125 A 
ATOM      9  C   UNL     1     -37.201  12.860   7.419  1.00  0.00     0.078 A 
ATOM     10  C   UNL     1     -38.154  12.573   8.401  1.00  0.00     0.223 A 
ENDROOT
BRANCH   1  11
ATOM     11  C   UNL     1     -40.456  11.708   8.987  1.00  0.00     0.091 A 
ATOM     12  C   UNL     1     -40.340  10.582   9.819  1.00  0.00     0.068 A 
ATOM     13  C   UNL     1     -41.353  10.249  10.727  1.00  0.00     0.162 A 
ATOM     14  C   UNL     1     -41.621  12.484   9.051  1.00  0.00     0.068 A 
ATOM     15  C   UNL     1     -42.515  11.054  10.801  1.00  0.00     0.200 A 
ATOM     16  C   UNL     1     -42.642  12.164   9.955  1.00  0.00     0.162 A 
BRANCH  13  17
ATOM     17  O   UNL     1     -41.167   9.116  11.522  1.00  0.00    -0.504 OA
ATOM     18  H   UNL     1     -41.624   8.967  12.410  1.00  0.00     0.293 HD
ENDBRANCH  13  17
BRANCH  15  19
ATOM     19  O   UNL     1     -43.558  10.784  11.691  1.00  0.00    -0.502 OA
ATOM     20  H   UNL     1     -44.039  11.490  12.229  1.00  0.00     0.293 HD
ENDBRANCH  15  19
BRANCH  16  21
ATOM     21  O   UNL     1     -43.790  12.952  10.021  1.00  0.00    -0.504 OA
ATOM     22  H   UNL     1     -44.211  13.349   9.189  1.00  0.00     0.293 HD
ENDBRANCH  16  21
ENDBRANCH   1  11
BRANCH  10  23
ATOM     23  O   UNL     1     -37.874  12.827   9.744  1.00  0.00    -0.500 OA
ATOM     24  H   UNL     1     -37.843  13.771  10.111  1.00  0.00     0.294 HD
ENDBRANCH  10  23
BRANCH   5  25
ATOM     25  O   UNL     1     -38.641  11.982   2.067  1.00  0.00    -0.507 OA
ATOM     26  H   UNL     1     -37.958  11.808   1.339  1.00  0.00     0.293 HD
ENDBRANCH   5  25
BRANCH   7  27
ATOM     27  O   UNL     1     -35.298  13.413   5.225  1.00  0.00    -0.507 OA
ATOM     28  H   UNL     1     -34.557  12.890   5.668  1.00  0.00     0.293 HD
ENDBRANCH   7  27
TORSDOF 7
ENDMDL
MODEL 3
REMARK VINA RESULT:    -6.780      1.255      7.212
REMARK INTER + INTRA:          -8.727
REMARK INTER:                  -8.350
REMARK INTRA:                  -0.377
REMARK UNBOUND:                -0.362
REMARK SMILES Oc1cc(O)c2cc(O)c(-c3cc(O)c(O)c(O)c3)[o+]c2c1
REMARK SMILES IDX 10 1 20 2 21 3 22 4 2 5 3 6 4 7 6 8 7 9 8 10 11 11 12 12
REMARK SMILES IDX 13 13 19 14 15 15 17 16 14 17 16 19 18 21 9 23 1 25 5 27
REMARK H PARENT 14 18 16 20 18 22 9 24 1 26 5 28
REMARK Flexibility Score: inf
ROOT
ATOM      1  C   UNL     1     -39.666  12.470   7.999  1.00  0.00     0.402 A 
ATOM      2  O   UNL     1     -39.884  12.182   6.718  1.00  0.00    -0.202 OA
ATOM      3  C   UNL     1     -38.923  12.158   5.801  1.00  0.00     0.368 A 
ATOM      4  C   UNL     1     -39.251  11.840   4.480  1.00  0.00     0.162 A 
ATOM      5  C   UNL     1     -38.262  11.805   3.497  1.00  0.00     0.128 A 
ATOM      6  C   UNL     1     -36.933  12.087   3.834  1.00  0.00     0.093 A 
ATOM      7  C   UNL     1     -36.579  12.408   5.150  1.00  0.00     0.136 A 
ATOM      8  C   UNL     1     -37.583  12.448   6.153  1.00  0.00     0.125 A 
ATOM      9  C   UNL     1     -37.322  12.771   7.494  1.00  0.00     0.078 A 
ATOM     10  C   UNL     1     -38.364  12.796   8.425  1.00  0.00     0.223 A 
ENDROOT
BRANCH   1  11
ATOM     11  C   UNL     1     -40.819  12.454   8.927  1.00  0.00     0.091 A 
ATOM     12  C   UNL     1     -41.621  13.592   9.117  1.00  0.00     0.068 A 
ATOM     13  C   UNL     1     -42.695  13.574  10.014  1.00  0.00     0.162 A 
ATOM     14  C   UNL     1     -41.086  11.301   9.676  1.00  0.00     0.068 A 
ATOM     15  C   UNL     1     -42.972  12.396  10.748  1.00  0.00     0.200 A 
ATOM     16  C   UNL     1     -42.159  11.268  10.576  1.00  0.00     0.162 A 
BRANCH  13  17
ATOM     17  O   UNL     1     -43.448  14.743  10.150  1.00  0.00    -0.504 OA
ATOM     18  H   UNL     1     -44.445  14.795   9.993  1.00  0.00     0.293 HD
ENDBRANCH  13  17
BRANCH  15  19
ATOM     19  O   UNL     1     -44.035  12.308  11.651  1.00  0.00    -0.502 OA
ATOM     20  H   UNL     1     -44.979  12.600  11.445  1.00  0.00     0.293 HD
ENDBRANCH  15  19
BRANCH  16  21
ATOM     21  O   UNL     1     -42.425  10.110  11.305  1.00  0.00    -0.504 OA
ATOM     22  H   UNL     1     -41.686   9.585  11.759  1.00  0.00     0.293 HD
ENDBRANCH  16  21
ENDBRANCH   1  11
BRANCH  10  23
ATOM     23  O   UNL     1     -38.115  13.166   9.747  1.00  0.00    -0.500 OA
ATOM     24  H   UNL     1     -37.888  12.480  10.458  1.00  0.00     0.294 HD
ENDBRANCH  10  23
BRANCH   5  25
ATOM     25  O   UNL     1     -38.609  11.486   2.186  1.00  0.00    -0.507 OA
ATOM     26  H   UNL     1     -38.022  11.748   1.404  1.00  0.00     0.293 HD
ENDBRANCH   5  25
BRANCH   7  27
ATOM     27  O   UNL     1     -35.231  12.674   5.407  1.00  0.00    -0.507 OA
ATOM     28  H   UNL     1     -34.899  13.428   5.990  1.00  0.00     0.293 HD
ENDBRANCH   7  27
TORSDOF 7
ENDMDL
MODEL 4
REMARK VINA RESULT:    -6.600      4.434      7.754
REMARK INTER + INTRA:          -8.505
REMARK INTER:                  -8.137
REMARK INTRA:                  -0.368
REMARK UNBOUND:                -0.362
REMARK SMILES Oc1cc(O)c2cc(O)c(-c3cc(O)c(O)c(O)c3)[o+]c2c1
REMARK SMILES IDX 10 1 20 2 21 3 22 4 2 5 3 6 4 7 6 8 7 9 8 10 11 11 12 12
REMARK SMILES IDX 13 13 19 14 15 15 17 16 14 17 16 19 18 21 9 23 1 25 5 27
REMARK H PARENT 14 18 16 20 18 22 9 24 1 26 5 28
REMARK Flexibility Score: inf
ROOT
ATOM      1  C   UNL     1     -33.820  14.388   2.924  1.00  0.00     0.402 A 
ATOM      2  O   UNL     1     -34.146  13.601   3.946  1.00  0.00    -0.202 OA
ATOM      3  C   UNL     1     -35.216  13.799   4.707  1.00  0.00     0.368 A 
ATOM      4  C   UNL     1     -35.477  12.914   5.758  1.00  0.00     0.162 A 
ATOM      5  C   UNL     1     -36.596  13.094   6.571  1.00  0.00     0.128 A 
ATOM      6  C   UNL     1     -37.463  14.167   6.335  1.00  0.00     0.093 A 
ATOM      7  C   UNL     1     -37.224  15.067   5.289  1.00  0.00     0.136 A 
ATOM      8  C   UNL     1     -36.086  14.888   4.460  1.00  0.00     0.125 A 
ATOM      9  C   UNL     1     -35.761  15.747   3.399  1.00  0.00     0.078 A 
ATOM     10  C   UNL     1     -34.618  15.509   2.629  1.00  0.00     0.223 A 
ENDROOT
BRANCH   1  11
ATOM     11  C   UNL     1     -32.605  14.058   2.144  1.00  0.00     0.091 A 
ATOM     12  C   UNL     1     -31.332  14.483   2.558  1.00  0.00     0.068 A 
ATOM     13  C   UNL     1     -30.192  14.185   1.801  1.00  0.00     0.162 A 
ATOM     14  C   UNL     1     -32.730  13.354   0.938  1.00  0.00     0.068 A 
ATOM     15  C   UNL     1     -30.326  13.453   0.597  1.00  0.00     0.200 A 
ATOM     16  C   UNL     1     -31.598  13.047   0.173  1.00  0.00     0.162 A 
BRANCH  13  17
ATOM     17  O   UNL     1     -28.960  14.641   2.275  1.00  0.00    -0.504 OA
ATOM     18  H   UNL     1     -28.852  15.409   2.922  1.00  0.00     0.293 HD
ENDBRANCH  13  17
BRANCH  15  19
ATOM     19  O   UNL     1     -29.229  13.113  -0.199  1.00  0.00    -0.502 OA
ATOM     20  H   UNL     1     -28.451  12.554   0.118  1.00  0.00     0.293 HD
ENDBRANCH  15  19
BRANCH  16  21
ATOM     21  O   UNL     1     -31.731  12.334  -1.017  1.00  0.00    -0.504 OA
ATOM     22  H   UNL     1     -30.923  12.030  -1.549  1.00  0.00     0.293 HD
ENDBRANCH  16  21
ENDBRANCH   1  11
BRANCH  10  23
ATOM     23  O   UNL     1     -34.267  16.390   1.606  1.00  0.00    -0.500 OA
ATOM     24  H   UNL     1     -34.102  16.067   0.659  1.00  0.00     0.294 HD
ENDBRANCH  10  23
BRANCH   5  25
ATOM     25  O   UNL     1     -36.838  12.202   7.613  1.00  0.00    -0.507 OA
ATOM     26  H   UNL     1     -37.247  11.290   7.444  1.00  0.00     0.293 HD
ENDBRANCH   5  25
BRANCH   7  27
ATOM     27  O   UNL     1     -38.139  16.110   5.116  1.00  0.00    -0.507 OA
ATOM     28  H   UNL     1     -37.924  17.087   5.255  1.00  0.00     0.293 HD
ENDBRANCH   7  27
TORSDOF 7
ENDMDL
MODEL 5
REMARK VINA RESULT:    -6.567      5.642     11.271
REMARK INTER + INTRA:          -8.464
REMARK INTER:                  -8.095
REMARK INTRA:                  -0.369
REMARK UNBOUND:                -0.362
REMARK SMILES Oc1cc(O)c2cc(O)c(-c3cc(O)c(O)c(O)c3)[o+]c2c1
REMARK SMILES IDX 10 1 20 2 21 3 22 4 2 5 3 6 4 7 6 8 7 9 8 10 11 11 12 12
REMARK SMILES IDX 13 13 19 14 15 15 17 16 14 17 16 19 18 21 9 23 1 25 5 27
REMARK H PARENT 14 18 16 20 18 22 9 24 1 26 5 28
REMARK Flexibility Score: inf
ROOT
ATOM      1  C   UNL     1     -33.588  14.235   1.575  1.00  0.00     0.402 A 
ATOM      2  O   UNL     1     -32.854  13.152   1.332  1.00  0.00    -0.202 OA
ATOM      3  C   UNL     1     -31.708  13.182   0.661  1.00  0.00     0.368 A 
ATOM      4  C   UNL     1     -31.006  11.990   0.460  1.00  0.00     0.162 A 
ATOM      5  C   UNL     1     -29.798  11.992  -0.238  1.00  0.00     0.128 A 
ATOM      6  C   UNL     1     -29.284  13.194  -0.738  1.00  0.00     0.093 A 
ATOM      7  C   UNL     1     -29.968  14.402  -0.550  1.00  0.00     0.136 A 
ATOM      8  C   UNL     1     -31.199  14.403   0.158  1.00  0.00     0.125 A 
ATOM      9  C   UNL     1     -31.958  15.563   0.383  1.00  0.00     0.078 A 
ATOM     10  C   UNL     1     -33.165  15.485   1.084  1.00  0.00     0.223 A 
ENDROOT
BRANCH   1  11
ATOM     11  C   UNL     1     -34.844  14.074   2.342  1.00  0.00     0.091 A 
ATOM     12  C   UNL     1     -34.909  14.380   3.712  1.00  0.00     0.068 A 
ATOM     13  C   UNL     1     -36.095  14.202   4.434  1.00  0.00     0.162 A 
ATOM     14  C   UNL     1     -35.978  13.551   1.707  1.00  0.00     0.068 A 
ATOM     15  C   UNL     1     -37.243  13.697   3.777  1.00  0.00     0.200 A 
ATOM     16  C   UNL     1     -37.172  13.370   2.416  1.00  0.00     0.162 A 
BRANCH  13  17
ATOM     17  O   UNL     1     -36.084  14.529   5.792  1.00  0.00    -0.504 OA
ATOM     18  H   UNL     1     -36.833  15.016   6.262  1.00  0.00     0.293 HD
ENDBRANCH  13  17
BRANCH  15  19
ATOM     19  O   UNL     1     -38.460  13.506   4.436  1.00  0.00    -0.502 OA
ATOM     20  H   UNL     1     -39.087  14.253   4.696  1.00  0.00     0.293 HD
ENDBRANCH  15  19
BRANCH  16  21
ATOM     21  O   UNL     1     -38.299  12.864   1.771  1.00  0.00    -0.504 OA
ATOM     22  H   UNL     1     -38.893  12.166   2.205  1.00  0.00     0.293 HD
ENDBRANCH  16  21
ENDBRANCH   1  11
BRANCH  10  23
ATOM     23  O   UNL     1     -33.945  16.628   1.265  1.00  0.00    -0.500 OA
ATOM     24  H   UNL     1     -33.608  17.548   1.006  1.00  0.00     0.294 HD
ENDBRANCH  10  23
BRANCH   5  25
ATOM     25  O   UNL     1     -29.114  10.794  -0.428  1.00  0.00    -0.507 OA
ATOM     26  H   UNL     1     -28.101  10.757  -0.432  1.00  0.00     0.293 HD
ENDBRANCH   5  25
BRANCH   7  27
ATOM     27  O   UNL     1     -29.387  15.558  -1.077  1.00  0.00    -0.507 OA
ATOM     28  H   UNL     1     -29.870  16.438  -1.191  1.00  0.00     0.293 HD
ENDBRANCH   7  27
TORSDOF 7
ENDMDL
MODEL 6
REMARK VINA RESULT:    -6.560      1.447      7.178
REMARK INTER + INTRA:          -8.456
REMARK INTER:                  -8.098
REMARK INTRA:                  -0.358
REMARK UNBOUND:                -0.362
REMARK SMILES Oc1cc(O)c2cc(O)c(-c3cc(O)c(O)c(O)c3)[o+]c2c1
REMARK SMILES IDX 10 1 20 2 21 3 22 4 2 5 3 6 4 7 6 8 7 9 8 10 11 11 12 12
REMARK SMILES IDX 13 13 19 14 15 15 17 16 14 17 16 19 18 21 9 23 1 25 5 27
REMARK H PARENT 14 18 16 20 18 22 9 24 1 26 5 28
REMARK Flexibility Score: inf
ROOT
ATOM      1  C   UNL     1     -40.331  12.003   7.330  1.00  0.00     0.402 A 
ATOM      2  O   UNL     1     -39.155  12.615   7.444  1.00  0.00    -0.202 OA
ATOM      3  C   UNL     1     -38.223  12.589   6.498  1.00  0.00     0.368 A 
ATOM      4  C   UNL     1     -37.019  13.266   6.710  1.00  0.00     0.162 A 
ATOM      5  C   UNL     1     -36.023  13.259   5.732  1.00  0.00     0.128 A 
ATOM      6  C   UNL     1     -36.232  12.571   4.531  1.00  0.00     0.093 A 
ATOM      7  C   UNL     1     -37.429  11.885   4.294  1.00  0.00     0.136 A 
ATOM      8  C   UNL     1     -38.444  11.888   5.288  1.00  0.00     0.125 A 
ATOM      9  C   UNL     1     -39.669  11.219   5.142  1.00  0.00     0.078 A 
ATOM     10  C   UNL     1     -40.618  11.262   6.168  1.00  0.00     0.223 A 
ENDROOT
BRANCH   1  11
ATOM     11  C   UNL     1     -41.291  12.114   8.452  1.00  0.00     0.091 A 
ATOM     12  C   UNL     1     -42.104  13.248   8.610  1.00  0.00     0.068 A 
ATOM     13  C   UNL     1     -42.992  13.353   9.687  1.00  0.00     0.162 A 
ATOM     14  C   UNL     1     -41.352  11.093   9.410  1.00  0.00     0.068 A 
ATOM     15  C   UNL     1     -43.065  12.305  10.636  1.00  0.00     0.200 A 
ATOM     16  C   UNL     1     -42.238  11.183  10.491  1.00  0.00     0.162 A 
BRANCH  13  17
ATOM     17  O   UNL     1     -43.769  14.510   9.779  1.00  0.00    -0.504 OA
ATOM     18  H   UNL     1     -44.640  14.646   9.288  1.00  0.00     0.293 HD
ENDBRANCH  13  17
BRANCH  15  19
ATOM     19  O   UNL     1     -43.936  12.342  11.727  1.00  0.00    -0.502 OA
ATOM     20  H   UNL     1     -44.688  11.685  11.874  1.00  0.00     0.293 HD
ENDBRANCH  15  19
BRANCH  16  21
ATOM     21  O   UNL     1     -42.303  10.155  11.430  1.00  0.00    -0.504 OA
ATOM     22  H   UNL     1     -43.113   9.551  11.502  1.00  0.00     0.293 HD
ENDBRANCH  16  21
ENDBRANCH   1  11
BRANCH  10  23
ATOM     23  O   UNL     1     -41.815  10.556   6.046  1.00  0.00    -0.500 OA
ATOM     24  H   UNL     1     -41.954   9.662   6.504  1.00  0.00     0.294 HD
ENDBRANCH  10  23
BRANCH   5  25
ATOM     25  O   UNL     1     -34.830  13.940   5.962  1.00  0.00    -0.507 OA
ATOM     26  H   UNL     1     -34.447  14.036   6.895  1.00  0.00     0.293 HD
ENDBRANCH   5  25
BRANCH   7  27
ATOM     27  O   UNL     1     -37.562  11.226   3.069  1.00  0.00    -0.507 OA
ATOM     28  H   UNL     1     -36.814  11.110   2.400  1.00  0.00     0.293 HD
ENDBRANCH   7  27
TORSDOF 7
ENDMDL
MODEL 7
REMARK VINA RESULT:    -6.462      1.786      7.112
REMARK INTER + INTRA:          -8.334
REMARK INTER:                  -7.949
REMARK INTRA:                  -0.385
REMARK UNBOUND:                -0.362
REMARK SMILES Oc1cc(O)c2cc(O)c(-c3cc(O)c(O)c(O)c3)[o+]c2c1
REMARK SMILES IDX 10 1 20 2 21 3 22 4 2 5 3 6 4 7 6 8 7 9 8 10 11 11 12 12
REMARK SMILES IDX 13 13 19 14 15 15 17 16 14 17 16 19 18 21 9 23 1 25 5 27
REMARK H PARENT 14 18 16 20 18 22 9 24 1 26 5 28
REMARK Flexibility Score: inf
ROOT
ATOM      1  C   UNL     1     -39.878  11.971   7.580  1.00  0.00     0.402 A 
ATOM      2  O   UNL     1     -40.333  11.701   6.359  1.00  0.00    -0.202 OA
ATOM      3  C   UNL     1     -39.539  11.472   5.319  1.00  0.00     0.368 A 
ATOM      4  C   UNL     1     -40.112  11.192   4.075  1.00  0.00     0.162 A 
ATOM      5  C   UNL     1     -39.303  10.944   2.965  1.00  0.00     0.128 A 
ATOM      6  C   UNL     1     -37.910  10.974   3.098  1.00  0.00     0.093 A 
ATOM      7  C   UNL     1     -37.312  11.251   4.333  1.00  0.00     0.136 A 
ATOM      8  C   UNL     1     -38.132  11.506   5.464  1.00  0.00     0.125 A 
ATOM      9  C   UNL     1     -37.620  11.805   6.737  1.00  0.00     0.078 A 
ATOM     10  C   UNL     1     -38.490  12.051   7.802  1.00  0.00     0.223 A 
ENDROOT
BRANCH   1  11
ATOM     11  C   UNL     1     -40.864  12.199   8.661  1.00  0.00     0.091 A 
ATOM     12  C   UNL     1     -41.261  11.161   9.520  1.00  0.00     0.068 A 
ATOM     13  C   UNL     1     -42.211  11.382  10.524  1.00  0.00     0.162 A 
ATOM     14  C   UNL     1     -41.458  13.461   8.797  1.00  0.00     0.068 A 
ATOM     15  C   UNL     1     -42.787  12.666  10.670  1.00  0.00     0.200 A 
ATOM     16  C   UNL     1     -42.408  13.696   9.799  1.00  0.00     0.162 A 
BRANCH  13  17
ATOM     17  O   UNL     1     -42.556  10.302  11.341  1.00  0.00    -0.504 OA
ATOM     18  H   UNL     1     -42.359   9.338  11.116  1.00  0.00     0.293 HD
ENDBRANCH  13  17
BRANCH  15  19
ATOM     19  O   UNL     1     -43.733  12.956  11.658  1.00  0.00    -0.502 OA
ATOM     20  H   UNL     1     -44.608  13.427  11.483  1.00  0.00     0.293 HD
ENDBRANCH  15  19
BRANCH  16  21
ATOM     21  O   UNL     1     -42.982  14.959   9.936  1.00  0.00    -0.504 OA
ATOM     22  H   UNL     1     -43.984  15.081  10.034  1.00  0.00     0.293 HD
ENDBRANCH  16  21
ENDBRANCH   1  11
BRANCH  10  23
ATOM     23  O   UNL     1     -37.984  12.397   9.056  1.00  0.00    -0.500 OA
ATOM     24  H   UNL     1     -38.413  12.066   9.913  1.00  0.00     0.294 HD
ENDBRANCH  10  23
BRANCH   5  25
ATOM     25  O   UNL     1     -39.894  10.668   1.734  1.00  0.00    -0.507 OA
ATOM     26  H   UNL     1     -40.789  10.198   1.670  1.00  0.00     0.293 HD
ENDBRANCH   5  25
BRANCH   7  27
ATOM     27  O   UNL     1     -35.915  11.259   4.384  1.00  0.00    -0.507 OA
ATOM     28  H   UNL     1     -35.324  11.779   3.752  1.00  0.00     0.293 HD
ENDBRANCH   7  27
TORSDOF 7
ENDMDL
MODEL 8
REMARK VINA RESULT:    -6.327      1.837      2.301
REMARK INTER + INTRA:          -8.168
REMARK INTER:                  -7.784
REMARK INTRA:                  -0.384
REMARK UNBOUND:                -0.362
REMARK SMILES Oc1cc(O)c2cc(O)c(-c3cc(O)c(O)c(O)c3)[o+]c2c1
REMARK SMILES IDX 10 1 20 2 21 3 22 4 2 5 3 6 4 7 6 8 7 9 8 10 11 11 12 12
REMARK SMILES IDX 13 13 19 14 15 15 17 16 14 17 16 19 18 21 9 23 1 25 5 27
REMARK H PARENT 14 18 16 20 18 22 9 24 1 26 5 28
REMARK Flexibility Score: inf
ROOT
ATOM      1  C   UNL     1     -39.610  11.409   6.554  1.00  0.00     0.402 A 
ATOM      2  O   UNL     1     -40.701  11.986   7.050  1.00  0.00    -0.202 OA
ATOM      3  C   UNL     1     -41.246  11.640   8.212  1.00  0.00     0.368 A 
ATOM      4  C   UNL     1     -42.392  12.309   8.651  1.00  0.00     0.162 A 
ATOM      5  C   UNL     1     -42.983  11.970   9.869  1.00  0.00     0.128 A 
ATOM      6  C   UNL     1     -42.426  10.955  10.655  1.00  0.00     0.093 A 
ATOM      7  C   UNL     1     -41.278  10.270  10.237  1.00  0.00     0.136 A 
ATOM      8  C   UNL     1     -40.674  10.611   8.998  1.00  0.00     0.125 A 
ATOM      9  C   UNL     1     -39.532   9.971   8.494  1.00  0.00     0.078 A 
ATOM     10  C   UNL     1     -38.997  10.358   7.262  1.00  0.00     0.223 A 
ENDROOT
BRANCH   1  11
ATOM     11  C   UNL     1     -39.093  11.889   5.252  1.00  0.00     0.091 A 
ATOM     12  C   UNL     1     -38.073  12.852   5.180  1.00  0.00     0.068 A 
ATOM     13  C   UNL     1     -37.607  13.316   3.944  1.00  0.00     0.162 A 
ATOM     14  C   UNL     1     -39.670  11.419   4.065  1.00  0.00     0.068 A 
ATOM     15  C   UNL     1     -38.179  12.817   2.750  1.00  0.00     0.200 A 
ATOM     16  C   UNL     1     -39.213  11.873   2.821  1.00  0.00     0.162 A 
BRANCH  13  17
ATOM     17  O   UNL     1     -36.589  14.273   3.952  1.00  0.00    -0.504 OA
ATOM     18  H   UNL     1     -36.678  15.190   4.364  1.00  0.00     0.293 HD
ENDBRANCH  13  17
BRANCH  15  19
ATOM     19  O   UNL     1     -37.754  13.230   1.485  1.00  0.00    -0.502 OA
ATOM     20  H   UNL     1     -36.867  12.976   1.075  1.00  0.00     0.293 HD
ENDBRANCH  15  19
BRANCH  16  21
ATOM     21  O   UNL     1     -39.783  11.388   1.646  1.00  0.00    -0.504 OA
ATOM     22  H   UNL     1     -40.429  11.945   1.098  1.00  0.00     0.293 HD
ENDBRANCH  16  21
ENDBRANCH   1  11
BRANCH  10  23
ATOM     23  O   UNL     1     -37.891   9.689   6.736  1.00  0.00    -0.500 OA
ATOM     24  H   UNL     1     -37.012   9.637   7.239  1.00  0.00     0.294 HD
ENDBRANCH  10  23
BRANCH   5  25
ATOM     25  O   UNL     1     -44.125  12.648  10.289  1.00  0.00    -0.507 OA
ATOM     26  H   UNL     1     -44.118  13.648  10.449  1.00  0.00     0.293 HD
ENDBRANCH   5  25
BRANCH   7  27
ATOM     27  O   UNL     1     -40.781   9.273  11.081  1.00  0.00    -0.507 OA
ATOM     28  H   UNL     1     -40.993   8.290  10.989  1.00  0.00     0.293 HD
ENDBRANCH   7  27
TORSDOF 7
ENDMDL
MODEL 9
REMARK VINA RESULT:    -6.319      2.403      4.011
REMARK INTER + INTRA:          -8.158
REMARK INTER:                  -7.773
REMARK INTRA:                  -0.385
REMARK UNBOUND:                -0.362
REMARK SMILES Oc1cc(O)c2cc(O)c(-c3cc(O)c(O)c(O)c3)[o+]c2c1
REMARK SMILES IDX 10 1 20 2 21 3 22 4 2 5 3 6 4 7 6 8 7 9 8 10 11 11 12 12
REMARK SMILES IDX 13 13 19 14 15 15 17 16 14 17 16 19 18 21 9 23 1 25 5 27
REMARK H PARENT 14 18 16 20 18 22 9 24 1 26 5 28
REMARK Flexibility Score: inf
ROOT
ATOM      1  C   UNL     1     -36.707  13.154   4.849  1.00  0.00     0.402 A 
ATOM      2  O   UNL     1     -37.431  13.897   5.682  1.00  0.00    -0.202 OA
ATOM      3  C   UNL     1     -38.118  13.394   6.701  1.00  0.00     0.368 A 
ATOM      4  C   UNL     1     -38.847  14.258   7.523  1.00  0.00     0.162 A 
ATOM      5  C   UNL     1     -39.576  13.757   8.603  1.00  0.00     0.128 A 
ATOM      6  C   UNL     1     -39.575  12.382   8.866  1.00  0.00     0.093 A 
ATOM      7  C   UNL     1     -38.853  11.496   8.058  1.00  0.00     0.136 A 
ATOM      8  C   UNL     1     -38.112  12.001   6.957  1.00  0.00     0.125 A 
ATOM      9  C   UNL     1     -37.371  11.187   6.087  1.00  0.00     0.078 A 
ATOM     10  C   UNL     1     -36.671  11.757   5.019  1.00  0.00     0.223 A 
ENDROOT
BRANCH   1  11
ATOM     11  C   UNL     1     -35.978  13.834   3.755  1.00  0.00     0.091 A 
ATOM     12  C   UNL     1     -34.653  14.270   3.920  1.00  0.00     0.068 A 
ATOM     13  C   UNL     1     -33.980  14.934   2.886  1.00  0.00     0.162 A 
ATOM     14  C   UNL     1     -36.638  14.101   2.548  1.00  0.00     0.068 A 
ATOM     15  C   UNL     1     -34.647  15.177   1.662  1.00  0.00     0.200 A 
ATOM     16  C   UNL     1     -35.976  14.762   1.505  1.00  0.00     0.162 A 
BRANCH  13  17
ATOM     17  O   UNL     1     -32.663  15.337   3.123  1.00  0.00    -0.504 OA
ATOM     18  H   UNL     1     -32.143  15.109   3.958  1.00  0.00     0.293 HD
ENDBRANCH  13  17
BRANCH  15  19
ATOM     19  O   UNL     1     -34.030  15.823   0.588  1.00  0.00    -0.502 OA
ATOM     20  H   UNL     1     -34.287  16.741   0.256  1.00  0.00     0.293 HD
ENDBRANCH  15  19
BRANCH  16  21
ATOM     21  O   UNL     1     -36.636  15.009   0.303  1.00  0.00    -0.504 OA
ATOM     22  H   UNL     1     -37.547  14.610   0.104  1.00  0.00     0.293 HD
ENDBRANCH  16  21
ENDBRANCH   1  11
BRANCH  10  23
ATOM     23  O   UNL     1     -35.975  10.944   4.124  1.00  0.00    -0.500 OA
ATOM     24  H   UNL     1     -35.010  10.677   4.288  1.00  0.00     0.294 HD
ENDBRANCH  10  23
BRANCH   5  25
ATOM     25  O   UNL     1     -40.296  14.635   9.411  1.00  0.00    -0.507 OA
ATOM     26  H   UNL     1     -39.837  15.215  10.102  1.00  0.00     0.293 HD
ENDBRANCH   5  25
BRANCH   7  27
ATOM     27  O   UNL     1     -38.900  10.139   8.389  1.00  0.00    -0.507 OA
ATOM     28  H   UNL     1     -38.206   9.663   8.946  1.00  0.00     0.293 HD
ENDBRANCH   7  27
TORSDOF 7
ENDMDL
