MODEL 1
REMARK VINA RESULT:    -6.882      0.000      0.000
REMARK INTER + INTRA:         -13.554
REMARK INTER:                 -11.307
REMARK INTRA:                  -2.247
REMARK UNBOUND:                -2.247
REMARK SMILES COc1ccc([C@H]2CC(=O)c3c(O)cc(O[C@@H]4O[C@@H](CO[C@H]5O[C@@H](C)[C@@H](O)[C@H](O)[C@@H]5O)[C@H](O)[C@H](O)[C@@H]4O)cc3O2)cc1O
REMARK SMILES IDX 19 1 32 2 34 3 36 4 17 5 18 6 20 7 21 8 22 9 25 10 24 11
REMARK SMILES IDX 26 12 23 13 28 14 30 15 27 16 29 18 31 20 33 22 35 24 16 26
REMARK SMILES IDX 15 27 14 28 38 29 12 30 39 31 11 32 40 33 9 34 7 35 10 36
REMARK SMILES IDX 8 37 13 38 6 40 41 41 5 42 42 43 4 44 3 45 43 46 2 48 1 49
REMARK SMILES IDX 37 50
REMARK H PARENT 27 17 29 19 31 21 33 23 35 25 13 39 43 47 37 51
REMARK Flexibility Score: inf
ROOT
ATOM      1  C   UNL     1      -6.907  -4.238  -7.602  1.00  0.00     0.180 C 
ATOM      2  C   UNL     1      -7.772  -3.198  -6.864  1.00  0.00     0.177 C 
ATOM      3  C   UNL     1      -6.853  -2.190  -6.180  1.00  0.00     0.180 C 
ATOM      4  C   UNL     1      -6.058  -2.944  -5.107  1.00  0.00     0.214 C 
ATOM      5  C   UNL     1      -5.637  -4.407  -5.513  1.00  0.00     0.339 C 
ATOM      6  O   UNL     1      -5.830  -4.813  -6.867  1.00  0.00    -0.332 OA
ENDROOT
BRANCH   1   7
ATOM      7  C   UNL     1      -7.767  -5.364  -8.188  1.00  0.00     0.198 C 
BRANCH   7   8
ATOM      8  O   UNL     1      -8.886  -5.602  -7.358  1.00  0.00    -0.347 OA
BRANCH   8   9
ATOM      9  C   UNL     1      -8.907  -6.949  -6.906  1.00  0.00     0.281 C 
ATOM     10  C   UNL     1      -7.372  -9.892  -8.489  1.00  0.00     0.041 C 
ATOM     11  C   UNL     1      -8.119  -9.087  -7.426  1.00  0.00     0.150 C 
ATOM     12  C   UNL     1      -7.494  -9.306  -6.029  1.00  0.00     0.174 C 
ATOM     13  O   UNL     1      -8.086  -7.711  -7.776  1.00  0.00    -0.344 OA
ATOM     14  C   UNL     1      -8.249  -8.464  -4.988  1.00  0.00     0.179 C 
ATOM     15  C   UNL     1      -8.340  -6.999  -5.469  1.00  0.00     0.202 C 
BRANCH  12  16
ATOM     16  O   UNL     1      -6.138  -8.930  -6.053  1.00  0.00    -0.388 OA
ATOM     17  H   UNL     1      -5.618  -9.744  -6.281  1.00  0.00     0.211 HD
ENDBRANCH  12  16
BRANCH  14  18
ATOM     18  O   UNL     1      -9.533  -9.006  -4.801  1.00  0.00    -0.387 OA
ATOM     19  H   UNL     1      -9.968  -8.482  -4.081  1.00  0.00     0.211 HD
ENDBRANCH  14  18
BRANCH  15  20
ATOM     20  O   UNL     1      -9.157  -6.261  -4.601  1.00  0.00    -0.385 OA
ATOM     21  H   UNL     1     -10.032  -6.147  -5.056  1.00  0.00     0.211 HD
ENDBRANCH  15  20
ENDBRANCH   8   9
ENDBRANCH   7   8
ENDBRANCH   1   7
BRANCH   2  22
ATOM     22  O   UNL     1      -8.608  -2.538  -7.783  1.00  0.00    -0.387 OA
ATOM     23  H   UNL     1      -9.539  -2.654  -7.464  1.00  0.00     0.211 HD
ENDBRANCH   2  22
BRANCH   3  24
ATOM     24  O   UNL     1      -5.986  -1.583  -7.112  1.00  0.00    -0.387 OA
ATOM     25  H   UNL     1      -6.558  -1.038  -7.718  1.00  0.00     0.211 HD
ENDBRANCH   3  24
BRANCH   5  26
ATOM     26  O   UNL     1      -4.276  -4.686  -5.143  1.00  0.00    -0.462 OA
BRANCH  26  27
ATOM     27  C   UNL     1      -3.434  -5.656  -5.732  1.00  0.00     0.130 A 
ATOM     28  C   UNL     1      -3.541  -6.986  -5.307  1.00  0.00     0.093 A 
ATOM     29  C   UNL     1      -2.479  -5.335  -6.710  1.00  0.00     0.094 A 
ATOM     30  C   UNL     1      -2.705  -7.985  -5.831  1.00  0.00     0.133 A 
ATOM     31  C   UNL     1      -1.606  -6.302  -7.197  1.00  0.00     0.138 A 
ATOM     32  C   UNL     1      -1.686  -7.632  -6.752  1.00  0.00     0.102 A 
ATOM     33  O   UNL     1      -0.646  -5.909  -8.133  1.00  0.00    -0.484 OA
ATOM     34  C   UNL     1      -0.638  -8.571  -7.232  1.00  0.00     0.174 C 
ATOM     35  C   UNL     1       0.512  -6.677  -8.449  1.00  0.00     0.211 C 
ATOM     36  O   UNL     1      -0.428  -9.672  -6.651  1.00  0.00    -0.294 OA
ATOM     37  C   UNL     1       0.225  -8.191  -8.405  1.00  0.00     0.131 C 
BRANCH  30  38
ATOM     38  O   UNL     1      -2.941  -9.302  -5.434  1.00  0.00    -0.507 OA
ATOM     39  H   UNL     1      -3.430  -9.983  -5.997  1.00  0.00     0.293 HD
ENDBRANCH  30  38
BRANCH  35  40
ATOM     40  C   UNL     1       1.668  -6.245  -7.562  1.00  0.00    -0.003 A 
ATOM     41  C   UNL     1       1.423  -5.424  -6.449  1.00  0.00     0.057 A 
ATOM     42  C   UNL     1       2.976  -6.719  -7.777  1.00  0.00     0.011 A 
ATOM     43  C   UNL     1       2.457  -5.080  -5.570  1.00  0.00     0.158 A 
ATOM     44  C   UNL     1       4.012  -6.356  -6.914  1.00  0.00     0.051 A 
ATOM     45  C   UNL     1       3.762  -5.541  -5.799  1.00  0.00     0.160 A 
BRANCH  43  46
ATOM     46  O   UNL     1       2.197  -4.281  -4.461  1.00  0.00    -0.504 OA
ATOM     47  H   UNL     1       2.647  -4.455  -3.565  1.00  0.00     0.293 HD
ENDBRANCH  43  46
BRANCH  45  48
ATOM     48  O   UNL     1       4.766  -5.166  -4.896  1.00  0.00    -0.493 OA
ATOM     49  C   UNL     1       5.482  -6.080  -4.069  1.00  0.00     0.278 C 
ENDBRANCH  45  48
ENDBRANCH  35  40
ENDBRANCH  26  27
ENDBRANCH   5  26
BRANCH   4  50
ATOM     50  O   UNL     1      -4.998  -2.162  -4.614  1.00  0.00    -0.384 OA
ATOM     51  H   UNL     1      -5.062  -2.142  -3.632  1.00  0.00     0.211 HD
ENDBRANCH   4  50
TORSDOF 15
ENDMDL
MODEL 2
REMARK VINA RESULT:    -6.147      1.048      2.087
REMARK INTER + INTRA:         -12.347
REMARK INTER:                 -11.006
REMARK INTRA:                  -1.341
REMARK UNBOUND:                -2.247
REMARK SMILES COc1ccc([C@H]2CC(=O)c3c(O)cc(O[C@@H]4O[C@@H](CO[C@H]5O[C@@H](C)[C@@H](O)[C@H](O)[C@@H]5O)[C@H](O)[C@H](O)[C@@H]4O)cc3O2)cc1O
REMARK SMILES IDX 19 1 32 2 34 3 36 4 17 5 18 6 20 7 21 8 22 9 25 10 24 11
REMARK SMILES IDX 26 12 23 13 28 14 30 15 27 16 29 18 31 20 33 22 35 24 16 26
REMARK SMILES IDX 15 27 14 28 38 29 12 30 39 31 11 32 40 33 9 34 7 35 10 36
REMARK SMILES IDX 8 37 13 38 6 40 41 41 5 42 42 43 4 44 3 45 43 46 2 48 1 49
REMARK SMILES IDX 37 50
REMARK H PARENT 27 17 29 19 31 21 33 23 35 25 13 39 43 47 37 51
REMARK Flexibility Score: inf
ROOT
ATOM      1  C   UNL     1      -6.423  -4.095  -7.675  1.00  0.00     0.180 C 
ATOM      2  C   UNL     1      -7.409  -3.412  -6.708  1.00  0.00     0.177 C 
ATOM      3  C   UNL     1      -6.628  -2.481  -5.785  1.00  0.00     0.180 C 
ATOM      4  C   UNL     1      -5.702  -3.351  -4.928  1.00  0.00     0.214 C 
ATOM      5  C   UNL     1      -5.083  -4.588  -5.683  1.00  0.00     0.339 C 
ATOM      6  O   UNL     1      -5.253  -4.668  -7.097  1.00  0.00    -0.332 OA
ENDROOT
BRANCH   1   7
ATOM      7  C   UNL     1      -7.125  -5.154  -8.532  1.00  0.00     0.198 C 
BRANCH   7   8
ATOM      8  O   UNL     1      -8.195  -5.732  -7.811  1.00  0.00    -0.347 OA
BRANCH   8   9
ATOM      9  C   UNL     1      -7.721  -6.710  -6.895  1.00  0.00     0.281 C 
ATOM     10  C   UNL     1      -8.901  -7.370  -3.476  1.00  0.00     0.041 C 
ATOM     11  C   UNL     1      -8.090  -7.573  -4.755  1.00  0.00     0.150 C 
ATOM     12  C   UNL     1      -8.206  -9.032  -5.254  1.00  0.00     0.174 C 
ATOM     13  O   UNL     1      -8.553  -6.669  -5.747  1.00  0.00    -0.344 OA
ATOM     14  C   UNL     1      -7.404  -9.198  -6.554  1.00  0.00     0.179 C 
ATOM     15  C   UNL     1      -7.811  -8.101  -7.562  1.00  0.00     0.202 C 
BRANCH  12  16
ATOM     16  O   UNL     1      -9.558  -9.347  -5.485  1.00  0.00    -0.388 OA
ATOM     17  H   UNL     1      -9.953  -9.583  -4.606  1.00  0.00     0.211 HD
ENDBRANCH  12  16
BRANCH  14  18
ATOM     18  O   UNL     1      -6.030  -9.117  -6.261  1.00  0.00    -0.387 OA
ATOM     19  H   UNL     1      -5.948  -9.026  -5.278  1.00  0.00     0.211 HD
ENDBRANCH  14  18
BRANCH  15  20
ATOM     20  O   UNL     1      -6.977  -8.152  -8.689  1.00  0.00    -0.385 OA
ATOM     21  H   UNL     1      -6.083  -7.830  -8.400  1.00  0.00     0.211 HD
ENDBRANCH  15  20
ENDBRANCH   8   9
ENDBRANCH   7   8
ENDBRANCH   1   7
BRANCH   2  22
ATOM     22  O   UNL     1      -8.359  -2.676  -7.440  1.00  0.00    -0.387 OA
ATOM     23  H   UNL     1      -8.355  -3.033  -8.364  1.00  0.00     0.211 HD
ENDBRANCH   2  22
BRANCH   3  24
ATOM     24  O   UNL     1      -5.887  -1.539  -6.527  1.00  0.00    -0.387 OA
ATOM     25  H   UNL     1      -5.074  -1.332  -5.991  1.00  0.00     0.211 HD
ENDBRANCH   3  24
BRANCH   5  26
ATOM     26  O   UNL     1      -3.686  -4.745  -5.382  1.00  0.00    -0.462 OA
BRANCH  26  27
ATOM     27  C   UNL     1      -2.792  -5.637  -6.016  1.00  0.00     0.130 A 
ATOM     28  C   UNL     1      -3.023  -7.014  -5.904  1.00  0.00     0.093 A 
ATOM     29  C   UNL     1      -1.668  -5.198  -6.733  1.00  0.00     0.094 A 
ATOM     30  C   UNL     1      -2.148  -7.946  -6.482  1.00  0.00     0.133 A 
ATOM     31  C   UNL     1      -0.761  -6.110  -7.263  1.00  0.00     0.138 A 
ATOM     32  C   UNL     1      -0.969  -7.492  -7.127  1.00  0.00     0.102 A 
ATOM     33  O   UNL     1       0.364  -5.609  -7.924  1.00  0.00    -0.484 OA
ATOM     34  C   UNL     1       0.110  -8.391  -7.615  1.00  0.00     0.174 C 
ATOM     35  C   UNL     1       1.529  -6.382  -8.200  1.00  0.00     0.211 C 
ATOM     36  O   UNL     1       0.172  -9.599  -7.253  1.00  0.00    -0.294 OA
ATOM     37  C   UNL     1       1.180  -7.849  -8.524  1.00  0.00     0.131 C 
BRANCH  30  38
ATOM     38  O   UNL     1      -2.501  -9.295  -6.415  1.00  0.00    -0.507 OA
ATOM     39  H   UNL     1      -2.986  -9.714  -5.635  1.00  0.00     0.293 HD
ENDBRANCH  30  38
BRANCH  35  40
ATOM     40  C   UNL     1       2.526  -6.224  -7.064  1.00  0.00    -0.003 A 
ATOM     41  C   UNL     1       3.760  -6.891  -7.122  1.00  0.00     0.057 A 
ATOM     42  C   UNL     1       2.280  -5.350  -5.988  1.00  0.00     0.011 A 
ATOM     43  C   UNL     1       4.728  -6.696  -6.129  1.00  0.00     0.158 A 
ATOM     44  C   UNL     1       3.236  -5.174  -4.986  1.00  0.00     0.051 A 
ATOM     45  C   UNL     1       4.471  -5.838  -5.051  1.00  0.00     0.160 A 
BRANCH  43  46
ATOM     46  O   UNL     1       5.954  -7.350  -6.209  1.00  0.00    -0.504 OA
ATOM     47  H   UNL     1       6.795  -6.952  -5.797  1.00  0.00     0.293 HD
ENDBRANCH  43  46
BRANCH  45  48
ATOM     48  O   UNL     1       5.467  -5.679  -4.077  1.00  0.00    -0.493 OA
ATOM     49  C   UNL     1       6.605  -4.832  -4.226  1.00  0.00     0.278 C 
ENDBRANCH  45  48
ENDBRANCH  35  40
ENDBRANCH  26  27
ENDBRANCH   5  26
BRANCH   4  50
ATOM     50  O   UNL     1      -4.754  -2.568  -4.244  1.00  0.00    -0.384 OA
ATOM     51  H   UNL     1      -4.114  -3.174  -3.806  1.00  0.00     0.211 HD
ENDBRANCH   4  50
TORSDOF 15
ENDMDL
MODEL 3
REMARK VINA RESULT:    -5.713      2.043      4.691
REMARK INTER + INTRA:         -11.634
REMARK INTER:                 -11.384
REMARK INTRA:                  -0.250
REMARK UNBOUND:                -2.247
REMARK SMILES COc1ccc([C@H]2CC(=O)c3c(O)cc(O[C@@H]4O[C@@H](CO[C@H]5O[C@@H](C)[C@@H](O)[C@H](O)[C@@H]5O)[C@H](O)[C@H](O)[C@@H]4O)cc3O2)cc1O
REMARK SMILES IDX 19 1 32 2 34 3 36 4 17 5 18 6 20 7 21 8 22 9 25 10 24 11
REMARK SMILES IDX 26 12 23 13 28 14 30 15 27 16 29 18 31 20 33 22 35 24 16 26
REMARK SMILES IDX 15 27 14 28 38 29 12 30 39 31 11 32 40 33 9 34 7 35 10 36
REMARK SMILES IDX 8 37 13 38 6 40 41 41 5 42 42 43 4 44 3 45 43 46 2 48 1 49
REMARK SMILES IDX 37 50
REMARK H PARENT 27 17 29 19 31 21 33 23 35 25 13 39 43 47 37 51
REMARK Flexibility Score: inf
ROOT
ATOM      1  C   UNL     1      -5.766  -4.712  -4.238  1.00  0.00     0.180 C 
ATOM      2  C   UNL     1      -6.718  -5.414  -5.226  1.00  0.00     0.177 C 
ATOM      3  C   UNL     1      -6.360  -6.896  -5.284  1.00  0.00     0.180 C 
ATOM      4  C   UNL     1      -4.951  -7.007  -5.877  1.00  0.00     0.214 C 
ATOM      5  C   UNL     1      -3.962  -5.865  -5.430  1.00  0.00     0.339 C 
ATOM      6  O   UNL     1      -4.375  -4.986  -4.385  1.00  0.00    -0.332 OA
ENDROOT
BRANCH   1   7
ATOM      7  C   UNL     1      -5.977  -3.193  -4.244  1.00  0.00     0.198 C 
BRANCH   7   8
ATOM      8  O   UNL     1      -5.394  -2.626  -5.400  1.00  0.00    -0.347 OA
BRANCH   8   9
ATOM      9  C   UNL     1      -6.266  -2.736  -6.516  1.00  0.00     0.281 C 
ATOM     10  C   UNL     1      -9.033  -0.504  -7.455  1.00  0.00     0.041 C 
ATOM     11  C   UNL     1      -8.049  -1.666  -7.583  1.00  0.00     0.150 C 
ATOM     12  C   UNL     1      -7.342  -1.640  -8.957  1.00  0.00     0.174 C 
ATOM     13  O   UNL     1      -7.097  -1.587  -6.532  1.00  0.00    -0.344 OA
ATOM     14  C   UNL     1      -6.341  -2.803  -9.045  1.00  0.00     0.179 C 
ATOM     15  C   UNL     1      -5.418  -2.791  -7.807  1.00  0.00     0.202 C 
BRANCH  12  16
ATOM     16  O   UNL     1      -6.666  -0.417  -9.119  1.00  0.00    -0.388 OA
ATOM     17  H   UNL     1      -6.000  -0.549  -9.843  1.00  0.00     0.211 HD
ENDBRANCH  12  16
BRANCH  14  18
ATOM     18  O   UNL     1      -7.049  -4.016  -9.125  1.00  0.00    -0.387 OA
ATOM     19  H   UNL     1      -6.922  -4.366 -10.043  1.00  0.00     0.211 HD
ENDBRANCH  14  18
BRANCH  15  20
ATOM     20  O   UNL     1      -4.606  -3.934  -7.804  1.00  0.00    -0.385 OA
ATOM     21  H   UNL     1      -4.454  -4.182  -8.753  1.00  0.00     0.211 HD
ENDBRANCH  15  20
ENDBRANCH   8   9
ENDBRANCH   7   8
ENDBRANCH   1   7
BRANCH   2  22
ATOM     22  O   UNL     1      -8.049  -5.259  -4.794  1.00  0.00    -0.387 OA
ATOM     23  H   UNL     1      -8.029  -5.202  -3.806  1.00  0.00     0.211 HD
ENDBRANCH   2  22
BRANCH   3  24
ATOM     24  O   UNL     1      -6.412  -7.480  -4.002  1.00  0.00    -0.387 OA
ATOM     25  H   UNL     1      -6.221  -6.752  -3.350  1.00  0.00     0.211 HD
ENDBRANCH   3  24
BRANCH   5  26
ATOM     26  O   UNL     1      -2.665  -6.390  -5.097  1.00  0.00    -0.462 OA
BRANCH  26  27
ATOM     27  C   UNL     1      -1.657  -6.764  -6.015  1.00  0.00     0.130 A 
ATOM     28  C   UNL     1      -1.722  -8.031  -6.606  1.00  0.00     0.093 A 
ATOM     29  C   UNL     1      -0.580  -5.923  -6.339  1.00  0.00     0.094 A 
ATOM     30  C   UNL     1      -0.729  -8.470  -7.496  1.00  0.00     0.133 A 
ATOM     31  C   UNL     1       0.441  -6.364  -7.174  1.00  0.00     0.138 A 
ATOM     32  C   UNL     1       0.399  -7.646  -7.745  1.00  0.00     0.102 A 
ATOM     33  O   UNL     1       1.509  -5.497  -7.419  1.00  0.00    -0.484 OA
ATOM     34  C   UNL     1       1.588  -8.080  -8.525  1.00  0.00     0.174 C 
ATOM     35  C   UNL     1       2.765  -5.919  -7.946  1.00  0.00     0.211 C 
ATOM     36  O   UNL     1       1.788  -9.297  -8.794  1.00  0.00    -0.294 OA
ATOM     37  C   UNL     1       2.602  -7.060  -8.969  1.00  0.00     0.131 C 
BRANCH  30  38
ATOM     38  O   UNL     1      -0.918  -9.703  -8.123  1.00  0.00    -0.507 OA
ATOM     39  H   UNL     1      -1.496 -10.442  -7.751  1.00  0.00     0.293 HD
ENDBRANCH  30  38
BRANCH  35  40
ATOM     40  C   UNL     1       3.713  -6.246  -6.804  1.00  0.00    -0.003 A 
ATOM     41  C   UNL     1       4.408  -7.466  -6.804  1.00  0.00     0.057 A 
ATOM     42  C   UNL     1       3.981  -5.314  -5.784  1.00  0.00     0.011 A 
ATOM     43  C   UNL     1       5.348  -7.755  -5.807  1.00  0.00     0.158 A 
ATOM     44  C   UNL     1       4.901  -5.613  -4.777  1.00  0.00     0.051 A 
ATOM     45  C   UNL     1       5.599  -6.831  -4.783  1.00  0.00     0.160 A 
BRANCH  43  46
ATOM     46  O   UNL     1       6.044  -8.961  -5.829  1.00  0.00    -0.504 OA
ATOM     47  H   UNL     1       6.900  -9.069  -6.366  1.00  0.00     0.293 HD
ENDBRANCH  43  46
BRANCH  45  48
ATOM     48  O   UNL     1       6.544  -7.167  -3.803  1.00  0.00    -0.493 OA
ATOM     49  C   UNL     1       7.955  -7.096  -3.994  1.00  0.00     0.278 C 
ENDBRANCH  45  48
ENDBRANCH  35  40
ENDBRANCH  26  27
ENDBRANCH   5  26
BRANCH   4  50
ATOM     50  O   UNL     1      -4.431  -8.305  -5.719  1.00  0.00    -0.384 OA
ATOM     51  H   UNL     1      -3.826  -8.488  -6.474  1.00  0.00     0.211 HD
ENDBRANCH   4  50
TORSDOF 15
ENDMDL
MODEL 4
REMARK VINA RESULT:    -5.624      1.701      2.785
REMARK INTER + INTRA:         -11.488
REMARK INTER:                 -10.385
REMARK INTRA:                  -1.103
REMARK UNBOUND:                -2.247
REMARK SMILES COc1ccc([C@H]2CC(=O)c3c(O)cc(O[C@@H]4O[C@@H](CO[C@H]5O[C@@H](C)[C@@H](O)[C@H](O)[C@@H]5O)[C@H](O)[C@H](O)[C@@H]4O)cc3O2)cc1O
REMARK SMILES IDX 19 1 32 2 34 3 36 4 17 5 18 6 20 7 21 8 22 9 25 10 24 11
REMARK SMILES IDX 26 12 23 13 28 14 30 15 27 16 29 18 31 20 33 22 35 24 16 26
REMARK SMILES IDX 15 27 14 28 38 29 12 30 39 31 11 32 40 33 9 34 7 35 10 36
REMARK SMILES IDX 8 37 13 38 6 40 41 41 5 42 42 43 4 44 3 45 43 46 2 48 1 49
REMARK SMILES IDX 37 50
REMARK H PARENT 27 17 29 19 31 21 33 23 35 25 13 39 43 47 37 51
REMARK Flexibility Score: inf
ROOT
ATOM      1  C   UNL     1      -6.342  -6.116  -5.530  1.00  0.00     0.180 C 
ATOM      2  C   UNL     1      -6.819  -4.688  -5.859  1.00  0.00     0.177 C 
ATOM      3  C   UNL     1      -5.672  -3.926  -6.516  1.00  0.00     0.180 C 
ATOM      4  C   UNL     1      -4.553  -3.789  -5.477  1.00  0.00     0.214 C 
ATOM      5  C   UNL     1      -4.374  -5.044  -4.541  1.00  0.00     0.339 C 
ATOM      6  O   UNL     1      -5.087  -6.235  -4.867  1.00  0.00    -0.332 OA
ENDROOT
BRANCH   1   7
ATOM      7  C   UNL     1      -7.401  -6.888  -4.735  1.00  0.00     0.198 C 
BRANCH   7   8
ATOM      8  O   UNL     1      -7.240  -8.279  -4.935  1.00  0.00    -0.347 OA
BRANCH   8   9
ATOM      9  C   UNL     1      -7.442  -8.623  -6.299  1.00  0.00     0.281 C 
ATOM     10  C   UNL     1      -9.825  -7.146  -8.677  1.00  0.00     0.041 C 
ATOM     11  C   UNL     1      -8.686  -8.040  -8.189  1.00  0.00     0.150 C 
ATOM     12  C   UNL     1      -7.436  -7.879  -9.085  1.00  0.00     0.174 C 
ATOM     13  O   UNL     1      -8.379  -7.708  -6.842  1.00  0.00    -0.344 OA
ATOM     14  C   UNL     1      -6.302  -8.769  -8.553  1.00  0.00     0.179 C 
ATOM     15  C   UNL     1      -6.095  -8.504  -7.046  1.00  0.00     0.202 C 
BRANCH  12  16
ATOM     16  O   UNL     1      -7.025  -6.533  -9.087  1.00  0.00    -0.388 OA
ATOM     17  H   UNL     1      -6.640  -6.348  -8.191  1.00  0.00     0.211 HD
ENDBRANCH  12  16
BRANCH  14  18
ATOM     18  O   UNL     1      -6.629 -10.118  -8.781  1.00  0.00    -0.387 OA
ATOM     19  H   UNL     1      -7.525 -10.132  -9.206  1.00  0.00     0.211 HD
ENDBRANCH  14  18
BRANCH  15  20
ATOM     20  O   UNL     1      -5.169  -9.419  -6.523  1.00  0.00    -0.385 OA
ATOM     21  H   UNL     1      -4.265  -9.075  -6.749  1.00  0.00     0.211 HD
ENDBRANCH  15  20
ENDBRANCH   8   9
ENDBRANCH   7   8
ENDBRANCH   1   7
BRANCH   2  22
ATOM     22  O   UNL     1      -7.920  -4.744  -6.733  1.00  0.00    -0.387 OA
ATOM     23  H   UNL     1      -7.559  -4.847  -7.649  1.00  0.00     0.211 HD
ENDBRANCH   2  22
BRANCH   3  24
ATOM     24  O   UNL     1      -5.209  -4.600  -7.665  1.00  0.00    -0.387 OA
ATOM     25  H   UNL     1      -6.000  -4.731  -8.255  1.00  0.00     0.211 HD
ENDBRANCH   3  24
BRANCH   5  26
ATOM     26  O   UNL     1      -2.986  -5.376  -4.366  1.00  0.00    -0.462 OA
BRANCH  26  27
ATOM     27  C   UNL     1      -2.149  -5.993  -5.324  1.00  0.00     0.130 A 
ATOM     28  C   UNL     1      -2.417  -7.315  -5.700  1.00  0.00     0.093 A 
ATOM     29  C   UNL     1      -1.045  -5.340  -5.895  1.00  0.00     0.094 A 
ATOM     30  C   UNL     1      -1.598  -7.989  -6.619  1.00  0.00     0.133 A 
ATOM     31  C   UNL     1      -0.191  -6.012  -6.763  1.00  0.00     0.138 A 
ATOM     32  C   UNL     1      -0.436  -7.348  -7.121  1.00  0.00     0.102 A 
ATOM     33  O   UNL     1       0.917  -5.321  -7.260  1.00  0.00    -0.484 OA
ATOM     34  C   UNL     1       0.591  -8.025  -7.955  1.00  0.00     0.174 C 
ATOM     35  C   UNL     1       2.044  -5.959  -7.856  1.00  0.00     0.211 C 
ATOM     36  O   UNL     1       0.632  -9.283  -8.053  1.00  0.00    -0.294 OA
ATOM     37  C   UNL     1       1.635  -7.206  -8.665  1.00  0.00     0.131 C 
BRANCH  30  38
ATOM     38  O   UNL     1      -1.990  -9.267  -7.021  1.00  0.00    -0.507 OA
ATOM     39  H   UNL     1      -2.625  -9.852  -6.500  1.00  0.00     0.293 HD
ENDBRANCH  30  38
BRANCH  35  40
ATOM     40  C   UNL     1       3.096  -6.231  -6.794  1.00  0.00    -0.003 A 
ATOM     41  C   UNL     1       4.043  -7.248  -6.995  1.00  0.00     0.057 A 
ATOM     42  C   UNL     1       3.201  -5.428  -5.643  1.00  0.00     0.011 A 
ATOM     43  C   UNL     1       5.072  -7.464  -6.071  1.00  0.00     0.158 A 
ATOM     44  C   UNL     1       4.213  -5.659  -4.708  1.00  0.00     0.051 A 
ATOM     45  C   UNL     1       5.162  -6.672  -4.917  1.00  0.00     0.160 A 
BRANCH  43  46
ATOM     46  O   UNL     1       6.015  -8.463  -6.292  1.00  0.00    -0.504 OA
ATOM     47  H   UNL     1       5.742  -9.438  -6.390  1.00  0.00     0.293 HD
ENDBRANCH  43  46
BRANCH  45  48
ATOM     48  O   UNL     1       6.205  -6.929  -4.015  1.00  0.00    -0.493 OA
ATOM     49  C   UNL     1       7.533  -6.431  -4.164  1.00  0.00     0.278 C 
ENDBRANCH  45  48
ENDBRANCH  35  40
ENDBRANCH  26  27
ENDBRANCH   5  26
BRANCH   4  50
ATOM     50  O   UNL     1      -3.357  -3.344  -6.069  1.00  0.00    -0.384 OA
ATOM     51  H   UNL     1      -3.510  -3.250  -7.037  1.00  0.00     0.211 HD
ENDBRANCH   4  50
TORSDOF 15
ENDMDL
MODEL 5
REMARK VINA RESULT:    -5.547      2.516     11.525
REMARK INTER + INTRA:         -11.361
REMARK INTER:                 -10.916
REMARK INTRA:                  -0.445
REMARK UNBOUND:                -2.247
REMARK SMILES COc1ccc([C@H]2CC(=O)c3c(O)cc(O[C@@H]4O[C@@H](CO[C@H]5O[C@@H](C)[C@@H](O)[C@H](O)[C@@H]5O)[C@H](O)[C@H](O)[C@@H]4O)cc3O2)cc1O
REMARK SMILES IDX 19 1 32 2 34 3 36 4 17 5 18 6 20 7 21 8 22 9 25 10 24 11
REMARK SMILES IDX 26 12 23 13 28 14 30 15 27 16 29 18 31 20 33 22 35 24 16 26
REMARK SMILES IDX 15 27 14 28 38 29 12 30 39 31 11 32 40 33 9 34 7 35 10 36
REMARK SMILES IDX 8 37 13 38 6 40 41 41 5 42 42 43 4 44 3 45 43 46 2 48 1 49
REMARK SMILES IDX 37 50
REMARK H PARENT 27 17 29 19 31 21 33 23 35 25 13 39 43 47 37 51
REMARK Flexibility Score: inf
ROOT
ATOM      1  C   UNL     1       4.389  -5.853  -6.300  1.00  0.00     0.180 C 
ATOM      2  C   UNL     1       4.643  -7.074  -7.206  1.00  0.00     0.177 C 
ATOM      3  C   UNL     1       3.765  -6.955  -8.448  1.00  0.00     0.180 C 
ATOM      4  C   UNL     1       2.304  -7.042  -7.991  1.00  0.00     0.214 C 
ATOM      5  C   UNL     1       2.008  -6.335  -6.615  1.00  0.00     0.339 C 
ATOM      6  O   UNL     1       3.028  -5.520  -6.041  1.00  0.00    -0.332 OA
ENDROOT
BRANCH   1   7
ATOM      7  C   UNL     1       5.132  -5.984  -4.966  1.00  0.00     0.198 C 
BRANCH   7   8
ATOM      8  O   UNL     1       5.841  -7.208  -4.923  1.00  0.00    -0.347 OA
BRANCH   8   9
ATOM      9  C   UNL     1       7.243  -6.985  -4.983  1.00  0.00     0.281 C 
ATOM     10  C   UNL     1       9.007  -3.899  -5.922  1.00  0.00     0.041 C 
ATOM     11  C   UNL     1       8.837  -5.335  -5.430  1.00  0.00     0.150 C 
ATOM     12  C   UNL     1       9.580  -5.550  -4.092  1.00  0.00     0.174 C 
ATOM     13  O   UNL     1       7.452  -5.614  -5.280  1.00  0.00    -0.344 OA
ATOM     14  C   UNL     1       9.369  -6.994  -3.610  1.00  0.00     0.179 C 
ATOM     15  C   UNL     1       7.861  -7.327  -3.609  1.00  0.00     0.202 C 
BRANCH  12  16
ATOM     16  O   UNL     1       9.092  -4.649  -3.128  1.00  0.00    -0.388 OA
ATOM     17  H   UNL     1       8.157  -4.435  -3.381  1.00  0.00     0.211 HD
ENDBRANCH  12  16
BRANCH  14  18
ATOM     18  O   UNL     1      10.071  -7.870  -4.457  1.00  0.00    -0.387 OA
ATOM     19  H   UNL     1       9.455  -8.615  -4.678  1.00  0.00     0.211 HD
ENDBRANCH  14  18
BRANCH  15  20
ATOM     20  O   UNL     1       7.671  -8.686  -3.318  1.00  0.00    -0.385 OA
ATOM     21  H   UNL     1       7.871  -9.189  -4.150  1.00  0.00     0.211 HD
ENDBRANCH  15  20
ENDBRANCH   8   9
ENDBRANCH   7   8
ENDBRANCH   1   7
BRANCH   2  22
ATOM     22  O   UNL     1       5.999  -7.114  -7.579  1.00  0.00    -0.387 OA
ATOM     23  H   UNL     1       6.098  -7.848  -8.237  1.00  0.00     0.211 HD
ENDBRANCH   2  22
BRANCH   3  24
ATOM     24  O   UNL     1       4.007  -5.742  -9.125  1.00  0.00    -0.387 OA
ATOM     25  H   UNL     1       4.256  -5.074  -8.430  1.00  0.00     0.211 HD
ENDBRANCH   3  24
BRANCH   5  26
ATOM     26  O   UNL     1       0.790  -5.572  -6.666  1.00  0.00    -0.462 OA
BRANCH  26  27
ATOM     27  C   UNL     1      -0.506  -6.049  -6.364  1.00  0.00     0.130 A 
ATOM     28  C   UNL     1      -0.905  -7.287  -6.882  1.00  0.00     0.093 A 
ATOM     29  C   UNL     1      -1.417  -5.319  -5.584  1.00  0.00     0.094 A 
ATOM     30  C   UNL     1      -2.192  -7.793  -6.645  1.00  0.00     0.133 A 
ATOM     31  C   UNL     1      -2.715  -5.780  -5.388  1.00  0.00     0.138 A 
ATOM     32  C   UNL     1      -3.132  -7.005  -5.931  1.00  0.00     0.102 A 
ATOM     33  O   UNL     1      -3.589  -4.984  -4.643  1.00  0.00    -0.484 OA
ATOM     34  C   UNL     1      -4.567  -7.362  -5.776  1.00  0.00     0.174 C 
ATOM     35  C   UNL     1      -5.006  -5.140  -4.654  1.00  0.00     0.211 C 
ATOM     36  O   UNL     1      -5.102  -8.255  -6.491  1.00  0.00    -0.294 OA
ATOM     37  C   UNL     1      -5.418  -6.620  -4.781  1.00  0.00     0.131 C 
BRANCH  30  38
ATOM     38  O   UNL     1      -2.480  -9.078  -7.108  1.00  0.00    -0.507 OA
ATOM     39  H   UNL     1      -2.643  -9.305  -8.078  1.00  0.00     0.293 HD
ENDBRANCH  30  38
BRANCH  35  40
ATOM     40  C   UNL     1      -5.609  -4.240  -5.720  1.00  0.00    -0.003 A 
ATOM     41  C   UNL     1      -6.608  -3.317  -5.369  1.00  0.00     0.057 A 
ATOM     42  C   UNL     1      -5.127  -4.245  -7.043  1.00  0.00     0.011 A 
ATOM     43  C   UNL     1      -7.120  -2.421  -6.315  1.00  0.00     0.158 A 
ATOM     44  C   UNL     1      -5.655  -3.367  -7.992  1.00  0.00     0.051 A 
ATOM     45  C   UNL     1      -6.649  -2.442  -7.636  1.00  0.00     0.160 A 
BRANCH  43  46
ATOM     46  O   UNL     1      -8.097  -1.500  -5.950  1.00  0.00    -0.504 OA
ATOM     47  H   UNL     1      -7.923  -0.798  -5.235  1.00  0.00     0.293 HD
ENDBRANCH  43  46
BRANCH  45  48
ATOM     48  O   UNL     1      -7.197  -1.530  -8.550  1.00  0.00    -0.493 OA
ATOM     49  C   UNL     1      -6.479  -0.437  -9.117  1.00  0.00     0.278 C 
ENDBRANCH  45  48
ENDBRANCH  35  40
ENDBRANCH  26  27
ENDBRANCH   5  26
BRANCH   4  50
ATOM     50  O   UNL     1       1.423  -6.672  -9.024  1.00  0.00    -0.384 OA
ATOM     51  H   UNL     1       1.884  -6.024  -9.603  1.00  0.00     0.211 HD
ENDBRANCH   4  50
TORSDOF 15
ENDMDL
MODEL 6
REMARK VINA RESULT:    -5.437      2.017      3.467
REMARK INTER + INTRA:         -11.180
REMARK INTER:                 -10.041
REMARK INTRA:                  -1.139
REMARK UNBOUND:                -2.247
REMARK SMILES COc1ccc([C@H]2CC(=O)c3c(O)cc(O[C@@H]4O[C@@H](CO[C@H]5O[C@@H](C)[C@@H](O)[C@H](O)[C@@H]5O)[C@H](O)[C@H](O)[C@@H]4O)cc3O2)cc1O
REMARK SMILES IDX 19 1 32 2 34 3 36 4 17 5 18 6 20 7 21 8 22 9 25 10 24 11
REMARK SMILES IDX 26 12 23 13 28 14 30 15 27 16 29 18 31 20 33 22 35 24 16 26
REMARK SMILES IDX 15 27 14 28 38 29 12 30 39 31 11 32 40 33 9 34 7 35 10 36
REMARK SMILES IDX 8 37 13 38 6 40 41 41 5 42 42 43 4 44 3 45 43 46 2 48 1 49
REMARK SMILES IDX 37 50
REMARK H PARENT 27 17 29 19 31 21 33 23 35 25 13 39 43 47 37 51
REMARK Flexibility Score: inf
ROOT
ATOM      1  C   UNL     1      -4.512  -6.605  -6.690  1.00  0.00     0.180 C 
ATOM      2  C   UNL     1      -5.365  -5.322  -6.672  1.00  0.00     0.177 C 
ATOM      3  C   UNL     1      -4.495  -4.147  -7.108  1.00  0.00     0.180 C 
ATOM      4  C   UNL     1      -3.402  -3.963  -6.050  1.00  0.00     0.214 C 
ATOM      5  C   UNL     1      -2.850  -5.308  -5.441  1.00  0.00     0.339 C 
ATOM      6  O   UNL     1      -3.237  -6.535  -6.055  1.00  0.00    -0.332 OA
ENDROOT
BRANCH   1   7
ATOM      7  C   UNL     1      -5.287  -7.799  -6.120  1.00  0.00     0.198 C 
BRANCH   7   8
ATOM      8  O   UNL     1      -6.155  -8.328  -7.103  1.00  0.00    -0.347 OA
BRANCH   8   9
ATOM      9  C   UNL     1      -7.433  -8.614  -6.551  1.00  0.00     0.281 C 
ATOM     10  C   UNL     1      -8.999  -7.128  -3.575  1.00  0.00     0.041 C 
ATOM     11  C   UNL     1      -8.885  -7.994  -4.828  1.00  0.00     0.150 C 
ATOM     12  C   UNL     1     -10.072  -7.736  -5.785  1.00  0.00     0.174 C 
ATOM     13  O   UNL     1      -7.653  -7.715  -5.476  1.00  0.00    -0.344 OA
ATOM     14  C   UNL     1      -9.915  -8.601  -7.046  1.00  0.00     0.179 C 
ATOM     15  C   UNL     1      -8.505  -8.401  -7.643  1.00  0.00     0.202 C 
BRANCH  12  16
ATOM     16  O   UNL     1     -10.105  -6.375  -6.142  1.00  0.00    -0.388 OA
ATOM     17  H   UNL     1     -10.769  -6.285  -6.873  1.00  0.00     0.211 HD
ENDBRANCH  12  16
BRANCH  14  18
ATOM     18  O   UNL     1     -10.125  -9.950  -6.708  1.00  0.00    -0.387 OA
ATOM     19  H   UNL     1      -9.371 -10.224  -6.125  1.00  0.00     0.211 HD
ENDBRANCH  14  18
BRANCH  15  20
ATOM     20  O   UNL     1      -8.302  -9.299  -8.702  1.00  0.00    -0.385 OA
ATOM     21  H   UNL     1      -9.129  -9.287  -9.252  1.00  0.00     0.211 HD
ENDBRANCH  15  20
ENDBRANCH   8   9
ENDBRANCH   7   8
ENDBRANCH   1   7
BRANCH   2  22
ATOM     22  O   UNL     1      -6.455  -5.465  -7.551  1.00  0.00    -0.387 OA
ATOM     23  H   UNL     1      -7.272  -5.236  -7.041  1.00  0.00     0.211 HD
ENDBRANCH   2  22
BRANCH   3  24
ATOM     24  O   UNL     1      -3.929  -4.381  -8.378  1.00  0.00    -0.387 OA
ATOM     25  H   UNL     1      -3.449  -5.252  -8.319  1.00  0.00     0.211 HD
ENDBRANCH   3  24
BRANCH   5  26
ATOM     26  O   UNL     1      -1.417  -5.286  -5.329  1.00  0.00    -0.462 OA
BRANCH  26  27
ATOM     27  C   UNL     1      -0.501  -5.884  -6.226  1.00  0.00     0.130 A 
ATOM     28  C   UNL     1      -0.828  -7.122  -6.794  1.00  0.00     0.093 A 
ATOM     29  C   UNL     1       0.731  -5.297  -6.551  1.00  0.00     0.094 A 
ATOM     30  C   UNL     1       0.058  -7.779  -7.662  1.00  0.00     0.133 A 
ATOM     31  C   UNL     1       1.644  -5.961  -7.363  1.00  0.00     0.138 A 
ATOM     32  C   UNL     1       1.337  -7.217  -7.911  1.00  0.00     0.102 A 
ATOM     33  O   UNL     1       2.874  -5.345  -7.610  1.00  0.00    -0.484 OA
ATOM     34  C   UNL     1       2.415  -7.909  -8.666  1.00  0.00     0.174 C 
ATOM     35  C   UNL     1       4.017  -6.033  -8.112  1.00  0.00     0.211 C 
ATOM     36  O   UNL     1       2.356  -9.146  -8.910  1.00  0.00    -0.294 OA
ATOM     37  C   UNL     1       3.626  -7.136  -9.116  1.00  0.00     0.131 C 
BRANCH  30  38
ATOM     38  O   UNL     1      -0.381  -8.957  -8.268  1.00  0.00    -0.507 OA
ATOM     39  H   UNL     1      -0.594  -9.040  -9.251  1.00  0.00     0.293 HD
ENDBRANCH  30  38
BRANCH  35  40
ATOM     40  C   UNL     1       4.863  -6.529  -6.952  1.00  0.00    -0.003 A 
ATOM     41  C   UNL     1       4.862  -5.824  -5.737  1.00  0.00     0.057 A 
ATOM     42  C   UNL     1       5.586  -7.735  -7.033  1.00  0.00     0.011 A 
ATOM     43  C   UNL     1       5.568  -6.306  -4.628  1.00  0.00     0.158 A 
ATOM     44  C   UNL     1       6.309  -8.202  -5.934  1.00  0.00     0.051 A 
ATOM     45  C   UNL     1       6.301  -7.498  -4.720  1.00  0.00     0.160 A 
BRANCH  43  46
ATOM     46  O   UNL     1       5.544  -5.607  -3.425  1.00  0.00    -0.504 OA
ATOM     47  H   UNL     1       5.332  -6.072  -2.545  1.00  0.00     0.293 HD
ENDBRANCH  43  46
BRANCH  45  48
ATOM     48  O   UNL     1       6.997  -7.938  -3.585  1.00  0.00    -0.493 OA
ATOM     49  C   UNL     1       7.941  -9.007  -3.590  1.00  0.00     0.278 C 
ENDBRANCH  45  48
ENDBRANCH  35  40
ENDBRANCH  26  27
ENDBRANCH   5  26
BRANCH   4  50
ATOM     50  O   UNL     1      -2.398  -3.086  -6.499  1.00  0.00    -0.384 OA
ATOM     51  H   UNL     1      -2.069  -2.574  -5.725  1.00  0.00     0.211 HD
ENDBRANCH   4  50
TORSDOF 15
ENDMDL
MODEL 7
REMARK VINA RESULT:    -5.413     12.054     15.495
REMARK INTER + INTRA:         -11.141
REMARK INTER:                 -10.010
REMARK INTRA:                  -1.131
REMARK UNBOUND:                -2.247
REMARK SMILES COc1ccc([C@H]2CC(=O)c3c(O)cc(O[C@@H]4O[C@@H](CO[C@H]5O[C@@H](C)[C@@H](O)[C@H](O)[C@@H]5O)[C@H](O)[C@H](O)[C@@H]4O)cc3O2)cc1O
REMARK SMILES IDX 19 1 32 2 34 3 36 4 17 5 18 6 20 7 21 8 22 9 25 10 24 11
REMARK SMILES IDX 26 12 23 13 28 14 30 15 27 16 29 18 31 20 33 22 35 24 16 26
REMARK SMILES IDX 15 27 14 28 38 29 12 30 39 31 11 32 40 33 9 34 7 35 10 36
REMARK SMILES IDX 8 37 13 38 6 40 41 41 5 42 42 43 4 44 3 45 43 46 2 48 1 49
REMARK SMILES IDX 37 50
REMARK H PARENT 27 17 29 19 31 21 33 23 35 25 13 39 43 47 37 51
REMARK Flexibility Score: inf
ROOT
ATOM      1  C   UNL     1      -4.647  -8.869   5.775  1.00  0.00     0.180 C 
ATOM      2  C   UNL     1      -3.726  -8.818   4.540  1.00  0.00     0.177 C 
ATOM      3  C   UNL     1      -2.494  -7.985   4.880  1.00  0.00     0.180 C 
ATOM      4  C   UNL     1      -2.964  -6.549   5.138  1.00  0.00     0.214 C 
ATOM      5  C   UNL     1      -4.350  -6.438   5.878  1.00  0.00     0.339 C 
ATOM      6  O   UNL     1      -4.922  -7.628   6.419  1.00  0.00    -0.332 OA
ENDROOT
BRANCH   1   7
ATOM      7  C   UNL     1      -5.973  -9.568   5.453  1.00  0.00     0.198 C 
BRANCH   7   8
ATOM      8  O   UNL     1      -6.636  -8.892   4.402  1.00  0.00    -0.347 OA
BRANCH   8   9
ATOM      9  C   UNL     1      -7.612  -7.993   4.911  1.00  0.00     0.281 C 
ATOM     10  C   UNL     1      -8.039  -4.429   4.117  1.00  0.00     0.041 C 
ATOM     11  C   UNL     1      -8.357  -5.785   4.746  1.00  0.00     0.150 C 
ATOM     12  C   UNL     1      -9.820  -6.195   4.460  1.00  0.00     0.174 C 
ATOM     13  O   UNL     1      -7.459  -6.758   4.232  1.00  0.00    -0.344 OA
ATOM     14  C   UNL     1     -10.101  -7.572   5.082  1.00  0.00     0.179 C 
ATOM     15  C   UNL     1      -9.016  -8.576   4.636  1.00  0.00     0.202 C 
BRANCH  12  16
ATOM     16  O   UNL     1     -10.036  -6.246   3.071  1.00  0.00    -0.388 OA
ATOM     17  H   UNL     1      -9.345  -5.671   2.651  1.00  0.00     0.211 HD
ENDBRANCH  12  16
BRANCH  14  18
ATOM     18  O   UNL     1     -10.119  -7.450   6.483  1.00  0.00    -0.387 OA
ATOM     19  H   UNL     1      -9.351  -6.878   6.735  1.00  0.00     0.211 HD
ENDBRANCH  14  18
BRANCH  15  20
ATOM     20  O   UNL     1      -9.178  -9.791   5.318  1.00  0.00    -0.385 OA
ATOM     21  H   UNL     1      -9.385  -9.565   6.263  1.00  0.00     0.211 HD
ENDBRANCH  15  20
ENDBRANCH   8   9
ENDBRANCH   7   8
ENDBRANCH   1   7
BRANCH   2  22
ATOM     22  O   UNL     1      -3.339 -10.123   4.182  1.00  0.00    -0.387 OA
ATOM     23  H   UNL     1      -3.442 -10.198   3.200  1.00  0.00     0.211 HD
ENDBRANCH   2  22
BRANCH   3  24
ATOM     24  O   UNL     1      -1.827  -8.505   6.009  1.00  0.00    -0.387 OA
ATOM     25  H   UNL     1      -0.921  -8.778   5.702  1.00  0.00     0.211 HD
ENDBRANCH   3  24
BRANCH   5  26
ATOM     26  O   UNL     1      -4.319  -5.437   6.910  1.00  0.00    -0.462 OA
BRANCH  26  27
ATOM     27  C   UNL     1      -5.437  -4.923   7.607  1.00  0.00     0.130 A 
ATOM     28  C   UNL     1      -6.641  -5.637   7.567  1.00  0.00     0.093 A 
ATOM     29  C   UNL     1      -5.393  -3.713   8.317  1.00  0.00     0.094 A 
ATOM     30  C   UNL     1      -7.792  -5.155   8.209  1.00  0.00     0.133 A 
ATOM     31  C   UNL     1      -6.539  -3.194   8.911  1.00  0.00     0.138 A 
ATOM     32  C   UNL     1      -7.757  -3.889   8.848  1.00  0.00     0.102 A 
ATOM     33  O   UNL     1      -6.441  -1.962   9.562  1.00  0.00    -0.484 OA
ATOM     34  C   UNL     1      -8.956  -3.206   9.402  1.00  0.00     0.174 C 
ATOM     35  C   UNL     1      -7.565  -1.154   9.899  1.00  0.00     0.211 C 
ATOM     36  O   UNL     1     -10.124  -3.586   9.108  1.00  0.00    -0.294 OA
ATOM     37  C   UNL     1      -8.785  -2.008  10.298  1.00  0.00     0.131 C 
BRANCH  30  38
ATOM     38  O   UNL     1      -8.923  -5.972   8.212  1.00  0.00    -0.507 OA
ATOM     39  H   UNL     1      -8.962  -6.884   7.780  1.00  0.00     0.293 HD
ENDBRANCH  30  38
BRANCH  35  40
ATOM     40  C   UNL     1      -7.843  -0.172   8.773  1.00  0.00    -0.003 A 
ATOM     41  C   UNL     1      -7.851  -0.621   7.442  1.00  0.00     0.057 A 
ATOM     42  C   UNL     1      -8.182   1.169   9.035  1.00  0.00     0.011 A 
ATOM     43  C   UNL     1      -8.185   0.245   6.395  1.00  0.00     0.158 A 
ATOM     44  C   UNL     1      -8.492   2.039   7.988  1.00  0.00     0.051 A 
ATOM     45  C   UNL     1      -8.505   1.584   6.660  1.00  0.00     0.160 A 
BRANCH  43  46
ATOM     46  O   UNL     1      -8.207  -0.219   5.082  1.00  0.00    -0.504 OA
ATOM     47  H   UNL     1      -7.792  -1.112   4.828  1.00  0.00     0.293 HD
ENDBRANCH  43  46
BRANCH  45  48
ATOM     48  O   UNL     1      -8.826   2.416   5.578  1.00  0.00    -0.493 OA
ATOM     49  C   UNL     1      -9.160   3.797   5.702  1.00  0.00     0.278 C 
ENDBRANCH  45  48
ENDBRANCH  35  40
ENDBRANCH  26  27
ENDBRANCH   5  26
BRANCH   4  50
ATOM     50  O   UNL     1      -1.944  -5.774   5.720  1.00  0.00    -0.384 OA
ATOM     51  H   UNL     1      -1.156  -5.810   5.130  1.00  0.00     0.211 HD
ENDBRANCH   4  50
TORSDOF 15
ENDMDL
MODEL 8
REMARK VINA RESULT:    -5.400      3.696      8.554
REMARK INTER + INTRA:         -11.119
REMARK INTER:                 -10.894
REMARK INTRA:                  -0.226
REMARK UNBOUND:                -2.247
REMARK SMILES COc1ccc([C@H]2CC(=O)c3c(O)cc(O[C@@H]4O[C@@H](CO[C@H]5O[C@@H](C)[C@@H](O)[C@H](O)[C@@H]5O)[C@H](O)[C@H](O)[C@@H]4O)cc3O2)cc1O
REMARK SMILES IDX 19 1 32 2 34 3 36 4 17 5 18 6 20 7 21 8 22 9 25 10 24 11
REMARK SMILES IDX 26 12 23 13 28 14 30 15 27 16 29 18 31 20 33 22 35 24 16 26
REMARK SMILES IDX 15 27 14 28 38 29 12 30 39 31 11 32 40 33 9 34 7 35 10 36
REMARK SMILES IDX 8 37 13 38 6 40 41 41 5 42 42 43 4 44 3 45 43 46 2 48 1 49
REMARK SMILES IDX 37 50
REMARK H PARENT 27 17 29 19 31 21 33 23 35 25 13 39 43 47 37 51
REMARK Flexibility Score: inf
ROOT
ATOM      1  C   UNL     1       0.421  -5.367  -6.300  1.00  0.00     0.180 C 
ATOM      2  C   UNL     1       0.945  -5.547  -7.737  1.00  0.00     0.177 C 
ATOM      3  C   UNL     1       2.018  -6.633  -7.736  1.00  0.00     0.180 C 
ATOM      4  C   UNL     1       3.194  -6.118  -6.900  1.00  0.00     0.214 C 
ATOM      5  C   UNL     1       2.778  -5.271  -5.638  1.00  0.00     0.339 C 
ATOM      6  O   UNL     1       1.400  -5.240  -5.272  1.00  0.00    -0.332 OA
ENDROOT
BRANCH   1   7
ATOM      7  C   UNL     1      -0.555  -4.188  -6.206  1.00  0.00     0.198 C 
BRANCH   7   8
ATOM      8  O   UNL     1      -1.704  -4.445  -6.989  1.00  0.00    -0.347 OA
BRANCH   8   9
ATOM      9  C   UNL     1      -2.783  -4.892  -6.177  1.00  0.00     0.281 C 
ATOM     10  C   UNL     1      -5.276  -2.853  -4.405  1.00  0.00     0.041 C 
ATOM     11  C   UNL     1      -4.598  -4.119  -4.925  1.00  0.00     0.150 C 
ATOM     12  C   UNL     1      -5.614  -5.031  -5.650  1.00  0.00     0.174 C 
ATOM     13  O   UNL     1      -3.542  -3.754  -5.802  1.00  0.00    -0.344 OA
ATOM     14  C   UNL     1      -4.898  -6.281  -6.184  1.00  0.00     0.179 C 
ATOM     15  C   UNL     1      -3.658  -5.861  -7.003  1.00  0.00     0.202 C 
BRANCH  12  16
ATOM     16  O   UNL     1      -6.204  -4.327  -6.717  1.00  0.00    -0.388 OA
ATOM     17  H   UNL     1      -6.373  -4.987  -7.438  1.00  0.00     0.211 HD
ENDBRANCH  12  16
BRANCH  14  18
ATOM     18  O   UNL     1      -4.525  -7.096  -5.101  1.00  0.00    -0.387 OA
ATOM     19  H   UNL     1      -3.747  -6.662  -4.665  1.00  0.00     0.211 HD
ENDBRANCH  14  18
BRANCH  15  20
ATOM     20  O   UNL     1      -2.916  -6.995  -7.364  1.00  0.00    -0.385 OA
ATOM     21  H   UNL     1      -1.975  -6.699  -7.482  1.00  0.00     0.211 HD
ENDBRANCH  15  20
ENDBRANCH   8   9
ENDBRANCH   7   8
ENDBRANCH   1   7
BRANCH   2  22
ATOM     22  O   UNL     1      -0.114  -5.920  -8.586  1.00  0.00    -0.387 OA
ATOM     23  H   UNL     1       0.248  -5.948  -9.507  1.00  0.00     0.211 HD
ENDBRANCH   2  22
BRANCH   3  24
ATOM     24  O   UNL     1       1.515  -7.839  -7.207  1.00  0.00    -0.387 OA
ATOM     25  H   UNL     1       0.621  -7.980  -7.620  1.00  0.00     0.211 HD
ENDBRANCH   3  24
BRANCH   5  26
ATOM     26  O   UNL     1       3.549  -5.635  -4.481  1.00  0.00    -0.462 OA
BRANCH  26  27
ATOM     27  C   UNL     1       4.938  -5.900  -4.453  1.00  0.00     0.130 A 
ATOM     28  C   UNL     1       5.367  -7.213  -4.228  1.00  0.00     0.093 A 
ATOM     29  C   UNL     1       5.902  -4.894  -4.620  1.00  0.00     0.094 A 
ATOM     30  C   UNL     1       6.733  -7.528  -4.154  1.00  0.00     0.133 A 
ATOM     31  C   UNL     1       7.258  -5.179  -4.493  1.00  0.00     0.138 A 
ATOM     32  C   UNL     1       7.695  -6.488  -4.235  1.00  0.00     0.102 A 
ATOM     33  O   UNL     1       8.166  -4.125  -4.621  1.00  0.00    -0.484 OA
ATOM     34  C   UNL     1       9.149  -6.682  -3.993  1.00  0.00     0.174 C 
ATOM     35  C   UNL     1       9.519  -4.188  -4.177  1.00  0.00     0.211 C 
ATOM     36  O   UNL     1       9.590  -7.729  -3.442  1.00  0.00    -0.294 OA
ATOM     37  C   UNL     1      10.120  -5.594  -4.369  1.00  0.00     0.131 C 
BRANCH  30  38
ATOM     38  O   UNL     1       7.083  -8.873  -4.030  1.00  0.00    -0.507 OA
ATOM     39  H   UNL     1       7.942  -9.197  -3.609  1.00  0.00     0.293 HD
ENDBRANCH  30  38
BRANCH  35  40
ATOM     40  C   UNL     1       9.612  -3.668  -2.753  1.00  0.00    -0.003 A 
ATOM     41  C   UNL     1       9.118  -2.390  -2.443  1.00  0.00     0.057 A 
ATOM     42  C   UNL     1      10.103  -4.473  -1.708  1.00  0.00     0.011 A 
ATOM     43  C   UNL     1       9.117  -1.921  -1.124  1.00  0.00     0.158 A 
ATOM     44  C   UNL     1      10.124  -3.997  -0.396  1.00  0.00     0.051 A 
ATOM     45  C   UNL     1       9.624  -2.721  -0.090  1.00  0.00     0.160 A 
BRANCH  43  46
ATOM     46  O   UNL     1       8.608  -0.660  -0.829  1.00  0.00    -0.504 OA
ATOM     47  H   UNL     1       7.607  -0.483  -0.811  1.00  0.00     0.293 HD
ENDBRANCH  43  46
BRANCH  45  48
ATOM     48  O   UNL     1       9.609  -2.208   1.215  1.00  0.00    -0.493 OA
ATOM     49  C   UNL     1       9.549  -3.012   2.391  1.00  0.00     0.278 C 
ENDBRANCH  45  48
ENDBRANCH  35  40
ENDBRANCH  26  27
ENDBRANCH   5  26
BRANCH   4  50
ATOM     50  O   UNL     1       4.110  -7.149  -6.617  1.00  0.00    -0.384 OA
ATOM     51  H   UNL     1       4.777  -6.802  -5.982  1.00  0.00     0.211 HD
ENDBRANCH   4  50
TORSDOF 15
ENDMDL
MODEL 9
REMARK VINA RESULT:    -5.324      2.069      2.999
REMARK INTER + INTRA:         -10.995
REMARK INTER:                  -9.580
REMARK INTRA:                  -1.416
REMARK UNBOUND:                -2.247
REMARK SMILES COc1ccc([C@H]2CC(=O)c3c(O)cc(O[C@@H]4O[C@@H](CO[C@H]5O[C@@H](C)[C@@H](O)[C@H](O)[C@@H]5O)[C@H](O)[C@H](O)[C@@H]4O)cc3O2)cc1O
REMARK SMILES IDX 19 1 32 2 34 3 36 4 17 5 18 6 20 7 21 8 22 9 25 10 24 11
REMARK SMILES IDX 26 12 23 13 28 14 30 15 27 16 29 18 31 20 33 22 35 24 16 26
REMARK SMILES IDX 15 27 14 28 38 29 12 30 39 31 11 32 40 33 9 34 7 35 10 36
REMARK SMILES IDX 8 37 13 38 6 40 41 41 5 42 42 43 4 44 3 45 43 46 2 48 1 49
REMARK SMILES IDX 37 50
REMARK H PARENT 27 17 29 19 31 21 33 23 35 25 13 39 43 47 37 51
REMARK Flexibility Score: inf
ROOT
ATOM      1  C   UNL     1      -4.947  -6.041  -7.979  1.00  0.00     0.180 C 
ATOM      2  C   UNL     1      -5.506  -4.622  -7.768  1.00  0.00     0.177 C 
ATOM      3  C   UNL     1      -4.339  -3.655  -7.587  1.00  0.00     0.180 C 
ATOM      4  C   UNL     1      -3.616  -4.041  -6.292  1.00  0.00     0.214 C 
ATOM      5  C   UNL     1      -3.544  -5.591  -6.021  1.00  0.00     0.339 C 
ATOM      6  O   UNL     1      -3.944  -6.477  -7.064  1.00  0.00    -0.332 OA
ENDROOT
BRANCH   1   7
ATOM      7  C   UNL     1      -6.071  -7.084  -8.020  1.00  0.00     0.198 C 
BRANCH   7   8
ATOM      8  O   UNL     1      -6.072  -7.843  -6.827  1.00  0.00    -0.347 OA
BRANCH   8   9
ATOM      9  C   UNL     1      -7.288  -7.665  -6.112  1.00  0.00     0.281 C 
ATOM     10  C   UNL     1      -9.965 -10.123  -5.552  1.00  0.00     0.041 C 
ATOM     11  C   UNL     1      -9.212  -8.799  -5.425  1.00  0.00     0.150 C 
ATOM     12  C   UNL     1      -9.034  -8.407  -3.940  1.00  0.00     0.174 C 
ATOM     13  O   UNL     1      -7.949  -8.919  -6.063  1.00  0.00    -0.344 OA
ATOM     14  C   UNL     1      -8.252  -7.087  -3.845  1.00  0.00     0.179 C 
ATOM     15  C   UNL     1      -6.957  -7.187  -4.680  1.00  0.00     0.202 C 
BRANCH  12  16
ATOM     16  O   UNL     1      -8.337  -9.424  -3.262  1.00  0.00    -0.388 OA
ATOM     17  H   UNL     1      -8.835 -10.268  -3.419  1.00  0.00     0.211 HD
ENDBRANCH  12  16
BRANCH  14  18
ATOM     18  O   UNL     1      -9.063  -6.036  -4.310  1.00  0.00    -0.387 OA
ATOM     19  H   UNL     1      -9.999  -6.267  -4.077  1.00  0.00     0.211 HD
ENDBRANCH  14  18
BRANCH  15  20
ATOM     20  O   UNL     1      -6.317  -5.940  -4.722  1.00  0.00    -0.385 OA
ATOM     21  H   UNL     1      -6.926  -5.320  -5.204  1.00  0.00     0.211 HD
ENDBRANCH  15  20
ENDBRANCH   8   9
ENDBRANCH   7   8
ENDBRANCH   1   7
BRANCH   2  22
ATOM     22  O   UNL     1      -6.274  -4.243  -8.885  1.00  0.00    -0.387 OA
ATOM     23  H   UNL     1      -6.395  -5.052  -9.442  1.00  0.00     0.211 HD
ENDBRANCH   2  22
BRANCH   3  24
ATOM     24  O   UNL     1      -3.460  -3.713  -8.688  1.00  0.00    -0.387 OA
ATOM     25  H   UNL     1      -3.046  -2.811  -8.768  1.00  0.00     0.211 HD
ENDBRANCH   3  24
BRANCH   5  26
ATOM     26  O   UNL     1      -2.240  -5.986  -5.562  1.00  0.00    -0.462 OA
BRANCH  26  27
ATOM     27  C   UNL     1      -1.244  -6.627  -6.334  1.00  0.00     0.130 A 
ATOM     28  C   UNL     1      -1.338  -8.009  -6.539  1.00  0.00     0.093 A 
ATOM     29  C   UNL     1      -0.152  -5.937  -6.884  1.00  0.00     0.094 A 
ATOM     30  C   UNL     1      -0.358  -8.704  -7.265  1.00  0.00     0.133 A 
ATOM     31  C   UNL     1       0.856  -6.619  -7.557  1.00  0.00     0.138 A 
ATOM     32  C   UNL     1       0.785  -8.009  -7.739  1.00  0.00     0.102 A 
ATOM     33  O   UNL     1       1.940  -5.881  -8.038  1.00  0.00    -0.484 OA
ATOM     34  C   UNL     1       1.961  -8.672  -8.361  1.00  0.00     0.174 C 
ATOM     35  C   UNL     1       3.184  -6.461  -8.422  1.00  0.00     0.211 C 
ATOM     36  O   UNL     1       2.135  -9.920  -8.271  1.00  0.00    -0.294 OA
ATOM     37  C   UNL     1       2.993  -7.844  -9.077  1.00  0.00     0.131 C 
BRANCH  30  38
ATOM     38  O   UNL     1      -0.575 -10.060  -7.514  1.00  0.00    -0.507 OA
ATOM     39  H   UNL     1      -0.071 -10.806  -7.056  1.00  0.00     0.293 HD
ENDBRANCH  30  38
BRANCH  35  40
ATOM     40  C   UNL     1       4.131  -6.469  -7.233  1.00  0.00    -0.003 A 
ATOM     41  C   UNL     1       5.182  -7.399  -7.185  1.00  0.00     0.057 A 
ATOM     42  C   UNL     1       4.035  -5.503  -6.213  1.00  0.00     0.011 A 
ATOM     43  C   UNL     1       6.116  -7.372  -6.143  1.00  0.00     0.158 A 
ATOM     44  C   UNL     1       4.953  -5.492  -5.161  1.00  0.00     0.051 A 
ATOM     45  C   UNL     1       6.006  -6.420  -5.120  1.00  0.00     0.160 A 
BRANCH  43  46
ATOM     46  O   UNL     1       7.163  -8.289  -6.117  1.00  0.00    -0.504 OA
ATOM     47  H   UNL     1       6.992  -9.287  -6.025  1.00  0.00     0.293 HD
ENDBRANCH  43  46
BRANCH  45  48
ATOM     48  O   UNL     1       6.960  -6.436  -4.093  1.00  0.00    -0.493 OA
ATOM     49  C   UNL     1       8.198  -5.729  -4.138  1.00  0.00     0.278 C 
ENDBRANCH  45  48
ENDBRANCH  35  40
ENDBRANCH  26  27
ENDBRANCH   5  26
BRANCH   4  50
ATOM     50  O   UNL     1      -2.376  -3.385  -6.184  1.00  0.00    -0.384 OA
ATOM     51  H   UNL     1      -1.806  -3.683  -6.929  1.00  0.00     0.211 HD
ENDBRANCH   4  50
TORSDOF 15
ENDMDL
