MODEL 1
REMARK VINA RESULT:    -3.221      0.000      0.000
REMARK INTER + INTRA:          -3.497
REMARK INTER:                  -3.410
REMARK INTRA:                  -0.088
REMARK UNBOUND:                -0.088
REMARK SMILES C=C(C)[C@H]1CC=C(C)C(=O)C1
REMARK SMILES IDX 8 1 7 2 6 3 5 4 4 5 11 6 9 7 10 8 2 9 1 10 3 11
REMARK H PARENT
REMARK Flexibility Score: inf
ROOT
ATOM      1  C   UNL     1      28.856  30.420  26.089  1.00  0.00     0.048 C 
ATOM      2  C   UNL     1      28.529  28.964  25.898  1.00  0.00    -0.012 C 
ATOM      3  C   UNL     1      29.125  28.038  26.669  1.00  0.00    -0.019 C 
ATOM      4  C   UNL     1      28.848  26.567  26.507  1.00  0.00     0.036 C 
ATOM      5  C   UNL     1      27.398  26.322  26.055  1.00  0.00     0.025 C 
ATOM      6  C   UNL     1      27.096  27.116  24.771  1.00  0.00     0.089 C 
ATOM      7  C   UNL     1      27.462  28.564  24.946  1.00  0.00     0.158 C 
ATOM      8  O   UNL     1      26.877  29.434  24.247  1.00  0.00    -0.295 OA
ENDROOT
BRANCH   5   9
ATOM      9  C   UNL     1      27.115  24.837  25.871  1.00  0.00    -0.077 C 
ATOM     10  C   UNL     1      26.079  24.266  26.505  1.00  0.00     0.008 C 
ATOM     11  C   UNL     1      27.977  23.977  24.980  1.00  0.00     0.039 C 
ENDBRANCH   5   9
TORSDOF 1
ENDMDL
MODEL 2
REMARK VINA RESULT:    -3.210      1.906      4.512
REMARK INTER + INTRA:          -3.486
REMARK INTER:                  -3.398
REMARK INTRA:                  -0.088
REMARK UNBOUND:                -0.088
REMARK SMILES C=C(C)[C@H]1CC=C(C)C(=O)C1
REMARK SMILES IDX 8 1 7 2 6 3 5 4 4 5 11 6 9 7 10 8 2 9 1 10 3 11
REMARK H PARENT
REMARK Flexibility Score: inf
ROOT
ATOM      1  C   UNL     1      27.589  22.878  25.439  1.00  0.00     0.048 C 
ATOM      2  C   UNL     1      27.770  24.359  25.627  1.00  0.00    -0.012 C 
ATOM      3  C   UNL     1      28.885  24.959  25.176  1.00  0.00    -0.019 C 
ATOM      4  C   UNL     1      29.125  26.435  25.354  1.00  0.00     0.036 C 
ATOM      5  C   UNL     1      27.802  27.220  25.313  1.00  0.00     0.025 C 
ATOM      6  C   UNL     1      26.815  26.661  26.354  1.00  0.00     0.089 C 
ATOM      7  C   UNL     1      26.666  25.173  26.196  1.00  0.00     0.158 C 
ATOM      8  O   UNL     1      25.605  24.617  26.587  1.00  0.00    -0.295 OA
ENDROOT
BRANCH   5   9
ATOM      9  C   UNL     1      28.033  28.712  25.511  1.00  0.00    -0.077 C 
ATOM     10  C   UNL     1      27.596  29.589  24.592  1.00  0.00     0.008 C 
ATOM     11  C   UNL     1      28.747  29.243  26.730  1.00  0.00     0.039 C 
ENDBRANCH   5   9
TORSDOF 1
ENDMDL
MODEL 3
REMARK VINA RESULT:    -3.185      3.317      5.618
REMARK INTER + INTRA:          -3.459
REMARK INTER:                  -3.361
REMARK INTRA:                  -0.098
REMARK UNBOUND:                -0.088
REMARK SMILES C=C(C)[C@H]1CC=C(C)C(=O)C1
REMARK SMILES IDX 8 1 7 2 6 3 5 4 4 5 11 6 9 7 10 8 2 9 1 10 3 11
REMARK H PARENT
REMARK Flexibility Score: inf
ROOT
ATOM      1  C   UNL     1      23.018  22.875  27.017  1.00  0.00     0.048 C 
ATOM      2  C   UNL     1      24.416  23.133  26.527  1.00  0.00    -0.012 C 
ATOM      3  C   UNL     1      24.655  23.234  25.208  1.00  0.00    -0.019 C 
ATOM      4  C   UNL     1      26.038  23.473  24.662  1.00  0.00     0.036 C 
ATOM      5  C   UNL     1      26.872  24.334  25.627  1.00  0.00     0.025 C 
ATOM      6  C   UNL     1      26.901  23.695  27.027  1.00  0.00     0.089 C 
ATOM      7  C   UNL     1      25.505  23.397  27.501  1.00  0.00     0.158 C 
ATOM      8  O   UNL     1      25.276  23.337  28.739  1.00  0.00    -0.295 OA
ENDROOT
BRANCH   5   9
ATOM      9  C   UNL     1      28.279  24.566  25.092  1.00  0.00    -0.077 C 
ATOM     10  C   UNL     1      28.884  23.619  24.357  1.00  0.00     0.008 C 
ATOM     11  C   UNL     1      29.025  25.849  25.369  1.00  0.00     0.039 C 
ENDBRANCH   5   9
TORSDOF 1
ENDMDL
MODEL 4
REMARK VINA RESULT:    -3.135      1.687      2.601
REMARK INTER + INTRA:          -3.406
REMARK INTER:                  -3.319
REMARK INTRA:                  -0.087
REMARK UNBOUND:                -0.088
REMARK SMILES C=C(C)[C@H]1CC=C(C)C(=O)C1
REMARK SMILES IDX 8 1 7 2 6 3 5 4 4 5 11 6 9 7 10 8 2 9 1 10 3 11
REMARK H PARENT
REMARK Flexibility Score: inf
ROOT
ATOM      1  C   UNL     1      29.095  31.746  24.993  1.00  0.00     0.048 C 
ATOM      2  C   UNL     1      28.702  30.305  25.177  1.00  0.00    -0.012 C 
ATOM      3  C   UNL     1      28.380  29.558  24.107  1.00  0.00    -0.019 C 
ATOM      4  C   UNL     1      27.962  28.117  24.236  1.00  0.00     0.036 C 
ATOM      5  C   UNL     1      28.675  27.437  25.418  1.00  0.00     0.025 C 
ATOM      6  C   UNL     1      28.438  28.231  26.716  1.00  0.00     0.089 C 
ATOM      7  C   UNL     1      28.789  29.680  26.521  1.00  0.00     0.158 C 
ATOM      8  O   UNL     1      29.125  30.371  27.520  1.00  0.00    -0.295 OA
ENDROOT
BRANCH   5   9
ATOM      9  C   UNL     1      28.244  25.985  25.569  1.00  0.00    -0.077 C 
ATOM     10  C   UNL     1      29.075  24.995  25.209  1.00  0.00     0.008 C 
ATOM     11  C   UNL     1      26.887  25.620  26.122  1.00  0.00     0.039 C 
ENDBRANCH   5   9
TORSDOF 1
ENDMDL
MODEL 5
REMARK VINA RESULT:    -2.766      3.314      5.353
REMARK INTER + INTRA:          -3.015
REMARK INTER:                  -2.922
REMARK INTRA:                  -0.093
REMARK UNBOUND:                -0.088
REMARK SMILES C=C(C)[C@H]1CC=C(C)C(=O)C1
REMARK SMILES IDX 8 1 7 2 6 3 5 4 4 5 11 6 9 7 10 8 2 9 1 10 3 11
REMARK H PARENT
REMARK Flexibility Score: inf
ROOT
ATOM      1  C   UNL     1      22.918  22.875  26.825  1.00  0.00     0.048 C 
ATOM      2  C   UNL     1      24.253  23.396  26.367  1.00  0.00    -0.012 C 
ATOM      3  C   UNL     1      25.148  23.829  27.272  1.00  0.00    -0.019 C 
ATOM      4  C   UNL     1      26.491  24.377  26.868  1.00  0.00     0.036 C 
ATOM      5  C   UNL     1      27.011  23.687  25.595  1.00  0.00     0.025 C 
ATOM      6  C   UNL     1      25.972  23.797  24.463  1.00  0.00     0.089 C 
ATOM      7  C   UNL     1      24.626  23.316  24.932  1.00  0.00     0.158 C 
ATOM      8  O   UNL     1      23.801  22.878  24.087  1.00  0.00    -0.295 OA
ENDROOT
BRANCH   5   9
ATOM      9  C   UNL     1      28.360  24.248  25.167  1.00  0.00    -0.077 C 
ATOM     10  C   UNL     1      29.099  23.601  24.251  1.00  0.00     0.008 C 
ATOM     11  C   UNL     1      28.898  25.532  25.750  1.00  0.00     0.039 C 
ENDBRANCH   5   9
TORSDOF 1
ENDMDL
MODEL 6
REMARK VINA RESULT:    -1.937      2.051      4.568
REMARK INTER + INTRA:          -2.138
REMARK INTER:                  -2.050
REMARK INTRA:                  -0.088
REMARK UNBOUND:                -0.088
REMARK SMILES C=C(C)[C@H]1CC=C(C)C(=O)C1
REMARK SMILES IDX 8 1 7 2 6 3 5 4 4 5 11 6 9 7 10 8 2 9 1 10 3 11
REMARK H PARENT
REMARK Flexibility Score: inf
ROOT
ATOM      1  C   UNL     1      26.663  23.270  25.469  1.00  0.00     0.048 C 
ATOM      2  C   UNL     1      27.141  24.696  25.498  1.00  0.00    -0.012 C 
ATOM      3  C   UNL     1      26.437  25.623  26.172  1.00  0.00    -0.019 C 
ATOM      4  C   UNL     1      26.860  27.067  26.218  1.00  0.00     0.036 C 
ATOM      5  C   UNL     1      28.392  27.198  26.175  1.00  0.00     0.025 C 
ATOM      6  C   UNL     1      28.957  26.465  24.944  1.00  0.00     0.089 C 
ATOM      7  C   UNL     1      28.447  25.052  24.890  1.00  0.00     0.158 C 
ATOM      8  O   UNL     1      29.125  24.176  24.288  1.00  0.00    -0.295 OA
ENDROOT
BRANCH   5   9
ATOM      9  C   UNL     1      28.829  28.657  26.202  1.00  0.00    -0.077 C 
ATOM     10  C   UNL     1      29.125  29.249  27.369  1.00  0.00     0.008 C 
ATOM     11  C   UNL     1      28.941  29.467  24.933  1.00  0.00     0.039 C 
ENDBRANCH   5   9
TORSDOF 1
ENDMDL
MODEL 7
REMARK VINA RESULT:    -1.924      3.409      4.758
REMARK INTER + INTRA:          -2.124
REMARK INTER:                  -2.030
REMARK INTRA:                  -0.094
REMARK UNBOUND:                -0.088
REMARK SMILES C=C(C)[C@H]1CC=C(C)C(=O)C1
REMARK SMILES IDX 8 1 7 2 6 3 5 4 4 5 11 6 9 7 10 8 2 9 1 10 3 11
REMARK H PARENT
REMARK Flexibility Score: inf
ROOT
ATOM      1  C   UNL     1      29.115  24.058  23.974  1.00  0.00     0.048 C 
ATOM      2  C   UNL     1      27.850  23.922  24.776  1.00  0.00    -0.012 C 
ATOM      3  C   UNL     1      26.881  23.087  24.360  1.00  0.00    -0.019 C 
ATOM      4  C   UNL     1      25.588  22.927  25.114  1.00  0.00     0.036 C 
ATOM      5  C   UNL     1      25.803  23.105  26.627  1.00  0.00     0.025 C 
ATOM      6  C   UNL     1      26.482  24.457  26.916  1.00  0.00     0.089 C 
ATOM      7  C   UNL     1      27.724  24.613  26.083  1.00  0.00     0.158 C 
ATOM      8  O   UNL     1      28.646  25.369  26.492  1.00  0.00    -0.295 OA
ENDROOT
BRANCH   5   9
ATOM      9  C   UNL     1      24.497  22.964  27.397  1.00  0.00    -0.077 C 
ATOM     10  C   UNL     1      24.508  22.909  28.738  1.00  0.00     0.008 C 
ATOM     11  C   UNL     1      23.169  22.883  26.684  1.00  0.00     0.039 C 
ENDBRANCH   5   9
TORSDOF 1
ENDMDL
MODEL 8
REMARK VINA RESULT:    -1.730      2.074      5.245
REMARK INTER + INTRA:          -1.919
REMARK INTER:                  -1.820
REMARK INTRA:                  -0.098
REMARK UNBOUND:                -0.088
REMARK SMILES C=C(C)[C@H]1CC=C(C)C(=O)C1
REMARK SMILES IDX 8 1 7 2 6 3 5 4 4 5 11 6 9 7 10 8 2 9 1 10 3 11
REMARK H PARENT
REMARK Flexibility Score: inf
ROOT
ATOM      1  C   UNL     1      26.556  26.415  26.045  1.00  0.00     0.048 C 
ATOM      2  C   UNL     1      27.233  27.620  25.451  1.00  0.00    -0.012 C 
ATOM      3  C   UNL     1      26.666  28.263  24.415  1.00  0.00    -0.019 C 
ATOM      4  C   UNL     1      27.309  29.462  23.771  1.00  0.00     0.036 C 
ATOM      5  C   UNL     1      28.100  30.287  24.802  1.00  0.00     0.025 C 
ATOM      6  C   UNL     1      29.125  29.396  25.528  1.00  0.00     0.089 C 
ATOM      7  C   UNL     1      28.458  28.169  26.085  1.00  0.00     0.158 C 
ATOM      8  O   UNL     1      28.972  27.588  27.078  1.00  0.00    -0.295 OA
ENDROOT
BRANCH   5   9
ATOM      9  C   UNL     1      28.770  31.492  24.156  1.00  0.00    -0.077 C 
ATOM     10  C   UNL     1      29.119  31.454  22.860  1.00  0.00     0.008 C 
ATOM     11  C   UNL     1      29.057  32.747  24.943  1.00  0.00     0.039 C 
ENDBRANCH   5   9
TORSDOF 1
ENDMDL
