MODEL 1
REMARK VINA RESULT:    -5.287      0.000      0.000
REMARK INTER + INTRA:          -8.360
REMARK INTER:                  -7.142
REMARK INTRA:                  -1.218
REMARK UNBOUND:                -1.218
REMARK SMILES CC(=O)CCC=C(C)CCC=C(C)C
REMARK SMILES IDX 7 1 6 2 8 3 9 4 10 5 11 6 13 7 12 8 14 9 5 10 4 11 2 12 3 13
REMARK SMILES IDX 1 14
REMARK H PARENT
REMARK Flexibility Score: inf
ROOT
ATOM      1  C   UNL     1       0.325  28.999  33.648  1.00  0.00    -0.077 C 
ATOM      2  C   UNL     1      -0.436  28.720  32.567  1.00  0.00    -0.028 C 
ATOM      3  C   UNL     1       0.691  27.929  34.649  1.00  0.00     0.039 C 
ENDROOT
BRANCH   1   4
ATOM      4  C   UNL     1       0.821  30.414  33.861  1.00  0.00     0.034 C 
BRANCH   4   5
ATOM      5  C   UNL     1       2.219  30.628  33.264  1.00  0.00     0.032 C 
BRANCH   5   6
ATOM      6  C   UNL     1       2.148  31.093  31.828  1.00  0.00    -0.028 C 
ATOM      7  C   UNL     1       2.237  30.908  29.380  1.00  0.00     0.039 C 
ATOM      8  C   UNL     1       2.400  30.312  30.755  1.00  0.00    -0.080 C 
ATOM      9  C   UNL     1       2.853  28.878  30.895  1.00  0.00     0.039 C 
ENDBRANCH   5   6
ENDBRANCH   4   5
ENDBRANCH   1   4
BRANCH   2  10
ATOM     10  C   UNL     1      -0.970  27.339  32.267  1.00  0.00     0.035 C 
BRANCH  10  11
ATOM     11  C   UNL     1      -1.563  27.244  30.856  1.00  0.00     0.079 C 
BRANCH  11  12
ATOM     12  C   UNL     1      -0.507  27.413  29.792  1.00  0.00     0.130 C 
ATOM     13  O   UNL     1       0.423  26.623  29.738  1.00  0.00    -0.300 OA
ATOM     14  C   UNL     1      -0.568  28.538  28.804  1.00  0.00     0.087 C 
ENDBRANCH  11  12
ENDBRANCH  10  11
ENDBRANCH   2  10
TORSDOF 6
ENDMDL
MODEL 2
REMARK VINA RESULT:    -5.255      1.676      2.375
REMARK INTER + INTRA:          -8.316
REMARK INTER:                  -7.590
REMARK INTRA:                  -0.726
REMARK UNBOUND:                -1.218
REMARK SMILES CC(=O)CCC=C(C)CCC=C(C)C
REMARK SMILES IDX 7 1 6 2 8 3 9 4 10 5 11 6 13 7 12 8 14 9 5 10 4 11 2 12 3 13
REMARK SMILES IDX 1 14
REMARK H PARENT
REMARK Flexibility Score: inf
ROOT
ATOM      1  C   UNL     1       0.199  29.335  33.559  1.00  0.00    -0.077 C 
ATOM      2  C   UNL     1      -0.308  28.940  32.371  1.00  0.00    -0.028 C 
ATOM      3  C   UNL     1       0.112  28.455  34.783  1.00  0.00     0.039 C 
ENDROOT
BRANCH   1   4
ATOM      4  C   UNL     1       0.870  30.689  33.666  1.00  0.00     0.034 C 
BRANCH   4   5
ATOM      5  C   UNL     1       2.267  30.688  33.029  1.00  0.00     0.032 C 
BRANCH   5   6
ATOM      6  C   UNL     1       3.050  29.450  33.400  1.00  0.00    -0.028 C 
ATOM      7  C   UNL     1       4.231  27.326  33.045  1.00  0.00     0.039 C 
ATOM      8  C   UNL     1       3.405  28.478  32.533  1.00  0.00    -0.080 C 
ATOM      9  C   UNL     1       2.984  28.504  31.082  1.00  0.00     0.039 C 
ENDBRANCH   5   6
ENDBRANCH   4   5
ENDBRANCH   1   4
BRANCH   2  10
ATOM     10  C   UNL     1      -0.988  27.606  32.166  1.00  0.00     0.035 C 
BRANCH  10  11
ATOM     11  C   UNL     1      -1.039  27.206  30.686  1.00  0.00     0.079 C 
BRANCH  11  12
ATOM     12  C   UNL     1      -2.352  26.557  30.327  1.00  0.00     0.130 C 
ATOM     13  O   UNL     1      -3.381  26.948  30.857  1.00  0.00    -0.300 OA
ATOM     14  C   UNL     1      -2.422  25.433  29.337  1.00  0.00     0.087 C 
ENDBRANCH  11  12
ENDBRANCH  10  11
ENDBRANCH   2  10
TORSDOF 6
ENDMDL
MODEL 3
REMARK VINA RESULT:    -5.185      2.173      4.520
REMARK INTER + INTRA:          -8.221
REMARK INTER:                  -7.253
REMARK INTRA:                  -0.968
REMARK UNBOUND:                -1.218
REMARK SMILES CC(=O)CCC=C(C)CCC=C(C)C
REMARK SMILES IDX 7 1 6 2 8 3 9 4 10 5 11 6 13 7 12 8 14 9 5 10 4 11 2 12 3 13
REMARK SMILES IDX 1 14
REMARK H PARENT
REMARK Flexibility Score: inf
ROOT
ATOM      1  C   UNL     1       1.513  30.298  30.803  1.00  0.00    -0.077 C 
ATOM      2  C   UNL     1       2.337  30.726  31.784  1.00  0.00    -0.028 C 
ATOM      3  C   UNL     1       0.054  30.013  31.071  1.00  0.00     0.039 C 
ENDROOT
BRANCH   1   4
ATOM      4  C   UNL     1       2.062  30.101  29.405  1.00  0.00     0.034 C 
BRANCH   4   5
ATOM      5  C   UNL     1       2.020  28.627  28.976  1.00  0.00     0.032 C 
BRANCH   5   6
ATOM      6  C   UNL     1       2.720  27.734  29.974  1.00  0.00    -0.028 C 
ATOM      7  C   UNL     1       4.580  26.485  30.982  1.00  0.00     0.039 C 
ATOM      8  C   UNL     1       4.007  27.336  29.877  1.00  0.00    -0.080 C 
ATOM      9  C   UNL     1       4.873  27.701  28.695  1.00  0.00     0.039 C 
ENDBRANCH   5   6
ENDBRANCH   4   5
ENDBRANCH   1   4
BRANCH   2  10
ATOM     10  C   UNL     1       1.879  30.958  33.205  1.00  0.00     0.035 C 
BRANCH  10  11
ATOM     11  C   UNL     1       2.440  29.907  34.171  1.00  0.00     0.079 C 
BRANCH  11  12
ATOM     12  C   UNL     1       1.615  28.644  34.162  1.00  0.00     0.130 C 
ATOM     13  O   UNL     1       2.113  27.604  33.759  1.00  0.00    -0.300 OA
ATOM     14  C   UNL     1       0.190  28.638  34.630  1.00  0.00     0.087 C 
ENDBRANCH  11  12
ENDBRANCH  10  11
ENDBRANCH   2  10
TORSDOF 6
ENDMDL
MODEL 4
REMARK VINA RESULT:    -5.152      2.665      5.990
REMARK INTER + INTRA:          -8.177
REMARK INTER:                  -7.506
REMARK INTRA:                  -0.671
REMARK UNBOUND:                -1.218
REMARK SMILES CC(=O)CCC=C(C)CCC=C(C)C
REMARK SMILES IDX 7 1 6 2 8 3 9 4 10 5 11 6 13 7 12 8 14 9 5 10 4 11 2 12 3 13
REMARK SMILES IDX 1 14
REMARK H PARENT
REMARK Flexibility Score: inf
ROOT
ATOM      1  C   UNL     1      -0.530  28.395  31.781  1.00  0.00    -0.077 C 
ATOM      2  C   UNL     1      -0.460  27.958  33.058  1.00  0.00    -0.028 C 
ATOM      3  C   UNL     1      -0.147  29.809  31.412  1.00  0.00     0.039 C 
ENDROOT
BRANCH   1   4
ATOM      4  C   UNL     1      -1.001  27.448  30.697  1.00  0.00     0.034 C 
BRANCH   4   5
ATOM      5  C   UNL     1      -2.452  26.997  30.922  1.00  0.00     0.032 C 
BRANCH   5   6
ATOM      6  C   UNL     1      -2.662  25.562  30.499  1.00  0.00    -0.028 C 
ATOM      7  C   UNL     1      -3.793  23.386  30.353  1.00  0.00     0.039 C 
ATOM      8  C   UNL     1      -3.691  24.786  30.903  1.00  0.00    -0.080 C 
ATOM      9  C   UNL     1      -4.720  25.271  31.897  1.00  0.00     0.039 C 
ENDBRANCH   5   6
ENDBRANCH   4   5
ENDBRANCH   1   4
BRANCH   2  10
ATOM     10  C   UNL     1       0.005  28.827  34.204  1.00  0.00     0.035 C 
BRANCH  10  11
ATOM     11  C   UNL     1       1.412  28.447  34.681  1.00  0.00     0.079 C 
BRANCH  11  12
ATOM     12  C   UNL     1       2.482  29.140  33.874  1.00  0.00     0.130 C 
ATOM     13  O   UNL     1       2.459  30.357  33.765  1.00  0.00    -0.300 OA
ATOM     14  C   UNL     1       3.570  28.366  33.192  1.00  0.00     0.087 C 
ENDBRANCH  11  12
ENDBRANCH  10  11
ENDBRANCH   2  10
TORSDOF 6
ENDMDL
MODEL 5
REMARK VINA RESULT:    -5.133      2.554      4.851
REMARK INTER + INTRA:          -8.152
REMARK INTER:                  -7.290
REMARK INTRA:                  -0.862
REMARK UNBOUND:                -1.218
REMARK SMILES CC(=O)CCC=C(C)CCC=C(C)C
REMARK SMILES IDX 7 1 6 2 8 3 9 4 10 5 11 6 13 7 12 8 14 9 5 10 4 11 2 12 3 13
REMARK SMILES IDX 1 14
REMARK H PARENT
REMARK Flexibility Score: inf
ROOT
ATOM      1  C   UNL     1       1.291  30.381  30.763  1.00  0.00    -0.077 C 
ATOM      2  C   UNL     1       2.163  30.785  31.713  1.00  0.00    -0.028 C 
ATOM      3  C   UNL     1      -0.139  30.034  31.104  1.00  0.00     0.039 C 
ENDROOT
BRANCH   1   4
ATOM      4  C   UNL     1       1.757  30.273  29.326  1.00  0.00     0.034 C 
BRANCH   4   5
ATOM      5  C   UNL     1       0.596  30.430  28.333  1.00  0.00     0.032 C 
BRANCH   5   6
ATOM      6  C   UNL     1       0.522  31.833  27.778  1.00  0.00    -0.028 C 
ATOM      7  C   UNL     1      -0.525  33.951  27.108  1.00  0.00     0.039 C 
ATOM      8  C   UNL     1      -0.619  32.540  27.630  1.00  0.00    -0.080 C 
ATOM      9  C   UNL     1      -1.974  31.954  27.952  1.00  0.00     0.039 C 
ENDBRANCH   5   6
ENDBRANCH   4   5
ENDBRANCH   1   4
BRANCH   2  10
ATOM     10  C   UNL     1       1.787  30.930  33.169  1.00  0.00     0.035 C 
BRANCH  10  11
ATOM     11  C   UNL     1       2.434  29.846  34.042  1.00  0.00     0.079 C 
BRANCH  11  12
ATOM     12  C   UNL     1       1.555  28.625  34.160  1.00  0.00     0.130 C 
ATOM     13  O   UNL     1       2.019  27.524  33.907  1.00  0.00    -0.300 OA
ATOM     14  C   UNL     1       0.118  28.735  34.572  1.00  0.00     0.087 C 
ENDBRANCH  11  12
ENDBRANCH  10  11
ENDBRANCH   2  10
TORSDOF 6
ENDMDL
MODEL 6
REMARK VINA RESULT:    -5.056      3.264      5.195
REMARK INTER + INTRA:          -8.047
REMARK INTER:                  -7.421
REMARK INTRA:                  -0.627
REMARK UNBOUND:                -1.218
REMARK SMILES CC(=O)CCC=C(C)CCC=C(C)C
REMARK SMILES IDX 7 1 6 2 8 3 9 4 10 5 11 6 13 7 12 8 14 9 5 10 4 11 2 12 3 13
REMARK SMILES IDX 1 14
REMARK H PARENT
REMARK Flexibility Score: inf
ROOT
ATOM      1  C   UNL     1       3.325  28.392  31.881  1.00  0.00    -0.077 C 
ATOM      2  C   UNL     1       2.641  29.556  31.927  1.00  0.00    -0.028 C 
ATOM      3  C   UNL     1       3.902  27.769  33.130  1.00  0.00     0.039 C 
ENDROOT
BRANCH   1   4
ATOM      4  C   UNL     1       3.517  27.697  30.549  1.00  0.00     0.034 C 
BRANCH   4   5
ATOM      5  C   UNL     1       4.314  26.393  30.693  1.00  0.00     0.032 C 
BRANCH   5   6
ATOM      6  C   UNL     1       5.643  26.468  29.977  1.00  0.00    -0.028 C 
ATOM      7  C   UNL     1       7.689  25.632  28.906  1.00  0.00     0.039 C 
ATOM      8  C   UNL     1       6.410  25.400  29.669  1.00  0.00    -0.080 C 
ATOM      9  C   UNL     1       6.033  23.995  30.079  1.00  0.00     0.039 C 
ENDBRANCH   5   6
ENDBRANCH   4   5
ENDBRANCH   1   4
BRANCH   2  10
ATOM     10  C   UNL     1       2.393  30.317  33.209  1.00  0.00     0.035 C 
BRANCH  10  11
ATOM     11  C   UNL     1       0.902  30.380  33.562  1.00  0.00     0.079 C 
BRANCH  11  12
ATOM     12  C   UNL     1       0.309  29.004  33.736  1.00  0.00     0.130 C 
ATOM     13  O   UNL     1      -0.518  28.600  32.933  1.00  0.00    -0.300 OA
ATOM     14  C   UNL     1       0.708  28.121  34.881  1.00  0.00     0.087 C 
ENDBRANCH  11  12
ENDBRANCH  10  11
ENDBRANCH   2  10
TORSDOF 6
ENDMDL
MODEL 7
REMARK VINA RESULT:    -4.955      4.034      6.012
REMARK INTER + INTRA:          -7.910
REMARK INTER:                  -7.409
REMARK INTRA:                  -0.501
REMARK UNBOUND:                -1.218
REMARK SMILES CC(=O)CCC=C(C)CCC=C(C)C
REMARK SMILES IDX 7 1 6 2 8 3 9 4 10 5 11 6 13 7 12 8 14 9 5 10 4 11 2 12 3 13
REMARK SMILES IDX 1 14
REMARK H PARENT
REMARK Flexibility Score: inf
ROOT
ATOM      1  C   UNL     1       4.211  27.036  31.420  1.00  0.00    -0.077 C 
ATOM      2  C   UNL     1       4.927  25.981  30.974  1.00  0.00    -0.028 C 
ATOM      3  C   UNL     1       3.384  27.880  30.478  1.00  0.00     0.039 C 
ENDROOT
BRANCH   1   4
ATOM      4  C   UNL     1       4.236  27.380  32.895  1.00  0.00     0.034 C 
BRANCH   4   5
ATOM      5  C   UNL     1       3.470  28.676  33.194  1.00  0.00     0.032 C 
BRANCH   5   6
ATOM      6  C   UNL     1       2.149  28.401  33.875  1.00  0.00    -0.028 C 
ATOM      7  C   UNL     1      -0.139  28.849  34.644  1.00  0.00     0.039 C 
ATOM      8  C   UNL     1       1.139  29.290  33.980  1.00  0.00    -0.080 C 
ATOM      9  C   UNL     1       1.262  30.708  33.470  1.00  0.00     0.039 C 
ENDBRANCH   5   6
ENDBRANCH   4   5
ENDBRANCH   1   4
BRANCH   2  10
ATOM     10  C   UNL     1       4.958  25.558  29.523  1.00  0.00     0.035 C 
BRANCH  10  11
ATOM     11  C   UNL     1       6.278  24.871  29.151  1.00  0.00     0.079 C 
BRANCH  11  12
ATOM     12  C   UNL     1       6.296  23.424  29.579  1.00  0.00     0.130 C 
ATOM     13  O   UNL     1       5.325  22.718  29.350  1.00  0.00    -0.300 OA
ATOM     14  C   UNL     1       7.477  22.835  30.290  1.00  0.00     0.087 C 
ENDBRANCH  11  12
ENDBRANCH  10  11
ENDBRANCH   2  10
TORSDOF 6
ENDMDL
MODEL 8
REMARK VINA RESULT:    -4.884      1.723      4.346
REMARK INTER + INTRA:          -7.815
REMARK INTER:                  -6.740
REMARK INTRA:                  -1.074
REMARK UNBOUND:                -1.218
REMARK SMILES CC(=O)CCC=C(C)CCC=C(C)C
REMARK SMILES IDX 7 1 6 2 8 3 9 4 10 5 11 6 13 7 12 8 14 9 5 10 4 11 2 12 3 13
REMARK SMILES IDX 1 14
REMARK H PARENT
REMARK Flexibility Score: inf
ROOT
ATOM      1  C   UNL     1       3.285  28.468  31.967  1.00  0.00    -0.077 C 
ATOM      2  C   UNL     1       2.577  29.608  32.114  1.00  0.00    -0.028 C 
ATOM      3  C   UNL     1       3.884  27.755  33.157  1.00  0.00     0.039 C 
ENDROOT
BRANCH   1   4
ATOM      4  C   UNL     1       3.484  27.891  30.581  1.00  0.00     0.034 C 
BRANCH   4   5
ATOM      5  C   UNL     1       2.444  28.424  29.584  1.00  0.00     0.032 C 
BRANCH   5   6
ATOM      6  C   UNL     1       1.130  27.689  29.700  1.00  0.00    -0.028 C 
ATOM      7  C   UNL     1      -1.305  27.415  29.872  1.00  0.00     0.039 C 
ATOM      8  C   UNL     1      -0.076  28.286  29.818  1.00  0.00    -0.080 C 
ATOM      9  C   UNL     1      -0.222  29.787  29.913  1.00  0.00     0.039 C 
ENDBRANCH   5   6
ENDBRANCH   4   5
ENDBRANCH   1   4
BRANCH   2  10
ATOM     10  C   UNL     1       2.321  30.254  33.456  1.00  0.00     0.035 C 
BRANCH  10  11
ATOM     11  C   UNL     1       0.832  30.249  33.824  1.00  0.00     0.079 C 
BRANCH  11  12
ATOM     12  C   UNL     1       0.303  28.846  33.994  1.00  0.00     0.130 C 
ATOM     13  O   UNL     1      -0.610  28.458  33.281  1.00  0.00    -0.300 OA
ATOM     14  C   UNL     1       0.869  27.918  35.026  1.00  0.00     0.087 C 
ENDBRANCH  11  12
ENDBRANCH  10  11
ENDBRANCH   2  10
TORSDOF 6
ENDMDL
MODEL 9
REMARK VINA RESULT:    -4.686      2.168      5.598
REMARK INTER + INTRA:          -7.548
REMARK INTER:                  -6.847
REMARK INTRA:                  -0.701
REMARK UNBOUND:                -1.218
REMARK SMILES CC(=O)CCC=C(C)CCC=C(C)C
REMARK SMILES IDX 7 1 6 2 8 3 9 4 10 5 11 6 13 7 12 8 14 9 5 10 4 11 2 12 3 13
REMARK SMILES IDX 1 14
REMARK H PARENT
REMARK Flexibility Score: inf
ROOT
ATOM      1  C   UNL     1       0.576  29.004  30.675  1.00  0.00    -0.077 C 
ATOM      2  C   UNL     1       0.563  30.042  31.539  1.00  0.00    -0.028 C 
ATOM      3  C   UNL     1       1.872  28.432  30.152  1.00  0.00     0.039 C 
ENDROOT
BRANCH   1   4
ATOM      4  C   UNL     1      -0.737  28.402  30.220  1.00  0.00     0.034 C 
BRANCH   4   5
ATOM      5  C   UNL     1      -1.003  27.041  30.880  1.00  0.00     0.032 C 
BRANCH   5   6
ATOM      6  C   UNL     1      -2.449  26.892  31.291  1.00  0.00    -0.028 C 
ATOM      7  C   UNL     1      -4.694  25.898  31.356  1.00  0.00     0.039 C 
ATOM      8  C   UNL     1      -3.291  25.951  30.810  1.00  0.00    -0.080 C 
ATOM      9  C   UNL     1      -2.872  24.973  29.738  1.00  0.00     0.039 C 
ENDBRANCH   5   6
ENDBRANCH   4   5
ENDBRANCH   1   4
BRANCH   2  10
ATOM     10  C   UNL     1       1.821  30.704  32.054  1.00  0.00     0.035 C 
BRANCH  10  11
ATOM     11  C   UNL     1       1.995  30.513  33.566  1.00  0.00     0.079 C 
BRANCH  11  12
ATOM     12  C   UNL     1       2.071  29.054  33.941  1.00  0.00     0.130 C 
ATOM     13  O   UNL     1       3.042  28.396  33.599  1.00  0.00    -0.300 OA
ATOM     14  C   UNL     1       0.975  28.389  34.717  1.00  0.00     0.087 C 
ENDBRANCH  11  12
ENDBRANCH  10  11
ENDBRANCH   2  10
TORSDOF 6
ENDMDL
