MODEL 1
REMARK VINA RESULT:    -2.610      0.000      0.000
REMARK INTER + INTRA:          -2.610
REMARK INTER:                  -2.610
REMARK INTRA:                   0.000
REMARK UNBOUND:                 0.000
REMARK SMILES CC(=O)[O-]
REMARK SMILES IDX 1 1 2 2 3 3 4 4
REMARK H PARENT
REMARK Flexibility Score: inf
ROOT
ATOM      1  C   UNL     1      19.279   7.975   7.066  1.00  0.00     0.063 C 
ATOM      2  C   UNL     1      19.873   7.710   8.409  1.00  0.00     0.038 C 
ATOM      3  O   UNL     1      20.618   6.711   8.583  1.00  0.00    -0.550 OA
ATOM      4  O   UNL     1      19.562   8.534   9.482  1.00  0.00    -0.550 OA
ENDROOT
TORSDOF 0
ENDMDL
MODEL 2
REMARK VINA RESULT:    -2.400      0.656      1.605
REMARK INTER + INTRA:          -2.400
REMARK INTER:                  -2.400
REMARK INTRA:                   0.000
REMARK UNBOUND:                 0.000
REMARK SMILES CC(=O)[O-]
REMARK SMILES IDX 1 1 2 2 3 3 4 4
REMARK H PARENT
REMARK Flexibility Score: inf
ROOT
ATOM      1  C   UNL     1      19.363   7.569   7.143  1.00  0.00     0.063 C 
ATOM      2  C   UNL     1      19.657   7.430   8.599  1.00  0.00     0.038 C 
ATOM      3  O   UNL     1      19.818   8.456   9.310  1.00  0.00    -0.550 OA
ATOM      4  O   UNL     1      19.808   6.170   9.162  1.00  0.00    -0.550 OA
ENDROOT
TORSDOF 0
ENDMDL
MODEL 3
REMARK VINA RESULT:    -2.369      1.778      2.790
REMARK INTER + INTRA:          -2.369
REMARK INTER:                  -2.369
REMARK INTRA:                   0.000
REMARK UNBOUND:                 0.000
REMARK SMILES CC(=O)[O-]
REMARK SMILES IDX 1 1 2 2 3 3 4 4
REMARK H PARENT
REMARK Flexibility Score: inf
ROOT
ATOM      1  C   UNL     1      19.203   5.719  10.606  1.00  0.00     0.063 C 
ATOM      2  C   UNL     1      19.762   6.853   9.815  1.00  0.00     0.038 C 
ATOM      3  O   UNL     1      19.443   8.038  10.097  1.00  0.00    -0.550 OA
ATOM      4  O   UNL     1      20.592   6.603   8.731  1.00  0.00    -0.550 OA
ENDROOT
TORSDOF 0
ENDMDL
MODEL 4
REMARK VINA RESULT:    -2.368      1.738      2.260
REMARK INTER + INTRA:          -2.368
REMARK INTER:                  -2.368
REMARK INTRA:                   0.000
REMARK UNBOUND:                 0.000
REMARK SMILES CC(=O)[O-]
REMARK SMILES IDX 1 1 2 2 3 3 4 4
REMARK H PARENT
REMARK Flexibility Score: inf
ROOT
ATOM      1  C   UNL     1      19.220   5.752  10.592  1.00  0.00     0.063 C 
ATOM      2  C   UNL     1      19.773   6.846   9.742  1.00  0.00     0.038 C 
ATOM      3  O   UNL     1      20.537   6.572   8.779  1.00  0.00    -0.550 OA
ATOM      4  O   UNL     1      19.492   8.171  10.044  1.00  0.00    -0.550 OA
ENDROOT
TORSDOF 0
ENDMDL
MODEL 5
REMARK VINA RESULT:    -2.258      2.576      2.876
REMARK INTER + INTRA:          -2.258
REMARK INTER:                  -2.258
REMARK INTRA:                   0.000
REMARK UNBOUND:                 0.000
REMARK SMILES CC(=O)[O-]
REMARK SMILES IDX 1 1 2 2 3 3 4 4
REMARK H PARENT
REMARK Flexibility Score: inf
ROOT
ATOM      1  C   UNL     1      19.132   5.732  10.661  1.00  0.00     0.063 C 
ATOM      2  C   UNL     1      19.870   7.026  10.738  1.00  0.00     0.038 C 
ATOM      3  O   UNL     1      20.865   7.140  11.500  1.00  0.00    -0.550 OA
ATOM      4  O   UNL     1      19.428   8.123  10.012  1.00  0.00    -0.550 OA
ENDROOT
TORSDOF 0
ENDMDL
MODEL 6
REMARK VINA RESULT:    -2.217      7.443      7.728
REMARK INTER + INTRA:          -2.217
REMARK INTER:                  -2.217
REMARK INTRA:                   0.000
REMARK UNBOUND:                 0.000
REMARK SMILES CC(=O)[O-]
REMARK SMILES IDX 1 1 2 2 3 3 4 4
REMARK H PARENT
REMARK Flexibility Score: inf
ROOT
ATOM      1  C   UNL     1      17.438   2.418   4.398  1.00  0.00     0.063 C 
ATOM      2  C   UNL     1      18.040   2.878   3.113  1.00  0.00     0.038 C 
ATOM      3  O   UNL     1      17.526   3.839   2.483  1.00  0.00    -0.550 OA
ATOM      4  O   UNL     1      19.137   2.213   2.581  1.00  0.00    -0.550 OA
ENDROOT
TORSDOF 0
ENDMDL
MODEL 7
REMARK VINA RESULT:    -2.151      2.463      2.722
REMARK INTER + INTRA:          -2.151
REMARK INTER:                  -2.151
REMARK INTRA:                   0.000
REMARK UNBOUND:                 0.000
REMARK SMILES CC(=O)[O-]
REMARK SMILES IDX 1 1 2 2 3 3 4 4
REMARK H PARENT
REMARK Flexibility Score: inf
ROOT
ATOM      1  C   UNL     1      19.808   8.214   9.479  1.00  0.00     0.063 C 
ATOM      2  C   UNL     1      19.713   7.824  10.916  1.00  0.00     0.038 C 
ATOM      3  O   UNL     1      18.844   6.994  11.289  1.00  0.00    -0.550 OA
ATOM      4  O   UNL     1      20.547   8.418  11.853  1.00  0.00    -0.550 OA
ENDROOT
TORSDOF 0
ENDMDL
MODEL 8
REMARK VINA RESULT:    -2.125      1.735      1.995
REMARK INTER + INTRA:          -2.125
REMARK INTER:                  -2.125
REMARK INTRA:                   0.000
REMARK UNBOUND:                 0.000
REMARK SMILES CC(=O)[O-]
REMARK SMILES IDX 1 1 2 2 3 3 4 4
REMARK H PARENT
REMARK Flexibility Score: inf
ROOT
ATOM      1  C   UNL     1      20.562   8.191   9.024  1.00  0.00     0.063 C 
ATOM      2  C   UNL     1      19.694   7.127   8.440  1.00  0.00     0.038 C 
ATOM      3  O   UNL     1      19.303   7.216   7.247  1.00  0.00    -0.550 OA
ATOM      4  O   UNL     1      19.271   6.065   9.227  1.00  0.00    -0.550 OA
ENDROOT
TORSDOF 0
ENDMDL
MODEL 9
REMARK VINA RESULT:    -2.110      2.139      2.772
REMARK INTER + INTRA:          -2.110
REMARK INTER:                  -2.110
REMARK INTRA:                   0.000
REMARK UNBOUND:                 0.000
REMARK SMILES CC(=O)[O-]
REMARK SMILES IDX 1 1 2 2 3 3 4 4
REMARK H PARENT
REMARK Flexibility Score: inf
ROOT
ATOM      1  C   UNL     1      19.778   7.127   8.975  1.00  0.00     0.063 C 
ATOM      2  C   UNL     1      19.493   6.635  10.354  1.00  0.00     0.038 C 
ATOM      3  O   UNL     1      19.543   7.428  11.331  1.00  0.00    -0.550 OA
ATOM      4  O   UNL     1      19.224   5.290  10.571  1.00  0.00    -0.550 OA
ENDROOT
TORSDOF 0
ENDMDL
