MODEL 1
REMARK VINA RESULT:    -5.539      0.000      0.000
REMARK INTER + INTRA:          -9.953
REMARK INTER:                  -8.454
REMARK INTRA:                  -1.499
REMARK UNBOUND:                -1.499
REMARK SMILES OC[C@@H]1O[C@@](CO)(O[C@H]2O[C@H](CO)[C@H](O)[C@@H](O)[C@H]2O)[C@@H](O)[C@H]1O
REMARK SMILES IDX 8 1 9 2 11 3 14 4 10 5 16 6 18 7 12 8 13 9 15 11 17 13 19 15
REMARK SMILES IDX 5 17 20 18 4 19 22 20 3 21 6 22 7 23 21 25 23 27 2 29 1 30
REMARK H PARENT 13 10 15 12 17 14 19 16 7 24 21 26 23 28 1 31
REMARK Flexibility Score: inf
ROOT
ATOM      1  O   UNL     1     101.448  85.030  85.317  1.00  0.00    -0.313 OA
ENDROOT
BRANCH   1   2
ATOM      2  C   UNL     1     100.490  85.395  86.320  1.00  0.00     0.285 C 
ATOM      3  C   UNL     1      98.228  85.027  86.890  1.00  0.00     0.178 C 
ATOM      4  C   UNL     1      98.399  86.207  87.909  1.00  0.00     0.177 C 
ATOM      5  O   UNL     1      99.446  84.451  86.422  1.00  0.00    -0.341 OA
ATOM      6  C   UNL     1      99.746  86.100  88.675  1.00  0.00     0.179 C 
ATOM      7  C   UNL     1     100.969  85.838  87.734  1.00  0.00     0.202 C 
BRANCH   3   8
ATOM      8  C   UNL     1      97.320  85.371  85.694  1.00  0.00     0.191 C 
BRANCH   8   9
ATOM      9  O   UNL     1      97.309  84.326  84.758  1.00  0.00    -0.394 OA
ATOM     10  H   UNL     1      96.388  83.953  84.759  1.00  0.00     0.210 HD
ENDBRANCH   8   9
ENDBRANCH   3   8
BRANCH   4  11
ATOM     11  O   UNL     1      98.225  87.467  87.292  1.00  0.00    -0.387 OA
ATOM     12  H   UNL     1      97.300  87.792  87.439  1.00  0.00     0.211 HD
ENDBRANCH   4  11
BRANCH   6  13
ATOM     13  O   UNL     1      99.643  85.119  89.680  1.00  0.00    -0.387 OA
ATOM     14  H   UNL     1      99.875  85.545  90.546  1.00  0.00     0.211 HD
ENDBRANCH   6  13
BRANCH   7  15
ATOM     15  O   UNL     1     101.802  84.882  88.329  1.00  0.00    -0.385 OA
ATOM     16  H   UNL     1     102.666  84.908  87.840  1.00  0.00     0.211 HD
ENDBRANCH   7  15
ENDBRANCH   1   2
BRANCH   1  17
ATOM     17  C   UNL     1     101.240  85.284  83.924  1.00  0.00     0.224 C 
ATOM     18  C   UNL     1     100.771  84.063  83.079  1.00  0.00     0.208 C 
ATOM     19  O   UNL     1     100.169  86.216  83.846  1.00  0.00    -0.337 OA
ATOM     20  C   UNL     1      99.994  84.738  81.973  1.00  0.00     0.180 C 
ATOM     21  C   UNL     1      99.378  85.923  82.706  1.00  0.00     0.179 C 
BRANCH  17  22
ATOM     22  C   UNL     1     102.504  85.995  83.326  1.00  0.00     0.225 C 
BRANCH  22  23
ATOM     23  O   UNL     1     103.655  85.733  84.085  1.00  0.00    -0.391 OA
ATOM     24  H   UNL     1     103.352  85.612  85.023  1.00  0.00     0.210 HD
ENDBRANCH  22  23
ENDBRANCH  17  22
BRANCH  18  25
ATOM     25  O   UNL     1      99.921  83.189  83.786  1.00  0.00    -0.385 OA
ATOM     26  H   UNL     1     100.296  83.039  84.693  1.00  0.00     0.211 HD
ENDBRANCH  18  25
BRANCH  20  27
ATOM     27  O   UNL     1      99.002  83.906  81.429  1.00  0.00    -0.387 OA
ATOM     28  H   UNL     1      99.431  83.025  81.272  1.00  0.00     0.211 HD
ENDBRANCH  20  27
BRANCH  21  29
ATOM     29  C   UNL     1      99.247  87.157  81.804  1.00  0.00     0.191 C 
BRANCH  29  30
ATOM     30  O   UNL     1      98.684  86.803  80.570  1.00  0.00    -0.394 OA
ATOM     31  H   UNL     1      97.715  87.013  80.627  1.00  0.00     0.210 HD
ENDBRANCH  29  30
ENDBRANCH  21  29
ENDBRANCH   1  17
TORSDOF 13
ENDMDL
MODEL 2
REMARK VINA RESULT:    -5.374      6.141      9.065
REMARK INTER + INTRA:          -9.700
REMARK INTER:                  -8.667
REMARK INTRA:                  -1.033
REMARK UNBOUND:                -1.499
REMARK SMILES OC[C@@H]1O[C@@](CO)(O[C@H]2O[C@H](CO)[C@H](O)[C@@H](O)[C@H]2O)[C@@H](O)[C@H]1O
REMARK SMILES IDX 8 1 9 2 11 3 14 4 10 5 16 6 18 7 12 8 13 9 15 11 17 13 19 15
REMARK SMILES IDX 5 17 20 18 4 19 22 20 3 21 6 22 7 23 21 25 23 27 2 29 1 30
REMARK H PARENT 13 10 15 12 17 14 19 16 7 24 21 26 23 28 1 31
REMARK Flexibility Score: inf
ROOT
ATOM      1  O   UNL     1      93.657  86.141  79.599  1.00  0.00    -0.313 OA
ENDROOT
BRANCH   1   2
ATOM      2  C   UNL     1      92.391  85.626  80.036  1.00  0.00     0.285 C 
ATOM      3  C   UNL     1      90.937  85.714  81.895  1.00  0.00     0.178 C 
ATOM      4  C   UNL     1      90.177  84.515  81.228  1.00  0.00     0.177 C 
ATOM      5  O   UNL     1      91.800  86.443  81.022  1.00  0.00    -0.341 OA
ATOM      6  C   UNL     1      90.005  84.735  79.701  1.00  0.00     0.179 C 
ATOM      7  C   UNL     1      91.329  85.174  78.990  1.00  0.00     0.202 C 
BRANCH   3   8
ATOM      8  C   UNL     1      91.698  85.328  83.177  1.00  0.00     0.191 C 
BRANCH   8   9
ATOM      9  O   UNL     1      90.839  84.721  84.104  1.00  0.00    -0.394 OA
ATOM     10  H   UNL     1      90.687  85.384  84.829  1.00  0.00     0.210 HD
ENDBRANCH   8   9
ENDBRANCH   3   8
BRANCH   4  11
ATOM     11  O   UNL     1      90.781  83.274  81.533  1.00  0.00    -0.387 OA
ATOM     12  H   UNL     1      91.517  83.405  82.183  1.00  0.00     0.211 HD
ENDBRANCH   4  11
BRANCH   6  13
ATOM     13  O   UNL     1      88.961  85.652  79.468  1.00  0.00    -0.387 OA
ATOM     14  H   UNL     1      88.889  86.238  80.266  1.00  0.00     0.211 HD
ENDBRANCH   6  13
BRANCH   7  15
ATOM     15  O   UNL     1      91.035  86.189  78.069  1.00  0.00    -0.385 OA
ATOM     16  H   UNL     1      91.738  86.155  77.369  1.00  0.00     0.211 HD
ENDBRANCH   7  15
ENDBRANCH   1   2
BRANCH   1  17
ATOM     17  C   UNL     1      94.902  85.543  79.974  1.00  0.00     0.224 C 
ATOM     18  C   UNL     1      96.165  86.118  79.270  1.00  0.00     0.208 C 
ATOM     19  O   UNL     1      95.085  85.838  81.353  1.00  0.00    -0.337 OA
ATOM     20  C   UNL     1      97.236  85.861  80.305  1.00  0.00     0.180 C 
ATOM     21  C   UNL     1      96.464  86.058  81.603  1.00  0.00     0.179 C 
BRANCH  17  22
ATOM     22  C   UNL     1      94.790  83.983  79.856  1.00  0.00     0.225 C 
BRANCH  22  23
ATOM     23  O   UNL     1      94.509  83.580  78.542  1.00  0.00    -0.391 OA
ATOM     24  H   UNL     1      94.285  84.405  78.036  1.00  0.00     0.210 HD
ENDBRANCH  22  23
ENDBRANCH  17  22
BRANCH  18  25
ATOM     25  O   UNL     1      96.080  87.501  79.014  1.00  0.00    -0.385 OA
ATOM     26  H   UNL     1      96.330  87.669  78.068  1.00  0.00     0.211 HD
ENDBRANCH  18  25
BRANCH  20  27
ATOM     27  O   UNL     1      98.305  86.767  80.207  1.00  0.00    -0.387 OA
ATOM     28  H   UNL     1      98.936  86.384  79.544  1.00  0.00     0.211 HD
ENDBRANCH  20  27
BRANCH  21  29
ATOM     29  C   UNL     1      96.967  85.136  82.722  1.00  0.00     0.191 C 
BRANCH  29  30
ATOM     30  O   UNL     1      97.986  84.300  82.244  1.00  0.00    -0.394 OA
ATOM     31  H   UNL     1      97.567  83.686  81.586  1.00  0.00     0.210 HD
ENDBRANCH  29  30
ENDBRANCH  21  29
ENDBRANCH   1  17
TORSDOF 13
ENDMDL
MODEL 3
REMARK VINA RESULT:    -5.372      5.115      7.710
REMARK INTER + INTRA:          -9.697
REMARK INTER:                  -9.191
REMARK INTRA:                  -0.507
REMARK UNBOUND:                -1.499
REMARK SMILES OC[C@@H]1O[C@@](CO)(O[C@H]2O[C@H](CO)[C@H](O)[C@@H](O)[C@H]2O)[C@@H](O)[C@H]1O
REMARK SMILES IDX 8 1 9 2 11 3 14 4 10 5 16 6 18 7 12 8 13 9 15 11 17 13 19 15
REMARK SMILES IDX 5 17 20 18 4 19 22 20 3 21 6 22 7 23 21 25 23 27 2 29 1 30
REMARK H PARENT 13 10 15 12 17 14 19 16 7 24 21 26 23 28 1 31
REMARK Flexibility Score: inf
ROOT
ATOM      1  O   UNL     1      94.378  85.270  81.735  1.00  0.00    -0.313 OA
ENDROOT
BRANCH   1   2
ATOM      2  C   UNL     1      95.777  85.589  81.756  1.00  0.00     0.285 C 
ATOM      3  C   UNL     1      97.879  84.560  81.449  1.00  0.00     0.178 C 
ATOM      4  C   UNL     1      98.494  85.864  82.066  1.00  0.00     0.177 C 
ATOM      5  O   UNL     1      96.536  84.685  80.984  1.00  0.00    -0.341 OA
ATOM      6  C   UNL     1      97.810  87.135  81.493  1.00  0.00     0.179 C 
ATOM      7  C   UNL     1      96.247  87.053  81.508  1.00  0.00     0.202 C 
BRANCH   3   8
ATOM      8  C   UNL     1      98.001  83.327  82.364  1.00  0.00     0.191 C 
BRANCH   8   9
ATOM      9  O   UNL     1      99.263  83.278  82.972  1.00  0.00    -0.394 OA
ATOM     10  H   UNL     1      99.871  83.830  82.413  1.00  0.00     0.210 HD
ENDBRANCH   8   9
ENDBRANCH   3   8
BRANCH   4  11
ATOM     11  O   UNL     1      98.485  85.834  83.479  1.00  0.00    -0.387 OA
ATOM     12  H   UNL     1      98.788  84.947  83.801  1.00  0.00     0.211 HD
ENDBRANCH   4  11
BRANCH   6  13
ATOM     13  O   UNL     1      98.305  87.398  80.200  1.00  0.00    -0.387 OA
ATOM     14  H   UNL     1      99.285  87.535  80.272  1.00  0.00     0.211 HD
ENDBRANCH   6  13
BRANCH   7  15
ATOM     15  O   UNL     1      95.753  87.565  80.301  1.00  0.00    -0.385 OA
ATOM     16  H   UNL     1      96.390  88.267  80.004  1.00  0.00     0.211 HD
ENDBRANCH   7  15
ENDBRANCH   1   2
BRANCH   1  17
ATOM     17  C   UNL     1      93.672  84.981  80.524  1.00  0.00     0.224 C 
ATOM     18  C   UNL     1      92.361  84.158  80.688  1.00  0.00     0.208 C 
ATOM     19  O   UNL     1      93.252  86.235  80.000  1.00  0.00    -0.337 OA
ATOM     20  C   UNL     1      91.555  84.626  79.499  1.00  0.00     0.180 C 
ATOM     21  C   UNL     1      91.980  86.084  79.393  1.00  0.00     0.179 C 
BRANCH  17  22
ATOM     22  C   UNL     1      94.660  84.360  79.477  1.00  0.00     0.225 C 
BRANCH  22  23
ATOM     23  O   UNL     1      95.140  85.326  78.580  1.00  0.00    -0.391 OA
ATOM     24  H   UNL     1      94.713  86.185  78.835  1.00  0.00     0.210 HD
ENDBRANCH  22  23
ENDBRANCH  17  22
BRANCH  18  25
ATOM     25  O   UNL     1      91.661  84.452  81.876  1.00  0.00    -0.385 OA
ATOM     26  H   UNL     1      91.352  85.394  81.842  1.00  0.00     0.211 HD
ENDBRANCH  18  25
BRANCH  20  27
ATOM     27  O   UNL     1      90.171  84.514  79.711  1.00  0.00    -0.387 OA
ATOM     28  H   UNL     1      90.011  83.588  80.031  1.00  0.00     0.211 HD
ENDBRANCH  20  27
BRANCH  21  29
ATOM     29  C   UNL     1      92.012  86.574  77.939  1.00  0.00     0.191 C 
BRANCH  29  30
ATOM     30  O   UNL     1      93.258  87.143  77.641  1.00  0.00    -0.394 OA
ATOM     31  H   UNL     1      93.332  87.968  78.189  1.00  0.00     0.210 HD
ENDBRANCH  29  30
ENDBRANCH  21  29
ENDBRANCH   1  17
TORSDOF 13
ENDMDL
MODEL 4
REMARK VINA RESULT:    -5.151      4.574      7.645
REMARK INTER + INTRA:          -9.360
REMARK INTER:                  -8.227
REMARK INTRA:                  -1.132
REMARK UNBOUND:                -1.499
REMARK SMILES OC[C@@H]1O[C@@](CO)(O[C@H]2O[C@H](CO)[C@H](O)[C@@H](O)[C@H]2O)[C@@H](O)[C@H]1O
REMARK SMILES IDX 8 1 9 2 11 3 14 4 10 5 16 6 18 7 12 8 13 9 15 11 17 13 19 15
REMARK SMILES IDX 5 17 20 18 4 19 22 20 3 21 6 22 7 23 21 25 23 27 2 29 1 30
REMARK H PARENT 13 10 15 12 17 14 19 16 7 24 21 26 23 28 1 31
REMARK Flexibility Score: inf
ROOT
ATOM      1  O   UNL     1      95.610  86.753  81.459  1.00  0.00    -0.313 OA
ENDROOT
BRANCH   1   2
ATOM      2  C   UNL     1      94.506  86.054  80.865  1.00  0.00     0.285 C 
ATOM      3  C   UNL     1      92.205  85.657  81.219  1.00  0.00     0.178 C 
ATOM      4  C   UNL     1      92.333  84.543  80.122  1.00  0.00     0.177 C 
ATOM      5  O   UNL     1      93.265  86.613  81.238  1.00  0.00    -0.341 OA
ATOM      6  C   UNL     1      93.180  85.034  78.917  1.00  0.00     0.179 C 
ATOM      7  C   UNL     1      94.522  85.717  79.345  1.00  0.00     0.202 C 
BRANCH   3   8
ATOM      8  C   UNL     1      91.978  85.103  82.639  1.00  0.00     0.191 C 
BRANCH   8   9
ATOM      9  O   UNL     1      90.910  84.195  82.656  1.00  0.00    -0.394 OA
ATOM     10  H   UNL     1      91.229  83.389  83.141  1.00  0.00     0.210 HD
ENDBRANCH   8   9
ENDBRANCH   3   8
BRANCH   4  11
ATOM     11  O   UNL     1      92.809  83.326  80.660  1.00  0.00    -0.387 OA
ATOM     12  H   UNL     1      93.658  83.069  80.217  1.00  0.00     0.211 HD
ENDBRANCH   4  11
BRANCH   6  13
ATOM     13  O   UNL     1      92.402  85.882  78.104  1.00  0.00    -0.387 OA
ATOM     14  H   UNL     1      92.547  85.614  77.159  1.00  0.00     0.211 HD
ENDBRANCH   6  13
BRANCH   7  15
ATOM     15  O   UNL     1      94.723  86.858  78.557  1.00  0.00    -0.385 OA
ATOM     16  H   UNL     1      95.394  86.616  77.866  1.00  0.00     0.211 HD
ENDBRANCH   7  15
ENDBRANCH   1   2
BRANCH   1  17
ATOM     17  C   UNL     1      96.875  86.131  81.701  1.00  0.00     0.224 C 
ATOM     18  C   UNL     1      97.481  86.361  83.117  1.00  0.00     0.208 C 
ATOM     19  O   UNL     1      96.650  84.729  81.624  1.00  0.00    -0.337 OA
ATOM     20  C   UNL     1      98.313  85.113  83.300  1.00  0.00     0.180 C 
ATOM     21  C   UNL     1      97.471  84.072  82.575  1.00  0.00     0.179 C 
BRANCH  17  22
ATOM     22  C   UNL     1      97.868  86.494  80.542  1.00  0.00     0.225 C 
BRANCH  22  23
ATOM     23  O   UNL     1      97.435  87.617  79.820  1.00  0.00    -0.391 OA
ATOM     24  H   UNL     1      96.462  87.493  79.664  1.00  0.00     0.210 HD
ENDBRANCH  22  23
ENDBRANCH  17  22
BRANCH  18  25
ATOM     25  O   UNL     1      96.508  86.433  84.135  1.00  0.00    -0.385 OA
ATOM     26  H   UNL     1      96.423  85.541  84.561  1.00  0.00     0.211 HD
ENDBRANCH  18  25
BRANCH  20  27
ATOM     27  O   UNL     1      98.483  84.777  84.653  1.00  0.00    -0.387 OA
ATOM     28  H   UNL     1      97.648  85.047  85.116  1.00  0.00     0.211 HD
ENDBRANCH  20  27
BRANCH  21  29
ATOM     29  C   UNL     1      98.334  82.998  81.899  1.00  0.00     0.191 C 
BRANCH  29  30
ATOM     30  O   UNL     1      99.506  83.569  81.381  1.00  0.00    -0.394 OA
ATOM     31  H   UNL     1      99.265  83.965  80.503  1.00  0.00     0.210 HD
ENDBRANCH  29  30
ENDBRANCH  21  29
ENDBRANCH   1  17
TORSDOF 13
ENDMDL
MODEL 5
REMARK VINA RESULT:    -5.056      2.273      5.628
REMARK INTER + INTRA:          -9.216
REMARK INTER:                  -7.522
REMARK INTRA:                  -1.694
REMARK UNBOUND:                -1.499
REMARK SMILES OC[C@@H]1O[C@@](CO)(O[C@H]2O[C@H](CO)[C@H](O)[C@@H](O)[C@H]2O)[C@@H](O)[C@H]1O
REMARK SMILES IDX 8 1 9 2 11 3 14 4 10 5 16 6 18 7 12 8 13 9 15 11 17 13 19 15
REMARK SMILES IDX 5 17 20 18 4 19 22 20 3 21 6 22 7 23 21 25 23 27 2 29 1 30
REMARK H PARENT 13 10 15 12 17 14 19 16 7 24 21 26 23 28 1 31
REMARK Flexibility Score: inf
ROOT
ATOM      1  O   UNL     1      97.675  87.107  84.224  1.00  0.00    -0.313 OA
ENDROOT
BRANCH   1   2
ATOM      2  C   UNL     1      97.361  86.748  82.871  1.00  0.00     0.285 C 
ATOM      3  C   UNL     1      96.938  84.837  81.549  1.00  0.00     0.178 C 
ATOM      4  C   UNL     1      97.093  85.786  80.310  1.00  0.00     0.177 C 
ATOM      5  O   UNL     1      96.710  85.499  82.793  1.00  0.00    -0.341 OA
ATOM      6  C   UNL     1      96.359  87.136  80.538  1.00  0.00     0.179 C 
ATOM      7  C   UNL     1      96.679  87.782  81.927  1.00  0.00     0.202 C 
BRANCH   3   8
ATOM      8  C   UNL     1      98.091  83.827  81.701  1.00  0.00     0.191 C 
BRANCH   8   9
ATOM      9  O   UNL     1      98.036  83.189  82.948  1.00  0.00    -0.394 OA
ATOM     10  H   UNL     1      97.184  83.470  83.376  1.00  0.00     0.210 HD
ENDBRANCH   8   9
ENDBRANCH   3   8
BRANCH   4  11
ATOM     11  O   UNL     1      98.447  85.960  79.944  1.00  0.00    -0.387 OA
ATOM     12  H   UNL     1      98.506  86.314  79.020  1.00  0.00     0.211 HD
ENDBRANCH   4  11
BRANCH   6  13
ATOM     13  O   UNL     1      94.974  86.959  80.353  1.00  0.00    -0.387 OA
ATOM     14  H   UNL     1      94.584  87.842  80.119  1.00  0.00     0.211 HD
ENDBRANCH   6  13
BRANCH   7  15
ATOM     15  O   UNL     1      95.494  88.290  82.475  1.00  0.00    -0.385 OA
ATOM     16  H   UNL     1      94.753  87.719  82.141  1.00  0.00     0.211 HD
ENDBRANCH   7  15
ENDBRANCH   1   2
BRANCH   1  17
ATOM     17  C   UNL     1      98.892  86.708  84.864  1.00  0.00     0.224 C 
ATOM     18  C   UNL     1      98.775  85.504  85.843  1.00  0.00     0.208 C 
ATOM     19  O   UNL     1      99.755  86.256  83.829  1.00  0.00    -0.337 OA
ATOM     20  C   UNL     1     100.163  84.911  85.765  1.00  0.00     0.180 C 
ATOM     21  C   UNL     1     100.525  85.166  84.308  1.00  0.00     0.179 C 
BRANCH  17  22
ATOM     22  C   UNL     1      99.578  87.961  85.511  1.00  0.00     0.225 C 
BRANCH  22  23
ATOM     23  O   UNL     1     100.507  88.552  84.641  1.00  0.00    -0.391 OA
ATOM     24  H   UNL     1     100.494  89.526  84.834  1.00  0.00     0.210 HD
ENDBRANCH  22  23
ENDBRANCH  17  22
BRANCH  18  25
ATOM     25  O   UNL     1      97.828  84.542  85.436  1.00  0.00    -0.385 OA
ATOM     26  H   UNL     1      97.589  83.977  86.216  1.00  0.00     0.211 HD
ENDBRANCH  18  25
BRANCH  20  27
ATOM     27  O   UNL     1     100.177  83.538  86.060  1.00  0.00    -0.387 OA
ATOM     28  H   UNL     1      99.435  83.381  86.700  1.00  0.00     0.211 HD
ENDBRANCH  20  27
BRANCH  21  29
ATOM     29  C   UNL     1     102.025  85.438  84.124  1.00  0.00     0.191 C 
BRANCH  29  30
ATOM     30  O   UNL     1     102.512  86.221  85.179  1.00  0.00    -0.394 OA
ATOM     31  H   UNL     1     102.050  87.098  85.120  1.00  0.00     0.210 HD
ENDBRANCH  29  30
ENDBRANCH  21  29
ENDBRANCH   1  17
TORSDOF 13
ENDMDL
MODEL 6
REMARK VINA RESULT:    -5.040      6.140      7.925
REMARK INTER + INTRA:          -9.192
REMARK INTER:                  -7.518
REMARK INTRA:                  -1.674
REMARK UNBOUND:                -1.499
REMARK SMILES OC[C@@H]1O[C@@](CO)(O[C@H]2O[C@H](CO)[C@H](O)[C@@H](O)[C@H]2O)[C@@H](O)[C@H]1O
REMARK SMILES IDX 8 1 9 2 11 3 14 4 10 5 16 6 18 7 12 8 13 9 15 11 17 13 19 15
REMARK SMILES IDX 5 17 20 18 4 19 22 20 3 21 6 22 7 23 21 25 23 27 2 29 1 30
REMARK H PARENT 13 10 15 12 17 14 19 16 7 24 21 26 23 28 1 31
REMARK Flexibility Score: inf
ROOT
ATOM      1  O   UNL     1      94.318  85.112  81.575  1.00  0.00    -0.313 OA
ENDROOT
BRANCH   1   2
ATOM      2  C   UNL     1      94.081  86.239  82.430  1.00  0.00     0.285 C 
ATOM      3  C   UNL     1      92.319  87.296  83.595  1.00  0.00     0.178 C 
ATOM      4  C   UNL     1      93.307  88.499  83.791  1.00  0.00     0.177 C 
ATOM      5  O   UNL     1      92.935  86.060  83.234  1.00  0.00    -0.341 OA
ATOM      6  C   UNL     1      94.727  88.004  84.180  1.00  0.00     0.179 C 
ATOM      7  C   UNL     1      95.247  86.846  83.265  1.00  0.00     0.202 C 
BRANCH   3   8
ATOM      8  C   UNL     1      91.158  87.602  82.630  1.00  0.00     0.191 C 
BRANCH   8   9
ATOM      9  O   UNL     1      90.318  86.488  82.490  1.00  0.00    -0.394 OA
ATOM     10  H   UNL     1      89.742  86.664  81.699  1.00  0.00     0.210 HD
ENDBRANCH   8   9
ENDBRANCH   3   8
BRANCH   4  11
ATOM     11  O   UNL     1      93.321  89.358  82.670  1.00  0.00    -0.387 OA
ATOM     12  H   UNL     1      93.246  88.828  81.835  1.00  0.00     0.211 HD
ENDBRANCH   4  11
BRANCH   6  13
ATOM     13  O   UNL     1      94.746  87.640  85.541  1.00  0.00    -0.387 OA
ATOM     14  H   UNL     1      93.945  88.037  85.973  1.00  0.00     0.211 HD
ENDBRANCH   6  13
BRANCH   7  15
ATOM     15  O   UNL     1      95.876  85.882  84.065  1.00  0.00    -0.385 OA
ATOM     16  H   UNL     1      95.746  85.006  83.616  1.00  0.00     0.211 HD
ENDBRANCH   7  15
ENDBRANCH   1   2
BRANCH   1  17
ATOM     17  C   UNL     1      93.630  84.928  80.334  1.00  0.00     0.224 C 
ATOM     18  C   UNL     1      92.356  84.035  80.396  1.00  0.00     0.208 C 
ATOM     19  O   UNL     1      93.158  86.212  79.947  1.00  0.00    -0.337 OA
ATOM     20  C   UNL     1      91.535  84.596  79.258  1.00  0.00     0.180 C 
ATOM     21  C   UNL     1      91.896  86.074  79.316  1.00  0.00     0.179 C 
BRANCH  17  22
ATOM     22  C   UNL     1      94.648  84.469  79.233  1.00  0.00     0.225 C 
BRANCH  22  23
ATOM     23  O   UNL     1      95.322  85.558  78.662  1.00  0.00    -0.391 OA
ATOM     24  H   UNL     1      96.282  85.449  78.894  1.00  0.00     0.210 HD
ENDBRANCH  22  23
ENDBRANCH  17  22
BRANCH  18  25
ATOM     25  O   UNL     1      91.640  84.167  81.603  1.00  0.00    -0.385 OA
ATOM     26  H   UNL     1      90.704  84.423  81.395  1.00  0.00     0.211 HD
ENDBRANCH  18  25
BRANCH  20  27
ATOM     27  O   UNL     1      90.156  84.401  79.445  1.00  0.00    -0.387 OA
ATOM     28  H   UNL     1      89.699  84.982  78.783  1.00  0.00     0.211 HD
ENDBRANCH  20  27
BRANCH  21  29
ATOM     29  C   UNL     1      91.911  86.721  77.924  1.00  0.00     0.191 C 
BRANCH  29  30
ATOM     30  O   UNL     1      93.206  87.148  77.598  1.00  0.00    -0.394 OA
ATOM     31  H   UNL     1      93.834  86.513  78.033  1.00  0.00     0.210 HD
ENDBRANCH  29  30
ENDBRANCH  21  29
ENDBRANCH   1  17
TORSDOF 13
ENDMDL
MODEL 7
REMARK VINA RESULT:    -4.982      3.887      5.982
REMARK INTER + INTRA:          -9.102
REMARK INTER:                  -7.876
REMARK INTRA:                  -1.226
REMARK UNBOUND:                -1.499
REMARK SMILES OC[C@@H]1O[C@@](CO)(O[C@H]2O[C@H](CO)[C@H](O)[C@@H](O)[C@H]2O)[C@@H](O)[C@H]1O
REMARK SMILES IDX 8 1 9 2 11 3 14 4 10 5 16 6 18 7 12 8 13 9 15 11 17 13 19 15
REMARK SMILES IDX 5 17 20 18 4 19 22 20 3 21 6 22 7 23 21 25 23 27 2 29 1 30
REMARK H PARENT 13 10 15 12 17 14 19 16 7 24 21 26 23 28 1 31
REMARK Flexibility Score: inf
ROOT
ATOM      1  O   UNL     1      96.670  84.674  80.940  1.00  0.00    -0.313 OA
ENDROOT
BRANCH   1   2
ATOM      2  C   UNL     1      97.568  84.912  82.033  1.00  0.00     0.285 C 
ATOM      3  C   UNL     1      97.550  85.123  84.385  1.00  0.00     0.178 C 
ATOM      4  C   UNL     1      99.009  85.680  84.244  1.00  0.00     0.177 C 
ATOM      5  O   UNL     1      97.063  84.408  83.250  1.00  0.00    -0.341 OA
ATOM      6  C   UNL     1      99.837  84.842  83.232  1.00  0.00     0.179 C 
ATOM      7  C   UNL     1      99.082  84.579  81.887  1.00  0.00     0.202 C 
BRANCH   3   8
ATOM      8  C   UNL     1      96.521  86.188  84.810  1.00  0.00     0.191 C 
BRANCH   8   9
ATOM      9  O   UNL     1      95.253  85.895  84.289  1.00  0.00    -0.394 OA
ATOM     10  H   UNL     1      95.179  86.387  83.428  1.00  0.00     0.210 HD
ENDBRANCH   8   9
ENDBRANCH   3   8
BRANCH   4  11
ATOM     11  O   UNL     1      99.020  87.061  83.940  1.00  0.00    -0.387 OA
ATOM     12  H   UNL     1      98.137  87.461  84.148  1.00  0.00     0.211 HD
ENDBRANCH   4  11
BRANCH   6  13
ATOM     13  O   UNL     1     100.251  83.639  83.840  1.00  0.00    -0.387 OA
ATOM     14  H   UNL     1     101.203  83.491  83.602  1.00  0.00     0.211 HD
ENDBRANCH   6  13
BRANCH   7  15
ATOM     15  O   UNL     1      99.291  83.249  81.500  1.00  0.00    -0.385 OA
ATOM     16  H   UNL     1      98.985  83.171  80.559  1.00  0.00     0.211 HD
ENDBRANCH   7  15
ENDBRANCH   1   2
BRANCH   1  17
ATOM     17  C   UNL     1      95.637  85.596  80.576  1.00  0.00     0.224 C 
ATOM     18  C   UNL     1      94.982  85.359  79.184  1.00  0.00     0.208 C 
ATOM     19  O   UNL     1      94.585  85.403  81.512  1.00  0.00    -0.337 OA
ATOM     20  C   UNL     1      93.598  85.926  79.397  1.00  0.00     0.180 C 
ATOM     21  C   UNL     1      93.339  85.569  80.855  1.00  0.00     0.179 C 
BRANCH  17  22
ATOM     22  C   UNL     1      96.153  87.064  80.770  1.00  0.00     0.225 C 
BRANCH  22  23
ATOM     23  O   UNL     1      96.882  87.510  79.657  1.00  0.00    -0.391 OA
ATOM     24  H   UNL     1      97.565  86.814  79.470  1.00  0.00     0.210 HD
ENDBRANCH  22  23
ENDBRANCH  17  22
BRANCH  18  25
ATOM     25  O   UNL     1      94.884  83.997  78.837  1.00  0.00    -0.385 OA
ATOM     26  H   UNL     1      94.308  83.910  78.033  1.00  0.00     0.211 HD
ENDBRANCH  18  25
BRANCH  20  27
ATOM     27  O   UNL     1      92.642  85.338  78.553  1.00  0.00    -0.387 OA
ATOM     28  H   UNL     1      92.343  84.507  79.004  1.00  0.00     0.211 HD
ENDBRANCH  20  27
BRANCH  21  29
ATOM     29  C   UNL     1      92.486  86.627  81.567  1.00  0.00     0.191 C 
BRANCH  29  30
ATOM     30  O   UNL     1      91.623  87.254  80.657  1.00  0.00    -0.394 OA
ATOM     31  H   UNL     1      92.193  87.803  80.057  1.00  0.00     0.210 HD
ENDBRANCH  29  30
ENDBRANCH  21  29
ENDBRANCH   1  17
TORSDOF 13
ENDMDL
MODEL 8
REMARK VINA RESULT:    -4.922      5.461      8.200
REMARK INTER + INTRA:          -9.010
REMARK INTER:                  -7.978
REMARK INTRA:                  -1.032
REMARK UNBOUND:                -1.499
REMARK SMILES OC[C@@H]1O[C@@](CO)(O[C@H]2O[C@H](CO)[C@H](O)[C@@H](O)[C@H]2O)[C@@H](O)[C@H]1O
REMARK SMILES IDX 8 1 9 2 11 3 14 4 10 5 16 6 18 7 12 8 13 9 15 11 17 13 19 15
REMARK SMILES IDX 5 17 20 18 4 19 22 20 3 21 6 22 7 23 21 25 23 27 2 29 1 30
REMARK H PARENT 13 10 15 12 17 14 19 16 7 24 21 26 23 28 1 31
REMARK Flexibility Score: inf
ROOT
ATOM      1  O   UNL     1      94.516  85.004  80.693  1.00  0.00    -0.313 OA
ENDROOT
BRANCH   1   2
ATOM      2  C   UNL     1      95.583  85.832  81.178  1.00  0.00     0.285 C 
ATOM      3  C   UNL     1      97.344  85.791  82.749  1.00  0.00     0.178 C 
ATOM      4  C   UNL     1      97.467  87.334  82.500  1.00  0.00     0.177 C 
ATOM      5  O   UNL     1      96.624  85.072  81.749  1.00  0.00    -0.341 OA
ATOM      6  C   UNL     1      97.366  87.671  80.987  1.00  0.00     0.179 C 
ATOM      7  C   UNL     1      96.160  86.967  80.280  1.00  0.00     0.202 C 
BRANCH   3   8
ATOM      8  C   UNL     1      96.798  85.432  84.144  1.00  0.00     0.191 C 
BRANCH   8   9
ATOM      9  O   UNL     1      97.720  84.654  84.858  1.00  0.00    -0.394 OA
ATOM     10  H   UNL     1      97.470  84.723  85.817  1.00  0.00     0.210 HD
ENDBRANCH   8   9
ENDBRANCH   3   8
BRANCH   4  11
ATOM     11  O   UNL     1      96.547  88.070  83.282  1.00  0.00    -0.387 OA
ATOM     12  H   UNL     1      95.867  87.460  83.667  1.00  0.00     0.211 HD
ENDBRANCH   4  11
BRANCH   6  13
ATOM     13  O   UNL     1      98.588  87.373  80.353  1.00  0.00    -0.387 OA
ATOM     14  H   UNL     1      98.624  87.891  79.507  1.00  0.00     0.211 HD
ENDBRANCH   6  13
BRANCH   7  15
ATOM     15  O   UNL     1      96.583  86.485  79.034  1.00  0.00    -0.385 OA
ATOM     16  H   UNL     1      97.525  86.191  79.143  1.00  0.00     0.211 HD
ENDBRANCH   7  15
ENDBRANCH   1   2
BRANCH   1  17
ATOM     17  C   UNL     1      93.190  85.500  80.483  1.00  0.00     0.224 C 
ATOM     18  C   UNL     1      92.995  86.387  79.218  1.00  0.00     0.208 C 
ATOM     19  O   UNL     1      92.370  84.361  80.260  1.00  0.00    -0.337 OA
ATOM     20  C   UNL     1      91.540  86.140  78.894  1.00  0.00     0.180 C 
ATOM     21  C   UNL     1      91.377  84.682  79.300  1.00  0.00     0.179 C 
BRANCH  17  22
ATOM     22  C   UNL     1      92.672  86.182  81.797  1.00  0.00     0.225 C 
BRANCH  22  23
ATOM     23  O   UNL     1      92.154  85.242  82.701  1.00  0.00    -0.391 OA
ATOM     24  H   UNL     1      91.246  85.558  82.947  1.00  0.00     0.210 HD
ENDBRANCH  22  23
ENDBRANCH  17  22
BRANCH  18  25
ATOM     25  O   UNL     1      93.796  85.989  78.128  1.00  0.00    -0.385 OA
ATOM     26  H   UNL     1      93.674  85.015  77.979  1.00  0.00     0.211 HD
ENDBRANCH  18  25
BRANCH  20  27
ATOM     27  O   UNL     1      91.257  86.322  77.530  1.00  0.00    -0.387 OA
ATOM     28  H   UNL     1      90.330  86.000  77.391  1.00  0.00     0.211 HD
ENDBRANCH  20  27
BRANCH  21  29
ATOM     29  C   UNL     1      89.974  84.388  79.851  1.00  0.00     0.191 C 
BRANCH  29  30
ATOM     30  O   UNL     1      90.061  83.816  81.128  1.00  0.00    -0.394 OA
ATOM     31  H   UNL     1      90.587  84.445  81.687  1.00  0.00     0.210 HD
ENDBRANCH  29  30
ENDBRANCH  21  29
ENDBRANCH   1  17
TORSDOF 13
ENDMDL
MODEL 9
REMARK VINA RESULT:    -4.877      4.982      7.484
REMARK INTER + INTRA:          -8.942
REMARK INTER:                  -8.044
REMARK INTRA:                  -0.899
REMARK UNBOUND:                -1.499
REMARK SMILES OC[C@@H]1O[C@@](CO)(O[C@H]2O[C@H](CO)[C@H](O)[C@@H](O)[C@H]2O)[C@@H](O)[C@H]1O
REMARK SMILES IDX 8 1 9 2 11 3 14 4 10 5 16 6 18 7 12 8 13 9 15 11 17 13 19 15
REMARK SMILES IDX 5 17 20 18 4 19 22 20 3 21 6 22 7 23 21 25 23 27 2 29 1 30
REMARK H PARENT 13 10 15 12 17 14 19 16 7 24 21 26 23 28 1 31
REMARK Flexibility Score: inf
ROOT
ATOM      1  O   UNL     1      95.216  84.480  80.978  1.00  0.00    -0.313 OA
ENDROOT
BRANCH   1   2
ATOM      2  C   UNL     1      96.443  85.151  81.297  1.00  0.00     0.285 C 
ATOM      3  C   UNL     1      97.215  87.172  82.246  1.00  0.00     0.178 C 
ATOM      4  C   UNL     1      98.627  86.774  81.692  1.00  0.00     0.177 C 
ATOM      5  O   UNL     1      96.273  86.103  82.325  1.00  0.00    -0.341 OA
ATOM      6  C   UNL     1      98.927  85.270  81.941  1.00  0.00     0.179 C 
ATOM      7  C   UNL     1      97.748  84.330  81.521  1.00  0.00     0.202 C 
BRANCH   3   8
ATOM      8  C   UNL     1      96.581  88.372  81.517  1.00  0.00     0.191 C 
BRANCH   8   9
ATOM      9  O   UNL     1      95.534  88.919  82.271  1.00  0.00    -0.394 OA
ATOM     10  H   UNL     1      95.718  89.893  82.350  1.00  0.00     0.210 HD
ENDBRANCH   8   9
ENDBRANCH   3   8
BRANCH   4  11
ATOM     11  O   UNL     1      98.785  87.141  80.337  1.00  0.00    -0.387 OA
ATOM     12  H   UNL     1      99.634  87.638  80.217  1.00  0.00     0.211 HD
ENDBRANCH   4  11
BRANCH   6  13
ATOM     13  O   UNL     1      99.292  85.076  83.288  1.00  0.00    -0.387 OA
ATOM     14  H   UNL     1      98.733  85.678  83.844  1.00  0.00     0.211 HD
ENDBRANCH   6  13
BRANCH   7  15
ATOM     15  O   UNL     1      97.584  83.342  82.501  1.00  0.00    -0.385 OA
ATOM     16  H   UNL     1      97.561  83.807  83.378  1.00  0.00     0.211 HD
ENDBRANCH   7  15
ENDBRANCH   1   2
BRANCH   1  17
ATOM     17  C   UNL     1      94.029  85.184  80.599  1.00  0.00     0.224 C 
ATOM     18  C   UNL     1      94.207  86.253  79.481  1.00  0.00     0.208 C 
ATOM     19  O   UNL     1      93.152  84.214  80.042  1.00  0.00    -0.337 OA
ATOM     20  C   UNL     1      92.835  86.262  78.847  1.00  0.00     0.180 C 
ATOM     21  C   UNL     1      92.427  84.801  78.974  1.00  0.00     0.179 C 
BRANCH  17  22
ATOM     22  C   UNL     1      93.324  85.749  81.881  1.00  0.00     0.225 C 
BRANCH  22  23
ATOM     23  O   UNL     1      93.460  87.142  81.978  1.00  0.00    -0.391 OA
ATOM     24  H   UNL     1      94.245  87.308  82.563  1.00  0.00     0.210 HD
ENDBRANCH  22  23
ENDBRANCH  17  22
BRANCH  18  25
ATOM     25  O   UNL     1      95.170  85.896  78.516  1.00  0.00    -0.385 OA
ATOM     26  H   UNL     1      95.119  86.537  77.759  1.00  0.00     0.211 HD
ENDBRANCH  18  25
BRANCH  20  27
ATOM     27  O   UNL     1      92.869  86.666  77.502  1.00  0.00    -0.387 OA
ATOM     28  H   UNL     1      92.106  86.217  77.056  1.00  0.00     0.211 HD
ENDBRANCH  20  27
BRANCH  21  29
ATOM     29  C   UNL     1      90.916  84.639  79.190  1.00  0.00     0.191 C 
BRANCH  29  30
ATOM     30  O   UNL     1      90.213  85.627  78.486  1.00  0.00    -0.394 OA
ATOM     31  H   UNL     1      89.295  85.647  78.863  1.00  0.00     0.210 HD
ENDBRANCH  29  30
ENDBRANCH  21  29
ENDBRANCH   1  17
TORSDOF 13
ENDMDL
