MODEL 1
REMARK VINA RESULT:    -5.508      0.000      0.000
REMARK INTER + INTRA:         -12.528
REMARK INTER:                 -10.338
REMARK INTRA:                  -2.190
REMARK UNBOUND:                -2.190
REMARK SMILES CCCCCCCCC=CCCCCCCCC(=O)[O-]
REMARK SMILES IDX 10 1 9 2 11 3 12 4 13 5 14 6 15 7 16 8 17 9 18 10 19 11
REMARK SMILES IDX 20 12 8 13 7 14 6 15 5 16 4 17 3 18 2 19 1 20
REMARK H PARENT
REMARK Flexibility Score: inf
ROOT
ATOM      1  C   UNL     1     -30.850  -0.974  23.131  1.00  0.00    -0.031 C 
ATOM      2  C   UNL     1     -30.507  -1.865  22.182  1.00  0.00    -0.031 C 
ENDROOT
BRANCH   1   3
ATOM      3  C   UNL     1     -31.000   0.510  22.904  1.00  0.00     0.027 C 
BRANCH   3   4
ATOM      4  C   UNL     1     -29.736   1.292  23.302  1.00  0.00     0.004 C 
BRANCH   4   5
ATOM      5  C   UNL     1     -28.581   1.188  22.289  1.00  0.00     0.000 C 
BRANCH   5   6
ATOM      6  C   UNL     1     -27.245   0.806  22.944  1.00  0.00     0.000 C 
BRANCH   6   7
ATOM      7  C   UNL     1     -27.091  -0.717  23.025  1.00  0.00     0.000 C 
BRANCH   7   8
ATOM      8  C   UNL     1     -26.850  -1.171  24.471  1.00  0.00     0.006 C 
BRANCH   8   9
ATOM      9  C   UNL     1     -28.168  -1.538  25.157  1.00  0.00     0.053 C 
BRANCH   9  10
ATOM     10  C   UNL     1     -28.544  -0.495  26.162  1.00  0.00     0.041 C 
ATOM     11  O   UNL     1     -29.716  -0.447  26.618  1.00  0.00    -0.550 OA
ATOM     12  O   UNL     1     -27.613   0.458  26.552  1.00  0.00    -0.550 OA
ENDBRANCH   9  10
ENDBRANCH   8   9
ENDBRANCH   7   8
ENDBRANCH   6   7
ENDBRANCH   5   6
ENDBRANCH   4   5
ENDBRANCH   3   4
ENDBRANCH   1   3
BRANCH   2  13
ATOM     13  C   UNL     1     -30.305  -1.531  20.727  1.00  0.00     0.027 C 
BRANCH  13  14
ATOM     14  C   UNL     1     -29.065  -2.248  20.173  1.00  0.00     0.004 C 
BRANCH  14  15
ATOM     15  C   UNL     1     -28.085  -1.282  19.488  1.00  0.00     0.000 C 
BRANCH  15  16
ATOM     16  C   UNL     1     -27.975  -1.531  17.973  1.00  0.00     0.000 C 
BRANCH  16  17
ATOM     17  C   UNL     1     -28.665  -2.835  17.541  1.00  0.00    -0.000 C 
BRANCH  17  18
ATOM     18  C   UNL     1     -28.853  -2.924  16.016  1.00  0.00    -0.000 C 
BRANCH  18  19
ATOM     19  C   UNL     1     -27.538  -3.214  15.276  1.00  0.00    -0.003 C 
ATOM     20  C   UNL     1     -27.132  -2.084  14.330  1.00  0.00     0.004 C 
ENDBRANCH  18  19
ENDBRANCH  17  18
ENDBRANCH  16  17
ENDBRANCH  15  16
ENDBRANCH  14  15
ENDBRANCH  13  14
ENDBRANCH   2  13
TORSDOF 15
ENDMDL
MODEL 2
REMARK VINA RESULT:    -5.487      4.260      7.841
REMARK INTER + INTRA:         -12.489
REMARK INTER:                 -10.267
REMARK INTRA:                  -2.222
REMARK UNBOUND:                -2.190
REMARK SMILES CCCCCCCCC=CCCCCCCCC(=O)[O-]
REMARK SMILES IDX 10 1 9 2 11 3 12 4 13 5 14 6 15 7 16 8 17 9 18 10 19 11
REMARK SMILES IDX 20 12 8 13 7 14 6 15 5 16 4 17 3 18 2 19 1 20
REMARK H PARENT
REMARK Flexibility Score: inf
ROOT
ATOM      1  C   UNL     1     -29.369  -2.252  21.800  1.00  0.00    -0.031 C 
ATOM      2  C   UNL     1     -30.068  -2.252  22.950  1.00  0.00    -0.031 C 
ENDROOT
BRANCH   1   3
ATOM      3  C   UNL     1     -29.734  -1.457  20.570  1.00  0.00     0.027 C 
BRANCH   3   4
ATOM      4  C   UNL     1     -28.501  -0.843  19.885  1.00  0.00     0.004 C 
BRANCH   4   5
ATOM      5  C   UNL     1     -28.142  -1.486  18.533  1.00  0.00     0.000 C 
BRANCH   5   6
ATOM      6  C   UNL     1     -28.995  -2.722  18.213  1.00  0.00     0.000 C 
BRANCH   6   7
ATOM      7  C   UNL     1     -28.611  -3.317  16.853  1.00  0.00     0.000 C 
BRANCH   7   8
ATOM      8  C   UNL     1     -27.937  -2.265  15.961  1.00  0.00     0.006 C 
BRANCH   8   9
ATOM      9  C   UNL     1     -27.838  -2.757  14.515  1.00  0.00     0.053 C 
BRANCH   9  10
ATOM     10  C   UNL     1     -26.449  -3.222  14.213  1.00  0.00     0.041 C 
ATOM     11  O   UNL     1     -26.239  -4.416  13.875  1.00  0.00    -0.550 OA
ATOM     12  O   UNL     1     -25.379  -2.348  14.357  1.00  0.00    -0.550 OA
ENDBRANCH   9  10
ENDBRANCH   8   9
ENDBRANCH   7   8
ENDBRANCH   6   7
ENDBRANCH   5   6
ENDBRANCH   4   5
ENDBRANCH   3   4
ENDBRANCH   1   3
BRANCH   2  13
ATOM     13  C   UNL     1     -31.273  -1.389  23.220  1.00  0.00     0.027 C 
BRANCH  13  14
ATOM     14  C   UNL     1     -30.890  -0.174  24.078  1.00  0.00     0.004 C 
BRANCH  14  15
ATOM     15  C   UNL     1     -30.773   1.116  23.250  1.00  0.00     0.000 C 
BRANCH  15  16
ATOM     16  C   UNL     1     -29.323   1.411  22.825  1.00  0.00     0.000 C 
BRANCH  16  17
ATOM     17  C   UNL     1     -28.292   0.770  23.767  1.00  0.00    -0.000 C 
BRANCH  17  18
ATOM     18  C   UNL     1     -26.989   0.390  23.042  1.00  0.00    -0.000 C 
BRANCH  18  19
ATOM     19  C   UNL     1     -26.374  -0.911  23.580  1.00  0.00    -0.003 C 
ATOM     20  C   UNL     1     -27.147  -1.482  24.769  1.00  0.00     0.004 C 
ENDBRANCH  18  19
ENDBRANCH  17  18
ENDBRANCH  16  17
ENDBRANCH  15  16
ENDBRANCH  14  15
ENDBRANCH  13  14
ENDBRANCH   2  13
TORSDOF 15
ENDMDL
MODEL 3
REMARK VINA RESULT:    -5.487      1.344      2.680
REMARK INTER + INTRA:         -12.488
REMARK INTER:                 -10.590
REMARK INTRA:                  -1.899
REMARK UNBOUND:                -2.190
REMARK SMILES CCCCCCCCC=CCCCCCCCC(=O)[O-]
REMARK SMILES IDX 10 1 9 2 11 3 12 4 13 5 14 6 15 7 16 8 17 9 18 10 19 11
REMARK SMILES IDX 20 12 8 13 7 14 6 15 5 16 4 17 3 18 2 19 1 20
REMARK H PARENT
REMARK Flexibility Score: inf
ROOT
ATOM      1  C   UNL     1     -28.878  -2.288  21.980  1.00  0.00    -0.031 C 
ATOM      2  C   UNL     1     -28.083  -1.741  21.042  1.00  0.00    -0.031 C 
ENDROOT
BRANCH   1   3
ATOM      3  C   UNL     1     -30.368  -2.068  22.081  1.00  0.00     0.027 C 
BRANCH   3   4
ATOM      4  C   UNL     1     -30.845  -1.963  23.540  1.00  0.00     0.004 C 
BRANCH   4   5
ATOM      5  C   UNL     1     -30.948  -0.521  24.072  1.00  0.00     0.000 C 
BRANCH   5   6
ATOM      6  C   UNL     1     -30.981   0.528  22.950  1.00  0.00     0.000 C 
BRANCH   6   7
ATOM      7  C   UNL     1     -29.699   1.369  22.950  1.00  0.00     0.000 C 
BRANCH   7   8
ATOM      8  C   UNL     1     -28.854   1.089  24.200  1.00  0.00     0.006 C 
BRANCH   8   9
ATOM      9  C   UNL     1     -27.464   0.575  23.817  1.00  0.00     0.053 C 
BRANCH   9  10
ATOM     10  C   UNL     1     -27.150  -0.688  24.554  1.00  0.00     0.041 C 
ATOM     11  O   UNL     1     -27.747  -0.961  25.628  1.00  0.00    -0.550 OA
ATOM     12  O   UNL     1     -26.157  -1.537  24.082  1.00  0.00    -0.550 OA
ENDBRANCH   9  10
ENDBRANCH   8   9
ENDBRANCH   7   8
ENDBRANCH   6   7
ENDBRANCH   5   6
ENDBRANCH   4   5
ENDBRANCH   3   4
ENDBRANCH   1   3
BRANCH   2  13
ATOM     13  C   UNL     1     -28.570  -0.895  19.894  1.00  0.00     0.027 C 
BRANCH  13  14
ATOM     14  C   UNL     1     -28.106  -1.481  18.553  1.00  0.00     0.004 C 
BRANCH  14  15
ATOM     15  C   UNL     1     -28.866  -2.763  18.178  1.00  0.00     0.000 C 
BRANCH  15  16
ATOM     16  C   UNL     1     -28.708  -3.126  16.690  1.00  0.00     0.000 C 
BRANCH  16  17
ATOM     17  C   UNL     1     -27.782  -2.154  15.943  1.00  0.00    -0.000 C 
BRANCH  17  18
ATOM     18  C   UNL     1     -27.661  -2.488  14.446  1.00  0.00    -0.000 C 
BRANCH  18  19
ATOM     19  C   UNL     1     -26.202  -2.511  13.963  1.00  0.00    -0.003 C 
ATOM     20  C   UNL     1     -25.562  -3.893  14.085  1.00  0.00     0.004 C 
ENDBRANCH  18  19
ENDBRANCH  17  18
ENDBRANCH  16  17
ENDBRANCH  15  16
ENDBRANCH  14  15
ENDBRANCH  13  14
ENDBRANCH   2  13
TORSDOF 15
ENDMDL
MODEL 4
REMARK VINA RESULT:    -5.482      4.449      8.346
REMARK INTER + INTRA:         -12.479
REMARK INTER:                 -10.615
REMARK INTRA:                  -1.864
REMARK UNBOUND:                -2.190
REMARK SMILES CCCCCCCCC=CCCCCCCCC(=O)[O-]
REMARK SMILES IDX 10 1 9 2 11 3 12 4 13 5 14 6 15 7 16 8 17 9 18 10 19 11
REMARK SMILES IDX 20 12 8 13 7 14 6 15 5 16 4 17 3 18 2 19 1 20
REMARK H PARENT
REMARK Flexibility Score: inf
ROOT
ATOM      1  C   UNL     1     -29.176  -1.954  21.405  1.00  0.00    -0.031 C 
ATOM      2  C   UNL     1     -30.278  -1.790  22.161  1.00  0.00    -0.031 C 
ENDROOT
BRANCH   1   3
ATOM      3  C   UNL     1     -28.575  -0.890  20.518  1.00  0.00     0.027 C 
BRANCH   3   4
ATOM      4  C   UNL     1     -28.220  -1.428  19.121  1.00  0.00     0.004 C 
BRANCH   4   5
ATOM      5  C   UNL     1     -29.220  -2.458  18.565  1.00  0.00     0.000 C 
BRANCH   5   6
ATOM      6  C   UNL     1     -28.683  -3.208  17.337  1.00  0.00     0.000 C 
BRANCH   6   7
ATOM      7  C   UNL     1     -27.967  -2.249  16.379  1.00  0.00     0.000 C 
BRANCH   7   8
ATOM      8  C   UNL     1     -27.957  -2.802  14.947  1.00  0.00     0.006 C 
BRANCH   8   9
ATOM      9  C   UNL     1     -29.384  -3.006  14.429  1.00  0.00     0.053 C 
BRANCH   9  10
ATOM     10  C   UNL     1     -29.624  -4.447  14.107  1.00  0.00     0.041 C 
ATOM     11  O   UNL     1     -28.654  -5.236  13.966  1.00  0.00    -0.550 OA
ATOM     12  O   UNL     1     -30.920  -4.905  13.908  1.00  0.00    -0.550 OA
ENDBRANCH   9  10
ENDBRANCH   8   9
ENDBRANCH   7   8
ENDBRANCH   6   7
ENDBRANCH   5   6
ENDBRANCH   4   5
ENDBRANCH   3   4
ENDBRANCH   1   3
BRANCH   2  13
ATOM     13  C   UNL     1     -31.031  -0.493  22.307  1.00  0.00     0.027 C 
BRANCH  13  14
ATOM     14  C   UNL     1     -30.812   0.107  23.704  1.00  0.00     0.004 C 
BRANCH  14  15
ATOM     15  C   UNL     1     -30.400  -0.952  24.739  1.00  0.00     0.000 C 
BRANCH  15  16
ATOM     16  C   UNL     1     -29.709  -0.333  25.969  1.00  0.00     0.000 C 
BRANCH  16  17
ATOM     17  C   UNL     1     -28.322   0.240  25.637  1.00  0.00    -0.000 C 
BRANCH  17  18
ATOM     18  C   UNL     1     -27.346  -0.837  25.133  1.00  0.00    -0.000 C 
BRANCH  18  19
ATOM     19  C   UNL     1     -26.787  -0.519  23.737  1.00  0.00    -0.003 C 
ATOM     20  C   UNL     1     -26.917   0.960  23.372  1.00  0.00     0.004 C 
ENDBRANCH  18  19
ENDBRANCH  17  18
ENDBRANCH  16  17
ENDBRANCH  15  16
ENDBRANCH  14  15
ENDBRANCH  13  14
ENDBRANCH   2  13
TORSDOF 15
ENDMDL
MODEL 5
REMARK VINA RESULT:    -5.440      4.152      6.557
REMARK INTER + INTRA:         -12.401
REMARK INTER:                 -10.246
REMARK INTRA:                  -2.155
REMARK UNBOUND:                -2.190
REMARK SMILES CCCCCCCCC=CCCCCCCCC(=O)[O-]
REMARK SMILES IDX 10 1 9 2 11 3 12 4 13 5 14 6 15 7 16 8 17 9 18 10 19 11
REMARK SMILES IDX 20 12 8 13 7 14 6 15 5 16 4 17 3 18 2 19 1 20
REMARK H PARENT
REMARK Flexibility Score: inf
ROOT
ATOM      1  C   UNL     1     -30.596  -0.061  25.950  1.00  0.00    -0.031 C 
ATOM      2  C   UNL     1     -30.897  -0.236  24.650  1.00  0.00    -0.031 C 
ENDROOT
BRANCH   1   3
ATOM      3  C   UNL     1     -29.633   0.975  26.479  1.00  0.00     0.027 C 
BRANCH   3   4
ATOM      4  C   UNL     1     -28.573   0.364  27.412  1.00  0.00     0.004 C 
BRANCH   4   5
ATOM      5  C   UNL     1     -28.932   0.427  28.908  1.00  0.00     0.000 C 
BRANCH   5   6
ATOM      6  C   UNL     1     -29.982   1.503  29.225  1.00  0.00     0.000 C 
BRANCH   6   7
ATOM      7  C   UNL     1     -30.060   1.764  30.734  1.00  0.00     0.000 C 
BRANCH   7   8
ATOM      8  C   UNL     1     -28.977   0.980  31.487  1.00  0.00     0.006 C 
BRANCH   8   9
ATOM      9  C   UNL     1     -28.762   1.554  32.890  1.00  0.00     0.053 C 
BRANCH   9  10
ATOM     10  C   UNL     1     -27.872   2.754  32.836  1.00  0.00     0.041 C 
ATOM     11  O   UNL     1     -26.665   2.635  32.499  1.00  0.00    -0.550 OA
ATOM     12  O   UNL     1     -28.363   3.999  33.211  1.00  0.00    -0.550 OA
ENDBRANCH   9  10
ENDBRANCH   8   9
ENDBRANCH   7   8
ENDBRANCH   6   7
ENDBRANCH   5   6
ENDBRANCH   4   5
ENDBRANCH   3   4
ENDBRANCH   1   3
BRANCH   2  13
ATOM     13  C   UNL     1     -30.388   0.633  23.529  1.00  0.00     0.027 C 
BRANCH  13  14
ATOM     14  C   UNL     1     -30.141  -0.203  22.265  1.00  0.00     0.004 C 
BRANCH  14  15
ATOM     15  C   UNL     1     -30.114  -1.713  22.555  1.00  0.00     0.000 C 
BRANCH  15  16
ATOM     16  C   UNL     1     -28.683  -2.281  22.580  1.00  0.00     0.000 C 
BRANCH  16  17
ATOM     17  C   UNL     1     -28.198  -2.591  24.005  1.00  0.00    -0.000 C 
BRANCH  17  18
ATOM     18  C   UNL     1     -27.348  -1.454  24.598  1.00  0.00    -0.000 C 
BRANCH  18  19
ATOM     19  C   UNL     1     -26.530  -0.712  23.529  1.00  0.00    -0.003 C 
ATOM     20  C   UNL     1     -26.749   0.800  23.563  1.00  0.00     0.004 C 
ENDBRANCH  18  19
ENDBRANCH  17  18
ENDBRANCH  16  17
ENDBRANCH  15  16
ENDBRANCH  14  15
ENDBRANCH  13  14
ENDBRANCH   2  13
TORSDOF 15
ENDMDL
MODEL 6
REMARK VINA RESULT:    -5.429      4.040      7.924
REMARK INTER + INTRA:         -12.381
REMARK INTER:                  -9.964
REMARK INTRA:                  -2.417
REMARK UNBOUND:                -2.190
REMARK SMILES CCCCCCCCC=CCCCCCCCC(=O)[O-]
REMARK SMILES IDX 10 1 9 2 11 3 12 4 13 5 14 6 15 7 16 8 17 9 18 10 19 11
REMARK SMILES IDX 20 12 8 13 7 14 6 15 5 16 4 17 3 18 2 19 1 20
REMARK H PARENT
REMARK Flexibility Score: inf
ROOT
ATOM      1  C   UNL     1     -30.457   0.346  22.713  1.00  0.00    -0.031 C 
ATOM      2  C   UNL     1     -29.441   1.141  23.094  1.00  0.00    -0.031 C 
ENDROOT
BRANCH   1   3
ATOM      3  C   UNL     1     -30.474  -0.485  21.453  1.00  0.00     0.027 C 
BRANCH   3   4
ATOM      4  C   UNL     1     -30.021  -1.934  21.703  1.00  0.00     0.004 C 
BRANCH   4   5
ATOM      5  C   UNL     1     -28.649  -2.283  21.098  1.00  0.00     0.000 C 
BRANCH   5   6
ATOM      6  C   UNL     1     -28.449  -1.696  19.693  1.00  0.00     0.000 C 
BRANCH   6   7
ATOM      7  C   UNL     1     -28.989  -2.649  18.620  1.00  0.00     0.000 C 
BRANCH   7   8
ATOM      8  C   UNL     1     -28.398  -2.321  17.242  1.00  0.00     0.006 C 
BRANCH   8   9
ATOM      9  C   UNL     1     -29.153  -3.059  16.133  1.00  0.00     0.053 C 
BRANCH   9  10
ATOM     10  C   UNL     1     -28.201  -3.818  15.265  1.00  0.00     0.041 C 
ATOM     11  O   UNL     1     -26.967  -3.576  15.314  1.00  0.00    -0.550 OA
ATOM     12  O   UNL     1     -28.684  -4.756  14.361  1.00  0.00    -0.550 OA
ENDBRANCH   9  10
ENDBRANCH   8   9
ENDBRANCH   7   8
ENDBRANCH   6   7
ENDBRANCH   5   6
ENDBRANCH   4   5
ENDBRANCH   3   4
ENDBRANCH   1   3
BRANCH   2  13
ATOM     13  C   UNL     1     -28.126   1.258  22.368  1.00  0.00     0.027 C 
BRANCH  13  14
ATOM     14  C   UNL     1     -26.954   0.976  23.319  1.00  0.00     0.004 C 
BRANCH  14  15
ATOM     15  C   UNL     1     -26.587  -0.516  23.374  1.00  0.00     0.000 C 
BRANCH  15  16
ATOM     16  C   UNL     1     -26.869  -1.140  24.753  1.00  0.00     0.000 C 
BRANCH  16  17
ATOM     17  C   UNL     1     -28.262  -1.785  24.832  1.00  0.00    -0.000 C 
BRANCH  17  18
ATOM     18  C   UNL     1     -29.104  -1.227  25.992  1.00  0.00    -0.000 C 
BRANCH  18  19
ATOM     19  C   UNL     1     -28.604   0.143  26.477  1.00  0.00    -0.003 C 
ATOM     20  C   UNL     1     -29.742   1.065  26.913  1.00  0.00     0.004 C 
ENDBRANCH  18  19
ENDBRANCH  17  18
ENDBRANCH  16  17
ENDBRANCH  15  16
ENDBRANCH  14  15
ENDBRANCH  13  14
ENDBRANCH   2  13
TORSDOF 15
ENDMDL
MODEL 7
REMARK VINA RESULT:    -5.408      4.142      8.254
REMARK INTER + INTRA:         -12.341
REMARK INTER:                 -10.335
REMARK INTRA:                  -2.005
REMARK UNBOUND:                -2.190
REMARK SMILES CCCCCCCCC=CCCCCCCCC(=O)[O-]
REMARK SMILES IDX 10 1 9 2 11 3 12 4 13 5 14 6 15 7 16 8 17 9 18 10 19 11
REMARK SMILES IDX 20 12 8 13 7 14 6 15 5 16 4 17 3 18 2 19 1 20
REMARK H PARENT
REMARK Flexibility Score: inf
ROOT
ATOM      1  C   UNL     1     -27.942  -1.897  22.047  1.00  0.00    -0.031 C 
ATOM      2  C   UNL     1     -27.531  -1.479  23.259  1.00  0.00    -0.031 C 
ENDROOT
BRANCH   1   3
ATOM      3  C   UNL     1     -28.061  -1.016  20.828  1.00  0.00     0.027 C 
BRANCH   3   4
ATOM      4  C   UNL     1     -29.262  -1.399  19.945  1.00  0.00     0.004 C 
BRANCH   4   5
ATOM      5  C   UNL     1     -29.014  -2.610  19.027  1.00  0.00     0.000 C 
BRANCH   5   6
ATOM      6  C   UNL     1     -28.576  -2.206  17.611  1.00  0.00     0.000 C 
BRANCH   6   7
ATOM      7  C   UNL     1     -28.620  -3.408  16.661  1.00  0.00     0.000 C 
BRANCH   7   8
ATOM      8  C   UNL     1     -28.871  -2.961  15.215  1.00  0.00     0.006 C 
BRANCH   8   9
ATOM      9  C   UNL     1     -27.738  -3.423  14.295  1.00  0.00     0.053 C 
BRANCH   9  10
ATOM     10  C   UNL     1     -26.606  -2.446  14.324  1.00  0.00     0.041 C 
ATOM     11  O   UNL     1     -26.832  -1.210  14.260  1.00  0.00    -0.550 OA
ATOM     12  O   UNL     1     -25.295  -2.905  14.368  1.00  0.00    -0.550 OA
ENDBRANCH   9  10
ENDBRANCH   8   9
ENDBRANCH   7   8
ENDBRANCH   6   7
ENDBRANCH   5   6
ENDBRANCH   4   5
ENDBRANCH   3   4
ENDBRANCH   1   3
BRANCH   2  13
ATOM     13  C   UNL     1     -27.042  -0.087  23.564  1.00  0.00     0.027 C 
BRANCH  13  14
ATOM     14  C   UNL     1     -27.441   0.329  24.987  1.00  0.00     0.004 C 
BRANCH  14  15
ATOM     15  C   UNL     1     -28.133  -0.807  25.759  1.00  0.00     0.000 C 
BRANCH  15  16
ATOM     16  C   UNL     1     -29.395  -0.331  26.500  1.00  0.00     0.000 C 
BRANCH  16  17
ATOM     17  C   UNL     1     -30.579  -0.089  25.550  1.00  0.00    -0.000 C 
BRANCH  17  18
ATOM     18  C   UNL     1     -30.910  -1.325  24.696  1.00  0.00    -0.000 C 
BRANCH  18  19
ATOM     19  C   UNL     1     -31.253  -0.962  23.242  1.00  0.00    -0.003 C 
ATOM     20  C   UNL     1     -30.992   0.509  22.924  1.00  0.00     0.004 C 
ENDBRANCH  18  19
ENDBRANCH  17  18
ENDBRANCH  16  17
ENDBRANCH  15  16
ENDBRANCH  14  15
ENDBRANCH  13  14
ENDBRANCH   2  13
TORSDOF 15
ENDMDL
MODEL 8
REMARK VINA RESULT:    -5.375      1.838      2.985
REMARK INTER + INTRA:         -12.279
REMARK INTER:                 -10.545
REMARK INTRA:                  -1.734
REMARK UNBOUND:                -2.190
REMARK SMILES CCCCCCCCC=CCCCCCCCC(=O)[O-]
REMARK SMILES IDX 10 1 9 2 11 3 12 4 13 5 14 6 15 7 16 8 17 9 18 10 19 11
REMARK SMILES IDX 20 12 8 13 7 14 6 15 5 16 4 17 3 18 2 19 1 20
REMARK H PARENT
REMARK Flexibility Score: inf
ROOT
ATOM      1  C   UNL     1     -29.736  -1.873  21.563  1.00  0.00    -0.031 C 
ATOM      2  C   UNL     1     -28.693  -2.356  20.862  1.00  0.00    -0.031 C 
ENDROOT
BRANCH   1   3
ATOM      3  C   UNL     1     -30.034  -0.407  21.763  1.00  0.00     0.027 C 
BRANCH   3   4
ATOM      4  C   UNL     1     -31.049  -0.167  22.894  1.00  0.00     0.004 C 
BRANCH   4   5
ATOM      5  C   UNL     1     -31.065  -1.263  23.976  1.00  0.00     0.000 C 
BRANCH   5   6
ATOM      6  C   UNL     1     -30.842  -0.709  25.391  1.00  0.00     0.000 C 
BRANCH   6   7
ATOM      7  C   UNL     1     -29.861   0.469  25.369  1.00  0.00     0.000 C 
BRANCH   7   8
ATOM      8  C   UNL     1     -28.440   0.012  25.726  1.00  0.00     0.006 C 
BRANCH   8   9
ATOM      9  C   UNL     1     -27.517   0.090  24.508  1.00  0.00     0.053 C 
BRANCH   9  10
ATOM     10  C   UNL     1     -27.041  -1.274  24.121  1.00  0.00     0.041 C 
ATOM     11  O   UNL     1     -25.978  -1.413  23.463  1.00  0.00    -0.550 OA
ATOM     12  O   UNL     1     -27.804  -2.390  24.442  1.00  0.00    -0.550 OA
ENDBRANCH   9  10
ENDBRANCH   8   9
ENDBRANCH   7   8
ENDBRANCH   6   7
ENDBRANCH   5   6
ENDBRANCH   4   5
ENDBRANCH   3   4
ENDBRANCH   1   3
BRANCH   2  13
ATOM     13  C   UNL     1     -27.711  -1.509  20.096  1.00  0.00     0.027 C 
BRANCH  13  14
ATOM     14  C   UNL     1     -28.200  -1.277  18.659  1.00  0.00     0.004 C 
BRANCH  14  15
ATOM     15  C   UNL     1     -28.598  -2.585  17.956  1.00  0.00     0.000 C 
BRANCH  15  16
ATOM     16  C   UNL     1     -28.350  -2.535  16.437  1.00  0.00     0.000 C 
BRANCH  16  17
ATOM     17  C   UNL     1     -28.175  -3.933  15.823  1.00  0.00    -0.000 C 
BRANCH  17  18
ATOM     18  C   UNL     1     -28.636  -3.994  14.357  1.00  0.00    -0.000 C 
BRANCH  18  19
ATOM     19  C   UNL     1     -29.906  -4.841  14.173  1.00  0.00    -0.003 C 
ATOM     20  C   UNL     1     -31.186  -4.052  14.448  1.00  0.00     0.004 C 
ENDBRANCH  18  19
ENDBRANCH  17  18
ENDBRANCH  16  17
ENDBRANCH  15  16
ENDBRANCH  14  15
ENDBRANCH  13  14
ENDBRANCH   2  13
TORSDOF 15
ENDMDL
MODEL 9
REMARK VINA RESULT:    -5.360      5.253      8.075
REMARK INTER + INTRA:         -12.250
REMARK INTER:                 -10.783
REMARK INTRA:                  -1.467
REMARK UNBOUND:                -2.190
REMARK SMILES CCCCCCCCC=CCCCCCCCC(=O)[O-]
REMARK SMILES IDX 10 1 9 2 11 3 12 4 13 5 14 6 15 7 16 8 17 9 18 10 19 11
REMARK SMILES IDX 20 12 8 13 7 14 6 15 5 16 4 17 3 18 2 19 1 20
REMARK H PARENT
REMARK Flexibility Score: inf
ROOT
ATOM      1  C   UNL     1     -30.145   1.143  28.064  1.00  0.00    -0.031 C 
ATOM      2  C   UNL     1     -29.587   0.659  26.939  1.00  0.00    -0.031 C 
ENDROOT
BRANCH   1   3
ATOM      3  C   UNL     1     -29.494   1.125  29.425  1.00  0.00     0.027 C 
BRANCH   3   4
ATOM      4  C   UNL     1     -30.263   1.974  30.451  1.00  0.00     0.004 C 
BRANCH   4   5
ATOM      5  C   UNL     1     -30.974   1.157  31.546  1.00  0.00     0.000 C 
BRANCH   5   6
ATOM      6  C   UNL     1     -31.874   2.019  32.444  1.00  0.00     0.000 C 
BRANCH   6   7
ATOM      7  C   UNL     1     -31.251   3.399  32.681  1.00  0.00     0.000 C 
BRANCH   7   8
ATOM      8  C   UNL     1     -30.422   3.417  33.973  1.00  0.00     0.006 C 
BRANCH   8   9
ATOM      9  C   UNL     1     -28.966   3.790  33.683  1.00  0.00     0.053 C 
BRANCH   9  10
ATOM     10  C   UNL     1     -28.099   2.571  33.698  1.00  0.00     0.041 C 
ATOM     11  O   UNL     1     -28.559   1.470  34.096  1.00  0.00    -0.550 OA
ATOM     12  O   UNL     1     -26.764   2.666  33.323  1.00  0.00    -0.550 OA
ENDBRANCH   9  10
ENDBRANCH   8   9
ENDBRANCH   7   8
ENDBRANCH   6   7
ENDBRANCH   5   6
ENDBRANCH   4   5
ENDBRANCH   3   4
ENDBRANCH   1   3
BRANCH   2  13
ATOM     13  C   UNL     1     -28.189   0.104  26.847  1.00  0.00     0.027 C 
BRANCH  13  14
ATOM     14  C   UNL     1     -27.967  -0.586  25.493  1.00  0.00     0.004 C 
BRANCH  14  15
ATOM     15  C   UNL     1     -27.620   0.411  24.376  1.00  0.00     0.000 C 
BRANCH  15  16
ATOM     16  C   UNL     1     -27.652  -0.237  22.980  1.00  0.00     0.000 C 
BRANCH  16  17
ATOM     17  C   UNL     1     -28.820   0.274  22.121  1.00  0.00    -0.000 C 
BRANCH  17  18
ATOM     18  C   UNL     1     -30.011   0.749  22.971  1.00  0.00    -0.000 C 
BRANCH  18  19
ATOM     19  C   UNL     1     -31.235  -0.170  22.834  1.00  0.00    -0.003 C 
ATOM     20  C   UNL     1     -31.197  -1.352  23.802  1.00  0.00     0.004 C 
ENDBRANCH  18  19
ENDBRANCH  17  18
ENDBRANCH  16  17
ENDBRANCH  15  16
ENDBRANCH  14  15
ENDBRANCH  13  14
ENDBRANCH   2  13
TORSDOF 15
ENDMDL
