MODEL 1
REMARK VINA RESULT:    -4.660      0.000      0.000
REMARK INTER + INTRA:          -6.500
REMARK INTER:                  -6.294
REMARK INTRA:                  -0.206
REMARK UNBOUND:                -0.206
REMARK SMILES [NH3+]CCCC[C@@H]([NH3+])C(=O)[O-]
REMARK SMILES IDX 4 1 3 2 2 3 1 4 5 8 6 9 7 10 8 14 9 15 10 16
REMARK H PARENT 1 5 1 6 1 7 7 11 7 12 7 13
REMARK Flexibility Score: inf
ROOT
ATOM      1  C   UNL     1     145.173 129.726 128.149  1.00  0.00     0.012 C 
ENDROOT
BRANCH   1   2
ATOM      2  C   UNL     1     145.331 129.016 129.502  1.00  0.00     0.061 C 
BRANCH   2   3
ATOM      3  C   UNL     1     146.800 129.002 129.946  1.00  0.00     0.258 C 
BRANCH   3   4
ATOM      4  N   UNL     1     147.219 130.327 130.406  1.00  0.00    -0.358 N 
ATOM      5  H   UNL     1     147.653 130.238 131.353  1.00  0.00     0.344 HD
ATOM      6  H   UNL     1     147.924 130.729 129.746  1.00  0.00     0.344 HD
ATOM      7  H   UNL     1     146.391 130.962 130.472  1.00  0.00     0.344 HD
ENDBRANCH   3   4
ENDBRANCH   2   3
ENDBRANCH   1   2
BRANCH   1   8
ATOM      8  C   UNL     1     146.085 129.140 127.054  1.00  0.00     0.072 C 
BRANCH   8   9
ATOM      9  C   UNL     1     146.819 130.202 126.201  1.00  0.00     0.227 C 
BRANCH   9  10
ATOM     10  N   UNL     1     147.497 131.173 127.069  1.00  0.00    -0.350 N 
ATOM     11  H   UNL     1     147.921 131.944 126.503  1.00  0.00     0.345 HD
ATOM     12  H   UNL     1     146.813 131.582 127.747  1.00  0.00     0.345 HD
ATOM     13  H   UNL     1     148.251 130.695 127.613  1.00  0.00     0.345 HD
ENDBRANCH   9  10
BRANCH   9  14
ATOM     14  C   UNL     1     147.811 129.565 125.263  1.00  0.00     0.099 C 
ATOM     15  O   UNL     1     147.837 128.314 125.115  1.00  0.00    -0.544 OA
ATOM     16  O   UNL     1     148.696 130.359 124.545  1.00  0.00    -0.544 OA
ENDBRANCH   9  14
ENDBRANCH   8   9
ENDBRANCH   1   8
TORSDOF 7
ENDMDL
MODEL 2
REMARK VINA RESULT:    -4.565      1.243      1.533
REMARK INTER + INTRA:          -6.372
REMARK INTER:                  -6.145
REMARK INTRA:                  -0.227
REMARK UNBOUND:                -0.206
REMARK SMILES [NH3+]CCCC[C@@H]([NH3+])C(=O)[O-]
REMARK SMILES IDX 4 1 3 2 2 3 1 4 5 8 6 9 7 10 8 14 9 15 10 16
REMARK H PARENT 1 5 1 6 1 7 7 11 7 12 7 13
REMARK Flexibility Score: inf
ROOT
ATOM      1  C   UNL     1     144.884 129.745 128.288  1.00  0.00     0.012 C 
ENDROOT
BRANCH   1   2
ATOM      2  C   UNL     1     145.282 129.075 129.611  1.00  0.00     0.061 C 
BRANCH   2   3
ATOM      3  C   UNL     1     146.804 129.108 129.807  1.00  0.00     0.258 C 
BRANCH   3   4
ATOM      4  N   UNL     1     147.226 130.374 130.408  1.00  0.00    -0.358 N 
ATOM      5  H   UNL     1     146.629 130.570 131.244  1.00  0.00     0.344 HD
ATOM      6  H   UNL     1     148.225 130.312 130.711  1.00  0.00     0.344 HD
ATOM      7  H   UNL     1     147.111 131.153 129.720  1.00  0.00     0.344 HD
ENDBRANCH   3   4
ENDBRANCH   2   3
ENDBRANCH   1   2
BRANCH   1   8
ATOM      8  C   UNL     1     145.906 129.499 127.161  1.00  0.00     0.072 C 
BRANCH   8   9
ATOM      9  C   UNL     1     146.398 130.786 126.457  1.00  0.00     0.227 C 
BRANCH   9  10
ATOM     10  N   UNL     1     147.741 131.145 126.933  1.00  0.00    -0.350 N 
ATOM     11  H   UNL     1     148.460 130.498 126.535  1.00  0.00     0.345 HD
ATOM     12  H   UNL     1     147.968 132.127 126.650  1.00  0.00     0.345 HD
ATOM     13  H   UNL     1     147.772 131.090 127.977  1.00  0.00     0.345 HD
ENDBRANCH   9  10
BRANCH   9  14
ATOM     14  C   UNL     1     146.407 130.625 124.959  1.00  0.00     0.099 C 
ATOM     15  O   UNL     1     147.441 130.895 124.293  1.00  0.00    -0.544 OA
ATOM     16  O   UNL     1     145.272 130.162 124.305  1.00  0.00    -0.544 OA
ENDBRANCH   9  14
ENDBRANCH   8   9
ENDBRANCH   1   8
TORSDOF 7
ENDMDL
MODEL 3
REMARK VINA RESULT:    -4.496      3.018      4.314
REMARK INTER + INTRA:          -6.278
REMARK INTER:                  -5.848
REMARK INTRA:                  -0.430
REMARK UNBOUND:                -0.206
REMARK SMILES [NH3+]CCCC[C@@H]([NH3+])C(=O)[O-]
REMARK SMILES IDX 4 1 3 2 2 3 1 4 5 8 6 9 7 10 8 14 9 15 10 16
REMARK H PARENT 1 5 1 6 1 7 7 11 7 12 7 13
REMARK Flexibility Score: inf
ROOT
ATOM      1  C   UNL     1     146.607 129.926 126.021  1.00  0.00     0.012 C 
ENDROOT
BRANCH   1   2
ATOM      2  C   UNL     1     145.273 130.136 125.290  1.00  0.00     0.061 C 
BRANCH   2   3
ATOM      3  C   UNL     1     144.389 131.142 126.039  1.00  0.00     0.258 C 
BRANCH   3   4
ATOM      4  N   UNL     1     143.117 130.531 126.427  1.00  0.00    -0.358 N 
ATOM      5  H   UNL     1     142.900 129.747 125.771  1.00  0.00     0.344 HD
ATOM      6  H   UNL     1     143.183 130.151 127.400  1.00  0.00     0.344 HD
ATOM      7  H   UNL     1     142.348 131.238 126.374  1.00  0.00     0.344 HD
ENDBRANCH   3   4
ENDBRANCH   2   3
ENDBRANCH   1   2
BRANCH   1   8
ATOM      8  C   UNL     1     146.614 130.528 127.439  1.00  0.00     0.072 C 
BRANCH   8   9
ATOM      9  C   UNL     1     146.892 129.502 128.565  1.00  0.00     0.227 C 
BRANCH   9  10
ATOM     10  N   UNL     1     147.726 130.107 129.611  1.00  0.00    -0.350 N 
ATOM     11  H   UNL     1     147.411 129.800 130.560  1.00  0.00     0.345 HD
ATOM     12  H   UNL     1     148.725 129.828 129.475  1.00  0.00     0.345 HD
ATOM     13  H   UNL     1     147.666 131.149 129.553  1.00  0.00     0.345 HD
ENDBRANCH   9  10
BRANCH   9  14
ATOM     14  C   UNL     1     145.611 128.980 129.161  1.00  0.00     0.099 C 
ATOM     15  O   UNL     1     145.590 127.875 129.765  1.00  0.00    -0.544 OA
ATOM     16  O   UNL     1     144.443 129.727 129.058  1.00  0.00    -0.544 OA
ENDBRANCH   9  14
ENDBRANCH   8   9
ENDBRANCH   1   8
TORSDOF 7
ENDMDL
MODEL 4
REMARK VINA RESULT:    -4.450      3.607      4.890
REMARK INTER + INTRA:          -6.217
REMARK INTER:                  -6.115
REMARK INTRA:                  -0.102
REMARK UNBOUND:                -0.206
REMARK SMILES [NH3+]CCCC[C@@H]([NH3+])C(=O)[O-]
REMARK SMILES IDX 4 1 3 2 2 3 1 4 5 8 6 9 7 10 8 14 9 15 10 16
REMARK H PARENT 1 5 1 6 1 7 7 11 7 12 7 13
REMARK Flexibility Score: inf
ROOT
ATOM      1  C   UNL     1     144.247 130.642 126.486  1.00  0.00     0.012 C 
ENDROOT
BRANCH   1   2
ATOM      2  C   UNL     1     144.129 131.031 125.004  1.00  0.00     0.061 C 
BRANCH   2   3
ATOM      3  C   UNL     1     143.248 130.032 124.243  1.00  0.00     0.258 C 
BRANCH   3   4
ATOM      4  N   UNL     1     143.945 129.511 123.067  1.00  0.00    -0.358 N 
ATOM      5  H   UNL     1     144.497 130.283 122.627  1.00  0.00     0.344 HD
ATOM      6  H   UNL     1     144.598 128.744 123.347  1.00  0.00     0.344 HD
ATOM      7  H   UNL     1     143.253 129.151 122.370  1.00  0.00     0.344 HD
ENDBRANCH   3   4
ENDBRANCH   2   3
ENDBRANCH   1   2
BRANCH   1   8
ATOM      8  C   UNL     1     145.708 130.473 126.946  1.00  0.00     0.072 C 
BRANCH   8   9
ATOM      9  C   UNL     1     145.978 129.172 127.740  1.00  0.00     0.227 C 
BRANCH   9  10
ATOM     10  N   UNL     1     147.319 128.658 127.434  1.00  0.00    -0.350 N 
ATOM     11  H   UNL     1     147.337 128.207 126.490  1.00  0.00     0.345 HD
ATOM     12  H   UNL     1     148.012 129.441 127.453  1.00  0.00     0.345 HD
ATOM     13  H   UNL     1     147.601 127.954 128.154  1.00  0.00     0.345 HD
ENDBRANCH   9  10
BRANCH   9  14
ATOM     14  C   UNL     1     145.834 129.393 129.223  1.00  0.00     0.099 C 
ATOM     15  O   UNL     1     144.722 129.223 129.790  1.00  0.00    -0.544 OA
ATOM     16  O   UNL     1     146.936 129.776 129.978  1.00  0.00    -0.544 OA
ENDBRANCH   9  14
ENDBRANCH   8   9
ENDBRANCH   1   8
TORSDOF 7
ENDMDL
MODEL 5
REMARK VINA RESULT:    -4.438      3.450      4.817
REMARK INTER + INTRA:          -6.200
REMARK INTER:                  -6.083
REMARK INTRA:                  -0.118
REMARK UNBOUND:                -0.206
REMARK SMILES [NH3+]CCCC[C@@H]([NH3+])C(=O)[O-]
REMARK SMILES IDX 4 1 3 2 2 3 1 4 5 8 6 9 7 10 8 14 9 15 10 16
REMARK H PARENT 1 5 1 6 1 7 7 11 7 12 7 13
REMARK Flexibility Score: inf
ROOT
ATOM      1  C   UNL     1     145.015 130.978 126.125  1.00  0.00     0.012 C 
ENDROOT
BRANCH   1   2
ATOM      2  C   UNL     1     143.769 130.887 125.232  1.00  0.00     0.061 C 
BRANCH   2   3
ATOM      3  C   UNL     1     144.159 130.810 123.751  1.00  0.00     0.258 C 
BRANCH   3   4
ATOM      4  N   UNL     1     143.975 129.454 123.232  1.00  0.00    -0.358 N 
ATOM      5  H   UNL     1     143.939 128.784 124.035  1.00  0.00     0.344 HD
ATOM      6  H   UNL     1     143.078 129.392 122.699  1.00  0.00     0.344 HD
ATOM      7  H   UNL     1     144.776 129.195 122.612  1.00  0.00     0.344 HD
ENDBRANCH   3   4
ENDBRANCH   2   3
ENDBRANCH   1   2
BRANCH   1   8
ATOM      8  C   UNL     1     145.245 129.706 126.964  1.00  0.00     0.072 C 
BRANCH   8   9
ATOM      9  C   UNL     1     146.563 129.708 127.775  1.00  0.00     0.227 C 
BRANCH   9  10
ATOM     10  N   UNL     1     147.344 130.915 127.475  1.00  0.00    -0.350 N 
ATOM     11  H   UNL     1     148.361 130.686 127.385  1.00  0.00     0.345 HD
ATOM     12  H   UNL     1     147.008 131.342 126.580  1.00  0.00     0.345 HD
ATOM     13  H   UNL     1     147.218 131.617 128.239  1.00  0.00     0.345 HD
ENDBRANCH   9  10
BRANCH   9  14
ATOM     14  C   UNL     1     146.297 129.619 129.255  1.00  0.00     0.099 C 
ATOM     15  O   UNL     1     147.232 129.785 130.084  1.00  0.00    -0.544 OA
ATOM     16  O   UNL     1     145.011 129.365 129.715  1.00  0.00    -0.544 OA
ENDBRANCH   9  14
ENDBRANCH   8   9
ENDBRANCH   1   8
TORSDOF 7
ENDMDL
MODEL 6
REMARK VINA RESULT:    -4.407      2.983      3.133
REMARK INTER + INTRA:          -6.159
REMARK INTER:                  -6.032
REMARK INTRA:                  -0.127
REMARK UNBOUND:                -0.206
REMARK SMILES [NH3+]CCCC[C@@H]([NH3+])C(=O)[O-]
REMARK SMILES IDX 4 1 3 2 2 3 1 4 5 8 6 9 7 10 8 14 9 15 10 16
REMARK H PARENT 1 5 1 6 1 7 7 11 7 12 7 13
REMARK Flexibility Score: inf
ROOT
ATOM      1  C   UNL     1     145.730 129.173 127.605  1.00  0.00     0.012 C 
ENDROOT
BRANCH   1   2
ATOM      2  C   UNL     1     145.486 129.283 129.118  1.00  0.00     0.061 C 
BRANCH   2   3
ATOM      3  C   UNL     1     146.790 129.083 129.900  1.00  0.00     0.258 C 
BRANCH   3   4
ATOM      4  N   UNL     1     147.303 130.360 130.397  1.00  0.00    -0.358 N 
ATOM      5  H   UNL     1     147.241 130.369 131.441  1.00  0.00     0.344 HD
ATOM      6  H   UNL     1     148.303 130.480 130.116  1.00  0.00     0.344 HD
ATOM      7  H   UNL     1     146.730 131.148 130.018  1.00  0.00     0.344 HD
ENDBRANCH   3   4
ENDBRANCH   2   3
ENDBRANCH   1   2
BRANCH   1   8
ATOM      8  C   UNL     1     145.302 130.437 126.836  1.00  0.00     0.072 C 
BRANCH   8   9
ATOM      9  C   UNL     1     143.934 130.315 126.122  1.00  0.00     0.227 C 
BRANCH   9  10
ATOM     10  N   UNL     1     142.873 130.903 126.950  1.00  0.00    -0.350 N 
ATOM     11  H   UNL     1     142.407 130.169 127.532  1.00  0.00     0.345 HD
ATOM     12  H   UNL     1     143.278 131.634 127.580  1.00  0.00     0.345 HD
ATOM     13  H   UNL     1     142.158 131.359 126.339  1.00  0.00     0.345 HD
ENDBRANCH   9  10
BRANCH   9  14
ATOM     14  C   UNL     1     143.959 130.975 124.769  1.00  0.00     0.099 C 
ATOM     15  O   UNL     1     142.888 131.344 124.217  1.00  0.00    -0.544 OA
ATOM     16  O   UNL     1     145.171 131.194 124.126  1.00  0.00    -0.544 OA
ENDBRANCH   9  14
ENDBRANCH   8   9
ENDBRANCH   1   8
TORSDOF 7
ENDMDL
MODEL 7
REMARK VINA RESULT:    -3.994      3.016      3.329
REMARK INTER + INTRA:          -5.601
REMARK INTER:                  -5.116
REMARK INTRA:                  -0.485
REMARK UNBOUND:                -0.206
REMARK SMILES [NH3+]CCCC[C@@H]([NH3+])C(=O)[O-]
REMARK SMILES IDX 4 1 3 2 2 3 1 4 5 8 6 9 7 10 8 14 9 15 10 16
REMARK H PARENT 1 5 1 6 1 7 7 11 7 12 7 13
REMARK Flexibility Score: inf
ROOT
ATOM      1  C   UNL     1     146.879 129.016 127.180  1.00  0.00     0.012 C 
ENDROOT
BRANCH   1   2
ATOM      2  C   UNL     1     146.202 128.259 128.332  1.00  0.00     0.061 C 
BRANCH   2   3
ATOM      3  C   UNL     1     145.875 129.206 129.494  1.00  0.00     0.258 C 
BRANCH   3   4
ATOM      4  N   UNL     1     144.448 129.167 129.814  1.00  0.00    -0.358 N 
ATOM      5  H   UNL     1     143.898 129.236 128.927  1.00  0.00     0.344 HD
ATOM      6  H   UNL     1     144.210 128.267 130.291  1.00  0.00     0.344 HD
ATOM      7  H   UNL     1     144.196 129.973 130.430  1.00  0.00     0.344 HD
ENDBRANCH   3   4
ENDBRANCH   2   3
ENDBRANCH   1   2
BRANCH   1   8
ATOM      8  C   UNL     1     146.391 130.472 127.050  1.00  0.00     0.072 C 
BRANCH   8   9
ATOM      9  C   UNL     1     145.606 130.766 125.749  1.00  0.00     0.227 C 
BRANCH   9  10
ATOM     10  N   UNL     1     145.778 129.666 124.791  1.00  0.00    -0.350 N 
ATOM     11  H   UNL     1     144.905 129.521 124.233  1.00  0.00     0.345 HD
ATOM     12  H   UNL     1     146.569 129.882 124.141  1.00  0.00     0.345 HD
ATOM     13  H   UNL     1     146.006 128.784 125.303  1.00  0.00     0.345 HD
ENDBRANCH   9  10
BRANCH   9  14
ATOM     14  C   UNL     1     144.141 130.984 126.029  1.00  0.00     0.099 C 
ATOM     15  O   UNL     1     143.380 131.438 125.133  1.00  0.00    -0.544 OA
ATOM     16  O   UNL     1     143.619 130.672 127.278  1.00  0.00    -0.544 OA
ENDBRANCH   9  14
ENDBRANCH   8   9
ENDBRANCH   1   8
TORSDOF 7
ENDMDL
MODEL 8
REMARK VINA RESULT:    -3.975      3.261      4.580
REMARK INTER + INTRA:          -5.574
REMARK INTER:                  -5.494
REMARK INTRA:                  -0.080
REMARK UNBOUND:                -0.206
REMARK SMILES [NH3+]CCCC[C@@H]([NH3+])C(=O)[O-]
REMARK SMILES IDX 4 1 3 2 2 3 1 4 5 8 6 9 7 10 8 14 9 15 10 16
REMARK H PARENT 1 5 1 6 1 7 7 11 7 12 7 13
REMARK Flexibility Score: inf
ROOT
ATOM      1  C   UNL     1     143.703 130.877 126.098  1.00  0.00     0.012 C 
ENDROOT
BRANCH   1   2
ATOM      2  C   UNL     1     143.281 131.120 124.641  1.00  0.00     0.061 C 
BRANCH   2   3
ATOM      3  C   UNL     1     143.151 129.795 123.879  1.00  0.00     0.258 C 
BRANCH   3   4
ATOM      4  N   UNL     1     144.211 129.661 122.879  1.00  0.00    -0.358 N 
ATOM      5  H   UNL     1     143.790 129.732 121.924  1.00  0.00     0.344 HD
ATOM      6  H   UNL     1     144.914 130.426 122.997  1.00  0.00     0.344 HD
ATOM      7  H   UNL     1     144.678 128.730 122.973  1.00  0.00     0.344 HD
ENDBRANCH   3   4
ENDBRANCH   2   3
ENDBRANCH   1   2
BRANCH   1   8
ATOM      8  C   UNL     1     145.152 130.368 126.225  1.00  0.00     0.072 C 
BRANCH   8   9
ATOM      9  C   UNL     1     145.564 129.976 127.664  1.00  0.00     0.227 C 
BRANCH   9  10
ATOM     10  N   UNL     1     144.372 129.752 128.492  1.00  0.00    -0.350 N 
ATOM     11  H   UNL     1     144.184 130.580 129.103  1.00  0.00     0.345 HD
ATOM     12  H   UNL     1     143.541 129.581 127.880  1.00  0.00     0.345 HD
ATOM     13  H   UNL     1     144.513 128.909 129.095  1.00  0.00     0.345 HD
ENDBRANCH   9  10
BRANCH   9  14
ATOM     14  C   UNL     1     146.437 128.748 127.670  1.00  0.00     0.099 C 
ATOM     15  O   UNL     1     146.306 127.875 128.569  1.00  0.00    -0.544 OA
ATOM     16  O   UNL     1     147.386 128.566 126.672  1.00  0.00    -0.544 OA
ENDBRANCH   9  14
ENDBRANCH   8   9
ENDBRANCH   1   8
TORSDOF 7
ENDMDL
MODEL 9
REMARK VINA RESULT:    -3.936      3.005      4.769
REMARK INTER + INTRA:          -5.522
REMARK INTER:                  -5.290
REMARK INTRA:                  -0.232
REMARK UNBOUND:                -0.206
REMARK SMILES [NH3+]CCCC[C@@H]([NH3+])C(=O)[O-]
REMARK SMILES IDX 4 1 3 2 2 3 1 4 5 8 6 9 7 10 8 14 9 15 10 16
REMARK H PARENT 1 5 1 6 1 7 7 11 7 12 7 13
REMARK Flexibility Score: inf
ROOT
ATOM      1  C   UNL     1     147.257 130.981 126.150  1.00  0.00     0.012 C 
ENDROOT
BRANCH   1   2
ATOM      2  C   UNL     1     147.048 130.913 124.630  1.00  0.00     0.061 C 
BRANCH   2   3
ATOM      3  C   UNL     1     147.961 129.854 123.997  1.00  0.00     0.258 C 
BRANCH   3   4
ATOM      4  N   UNL     1     147.222 128.619 123.731  1.00  0.00    -0.358 N 
ATOM      5  H   UNL     1     146.544 128.452 124.510  1.00  0.00     0.344 HD
ATOM      6  H   UNL     1     146.692 128.705 122.833  1.00  0.00     0.344 HD
ATOM      7  H   UNL     1     147.882 127.810 123.678  1.00  0.00     0.344 HD
ENDBRANCH   3   4
ENDBRANCH   2   3
ENDBRANCH   1   2
BRANCH   1   8
ATOM      8  C   UNL     1     145.998 130.590 126.946  1.00  0.00     0.072 C 
BRANCH   8   9
ATOM      9  C   UNL     1     146.110 129.237 127.689  1.00  0.00     0.227 C 
BRANCH   9  10
ATOM     10  N   UNL     1     147.413 128.615 127.422  1.00  0.00    -0.350 N 
ATOM     11  H   UNL     1     147.319 127.841 126.725  1.00  0.00     0.345 HD
ATOM     12  H   UNL     1     148.079 129.332 127.050  1.00  0.00     0.345 HD
ATOM     13  H   UNL     1     147.810 128.230 128.308  1.00  0.00     0.345 HD
ENDBRANCH   9  10
BRANCH   9  14
ATOM     14  C   UNL     1     145.913 129.408 129.173  1.00  0.00     0.099 C 
ATOM     15  O   UNL     1     146.844 129.855 129.894  1.00  0.00    -0.544 OA
ATOM     16  O   UNL     1     144.693 129.083 129.753  1.00  0.00    -0.544 OA
ENDBRANCH   9  14
ENDBRANCH   8   9
ENDBRANCH   1   8
TORSDOF 7
ENDMDL
