MODEL 1
REMARK VINA RESULT:    -3.254      0.000      0.000
REMARK INTER + INTRA:          -7.700
REMARK INTER:                  -5.728
REMARK INTRA:                  -1.972
REMARK UNBOUND:                -1.972
REMARK SMILES CCCCCCCCCCCCCCC(=O)[O-]
REMARK SMILES IDX 9 1 10 2 11 3 12 4 13 5 14 6 15 7 16 8 17 9 8 10 7 11 6 12
REMARK SMILES IDX 5 13 4 14 3 15 2 16 1 17
REMARK H PARENT
REMARK Flexibility Score: inf
ROOT
ATOM      1  C   UNL     1       1.972 108.439 179.070  1.00  0.00     0.000 C 
ENDROOT
BRANCH   1   2
ATOM      2  C   UNL     1       3.005 108.679 180.184  1.00  0.00     0.000 C 
BRANCH   2   3
ATOM      3  C   UNL     1       2.400 108.554 181.595  1.00  0.00     0.000 C 
BRANCH   3   4
ATOM      4  C   UNL     1       3.352 107.991 182.670  1.00  0.00     0.000 C 
BRANCH   4   5
ATOM      5  C   UNL     1       4.709 107.490 182.143  1.00  0.00     0.006 C 
BRANCH   5   6
ATOM      6  C   UNL     1       5.588 106.883 183.243  1.00  0.00     0.053 C 
BRANCH   6   7
ATOM      7  C   UNL     1       6.589 107.885 183.725  1.00  0.00     0.041 C 
ATOM      8  O   UNL     1       7.818 107.703 183.516  1.00  0.00    -0.550 OA
ATOM      9  O   UNL     1       6.171 108.995 184.448  1.00  0.00    -0.550 OA
ENDBRANCH   6   7
ENDBRANCH   5   6
ENDBRANCH   4   5
ENDBRANCH   3   4
ENDBRANCH   2   3
ENDBRANCH   1   2
BRANCH   1  10
ATOM     10  C   UNL     1       0.643 107.884 179.612  1.00  0.00     0.000 C 
BRANCH  10  11
ATOM     11  C   UNL     1      -0.096 107.015 178.581  1.00  0.00    -0.000 C 
BRANCH  11  12
ATOM     12  C   UNL     1       0.643 106.922 177.233  1.00  0.00    -0.000 C 
BRANCH  12  13
ATOM     13  C   UNL     1       0.885 105.492 176.714  1.00  0.00    -0.000 C 
BRANCH  13  14
ATOM     14  C   UNL     1       1.742 104.645 177.669  1.00  0.00    -0.000 C 
BRANCH  14  15
ATOM     15  C   UNL     1       3.236 105.004 177.595  1.00  0.00    -0.000 C 
BRANCH  15  16
ATOM     16  C   UNL     1       3.859 105.234 178.980  1.00  0.00    -0.003 C 
ATOM     17  C   UNL     1       2.835 105.000 180.087  1.00  0.00     0.004 C 
ENDBRANCH  15  16
ENDBRANCH  14  15
ENDBRANCH  13  14
ENDBRANCH  12  13
ENDBRANCH  11  12
ENDBRANCH  10  11
ENDBRANCH   1  10
TORSDOF 13
ENDMDL
MODEL 2
REMARK VINA RESULT:    -3.215      3.019      5.799
REMARK INTER + INTRA:          -7.630
REMARK INTER:                  -6.119
REMARK INTRA:                  -1.511
REMARK UNBOUND:                -1.972
REMARK SMILES CCCCCCCCCCCCCCC(=O)[O-]
REMARK SMILES IDX 9 1 10 2 11 3 12 4 13 5 14 6 15 7 16 8 17 9 8 10 7 11 6 12
REMARK SMILES IDX 5 13 4 14 3 15 2 16 1 17
REMARK H PARENT
REMARK Flexibility Score: inf
ROOT
ATOM      1  C   UNL     1       6.830 111.009 184.257  1.00  0.00     0.000 C 
ENDROOT
BRANCH   1   2
ATOM      2  C   UNL     1       5.863 111.943 185.004  1.00  0.00     0.000 C 
BRANCH   2   3
ATOM      3  C   UNL     1       4.573 112.222 184.213  1.00  0.00     0.000 C 
BRANCH   3   4
ATOM      4  C   UNL     1       4.583 111.739 182.748  1.00  0.00     0.000 C 
BRANCH   4   5
ATOM      5  C   UNL     1       3.732 110.487 182.468  1.00  0.00     0.006 C 
BRANCH   5   6
ATOM      6  C   UNL     1       2.523 110.367 183.405  1.00  0.00     0.053 C 
BRANCH   6   7
ATOM      7  C   UNL     1       1.812 109.071 183.176  1.00  0.00     0.041 C 
ATOM      8  O   UNL     1       1.698 108.607 182.011  1.00  0.00    -0.550 OA
ATOM      9  O   UNL     1       1.229 108.399 184.244  1.00  0.00    -0.550 OA
ENDBRANCH   6   7
ENDBRANCH   5   6
ENDBRANCH   4   5
ENDBRANCH   3   4
ENDBRANCH   2   3
ENDBRANCH   1   2
BRANCH   1  10
ATOM     10  C   UNL     1       6.754 109.558 184.762  1.00  0.00     0.000 C 
BRANCH  10  11
ATOM     11  C   UNL     1       6.648 108.539 183.615  1.00  0.00    -0.000 C 
BRANCH  11  12
ATOM     12  C   UNL     1       5.599 107.443 183.881  1.00  0.00    -0.000 C 
BRANCH  12  13
ATOM     13  C   UNL     1       4.843 106.944 182.636  1.00  0.00    -0.000 C 
BRANCH  13  14
ATOM     14  C   UNL     1       5.713 106.938 181.368  1.00  0.00    -0.000 C 
BRANCH  14  15
ATOM     15  C   UNL     1       5.158 106.008 180.276  1.00  0.00    -0.000 C 
BRANCH  15  16
ATOM     16  C   UNL     1       3.708 106.340 179.896  1.00  0.00    -0.003 C 
ATOM     17  C   UNL     1       2.861 105.074 179.804  1.00  0.00     0.004 C 
ENDBRANCH  15  16
ENDBRANCH  14  15
ENDBRANCH  13  14
ENDBRANCH  12  13
ENDBRANCH  11  12
ENDBRANCH  10  11
ENDBRANCH   1  10
TORSDOF 13
ENDMDL
MODEL 3
REMARK VINA RESULT:    -3.152      1.141      2.713
REMARK INTER + INTRA:          -7.520
REMARK INTER:                  -5.314
REMARK INTRA:                  -2.206
REMARK UNBOUND:                -1.972
REMARK SMILES CCCCCCCCCCCCCCC(=O)[O-]
REMARK SMILES IDX 9 1 10 2 11 3 12 4 13 5 14 6 15 7 16 8 17 9 8 10 7 11 6 12
REMARK SMILES IDX 5 13 4 14 3 15 2 16 1 17
REMARK H PARENT
REMARK Flexibility Score: inf
ROOT
ATOM      1  C   UNL     1       3.689 108.451 179.098  1.00  0.00     0.000 C 
ENDROOT
BRANCH   1   2
ATOM      2  C   UNL     1       3.669 109.154 180.465  1.00  0.00     0.000 C 
BRANCH   2   3
ATOM      3  C   UNL     1       2.670 108.517 181.449  1.00  0.00     0.000 C 
BRANCH   3   4
ATOM      4  C   UNL     1       3.279 108.031 182.780  1.00  0.00     0.000 C 
BRANCH   4   5
ATOM      5  C   UNL     1       4.597 107.246 182.646  1.00  0.00     0.006 C 
BRANCH   5   6
ATOM      6  C   UNL     1       5.616 107.604 183.736  1.00  0.00     0.053 C 
BRANCH   6   7
ATOM      7  C   UNL     1       6.150 108.984 183.518  1.00  0.00     0.041 C 
ATOM      8  O   UNL     1       6.623 109.312 182.398  1.00  0.00    -0.550 OA
ATOM      9  O   UNL     1       6.173 109.894 184.568  1.00  0.00    -0.550 OA
ENDBRANCH   6   7
ENDBRANCH   5   6
ENDBRANCH   4   5
ENDBRANCH   3   4
ENDBRANCH   2   3
ENDBRANCH   1   2
BRANCH   1  10
ATOM     10  C   UNL     1       4.884 107.494 178.947  1.00  0.00     0.000 C 
BRANCH  10  11
ATOM     11  C   UNL     1       4.450 106.060 178.598  1.00  0.00    -0.000 C 
BRANCH  11  12
ATOM     12  C   UNL     1       3.680 105.370 179.739  1.00  0.00    -0.000 C 
BRANCH  12  13
ATOM     13  C   UNL     1       2.213 105.026 179.426  1.00  0.00    -0.000 C 
BRANCH  13  14
ATOM     14  C   UNL     1       1.856 105.216 177.942  1.00  0.00    -0.000 C 
BRANCH  14  15
ATOM     15  C   UNL     1       0.702 106.212 177.737  1.00  0.00    -0.000 C 
BRANCH  15  16
ATOM     16  C   UNL     1       0.288 106.915 179.038  1.00  0.00    -0.003 C 
ATOM     17  C   UNL     1      -0.035 108.386 178.787  1.00  0.00     0.004 C 
ENDBRANCH  15  16
ENDBRANCH  14  15
ENDBRANCH  13  14
ENDBRANCH  12  13
ENDBRANCH  11  12
ENDBRANCH  10  11
ENDBRANCH   1  10
TORSDOF 13
ENDMDL
MODEL 4
REMARK VINA RESULT:    -3.150      4.055      6.331
REMARK INTER + INTRA:          -7.517
REMARK INTER:                  -5.509
REMARK INTRA:                  -2.008
REMARK UNBOUND:                -1.972
REMARK SMILES CCCCCCCCCCCCCCC(=O)[O-]
REMARK SMILES IDX 9 1 10 2 11 3 12 4 13 5 14 6 15 7 16 8 17 9 8 10 7 11 6 12
REMARK SMILES IDX 5 13 4 14 3 15 2 16 1 17
REMARK H PARENT
REMARK Flexibility Score: inf
ROOT
ATOM      1  C   UNL     1       5.625 110.803 182.526  1.00  0.00     0.000 C 
ENDROOT
BRANCH   1   2
ATOM      2  C   UNL     1       4.333 111.633 182.436  1.00  0.00     0.000 C 
BRANCH   2   3
ATOM      3  C   UNL     1       3.375 111.374 183.614  1.00  0.00     0.000 C 
BRANCH   3   4
ATOM      4  C   UNL     1       2.974 112.624 184.422  1.00  0.00     0.000 C 
BRANCH   4   5
ATOM      5  C   UNL     1       4.149 113.429 185.006  1.00  0.00     0.006 C 
BRANCH   5   6
ATOM      6  C   UNL     1       4.419 114.730 184.240  1.00  0.00     0.053 C 
BRANCH   6   7
ATOM      7  C   UNL     1       5.853 114.802 183.821  1.00  0.00     0.041 C 
ATOM      8  O   UNL     1       6.633 113.843 184.064  1.00  0.00    -0.550 OA
ATOM      9  O   UNL     1       6.342 115.949 183.208  1.00  0.00    -0.550 OA
ENDBRANCH   6   7
ENDBRANCH   5   6
ENDBRANCH   4   5
ENDBRANCH   3   4
ENDBRANCH   2   3
ENDBRANCH   1   2
BRANCH   1  10
ATOM     10  C   UNL     1       5.918 110.326 183.958  1.00  0.00     0.000 C 
BRANCH  10  11
ATOM     11  C   UNL     1       6.591 108.944 183.994  1.00  0.00    -0.000 C 
BRANCH  11  12
ATOM     12  C   UNL     1       5.583 107.783 183.914  1.00  0.00    -0.000 C 
BRANCH  12  13
ATOM     13  C   UNL     1       5.550 107.033 182.570  1.00  0.00    -0.000 C 
BRANCH  13  14
ATOM     14  C   UNL     1       4.121 106.770 182.065  1.00  0.00    -0.000 C 
BRANCH  14  15
ATOM     15  C   UNL     1       3.171 107.947 182.344  1.00  0.00    -0.000 C 
BRANCH  15  16
ATOM     16  C   UNL     1       2.496 108.477 181.071  1.00  0.00    -0.003 C 
ATOM     17  C   UNL     1       3.534 108.900 180.035  1.00  0.00     0.004 C 
ENDBRANCH  15  16
ENDBRANCH  14  15
ENDBRANCH  13  14
ENDBRANCH  12  13
ENDBRANCH  11  12
ENDBRANCH  10  11
ENDBRANCH   1  10
TORSDOF 13
ENDMDL
MODEL 5
REMARK VINA RESULT:    -3.078      3.076      6.273
REMARK INTER + INTRA:          -7.389
REMARK INTER:                  -5.652
REMARK INTRA:                  -1.736
REMARK UNBOUND:                -1.972
REMARK SMILES CCCCCCCCCCCCCCC(=O)[O-]
REMARK SMILES IDX 9 1 10 2 11 3 12 4 13 5 14 6 15 7 16 8 17 9 8 10 7 11 6 12
REMARK SMILES IDX 5 13 4 14 3 15 2 16 1 17
REMARK H PARENT
REMARK Flexibility Score: inf
ROOT
ATOM      1  C   UNL     1       1.885 107.929 180.310  1.00  0.00     0.000 C 
ENDROOT
BRANCH   1   2
ATOM      2  C   UNL     1       0.885 108.113 179.156  1.00  0.00     0.000 C 
BRANCH   2   3
ATOM      3  C   UNL     1       0.195 106.798 178.749  1.00  0.00     0.000 C 
BRANCH   3   4
ATOM      4  C   UNL     1       0.289 106.443 177.251  1.00  0.00     0.000 C 
BRANCH   4   5
ATOM      5  C   UNL     1       0.969 105.098 176.941  1.00  0.00     0.006 C 
BRANCH   5   6
ATOM      6  C   UNL     1       2.053 104.729 177.962  1.00  0.00     0.053 C 
BRANCH   6   7
ATOM      7  C   UNL     1       3.411 104.833 177.343  1.00  0.00     0.041 C 
ATOM      8  O   UNL     1       4.229 103.882 177.447  1.00  0.00    -0.550 OA
ATOM      9  O   UNL     1       3.791 106.001 176.693  1.00  0.00    -0.550 OA
ENDBRANCH   6   7
ENDBRANCH   5   6
ENDBRANCH   4   5
ENDBRANCH   3   4
ENDBRANCH   2   3
ENDBRANCH   1   2
BRANCH   1  10
ATOM     10  C   UNL     1       3.314 107.659 179.810  1.00  0.00     0.000 C 
BRANCH  10  11
ATOM     11  C   UNL     1       4.019 106.550 180.610  1.00  0.00    -0.000 C 
BRANCH  11  12
ATOM     12  C   UNL     1       3.907 106.744 182.133  1.00  0.00    -0.000 C 
BRANCH  12  13
ATOM     13  C   UNL     1       5.183 107.260 182.824  1.00  0.00    -0.000 C 
BRANCH  13  14
ATOM     14  C   UNL     1       4.981 108.617 183.519  1.00  0.00    -0.000 C 
BRANCH  14  15
ATOM     15  C   UNL     1       4.801 109.771 182.518  1.00  0.00    -0.000 C 
BRANCH  15  16
ATOM     16  C   UNL     1       3.678 110.737 182.925  1.00  0.00    -0.003 C 
ATOM     17  C   UNL     1       2.399 109.979 183.266  1.00  0.00     0.004 C 
ENDBRANCH  15  16
ENDBRANCH  14  15
ENDBRANCH  13  14
ENDBRANCH  12  13
ENDBRANCH  11  12
ENDBRANCH  10  11
ENDBRANCH   1  10
TORSDOF 13
ENDMDL
MODEL 6
REMARK VINA RESULT:    -3.056      3.244      6.270
REMARK INTER + INTRA:          -7.352
REMARK INTER:                  -5.537
REMARK INTRA:                  -1.814
REMARK UNBOUND:                -1.972
REMARK SMILES CCCCCCCCCCCCCCC(=O)[O-]
REMARK SMILES IDX 9 1 10 2 11 3 12 4 13 5 14 6 15 7 16 8 17 9 8 10 7 11 6 12
REMARK SMILES IDX 5 13 4 14 3 15 2 16 1 17
REMARK H PARENT
REMARK Flexibility Score: inf
ROOT
ATOM      1  C   UNL     1       4.109 107.349 179.904  1.00  0.00     0.000 C 
ENDROOT
BRANCH   1   2
ATOM      2  C   UNL     1       3.650 106.161 180.767  1.00  0.00     0.000 C 
BRANCH   2   3
ATOM      3  C   UNL     1       2.951 105.062 179.945  1.00  0.00     0.000 C 
BRANCH   3   4
ATOM      4  C   UNL     1       3.625 104.718 178.601  1.00  0.00     0.000 C 
BRANCH   4   5
ATOM      5  C   UNL     1       2.808 105.084 177.348  1.00  0.00     0.006 C 
BRANCH   5   6
ATOM      6  C   UNL     1       1.303 105.183 177.627  1.00  0.00     0.053 C 
BRANCH   6   7
ATOM      7  C   UNL     1       0.906 106.608 177.851  1.00  0.00     0.041 C 
ATOM      8  O   UNL     1       0.096 106.904 178.770  1.00  0.00    -0.550 OA
ATOM      9  O   UNL     1       1.390 107.605 177.014  1.00  0.00    -0.550 OA
ENDBRANCH   6   7
ENDBRANCH   5   6
ENDBRANCH   4   5
ENDBRANCH   3   4
ENDBRANCH   2   3
ENDBRANCH   1   2
BRANCH   1  10
ATOM     10  C   UNL     1       3.213 108.585 180.084  1.00  0.00     0.000 C 
BRANCH  10  11
ATOM     11  C   UNL     1       2.231 108.436 181.259  1.00  0.00    -0.000 C 
BRANCH  11  12
ATOM     12  C   UNL     1       2.644 109.258 182.494  1.00  0.00    -0.000 C 
BRANCH  12  13
ATOM     13  C   UNL     1       3.809 110.239 182.270  1.00  0.00    -0.000 C 
BRANCH  13  14
ATOM     14  C   UNL     1       4.993 109.990 183.219  1.00  0.00    -0.000 C 
BRANCH  14  15
ATOM     15  C   UNL     1       5.135 108.509 183.610  1.00  0.00    -0.000 C 
BRANCH  15  16
ATOM     16  C   UNL     1       6.326 107.827 182.922  1.00  0.00    -0.003 C 
ATOM     17  C   UNL     1       6.376 106.339 183.259  1.00  0.00     0.004 C 
ENDBRANCH  15  16
ENDBRANCH  14  15
ENDBRANCH  13  14
ENDBRANCH  12  13
ENDBRANCH  11  12
ENDBRANCH  10  11
ENDBRANCH   1  10
TORSDOF 13
ENDMDL
MODEL 7
REMARK VINA RESULT:    -3.053      1.985      3.468
REMARK INTER + INTRA:          -7.345
REMARK INTER:                  -5.329
REMARK INTRA:                  -2.016
REMARK UNBOUND:                -1.972
REMARK SMILES CCCCCCCCCCCCCCC(=O)[O-]
REMARK SMILES IDX 9 1 10 2 11 3 12 4 13 5 14 6 15 7 16 8 17 9 8 10 7 11 6 12
REMARK SMILES IDX 5 13 4 14 3 15 2 16 1 17
REMARK H PARENT
REMARK Flexibility Score: inf
ROOT
ATOM      1  C   UNL     1       4.938 105.882 180.273  1.00  0.00     0.000 C 
ENDROOT
BRANCH   1   2
ATOM      2  C   UNL     1       5.424 107.317 180.006  1.00  0.00     0.000 C 
BRANCH   2   3
ATOM      3  C   UNL     1       4.412 108.148 179.196  1.00  0.00     0.000 C 
BRANCH   3   4
ATOM      4  C   UNL     1       4.060 109.523 179.798  1.00  0.00     0.000 C 
BRANCH   4   5
ATOM      5  C   UNL     1       4.712 109.826 181.160  1.00  0.00     0.006 C 
BRANCH   5   6
ATOM      6  C   UNL     1       3.694 110.250 182.226  1.00  0.00     0.053 C 
BRANCH   6   7
ATOM      7  C   UNL     1       3.063 109.048 182.854  1.00  0.00     0.041 C 
ATOM      8  O   UNL     1       3.778 108.086 183.240  1.00  0.00    -0.550 OA
ATOM      9  O   UNL     1       1.680 108.967 182.968  1.00  0.00    -0.550 OA
ENDBRANCH   6   7
ENDBRANCH   5   6
ENDBRANCH   4   5
ENDBRANCH   3   4
ENDBRANCH   2   3
ENDBRANCH   1   2
BRANCH   1  10
ATOM     10  C   UNL     1       3.442 105.825 180.620  1.00  0.00     0.000 C 
BRANCH  10  11
ATOM     11  C   UNL     1       2.658 104.874 179.699  1.00  0.00    -0.000 C 
BRANCH  11  12
ATOM     12  C   UNL     1       3.417 104.534 178.403  1.00  0.00    -0.000 C 
BRANCH  12  13
ATOM     13  C   UNL     1       2.695 104.922 177.099  1.00  0.00    -0.000 C 
BRANCH  13  14
ATOM     14  C   UNL     1       1.163 104.916 177.238  1.00  0.00    -0.000 C 
BRANCH  14  15
ATOM     15  C   UNL     1       0.532 106.267 176.860  1.00  0.00    -0.000 C 
BRANCH  15  16
ATOM     16  C   UNL     1       1.199 107.452 177.573  1.00  0.00    -0.003 C 
ATOM     17  C   UNL     1       0.539 107.723 178.922  1.00  0.00     0.004 C 
ENDBRANCH  15  16
ENDBRANCH  14  15
ENDBRANCH  13  14
ENDBRANCH  12  13
ENDBRANCH  11  12
ENDBRANCH  10  11
ENDBRANCH   1  10
TORSDOF 13
ENDMDL
MODEL 8
REMARK VINA RESULT:    -3.038      1.916      3.528
REMARK INTER + INTRA:          -7.319
REMARK INTER:                  -5.586
REMARK INTRA:                  -1.733
REMARK UNBOUND:                -1.972
REMARK SMILES CCCCCCCCCCCCCCC(=O)[O-]
REMARK SMILES IDX 9 1 10 2 11 3 12 4 13 5 14 6 15 7 16 8 17 9 8 10 7 11 6 12
REMARK SMILES IDX 5 13 4 14 3 15 2 16 1 17
REMARK H PARENT
REMARK Flexibility Score: inf
ROOT
ATOM      1  C   UNL     1       5.453 106.885 179.692  1.00  0.00     0.000 C 
ENDROOT
BRANCH   1   2
ATOM      2  C   UNL     1       6.080 105.919 180.712  1.00  0.00     0.000 C 
BRANCH   2   3
ATOM      3  C   UNL     1       6.702 106.647 181.917  1.00  0.00     0.000 C 
BRANCH   3   4
ATOM      4  C   UNL     1       5.882 106.579 183.221  1.00  0.00     0.000 C 
BRANCH   4   5
ATOM      5  C   UNL     1       5.516 107.943 183.834  1.00  0.00     0.006 C 
BRANCH   5   6
ATOM      6  C   UNL     1       5.026 108.953 182.789  1.00  0.00     0.053 C 
BRANCH   6   7
ATOM      7  C   UNL     1       3.552 109.173 182.926  1.00  0.00     0.041 C 
ATOM      8  O   UNL     1       2.765 108.190 182.951  1.00  0.00    -0.550 OA
ATOM      9  O   UNL     1       3.043 110.464 182.974  1.00  0.00    -0.550 OA
ENDBRANCH   6   7
ENDBRANCH   5   6
ENDBRANCH   4   5
ENDBRANCH   3   4
ENDBRANCH   2   3
ENDBRANCH   1   2
BRANCH   1  10
ATOM     10  C   UNL     1       3.921 106.954 179.814  1.00  0.00     0.000 C 
BRANCH  10  11
ATOM     11  C   UNL     1       3.310 105.636 180.319  1.00  0.00    -0.000 C 
BRANCH  11  12
ATOM     12  C   UNL     1       2.825 104.722 179.178  1.00  0.00    -0.000 C 
BRANCH  12  13
ATOM     13  C   UNL     1       2.628 105.419 177.819  1.00  0.00    -0.000 C 
BRANCH  13  14
ATOM     14  C   UNL     1       1.287 105.067 177.154  1.00  0.00    -0.000 C 
BRANCH  14  15
ATOM     15  C   UNL     1       0.235 106.176 177.327  1.00  0.00    -0.000 C 
BRANCH  15  16
ATOM     16  C   UNL     1       0.844 107.500 177.810  1.00  0.00    -0.003 C 
ATOM     17  C   UNL     1       0.292 107.889 179.179  1.00  0.00     0.004 C 
ENDBRANCH  15  16
ENDBRANCH  14  15
ENDBRANCH  13  14
ENDBRANCH  12  13
ENDBRANCH  11  12
ENDBRANCH  10  11
ENDBRANCH   1  10
TORSDOF 13
ENDMDL
MODEL 9
REMARK VINA RESULT:    -2.987      2.065      3.593
REMARK INTER + INTRA:          -7.230
REMARK INTER:                  -5.111
REMARK INTRA:                  -2.119
REMARK UNBOUND:                -1.972
REMARK SMILES CCCCCCCCCCCCCCC(=O)[O-]
REMARK SMILES IDX 9 1 10 2 11 3 12 4 13 5 14 6 15 7 16 8 17 9 8 10 7 11 6 12
REMARK SMILES IDX 5 13 4 14 3 15 2 16 1 17
REMARK H PARENT
REMARK Flexibility Score: inf
ROOT
ATOM      1  C   UNL     1       2.914 105.093 179.432  1.00  0.00     0.000 C 
ENDROOT
BRANCH   1   2
ATOM      2  C   UNL     1       4.405 105.354 179.158  1.00  0.00     0.000 C 
BRANCH   2   3
ATOM      3  C   UNL     1       4.974 106.507 180.005  1.00  0.00     0.000 C 
BRANCH   3   4
ATOM      4  C   UNL     1       3.936 107.286 180.838  1.00  0.00     0.000 C 
BRANCH   4   5
ATOM      5  C   UNL     1       3.980 107.016 182.353  1.00  0.00     0.006 C 
BRANCH   5   6
ATOM      6  C   UNL     1       4.159 108.295 183.180  1.00  0.00     0.053 C 
BRANCH   6   7
ATOM      7  C   UNL     1       3.106 109.297 182.827  1.00  0.00     0.041 C 
ATOM      8  O   UNL     1       3.431 110.421 182.360  1.00  0.00    -0.550 OA
ATOM      9  O   UNL     1       1.766 109.010 183.061  1.00  0.00    -0.550 OA
ENDBRANCH   6   7
ENDBRANCH   5   6
ENDBRANCH   4   5
ENDBRANCH   3   4
ENDBRANCH   2   3
ENDBRANCH   1   2
BRANCH   1  10
ATOM     10  C   UNL     1       2.128 104.779 178.149  1.00  0.00     0.000 C 
BRANCH  10  11
ATOM     11  C   UNL     1       1.033 105.820 177.859  1.00  0.00    -0.000 C 
BRANCH  11  12
ATOM     12  C   UNL     1       0.679 106.678 179.088  1.00  0.00    -0.000 C 
BRANCH  12  13
ATOM     13  C   UNL     1       0.925 108.190 178.925  1.00  0.00    -0.000 C 
BRANCH  13  14
ATOM     14  C   UNL     1       1.188 108.601 177.467  1.00  0.00    -0.000 C 
BRANCH  14  15
ATOM     15  C   UNL     1       2.479 109.420 177.309  1.00  0.00    -0.000 C 
BRANCH  15  16
ATOM     16  C   UNL     1       3.735 108.539 177.236  1.00  0.00    -0.003 C 
ATOM     17  C   UNL     1       3.661 107.577 176.053  1.00  0.00     0.004 C 
ENDBRANCH  15  16
ENDBRANCH  14  15
ENDBRANCH  13  14
ENDBRANCH  12  13
ENDBRANCH  11  12
ENDBRANCH  10  11
ENDBRANCH   1  10
TORSDOF 13
ENDMDL
