MODEL 1
REMARK VINA RESULT:    -3.684      0.000      0.000
REMARK INTER + INTRA:          -7.433
REMARK INTER:                  -6.484
REMARK INTRA:                  -0.949
REMARK UNBOUND:                -0.949
REMARK SMILES CCCCCCCCCCCCCCC(=O)[O-]
REMARK SMILES IDX 9 1 10 2 11 3 12 4 13 5 14 6 15 7 16 8 17 9 8 10 7 11 6 12
REMARK SMILES IDX 5 13 4 14 3 15 2 16 1 17
REMARK H PARENT
REMARK Flexibility Score: inf
ROOT
ATOM      1  C   UNL     1      12.698  -8.219   6.372  1.00  0.00     0.000 C 
ENDROOT
BRANCH   1   2
ATOM      2  C   UNL     1      14.233  -8.239   6.275  1.00  0.00     0.000 C 
BRANCH   2   3
ATOM      3  C   UNL     1      14.758  -7.479   5.048  1.00  0.00     0.000 C 
BRANCH   3   4
ATOM      4  C   UNL     1      15.985  -6.632   5.411  1.00  0.00     0.000 C 
BRANCH   4   5
ATOM      5  C   UNL     1      16.628  -7.125   6.712  1.00  0.00     0.006 C 
BRANCH   5   6
ATOM      6  C   UNL     1      18.100  -7.490   6.494  1.00  0.00     0.053 C 
BRANCH   6   7
ATOM      7  C   UNL     1      18.834  -7.507   7.797  1.00  0.00     0.041 C 
ATOM      8  O   UNL     1      18.755  -6.525   8.582  1.00  0.00    -0.550 OA
ATOM      9  O   UNL     1      19.557  -8.631   8.173  1.00  0.00    -0.550 OA
ENDBRANCH   6   7
ENDBRANCH   5   6
ENDBRANCH   4   5
ENDBRANCH   3   4
ENDBRANCH   2   3
ENDBRANCH   1   2
BRANCH   1  10
ATOM     10  C   UNL     1      12.043  -7.469   5.199  1.00  0.00     0.000 C 
BRANCH  10  11
ATOM     11  C   UNL     1      10.528  -7.718   5.111  1.00  0.00    -0.000 C 
BRANCH  11  12
ATOM     12  C   UNL     1      10.188  -9.187   4.807  1.00  0.00    -0.000 C 
BRANCH  12  13
ATOM     13  C   UNL     1       8.928  -9.677   5.546  1.00  0.00    -0.000 C 
BRANCH  13  14
ATOM     14  C   UNL     1       8.752  -9.132   6.977  1.00  0.00    -0.000 C 
BRANCH  14  15
ATOM     15  C   UNL     1       7.348  -8.558   7.230  1.00  0.00    -0.000 C 
BRANCH  15  16
ATOM     16  C   UNL     1       6.690  -8.023   5.947  1.00  0.00    -0.003 C 
ATOM     17  C   UNL     1       5.995  -6.677   6.152  1.00  0.00     0.004 C 
ENDBRANCH  15  16
ENDBRANCH  14  15
ENDBRANCH  13  14
ENDBRANCH  12  13
ENDBRANCH  11  12
ENDBRANCH  10  11
ENDBRANCH   1  10
TORSDOF 13
ENDMDL
MODEL 2
REMARK VINA RESULT:    -3.413      4.331      8.998
REMARK INTER + INTRA:          -6.955
REMARK INTER:                  -6.101
REMARK INTRA:                  -0.854
REMARK UNBOUND:                -0.949
REMARK SMILES CCCCCCCCCCCCCCC(=O)[O-]
REMARK SMILES IDX 9 1 10 2 11 3 12 4 13 5 14 6 15 7 16 8 17 9 8 10 7 11 6 12
REMARK SMILES IDX 5 13 4 14 3 15 2 16 1 17
REMARK H PARENT
REMARK Flexibility Score: inf
ROOT
ATOM      1  C   UNL     1      13.356  -8.255   6.929  1.00  0.00     0.000 C 
ENDROOT
BRANCH   1   2
ATOM      2  C   UNL     1      12.322  -7.863   5.859  1.00  0.00     0.000 C 
BRANCH   2   3
ATOM      3  C   UNL     1      10.878  -8.148   6.299  1.00  0.00     0.000 C 
BRANCH   3   4
ATOM      4  C   UNL     1       9.941  -8.227   5.086  1.00  0.00     0.000 C 
BRANCH   4   5
ATOM      5  C   UNL     1       8.655  -8.986   5.434  1.00  0.00     0.006 C 
BRANCH   5   6
ATOM      6  C   UNL     1       8.689  -9.493   6.879  1.00  0.00     0.053 C 
BRANCH   6   7
ATOM      7  C   UNL     1       7.511  -8.978   7.642  1.00  0.00     0.041 C 
ATOM      8  O   UNL     1       7.214  -9.474   8.761  1.00  0.00    -0.550 OA
ATOM      9  O   UNL     1       6.775  -7.910   7.147  1.00  0.00    -0.550 OA
ENDBRANCH   6   7
ENDBRANCH   5   6
ENDBRANCH   4   5
ENDBRANCH   3   4
ENDBRANCH   2   3
ENDBRANCH   1   2
BRANCH   1  10
ATOM     10  C   UNL     1      14.787  -8.323   6.368  1.00  0.00     0.000 C 
BRANCH  10  11
ATOM     11  C   UNL     1      14.960  -7.490   5.088  1.00  0.00    -0.000 C 
BRANCH  11  12
ATOM     12  C   UNL     1      16.224  -6.612   5.121  1.00  0.00    -0.000 C 
BRANCH  12  13
ATOM     13  C   UNL     1      17.491  -7.369   4.678  1.00  0.00    -0.000 C 
BRANCH  13  14
ATOM     14  C   UNL     1      18.726  -7.168   5.578  1.00  0.00    -0.000 C 
BRANCH  14  15
ATOM     15  C   UNL     1      19.043  -8.399   6.443  1.00  0.00    -0.000 C 
BRANCH  15  16
ATOM     16  C   UNL     1      19.243  -8.040   7.925  1.00  0.00    -0.003 C 
ATOM     17  C   UNL     1      18.483  -6.780   8.340  1.00  0.00     0.004 C 
ENDBRANCH  15  16
ENDBRANCH  14  15
ENDBRANCH  13  14
ENDBRANCH  12  13
ENDBRANCH  11  12
ENDBRANCH  10  11
ENDBRANCH   1  10
TORSDOF 13
ENDMDL
MODEL 3
REMARK VINA RESULT:    -3.263      4.398      9.156
REMARK INTER + INTRA:          -6.691
REMARK INTER:                  -5.836
REMARK INTRA:                  -0.855
REMARK UNBOUND:                -0.949
REMARK SMILES CCCCCCCCCCCCCCC(=O)[O-]
REMARK SMILES IDX 9 1 10 2 11 3 12 4 13 5 14 6 15 7 16 8 17 9 8 10 7 11 6 12
REMARK SMILES IDX 5 13 4 14 3 15 2 16 1 17
REMARK H PARENT
REMARK Flexibility Score: inf
ROOT
ATOM      1  C   UNL     1      11.358  -7.317   5.399  1.00  0.00     0.000 C 
ENDROOT
BRANCH   1   2
ATOM      2  C   UNL     1      10.358  -8.288   6.050  1.00  0.00     0.000 C 
BRANCH   2   3
ATOM      3  C   UNL     1       9.848  -9.357   5.072  1.00  0.00     0.000 C 
BRANCH   3   4
ATOM      4  C   UNL     1       8.589 -10.043   5.617  1.00  0.00     0.000 C 
BRANCH   4   5
ATOM      5  C   UNL     1       7.894  -9.167   6.666  1.00  0.00     0.006 C 
BRANCH   5   6
ATOM      6  C   UNL     1       6.522  -8.699   6.169  1.00  0.00     0.053 C 
BRANCH   6   7
ATOM      7  C   UNL     1       6.576  -7.261   5.761  1.00  0.00     0.041 C 
ATOM      8  O   UNL     1       7.230  -6.916   4.742  1.00  0.00    -0.550 OA
ATOM      9  O   UNL     1       5.854  -6.310   6.470  1.00  0.00    -0.550 OA
ENDBRANCH   6   7
ENDBRANCH   5   6
ENDBRANCH   4   5
ENDBRANCH   3   4
ENDBRANCH   2   3
ENDBRANCH   1   2
BRANCH   1  10
ATOM     10  C   UNL     1      12.741  -7.955   5.178  1.00  0.00     0.000 C 
BRANCH  10  11
ATOM     11  C   UNL     1      13.488  -8.216   6.497  1.00  0.00    -0.000 C 
BRANCH  11  12
ATOM     12  C   UNL     1      15.008  -8.346   6.298  1.00  0.00    -0.000 C 
BRANCH  12  13
ATOM     13  C   UNL     1      15.673  -7.023   5.874  1.00  0.00    -0.000 C 
BRANCH  13  14
ATOM     14  C   UNL     1      17.116  -7.150   5.349  1.00  0.00    -0.000 C 
BRANCH  14  15
ATOM     15  C   UNL     1      18.003  -8.033   6.243  1.00  0.00    -0.000 C 
BRANCH  15  16
ATOM     16  C   UNL     1      19.035  -7.215   7.038  1.00  0.00    -0.003 C 
ATOM     17  C   UNL     1      18.525  -6.793   8.417  1.00  0.00     0.004 C 
ENDBRANCH  15  16
ENDBRANCH  14  15
ENDBRANCH  13  14
ENDBRANCH  12  13
ENDBRANCH  11  12
ENDBRANCH  10  11
ENDBRANCH   1  10
TORSDOF 13
ENDMDL
MODEL 4
REMARK VINA RESULT:    -2.994      4.576      9.747
REMARK INTER + INTRA:          -6.218
REMARK INTER:                  -5.678
REMARK INTRA:                  -0.540
REMARK UNBOUND:                -0.949
REMARK SMILES CCCCCCCCCCCCCCC(=O)[O-]
REMARK SMILES IDX 9 1 10 2 11 3 12 4 13 5 14 6 15 7 16 8 17 9 8 10 7 11 6 12
REMARK SMILES IDX 5 13 4 14 3 15 2 16 1 17
REMARK H PARENT
REMARK Flexibility Score: inf
ROOT
ATOM      1  C   UNL     1      13.939  -7.953   5.985  1.00  0.00     0.000 C 
ENDROOT
BRANCH   1   2
ATOM      2  C   UNL     1      12.584  -8.391   5.407  1.00  0.00     0.000 C 
BRANCH   2   3
ATOM      3  C   UNL     1      11.438  -7.449   5.805  1.00  0.00     0.000 C 
BRANCH   3   4
ATOM      4  C   UNL     1      10.094  -7.965   5.274  1.00  0.00     0.000 C 
BRANCH   4   5
ATOM      5  C   UNL     1       9.545  -9.087   6.164  1.00  0.00     0.006 C 
BRANCH   5   6
ATOM      6  C   UNL     1       8.037  -9.261   5.962  1.00  0.00     0.053 C 
BRANCH   6   7
ATOM      7  C   UNL     1       7.278  -8.456   6.969  1.00  0.00     0.041 C 
ATOM      8  O   UNL     1       7.459  -8.647   8.200  1.00  0.00    -0.550 OA
ATOM      9  O   UNL     1       6.415  -7.452   6.548  1.00  0.00    -0.550 OA
ENDBRANCH   6   7
ENDBRANCH   5   6
ENDBRANCH   4   5
ENDBRANCH   3   4
ENDBRANCH   2   3
ENDBRANCH   1   2
BRANCH   1  10
ATOM     10  C   UNL     1      14.817  -7.230   4.948  1.00  0.00     0.000 C 
BRANCH  10  11
ATOM     11  C   UNL     1      16.212  -6.883   5.493  1.00  0.00    -0.000 C 
BRANCH  11  12
ATOM     12  C   UNL     1      17.256  -6.709   4.377  1.00  0.00    -0.000 C 
BRANCH  12  13
ATOM     13  C   UNL     1      18.274  -7.864   4.323  1.00  0.00    -0.000 C 
BRANCH  13  14
ATOM     14  C   UNL     1      19.752  -7.445   4.445  1.00  0.00    -0.000 C 
BRANCH  14  15
ATOM     15  C   UNL     1      19.957  -6.239   5.377  1.00  0.00    -0.000 C 
BRANCH  15  16
ATOM     16  C   UNL     1      20.806  -5.133   4.729  1.00  0.00    -0.003 C 
ATOM     17  C   UNL     1      21.996  -5.682   3.940  1.00  0.00     0.004 C 
ENDBRANCH  15  16
ENDBRANCH  14  15
ENDBRANCH  13  14
ENDBRANCH  12  13
ENDBRANCH  11  12
ENDBRANCH  10  11
ENDBRANCH   1  10
TORSDOF 13
ENDMDL
MODEL 5
REMARK VINA RESULT:    -2.976      4.048      8.603
REMARK INTER + INTRA:          -6.187
REMARK INTER:                  -5.039
REMARK INTRA:                  -1.148
REMARK UNBOUND:                -0.949
REMARK SMILES CCCCCCCCCCCCCCC(=O)[O-]
REMARK SMILES IDX 9 1 10 2 11 3 12 4 13 5 14 6 15 7 16 8 17 9 8 10 7 11 6 12
REMARK SMILES IDX 5 13 4 14 3 15 2 16 1 17
REMARK H PARENT
REMARK Flexibility Score: inf
ROOT
ATOM      1  C   UNL     1      15.795  -8.982   6.090  1.00  0.00     0.000 C 
ENDROOT
BRANCH   1   2
ATOM      2  C   UNL     1      14.585  -8.161   6.568  1.00  0.00     0.000 C 
BRANCH   2   3
ATOM      3  C   UNL     1      13.279  -8.574   5.873  1.00  0.00     0.000 C 
BRANCH   3   4
ATOM      4  C   UNL     1      12.774  -7.460   4.947  1.00  0.00     0.000 C 
BRANCH   4   5
ATOM      5  C   UNL     1      11.244  -7.369   4.978  1.00  0.00     0.006 C 
BRANCH   5   6
ATOM      6  C   UNL     1      10.686  -7.944   6.284  1.00  0.00     0.053 C 
BRANCH   6   7
ATOM      7  C   UNL     1       9.488  -8.797   6.010  1.00  0.00     0.041 C 
ATOM      8  O   UNL     1       9.136  -9.033   4.824  1.00  0.00    -0.550 OA
ATOM      9  O   UNL     1       8.795  -9.380   7.062  1.00  0.00    -0.550 OA
ENDBRANCH   6   7
ENDBRANCH   5   6
ENDBRANCH   4   5
ENDBRANCH   3   4
ENDBRANCH   2   3
ENDBRANCH   1   2
BRANCH   1  10
ATOM     10  C   UNL     1      15.834  -9.139   4.560  1.00  0.00     0.000 C 
BRANCH  10  11
ATOM     11  C   UNL     1      17.032  -8.416   3.922  1.00  0.00    -0.000 C 
BRANCH  11  12
ATOM     12  C   UNL     1      17.371  -7.094   4.633  1.00  0.00    -0.000 C 
BRANCH  12  13
ATOM     13  C   UNL     1      18.842  -6.675   4.449  1.00  0.00    -0.000 C 
BRANCH  13  14
ATOM     14  C   UNL     1      19.756  -6.935   5.662  1.00  0.00    -0.000 C 
BRANCH  14  15
ATOM     15  C   UNL     1      19.417  -8.242   6.399  1.00  0.00    -0.000 C 
BRANCH  15  16
ATOM     16  C   UNL     1      19.280  -8.042   7.917  1.00  0.00    -0.003 C 
ATOM     17  C   UNL     1      18.444  -6.815   8.283  1.00  0.00     0.004 C 
ENDBRANCH  15  16
ENDBRANCH  14  15
ENDBRANCH  13  14
ENDBRANCH  12  13
ENDBRANCH  11  12
ENDBRANCH  10  11
ENDBRANCH   1  10
TORSDOF 13
ENDMDL
MODEL 6
REMARK VINA RESULT:    -2.952      1.301      2.127
REMARK INTER + INTRA:          -6.144
REMARK INTER:                  -5.213
REMARK INTRA:                  -0.932
REMARK UNBOUND:                -0.949
REMARK SMILES CCCCCCCCCCCCCCC(=O)[O-]
REMARK SMILES IDX 9 1 10 2 11 3 12 4 13 5 14 6 15 7 16 8 17 9 8 10 7 11 6 12
REMARK SMILES IDX 5 13 4 14 3 15 2 16 1 17
REMARK H PARENT
REMARK Flexibility Score: inf
ROOT
ATOM      1  C   UNL     1      15.112  -7.826   5.695  1.00  0.00     0.000 C 
ENDROOT
BRANCH   1   2
ATOM      2  C   UNL     1      15.345  -9.342   5.815  1.00  0.00     0.000 C 
BRANCH   2   3
ATOM      3  C   UNL     1      16.820  -9.730   5.638  1.00  0.00     0.000 C 
BRANCH   3   4
ATOM      4  C   UNL     1      17.571  -8.673   4.817  1.00  0.00     0.000 C 
BRANCH   4   5
ATOM      5  C   UNL     1      18.964  -8.411   5.400  1.00  0.00     0.006 C 
BRANCH   5   6
ATOM      6  C   UNL     1      18.974  -7.135   6.249  1.00  0.00     0.053 C 
BRANCH   6   7
ATOM      7  C   UNL     1      19.041  -7.475   7.704  1.00  0.00     0.041 C 
ATOM      8  O   UNL     1      18.585  -6.677   8.563  1.00  0.00    -0.550 OA
ATOM      9  O   UNL     1      19.555  -8.700   8.108  1.00  0.00    -0.550 OA
ENDBRANCH   6   7
ENDBRANCH   5   6
ENDBRANCH   4   5
ENDBRANCH   3   4
ENDBRANCH   2   3
ENDBRANCH   1   2
BRANCH   1  10
ATOM     10  C   UNL     1      14.176  -7.465   4.529  1.00  0.00     0.000 C 
BRANCH  10  11
ATOM     11  C   UNL     1      12.970  -8.413   4.423  1.00  0.00    -0.000 C 
BRANCH  11  12
ATOM     12  C   UNL     1      11.638  -7.712   4.742  1.00  0.00    -0.000 C 
BRANCH  12  13
ATOM     13  C   UNL     1      11.208  -7.884   6.212  1.00  0.00    -0.000 C 
BRANCH  13  14
ATOM     14  C   UNL     1       9.909  -8.685   6.428  1.00  0.00    -0.000 C 
BRANCH  14  15
ATOM     15  C   UNL     1       8.787  -8.279   5.459  1.00  0.00    -0.000 C 
BRANCH  15  16
ATOM     16  C   UNL     1       7.391  -8.390   6.096  1.00  0.00    -0.003 C 
ATOM     17  C   UNL     1       7.443  -8.739   7.584  1.00  0.00     0.004 C 
ENDBRANCH  15  16
ENDBRANCH  14  15
ENDBRANCH  13  14
ENDBRANCH  12  13
ENDBRANCH  11  12
ENDBRANCH  10  11
ENDBRANCH   1  10
TORSDOF 13
ENDMDL
MODEL 7
REMARK VINA RESULT:    -2.792      2.740      5.116
REMARK INTER + INTRA:          -5.863
REMARK INTER:                  -4.867
REMARK INTRA:                  -0.996
REMARK UNBOUND:                -0.949
REMARK SMILES CCCCCCCCCCCCCCC(=O)[O-]
REMARK SMILES IDX 9 1 10 2 11 3 12 4 13 5 14 6 15 7 16 8 17 9 8 10 7 11 6 12
REMARK SMILES IDX 5 13 4 14 3 15 2 16 1 17
REMARK H PARENT
REMARK Flexibility Score: inf
ROOT
ATOM      1  C   UNL     1      19.282  -6.538   4.978  1.00  0.00     0.000 C 
ENDROOT
BRANCH   1   2
ATOM      2  C   UNL     1      20.350  -7.644   4.963  1.00  0.00     0.000 C 
BRANCH   2   3
ATOM      3  C   UNL     1      19.742  -9.055   4.975  1.00  0.00     0.000 C 
BRANCH   3   4
ATOM      4  C   UNL     1      19.144  -9.383   6.349  1.00  0.00     0.000 C 
BRANCH   4   5
ATOM      5  C   UNL     1      20.039  -8.860   7.478  1.00  0.00     0.006 C 
BRANCH   5   6
ATOM      6  C   UNL     1      19.203  -8.412   8.681  1.00  0.00     0.053 C 
BRANCH   6   7
ATOM      7  C   UNL     1      18.636  -7.047   8.445  1.00  0.00     0.041 C 
ATOM      8  O   UNL     1      19.302  -6.023   8.749  1.00  0.00    -0.550 OA
ATOM      9  O   UNL     1      17.397  -6.905   7.834  1.00  0.00    -0.550 OA
ENDBRANCH   6   7
ENDBRANCH   5   6
ENDBRANCH   4   5
ENDBRANCH   3   4
ENDBRANCH   2   3
ENDBRANCH   1   2
BRANCH   1  10
ATOM     10  C   UNL     1      18.225  -6.724   3.876  1.00  0.00     0.000 C 
BRANCH  10  11
ATOM     11  C   UNL     1      16.808  -6.911   4.442  1.00  0.00    -0.000 C 
BRANCH  11  12
ATOM     12  C   UNL     1      16.354  -8.381   4.423  1.00  0.00    -0.000 C 
BRANCH  12  13
ATOM     13  C   UNL     1      14.825  -8.536   4.313  1.00  0.00    -0.000 C 
BRANCH  13  14
ATOM     14  C   UNL     1      14.001  -7.499   5.101  1.00  0.00    -0.000 C 
BRANCH  14  15
ATOM     15  C   UNL     1      12.875  -8.135   5.932  1.00  0.00    -0.000 C 
BRANCH  15  16
ATOM     16  C   UNL     1      11.492  -7.560   5.586  1.00  0.00    -0.003 C 
ATOM     17  C   UNL     1      11.425  -6.981   4.173  1.00  0.00     0.004 C 
ENDBRANCH  15  16
ENDBRANCH  14  15
ENDBRANCH  13  14
ENDBRANCH  12  13
ENDBRANCH  11  12
ENDBRANCH  10  11
ENDBRANCH   1  10
TORSDOF 13
ENDMDL
MODEL 8
REMARK VINA RESULT:    -2.775      1.545      1.922
REMARK INTER + INTRA:          -5.832
REMARK INTER:                  -5.335
REMARK INTRA:                  -0.497
REMARK UNBOUND:                -0.949
REMARK SMILES CCCCCCCCCCCCCCC(=O)[O-]
REMARK SMILES IDX 9 1 10 2 11 3 12 4 13 5 14 6 15 7 16 8 17 9 8 10 7 11 6 12
REMARK SMILES IDX 5 13 4 14 3 15 2 16 1 17
REMARK H PARENT
REMARK Flexibility Score: inf
ROOT
ATOM      1  C   UNL     1      13.510  -7.859   5.691  1.00  0.00     0.000 C 
ENDROOT
BRANCH   1   2
ATOM      2  C   UNL     1      14.902  -7.996   5.052  1.00  0.00     0.000 C 
BRANCH   2   3
ATOM      3  C   UNL     1      15.840  -6.837   5.424  1.00  0.00     0.000 C 
BRANCH   3   4
ATOM      4  C   UNL     1      16.393  -7.013   6.845  1.00  0.00     0.000 C 
BRANCH   4   5
ATOM      5  C   UNL     1      17.886  -7.361   6.816  1.00  0.00     0.006 C 
BRANCH   5   6
ATOM      6  C   UNL     1      18.491  -7.066   5.440  1.00  0.00     0.053 C 
BRANCH   6   7
ATOM      7  C   UNL     1      19.908  -7.543   5.379  1.00  0.00     0.041 C 
ATOM      8  O   UNL     1      20.173  -8.765   5.531  1.00  0.00    -0.550 OA
ATOM      9  O   UNL     1      20.931  -6.648   5.095  1.00  0.00    -0.550 OA
ENDBRANCH   6   7
ENDBRANCH   5   6
ENDBRANCH   4   5
ENDBRANCH   3   4
ENDBRANCH   2   3
ENDBRANCH   1   2
BRANCH   1  10
ATOM     10  C   UNL     1      12.405  -7.616   4.648  1.00  0.00     0.000 C 
BRANCH  10  11
ATOM     11  C   UNL     1      11.276  -8.657   4.730  1.00  0.00    -0.000 C 
BRANCH  11  12
ATOM     12  C   UNL     1      10.204  -8.283   5.769  1.00  0.00    -0.000 C 
BRANCH  12  13
ATOM     13  C   UNL     1       8.780  -8.263   5.180  1.00  0.00    -0.000 C 
BRANCH  13  14
ATOM     14  C   UNL     1       7.701  -8.940   6.047  1.00  0.00    -0.000 C 
BRANCH  14  15
ATOM     15  C   UNL     1       6.640  -7.954   6.563  1.00  0.00    -0.000 C 
BRANCH  15  16
ATOM     16  C   UNL     1       6.285  -6.876   5.526  1.00  0.00    -0.003 C 
ATOM     17  C   UNL     1       4.876  -7.039   4.957  1.00  0.00     0.004 C 
ENDBRANCH  15  16
ENDBRANCH  14  15
ENDBRANCH  13  14
ENDBRANCH  12  13
ENDBRANCH  11  12
ENDBRANCH  10  11
ENDBRANCH   1  10
TORSDOF 13
ENDMDL
MODEL 9
REMARK VINA RESULT:    -2.665      2.812      4.260
REMARK INTER + INTRA:          -5.640
REMARK INTER:                  -5.219
REMARK INTRA:                  -0.421
REMARK UNBOUND:                -0.949
REMARK SMILES CCCCCCCCCCCCCCC(=O)[O-]
REMARK SMILES IDX 9 1 10 2 11 3 12 4 13 5 14 6 15 7 16 8 17 9 8 10 7 11 6 12
REMARK SMILES IDX 5 13 4 14 3 15 2 16 1 17
REMARK H PARENT
REMARK Flexibility Score: inf
ROOT
ATOM      1  C   UNL     1      16.478  -7.199   6.637  1.00  0.00     0.000 C 
ENDROOT
BRANCH   1   2
ATOM      2  C   UNL     1      17.592  -7.651   5.678  1.00  0.00     0.000 C 
BRANCH   2   3
ATOM      3  C   UNL     1      18.985  -7.190   6.131  1.00  0.00     0.000 C 
BRANCH   3   4
ATOM      4  C   UNL     1      20.085  -8.014   5.447  1.00  0.00     0.000 C 
BRANCH   4   5
ATOM      5  C   UNL     1      20.446  -7.422   4.080  1.00  0.00     0.006 C 
BRANCH   5   6
ATOM      6  C   UNL     1      20.065  -5.940   4.004  1.00  0.00     0.053 C 
BRANCH   6   7
ATOM      7  C   UNL     1      21.287  -5.081   4.073  1.00  0.00     0.041 C 
ATOM      8  O   UNL     1      22.430  -5.608   4.131  1.00  0.00    -0.550 OA
ATOM      9  O   UNL     1      21.170  -3.699   4.013  1.00  0.00    -0.550 OA
ENDBRANCH   6   7
ENDBRANCH   5   6
ENDBRANCH   4   5
ENDBRANCH   3   4
ENDBRANCH   2   3
ENDBRANCH   1   2
BRANCH   1  10
ATOM     10  C   UNL     1      15.080  -7.635   6.163  1.00  0.00     0.000 C 
BRANCH  10  11
ATOM     11  C   UNL     1      14.225  -8.215   7.301  1.00  0.00    -0.000 C 
BRANCH  11  12
ATOM     12  C   UNL     1      12.785  -8.528   6.857  1.00  0.00    -0.000 C 
BRANCH  12  13
ATOM     13  C   UNL     1      12.499  -8.097   5.406  1.00  0.00    -0.000 C 
BRANCH  13  14
ATOM     14  C   UNL     1      11.335  -7.102   5.233  1.00  0.00    -0.000 C 
BRANCH  14  15
ATOM     15  C   UNL     1      10.248  -7.612   4.272  1.00  0.00    -0.000 C 
BRANCH  15  16
ATOM     16  C   UNL     1       9.128  -6.582   4.050  1.00  0.00    -0.003 C 
ATOM     17  C   UNL     1       7.751  -7.103   4.465  1.00  0.00     0.004 C 
ENDBRANCH  15  16
ENDBRANCH  14  15
ENDBRANCH  13  14
ENDBRANCH  12  13
ENDBRANCH  11  12
ENDBRANCH  10  11
ENDBRANCH   1  10
TORSDOF 13
ENDMDL
