MODEL 1
REMARK VINA RESULT:    29.518      0.000      0.000
REMARK INTER + INTRA:          62.780
REMARK INTER:                  48.500
REMARK INTRA:                  14.280
REMARK UNBOUND:                14.280
REMARK SMILES C[C@H]1O[C@H](OC[C@H]2O[C@@H](Oc3c(-c4ccc(O)c(O)c4)oc4cc(O)cc(O)c4c3=O)[C@H](O)[C@H](O)[C@H]2O)[C@@H](O)[C@H](O)[C@H]1O
REMARK SMILES IDX 7 1 36 2 34 3 32 4 9 5 8 6 6 7 5 8 4 9 1 10 2 11 42 12 3 13
REMARK SMILES IDX 40 14 38 15 43 16 41 18 39 20 37 22 35 24 10 26 11 27 12 28
REMARK SMILES IDX 30 29 21 30 29 31 31 32 22 33 27 34 23 35 26 36 24 37 13 38
REMARK SMILES IDX 20 39 14 40 18 41 15 42 16 43 19 44 17 46 28 48 25 50 33 52
REMARK H PARENT 43 17 41 19 39 21 37 23 35 25 19 45 17 47 28 49 25 51 33 53
REMARK Flexibility Score: inf
ROOT
ATOM      1  C   UNL     1       3.054   9.474   9.068  1.00  0.00     0.180 C 
ATOM      2  C   UNL     1       3.737   8.134   8.715  1.00  0.00     0.177 C 
ATOM      3  C   UNL     1       4.014   8.107   7.197  1.00  0.00     0.180 C 
ATOM      4  C   UNL     1       4.809   9.368   6.804  1.00  0.00     0.214 C 
ATOM      5  C   UNL     1       4.137  10.647   7.352  1.00  0.00     0.339 C 
ATOM      6  O   UNL     1       3.932  10.548   8.754  1.00  0.00    -0.332 OA
ENDROOT
BRANCH   1   7
ATOM      7  C   UNL     1       2.679   9.539  10.568  1.00  0.00     0.198 C 
BRANCH   7   8
ATOM      8  O   UNL     1       1.297   9.291  10.770  1.00  0.00    -0.347 OA
BRANCH   8   9
ATOM      9  C   UNL     1       0.511  10.478  10.703  1.00  0.00     0.281 C 
ATOM     10  C   UNL     1       3.224  12.877  10.022  1.00  0.00     0.041 C 
ATOM     11  C   UNL     1       2.256  11.722   9.744  1.00  0.00     0.150 C 
ATOM     12  C   UNL     1       1.522  11.921   8.399  1.00  0.00     0.174 C 
ATOM     13  O   UNL     1       1.332  11.631  10.820  1.00  0.00    -0.344 OA
ATOM     14  C   UNL     1       0.559  10.736   8.158  1.00  0.00     0.179 C 
ATOM     15  C   UNL     1      -0.325  10.491   9.398  1.00  0.00     0.202 C 
BRANCH  12  16
ATOM     16  O   UNL     1       0.793  13.120   8.422  1.00  0.00    -0.388 OA
ATOM     17  H   UNL     1       0.038  13.000   7.789  1.00  0.00     0.211 HD
ENDBRANCH  12  16
BRANCH  14  18
ATOM     18  O   UNL     1       1.289   9.577   7.867  1.00  0.00    -0.387 OA
ATOM     19  H   UNL     1       0.770   9.063   7.195  1.00  0.00     0.211 HD
ENDBRANCH  14  18
BRANCH  15  20
ATOM     20  O   UNL     1      -1.301  11.501   9.489  1.00  0.00    -0.385 OA
ATOM     21  H   UNL     1      -1.950  11.350   8.750  1.00  0.00     0.211 HD
ENDBRANCH  15  20
ENDBRANCH   8   9
ENDBRANCH   7   8
ENDBRANCH   1   7
BRANCH   2  22
ATOM     22  O   UNL     1       4.958   8.009   9.407  1.00  0.00    -0.387 OA
ATOM     23  H   UNL     1       5.589   7.530   8.810  1.00  0.00     0.211 HD
ENDBRANCH   2  22
BRANCH   3  24
ATOM     24  O   UNL     1       2.822   8.046   6.448  1.00  0.00    -0.387 OA
ATOM     25  H   UNL     1       2.461   8.973   6.364  1.00  0.00     0.211 HD
ENDBRANCH   3  24
BRANCH   5  26
ATOM     26  O   UNL     1       5.036  11.729   7.106  1.00  0.00    -0.454 OA
BRANCH  26  27
ATOM     27  C   UNL     1       5.930  11.860   6.034  1.00  0.00     0.214 A 
ATOM     28  C   UNL     1       7.266  12.309   6.144  1.00  0.00     0.180 A 
ATOM     29  C   UNL     1       5.456  11.496   4.769  1.00  0.00     0.239 A 
ATOM     30  O   UNL     1       8.033  12.377   5.059  1.00  0.00    -0.452 OA
ATOM     31  C   UNL     1       6.297  11.580   3.643  1.00  0.00     0.111 A 
ATOM     32  O   UNL     1       4.266  11.091   4.661  1.00  0.00    -0.285 OA
ATOM     33  C   UNL     1       7.620  12.031   3.845  1.00  0.00     0.146 A 
ATOM     34  C   UNL     1       5.883  11.225   2.334  1.00  0.00     0.134 A 
ATOM     35  C   UNL     1       8.509  12.105   2.770  1.00  0.00     0.094 A 
ATOM     36  C   UNL     1       6.783  11.319   1.267  1.00  0.00     0.093 A 
ATOM     37  C   UNL     1       8.095  11.753   1.485  1.00  0.00     0.123 A 
BRANCH  28  38
ATOM     38  C   UNL     1       7.909  12.655   7.415  1.00  0.00     0.025 A 
ATOM     39  C   UNL     1       7.182  12.566   8.611  1.00  0.00     0.062 A 
ATOM     40  C   UNL     1       9.295  12.862   7.456  1.00  0.00     0.016 A 
ATOM     41  C   UNL     1       7.835  12.708   9.846  1.00  0.00     0.158 A 
ATOM     42  C   UNL     1       9.946  12.999   8.682  1.00  0.00     0.051 A 
ATOM     43  C   UNL     1       9.224  12.929   9.881  1.00  0.00     0.157 A 
BRANCH  41  44
ATOM     44  O   UNL     1       7.112  12.606  11.033  1.00  0.00    -0.504 OA
ATOM     45  H   UNL     1       6.094  12.604  11.023  1.00  0.00     0.293 HD
ENDBRANCH  41  44
BRANCH  43  46
ATOM     46  O   UNL     1       9.911  13.061  11.092  1.00  0.00    -0.504 OA
ATOM     47  H   UNL     1      10.858  13.413  11.125  1.00  0.00     0.293 HD
ENDBRANCH  43  46
ENDBRANCH  28  38
BRANCH  34  48
ATOM     48  O   UNL     1       4.589  10.792   2.081  1.00  0.00    -0.507 OA
ATOM     49  H   UNL     1       4.304   9.847   2.323  1.00  0.00     0.293 HD
ENDBRANCH  34  48
BRANCH  37  50
ATOM     50  O   UNL     1       8.998  11.832   0.431  1.00  0.00    -0.508 OA
ATOM     51  H   UNL     1       8.819  11.356  -0.450  1.00  0.00     0.293 HD
ENDBRANCH  37  50
ENDBRANCH  26  27
ENDBRANCH   5  26
BRANCH   4  52
ATOM     52  O   UNL     1       4.909   9.458   5.404  1.00  0.00    -0.384 OA
ATOM     53  H   UNL     1       4.000   9.676   5.065  1.00  0.00     0.211 HD
ENDBRANCH   4  52
TORSDOF 16
ENDMDL
MODEL 2
REMARK VINA RESULT:    29.922      1.646      4.366
REMARK INTER + INTRA:          63.443
REMARK INTER:                  52.787
REMARK INTRA:                  10.656
REMARK UNBOUND:                14.280
REMARK SMILES C[C@H]1O[C@H](OC[C@H]2O[C@@H](Oc3c(-c4ccc(O)c(O)c4)oc4cc(O)cc(O)c4c3=O)[C@H](O)[C@H](O)[C@H]2O)[C@@H](O)[C@H](O)[C@H]1O
REMARK SMILES IDX 7 1 36 2 34 3 32 4 9 5 8 6 6 7 5 8 4 9 1 10 2 11 42 12 3 13
REMARK SMILES IDX 40 14 38 15 43 16 41 18 39 20 37 22 35 24 10 26 11 27 12 28
REMARK SMILES IDX 30 29 21 30 29 31 31 32 22 33 27 34 23 35 26 36 24 37 13 38
REMARK SMILES IDX 20 39 14 40 18 41 15 42 16 43 19 44 17 46 28 48 25 50 33 52
REMARK H PARENT 43 17 41 19 39 21 37 23 35 25 19 45 17 47 28 49 25 51 33 53
REMARK Flexibility Score: inf
ROOT
ATOM      1  C   UNL     1       5.960  11.151   9.601  1.00  0.00     0.180 C 
ATOM      2  C   UNL     1       6.021  12.691   9.493  1.00  0.00     0.177 C 
ATOM      3  C   UNL     1       7.502  13.123   9.439  1.00  0.00     0.180 C 
ATOM      4  C   UNL     1       8.212  12.360   8.303  1.00  0.00     0.214 C 
ATOM      5  C   UNL     1       7.949  10.841   8.399  1.00  0.00     0.339 C 
ATOM      6  O   UNL     1       6.554  10.572   8.446  1.00  0.00    -0.332 OA
ENDROOT
BRANCH   1   7
ATOM      7  C   UNL     1       4.503  10.651   9.735  1.00  0.00     0.198 C 
BRANCH   7   8
ATOM      8  O   UNL     1       3.784  11.394  10.705  1.00  0.00    -0.347 OA
BRANCH   8   9
ATOM      9  C   UNL     1       2.854  12.303  10.121  1.00  0.00     0.281 C 
ATOM     10  C   UNL     1       2.738  10.849   6.737  1.00  0.00     0.041 C 
ATOM     11  C   UNL     1       2.504  10.929   8.249  1.00  0.00     0.150 C 
ATOM     12  C   UNL     1       1.028  10.640   8.601  1.00  0.00     0.174 C 
ATOM     13  O   UNL     1       2.892  12.219   8.704  1.00  0.00    -0.344 OA
ATOM     14  C   UNL     1       0.836  10.731  10.132  1.00  0.00     0.179 C 
ATOM     15  C   UNL     1       1.432  12.044  10.679  1.00  0.00     0.202 C 
BRANCH  12  16
ATOM     16  O   UNL     1       0.191  11.573   7.968  1.00  0.00    -0.388 OA
ATOM     17  H   UNL     1      -0.216  12.118   8.691  1.00  0.00     0.211 HD
ENDBRANCH  12  16
BRANCH  14  18
ATOM     18  O   UNL     1       1.453   9.640  10.758  1.00  0.00    -0.387 OA
ATOM     19  H   UNL     1       0.959   9.468  11.601  1.00  0.00     0.211 HD
ENDBRANCH  14  18
BRANCH  15  20
ATOM     20  O   UNL     1       0.598  13.123  10.329  1.00  0.00    -0.385 OA
ATOM     21  H   UNL     1       1.115  13.957  10.489  1.00  0.00     0.211 HD
ENDBRANCH  15  20
ENDBRANCH   8   9
ENDBRANCH   7   8
ENDBRANCH   1   7
BRANCH   2  22
ATOM     22  O   UNL     1       5.374  13.124   8.319  1.00  0.00    -0.387 OA
ATOM     23  H   UNL     1       5.005  12.320   7.870  1.00  0.00     0.211 HD
ENDBRANCH   2  22
BRANCH   3  24
ATOM     24  O   UNL     1       8.163  12.880  10.660  1.00  0.00    -0.387 OA
ATOM     25  H   UNL     1       7.528  13.082  11.402  1.00  0.00     0.211 HD
ENDBRANCH   3  24
BRANCH   5  26
ATOM     26  O   UNL     1       8.479  10.249   7.213  1.00  0.00    -0.454 OA
BRANCH  26  27
ATOM     27  C   UNL     1       7.938  10.312   5.920  1.00  0.00     0.214 A 
ATOM     28  C   UNL     1       6.704   9.744   5.530  1.00  0.00     0.180 A 
ATOM     29  C   UNL     1       8.677  11.014   4.962  1.00  0.00     0.239 A 
ATOM     30  O   UNL     1       6.279   9.881   4.277  1.00  0.00    -0.452 OA
ATOM     31  C   UNL     1       8.195  11.140   3.645  1.00  0.00     0.111 A 
ATOM     32  O   UNL     1       9.777  11.528   5.300  1.00  0.00    -0.285 OA
ATOM     33  C   UNL     1       6.948  10.547   3.343  1.00  0.00     0.146 A 
ATOM     34  C   UNL     1       8.889  11.839   2.625  1.00  0.00     0.134 A 
ATOM     35  C   UNL     1       6.404  10.668   2.062  1.00  0.00     0.094 A 
ATOM     36  C   UNL     1       8.336  11.936   1.344  1.00  0.00     0.093 A 
ATOM     37  C   UNL     1       7.093  11.357   1.064  1.00  0.00     0.123 A 
BRANCH  28  38
ATOM     38  C   UNL     1       5.800   9.045   6.448  1.00  0.00     0.025 A 
ATOM     39  C   UNL     1       6.191   8.824   7.777  1.00  0.00     0.062 A 
ATOM     40  C   UNL     1       4.477   8.795   6.061  1.00  0.00     0.016 A 
ATOM     41  C   UNL     1       5.266   8.331   8.711  1.00  0.00     0.158 A 
ATOM     42  C   UNL     1       3.555   8.309   6.989  1.00  0.00     0.051 A 
ATOM     43  C   UNL     1       3.942   8.069   8.314  1.00  0.00     0.157 A 
BRANCH  41  44
ATOM     44  O   UNL     1       5.653   8.125  10.034  1.00  0.00    -0.504 OA
ATOM     45  H   UNL     1       5.001   7.740  10.714  1.00  0.00     0.293 HD
ENDBRANCH  41  44
BRANCH  43  46
ATOM     46  O   UNL     1       2.989   7.592   9.220  1.00  0.00    -0.504 OA
ATOM     47  H   UNL     1       3.252   7.275  10.142  1.00  0.00     0.293 HD
ENDBRANCH  43  46
ENDBRANCH  28  38
BRANCH  34  48
ATOM     48  O   UNL     1      10.124  12.424   2.866  1.00  0.00    -0.507 OA
ATOM     49  H   UNL     1      10.415  13.247   2.346  1.00  0.00     0.293 HD
ENDBRANCH  34  48
BRANCH  37  50
ATOM     50  O   UNL     1       6.531  11.466  -0.203  1.00  0.00    -0.508 OA
ATOM     51  H   UNL     1       5.613  11.883  -0.336  1.00  0.00     0.293 HD
ENDBRANCH  37  50
ENDBRANCH  26  27
ENDBRANCH   5  26
BRANCH   4  52
ATOM     52  O   UNL     1       9.598  12.596   8.357  1.00  0.00    -0.384 OA
ATOM     53  H   UNL     1       9.994  12.168   7.551  1.00  0.00     0.211 HD
ENDBRANCH   4  52
TORSDOF 16
ENDMDL
MODEL 3
REMARK VINA RESULT:    30.314     13.041     16.323
REMARK INTER + INTRA:          64.087
REMARK INTER:                  64.464
REMARK INTRA:                  -0.376
REMARK UNBOUND:                14.280
REMARK SMILES C[C@H]1O[C@H](OC[C@H]2O[C@@H](Oc3c(-c4ccc(O)c(O)c4)oc4cc(O)cc(O)c4c3=O)[C@H](O)[C@H](O)[C@H]2O)[C@@H](O)[C@H](O)[C@H]1O
REMARK SMILES IDX 7 1 36 2 34 3 32 4 9 5 8 6 6 7 5 8 4 9 1 10 2 11 42 12 3 13
REMARK SMILES IDX 40 14 38 15 43 16 41 18 39 20 37 22 35 24 10 26 11 27 12 28
REMARK SMILES IDX 30 29 21 30 29 31 31 32 22 33 27 34 23 35 26 36 24 37 13 38
REMARK SMILES IDX 20 39 14 40 18 41 15 42 16 43 19 44 17 46 28 48 25 50 33 52
REMARK H PARENT 43 17 41 19 39 21 37 23 35 25 19 45 17 47 28 49 25 51 33 53
REMARK Flexibility Score: inf
ROOT
ATOM      1  C   UNL     1      -6.215  11.170  -7.003  1.00  0.00     0.180 C 
ATOM      2  C   UNL     1      -5.799  10.001  -7.924  1.00  0.00     0.177 C 
ATOM      3  C   UNL     1      -4.312  10.173  -8.299  1.00  0.00     0.180 C 
ATOM      4  C   UNL     1      -3.478  10.318  -7.010  1.00  0.00     0.214 C 
ATOM      5  C   UNL     1      -4.074  11.393  -6.075  1.00  0.00     0.339 C 
ATOM      6  O   UNL     1      -5.444  11.127  -5.809  1.00  0.00    -0.332 OA
ENDROOT
BRANCH   1   7
ATOM      7  C   UNL     1      -7.719  11.102  -6.647  1.00  0.00     0.198 C 
BRANCH   7   8
ATOM      8  O   UNL     1      -8.295   9.871  -7.053  1.00  0.00    -0.347 OA
BRANCH   8   9
ATOM      9  C   UNL     1      -9.425   9.508  -6.264  1.00  0.00     0.281 C 
ATOM     10  C   UNL     1     -10.044   6.180  -7.720  1.00  0.00     0.041 C 
ATOM     11  C   UNL     1      -9.305   7.255  -6.917  1.00  0.00     0.150 C 
ATOM     12  C   UNL     1      -8.953   6.750  -5.500  1.00  0.00     0.174 C 
ATOM     13  O   UNL     1     -10.120   8.418  -6.854  1.00  0.00    -0.344 OA
ATOM     14  C   UNL     1      -8.211   7.863  -4.727  1.00  0.00     0.179 C 
ATOM     15  C   UNL     1      -8.984   9.195  -4.812  1.00  0.00     0.202 C 
BRANCH  12  16
ATOM     16  O   UNL     1     -10.125   6.400  -4.810  1.00  0.00    -0.388 OA
ATOM     17  H   UNL     1      -9.883   5.640  -4.219  1.00  0.00     0.211 HD
ENDBRANCH  12  16
BRANCH  14  18
ATOM     18  O   UNL     1      -6.923   8.033  -5.250  1.00  0.00    -0.387 OA
ATOM     19  H   UNL     1      -6.288   7.985  -4.489  1.00  0.00     0.211 HD
ENDBRANCH  14  18
BRANCH  15  20
ATOM     20  O   UNL     1     -10.124   9.133  -3.990  1.00  0.00    -0.385 OA
ATOM     21  H   UNL     1     -10.825   9.695  -4.417  1.00  0.00     0.211 HD
ENDBRANCH  15  20
ENDBRANCH   8   9
ENDBRANCH   7   8
ENDBRANCH   1   7
BRANCH   2  22
ATOM     22  O   UNL     1      -5.965   8.771  -7.258  1.00  0.00    -0.387 OA
ATOM     23  H   UNL     1      -5.434   8.814  -6.421  1.00  0.00     0.211 HD
ENDBRANCH   2  22
BRANCH   3  24
ATOM     24  O   UNL     1      -4.107  11.297  -9.125  1.00  0.00    -0.387 OA
ATOM     25  H   UNL     1      -3.126  11.480  -9.162  1.00  0.00     0.211 HD
ENDBRANCH   3  24
BRANCH   5  26
ATOM     26  O   UNL     1      -3.356  11.320  -4.843  1.00  0.00    -0.454 OA
BRANCH  26  27
ATOM     27  C   UNL     1      -3.057  10.165  -4.105  1.00  0.00     0.214 A 
ATOM     28  C   UNL     1      -1.751   9.717  -3.798  1.00  0.00     0.180 A 
ATOM     29  C   UNL     1      -4.141   9.424  -3.625  1.00  0.00     0.239 A 
ATOM     30  O   UNL     1      -1.584   8.614  -3.073  1.00  0.00    -0.452 OA
ATOM     31  C   UNL     1      -3.926   8.263  -2.859  1.00  0.00     0.111 A 
ATOM     32  O   UNL     1      -5.310   9.818  -3.890  1.00  0.00    -0.285 OA
ATOM     33  C   UNL     1      -2.589   7.891  -2.593  1.00  0.00     0.146 A 
ATOM     34  C   UNL     1      -4.978   7.466  -2.339  1.00  0.00     0.134 A 
ATOM     35  C   UNL     1      -2.314   6.766  -1.812  1.00  0.00     0.094 A 
ATOM     36  C   UNL     1      -4.684   6.335  -1.571  1.00  0.00     0.093 A 
ATOM     37  C   UNL     1      -3.354   5.988  -1.303  1.00  0.00     0.123 A 
BRANCH  28  38
ATOM     38  C   UNL     1      -0.531  10.434  -4.178  1.00  0.00     0.025 A 
ATOM     39  C   UNL     1       0.206  11.122  -3.204  1.00  0.00     0.062 A 
ATOM     40  C   UNL     1       0.008  10.253  -5.459  1.00  0.00     0.016 A 
ATOM     41  C   UNL     1       1.470  11.649  -3.516  1.00  0.00     0.158 A 
ATOM     42  C   UNL     1       1.265  10.771  -5.770  1.00  0.00     0.051 A 
ATOM     43  C   UNL     1       2.001  11.475  -4.807  1.00  0.00     0.157 A 
BRANCH  41  44
ATOM     44  O   UNL     1       2.206  12.321  -2.541  1.00  0.00    -0.504 OA
ATOM     45  H   UNL     1       3.209  12.175  -2.454  1.00  0.00     0.293 HD
ENDBRANCH  41  44
BRANCH  43  46
ATOM     46  O   UNL     1       3.262  11.972  -5.151  1.00  0.00    -0.504 OA
ATOM     47  H   UNL     1       3.888  11.452  -5.749  1.00  0.00     0.293 HD
ENDBRANCH  43  46
ENDBRANCH  28  38
BRANCH  34  48
ATOM     48  O   UNL     1      -6.307   7.780  -2.586  1.00  0.00    -0.507 OA
ATOM     49  H   UNL     1      -7.052   7.201  -2.209  1.00  0.00     0.293 HD
ENDBRANCH  34  48
BRANCH  37  50
ATOM     50  O   UNL     1      -3.057   4.874  -0.525  1.00  0.00    -0.508 OA
ATOM     51  H   UNL     1      -2.099   4.552  -0.414  1.00  0.00     0.293 HD
ENDBRANCH  37  50
ENDBRANCH  26  27
ENDBRANCH   5  26
BRANCH   4  52
ATOM     52  O   UNL     1      -2.152  10.663  -7.331  1.00  0.00    -0.384 OA
ATOM     53  H   UNL     1      -1.814   9.962  -7.950  1.00  0.00     0.211 HD
ENDBRANCH   4  52
TORSDOF 16
ENDMDL
MODEL 4
REMARK VINA RESULT:    31.019     12.491     16.077
REMARK INTER + INTRA:          65.247
REMARK INTER:                  61.103
REMARK INTRA:                   4.143
REMARK UNBOUND:                14.280
REMARK SMILES C[C@H]1O[C@H](OC[C@H]2O[C@@H](Oc3c(-c4ccc(O)c(O)c4)oc4cc(O)cc(O)c4c3=O)[C@H](O)[C@H](O)[C@H]2O)[C@@H](O)[C@H](O)[C@H]1O
REMARK SMILES IDX 7 1 36 2 34 3 32 4 9 5 8 6 6 7 5 8 4 9 1 10 2 11 42 12 3 13
REMARK SMILES IDX 40 14 38 15 43 16 41 18 39 20 37 22 35 24 10 26 11 27 12 28
REMARK SMILES IDX 30 29 21 30 29 31 31 32 22 33 27 34 23 35 26 36 24 37 13 38
REMARK SMILES IDX 20 39 14 40 18 41 15 42 16 43 19 44 17 46 28 48 25 50 33 52
REMARK H PARENT 43 17 41 19 39 21 37 23 35 25 19 45 17 47 28 49 25 51 33 53
REMARK Flexibility Score: inf
ROOT
ATOM      1  C   UNL     1      -4.682  11.597  -6.624  1.00  0.00     0.180 C 
ATOM      2  C   UNL     1      -4.989  11.099  -8.054  1.00  0.00     0.177 C 
ATOM      3  C   UNL     1      -3.710  11.235  -8.908  1.00  0.00     0.180 C 
ATOM      4  C   UNL     1      -2.547  10.511  -8.199  1.00  0.00     0.214 C 
ATOM      5  C   UNL     1      -2.431  10.951  -6.722  1.00  0.00     0.339 C 
ATOM      6  O   UNL     1      -3.670  10.783  -6.047  1.00  0.00    -0.332 OA
ENDROOT
BRANCH   1   7
ATOM      7  C   UNL     1      -5.944  11.559  -5.730  1.00  0.00     0.198 C 
BRANCH   7   8
ATOM      8  O   UNL     1      -6.992  12.345  -6.274  1.00  0.00    -0.347 OA
BRANCH   8   9
ATOM      9  C   UNL     1      -7.714  11.664  -7.297  1.00  0.00     0.281 C 
ATOM     10  C   UNL     1      -7.539   8.260  -5.896  1.00  0.00     0.041 C 
ATOM     11  C   UNL     1      -7.968   9.728  -5.992  1.00  0.00     0.150 C 
ATOM     12  C   UNL     1      -9.503   9.869  -5.885  1.00  0.00     0.174 C 
ATOM     13  O   UNL     1      -7.492  10.263  -7.220  1.00  0.00    -0.344 OA
ATOM     14  C   UNL     1      -9.891  11.361  -5.987  1.00  0.00     0.179 C 
ATOM     15  C   UNL     1      -9.221  12.018  -7.211  1.00  0.00     0.202 C 
BRANCH  12  16
ATOM     16  O   UNL     1     -10.125   9.152  -6.920  1.00  0.00    -0.388 OA
ATOM     17  H   UNL     1     -10.785   8.551  -6.486  1.00  0.00     0.211 HD
ENDBRANCH  12  16
BRANCH  14  18
ATOM     18  O   UNL     1      -9.504  12.037  -4.822  1.00  0.00    -0.387 OA
ATOM     19  H   UNL     1      -8.707  11.569  -4.462  1.00  0.00     0.211 HD
ENDBRANCH  14  18
BRANCH  15  20
ATOM     20  O   UNL     1      -9.860  11.585  -8.388  1.00  0.00    -0.385 OA
ATOM     21  H   UNL     1      -9.556  12.181  -9.124  1.00  0.00     0.211 HD
ENDBRANCH  15  20
ENDBRANCH   8   9
ENDBRANCH   7   8
ENDBRANCH   1   7
BRANCH   2  22
ATOM     22  O   UNL     1      -5.380   9.746  -8.027  1.00  0.00    -0.387 OA
ATOM     23  H   UNL     1      -4.865   9.274  -8.731  1.00  0.00     0.211 HD
ENDBRANCH   2  22
BRANCH   3  24
ATOM     24  O   UNL     1      -3.366  12.584  -9.125  1.00  0.00    -0.387 OA
ATOM     25  H   UNL     1      -3.224  12.714 -10.104  1.00  0.00     0.211 HD
ENDBRANCH   3  24
BRANCH   5  26
ATOM     26  O   UNL     1      -1.466  10.098  -6.107  1.00  0.00    -0.454 OA
BRANCH  26  27
ATOM     27  C   UNL     1      -0.638  10.404  -5.017  1.00  0.00     0.214 A 
ATOM     28  C   UNL     1      -0.949  10.135  -3.664  1.00  0.00     0.180 A 
ATOM     29  C   UNL     1       0.594  10.999  -5.308  1.00  0.00     0.239 A 
ATOM     30  O   UNL     1      -0.078  10.453  -2.709  1.00  0.00    -0.452 OA
ATOM     31  C   UNL     1       1.491  11.320  -4.271  1.00  0.00     0.111 A 
ATOM     32  O   UNL     1       0.882  11.239  -6.512  1.00  0.00    -0.285 OA
ATOM     33  C   UNL     1       1.103  11.009  -2.948  1.00  0.00     0.146 A 
ATOM     34  C   UNL     1       2.756  11.921  -4.494  1.00  0.00     0.134 A 
ATOM     35  C   UNL     1       1.965  11.275  -1.882  1.00  0.00     0.094 A 
ATOM     36  C   UNL     1       3.600  12.194  -3.413  1.00  0.00     0.093 A 
ATOM     37  C   UNL     1       3.209  11.867  -2.109  1.00  0.00     0.123 A 
BRANCH  28  38
ATOM     38  C   UNL     1      -2.171   9.454  -3.227  1.00  0.00     0.025 A 
ATOM     39  C   UNL     1      -3.327   9.520  -4.018  1.00  0.00     0.062 A 
ATOM     40  C   UNL     1      -2.120   8.569  -2.141  1.00  0.00     0.016 A 
ATOM     41  C   UNL     1      -4.439   8.720  -3.710  1.00  0.00     0.158 A 
ATOM     42  C   UNL     1      -3.223   7.770  -1.837  1.00  0.00     0.051 A 
ATOM     43  C   UNL     1      -4.387   7.842  -2.611  1.00  0.00     0.157 A 
BRANCH  41  44
ATOM     44  O   UNL     1      -5.582   8.779  -4.506  1.00  0.00    -0.504 OA
ATOM     45  H   UNL     1      -5.753   8.076  -5.222  1.00  0.00     0.293 HD
ENDBRANCH  41  44
BRANCH  43  46
ATOM     46  O   UNL     1      -5.470   7.020  -2.283  1.00  0.00    -0.504 OA
ATOM     47  H   UNL     1      -6.423   7.320  -2.430  1.00  0.00     0.293 HD
ENDBRANCH  43  46
ENDBRANCH  28  38
BRANCH  34  48
ATOM     48  O   UNL     1       3.176  12.259  -5.772  1.00  0.00    -0.507 OA
ATOM     49  H   UNL     1       2.806  11.771  -6.584  1.00  0.00     0.293 HD
ENDBRANCH  34  48
BRANCH  37  50
ATOM     50  O   UNL     1       4.052  12.120  -1.034  1.00  0.00    -0.508 OA
ATOM     51  H   UNL     1       5.028  11.833  -1.053  1.00  0.00     0.293 HD
ENDBRANCH  37  50
ENDBRANCH  26  27
ENDBRANCH   5  26
BRANCH   4  52
ATOM     52  O   UNL     1      -1.336  10.780  -8.861  1.00  0.00    -0.384 OA
ATOM     53  H   UNL     1      -0.643  10.204  -8.440  1.00  0.00     0.211 HD
ENDBRANCH   4  52
TORSDOF 16
ENDMDL
MODEL 5
REMARK VINA RESULT:    31.185     12.850     16.186
REMARK INTER + INTRA:          65.518
REMARK INTER:                  62.495
REMARK INTRA:                   3.023
REMARK UNBOUND:                14.280
REMARK SMILES C[C@H]1O[C@H](OC[C@H]2O[C@@H](Oc3c(-c4ccc(O)c(O)c4)oc4cc(O)cc(O)c4c3=O)[C@H](O)[C@H](O)[C@H]2O)[C@@H](O)[C@H](O)[C@H]1O
REMARK SMILES IDX 7 1 36 2 34 3 32 4 9 5 8 6 6 7 5 8 4 9 1 10 2 11 42 12 3 13
REMARK SMILES IDX 40 14 38 15 43 16 41 18 39 20 37 22 35 24 10 26 11 27 12 28
REMARK SMILES IDX 30 29 21 30 29 31 31 32 22 33 27 34 23 35 26 36 24 37 13 38
REMARK SMILES IDX 20 39 14 40 18 41 15 42 16 43 19 44 17 46 28 48 25 50 33 52
REMARK H PARENT 43 17 41 19 39 21 37 23 35 25 19 45 17 47 28 49 25 51 33 53
REMARK Flexibility Score: inf
ROOT
ATOM      1  C   UNL     1      -5.068  11.369  -7.861  1.00  0.00     0.180 C 
ATOM      2  C   UNL     1      -4.589  10.055  -8.518  1.00  0.00     0.177 C 
ATOM      3  C   UNL     1      -3.056   9.957  -8.362  1.00  0.00     0.180 C 
ATOM      4  C   UNL     1      -2.686  10.116  -6.874  1.00  0.00     0.214 C 
ATOM      5  C   UNL     1      -3.355  11.367  -6.262  1.00  0.00     0.339 C 
ATOM      6  O   UNL     1      -4.759  11.344  -6.473  1.00  0.00    -0.332 OA
ENDROOT
BRANCH   1   7
ATOM      7  C   UNL     1      -6.591  11.569  -8.045  1.00  0.00     0.198 C 
BRANCH   7   8
ATOM      8  O   UNL     1      -7.272  10.329  -8.140  1.00  0.00    -0.347 OA
BRANCH   8   9
ATOM      9  C   UNL     1      -7.957   9.986  -6.937  1.00  0.00     0.281 C 
ATOM     10  C   UNL     1      -7.349  13.104  -5.069  1.00  0.00     0.041 C 
ATOM     11  C   UNL     1      -7.941  12.201  -6.156  1.00  0.00     0.150 C 
ATOM     12  C   UNL     1      -9.476  12.354  -6.234  1.00  0.00     0.174 C 
ATOM     13  O   UNL     1      -7.578  10.854  -5.879  1.00  0.00    -0.344 OA
ATOM     14  C   UNL     1     -10.031  11.428  -7.340  1.00  0.00     0.179 C 
ATOM     15  C   UNL     1      -9.488   9.994  -7.174  1.00  0.00     0.202 C 
BRANCH  12  16
ATOM     16  O   UNL     1     -10.057  12.012  -5.002  1.00  0.00    -0.388 OA
ATOM     17  H   UNL     1     -10.387  11.081  -5.099  1.00  0.00     0.211 HD
ENDBRANCH  12  16
BRANCH  14  18
ATOM     18  O   UNL     1      -9.673  11.921  -8.602  1.00  0.00    -0.387 OA
ATOM     19  H   UNL     1      -9.727  11.163  -9.239  1.00  0.00     0.211 HD
ENDBRANCH  14  18
BRANCH  15  20
ATOM     20  O   UNL     1     -10.123   9.372  -6.083  1.00  0.00    -0.385 OA
ATOM     21  H   UNL     1     -11.058   9.173  -6.362  1.00  0.00     0.211 HD
ENDBRANCH  15  20
ENDBRANCH   8   9
ENDBRANCH   7   8
ENDBRANCH   1   7
BRANCH   2  22
ATOM     22  O   UNL     1      -5.186   8.946  -7.885  1.00  0.00    -0.387 OA
ATOM     23  H   UNL     1      -5.592   8.384  -8.595  1.00  0.00     0.211 HD
ENDBRANCH   2  22
BRANCH   3  24
ATOM     24  O   UNL     1      -2.389  10.937  -9.124  1.00  0.00    -0.387 OA
ATOM     25  H   UNL     1      -3.059  11.377  -9.719  1.00  0.00     0.211 HD
ENDBRANCH   3  24
BRANCH   5  26
ATOM     26  O   UNL     1      -3.113  11.324  -4.855  1.00  0.00    -0.454 OA
BRANCH  26  27
ATOM     27  C   UNL     1      -2.938  10.182  -4.061  1.00  0.00     0.214 A 
ATOM     28  C   UNL     1      -1.715   9.785  -3.472  1.00  0.00     0.180 A 
ATOM     29  C   UNL     1      -4.072   9.398  -3.824  1.00  0.00     0.239 A 
ATOM     30  O   UNL     1      -1.668   8.689  -2.719  1.00  0.00    -0.452 OA
ATOM     31  C   UNL     1      -3.984   8.245  -3.021  1.00  0.00     0.111 A 
ATOM     32  O   UNL     1      -5.168   9.745  -4.341  1.00  0.00    -0.285 OA
ATOM     33  C   UNL     1      -2.725   7.927  -2.465  1.00  0.00     0.146 A 
ATOM     34  C   UNL     1      -5.093   7.407  -2.737  1.00  0.00     0.134 A 
ATOM     35  C   UNL     1      -2.584   6.813  -1.635  1.00  0.00     0.094 A 
ATOM     36  C   UNL     1      -4.930   6.287  -1.915  1.00  0.00     0.093 A 
ATOM     37  C   UNL     1      -3.679   5.993  -1.360  1.00  0.00     0.123 A 
BRANCH  28  38
ATOM     38  C   UNL     1      -0.470  10.551  -3.581  1.00  0.00     0.025 A 
ATOM     39  C   UNL     1       0.275  10.839  -2.429  1.00  0.00     0.062 A 
ATOM     40  C   UNL     1       0.079  10.801  -4.846  1.00  0.00     0.016 A 
ATOM     41  C   UNL     1       1.558  11.401  -2.540  1.00  0.00     0.158 A 
ATOM     42  C   UNL     1       1.355  11.355  -4.958  1.00  0.00     0.051 A 
ATOM     43  C   UNL     1       2.099  11.663  -3.812  1.00  0.00     0.157 A 
BRANCH  41  44
ATOM     44  O   UNL     1       2.300  11.675  -1.393  1.00  0.00    -0.504 OA
ATOM     45  H   UNL     1       1.877  11.604  -0.470  1.00  0.00     0.293 HD
ENDBRANCH  41  44
BRANCH  43  46
ATOM     46  O   UNL     1       3.378  12.208  -3.962  1.00  0.00    -0.504 OA
ATOM     47  H   UNL     1       3.860  12.182  -4.850  1.00  0.00     0.293 HD
ENDBRANCH  43  46
ENDBRANCH  28  38
BRANCH  34  48
ATOM     48  O   UNL     1      -6.346   7.668  -3.272  1.00  0.00    -0.507 OA
ATOM     49  H   UNL     1      -7.144   7.828  -2.662  1.00  0.00     0.293 HD
ENDBRANCH  34  48
BRANCH  37  50
ATOM     50  O   UNL     1      -3.517   4.891  -0.528  1.00  0.00    -0.508 OA
ATOM     51  H   UNL     1      -3.044   4.052  -0.854  1.00  0.00     0.293 HD
ENDBRANCH  37  50
ENDBRANCH  26  27
ENDBRANCH   5  26
BRANCH   4  52
ATOM     52  O   UNL     1      -1.290  10.219  -6.733  1.00  0.00    -0.384 OA
ATOM     53  H   UNL     1      -1.049   9.732  -5.899  1.00  0.00     0.211 HD
ENDBRANCH   4  52
TORSDOF 16
ENDMDL
MODEL 6
REMARK VINA RESULT:    32.270     12.500     15.981
REMARK INTER + INTRA:          67.301
REMARK INTER:                  66.425
REMARK INTRA:                   0.876
REMARK UNBOUND:                14.280
REMARK SMILES C[C@H]1O[C@H](OC[C@H]2O[C@@H](Oc3c(-c4ccc(O)c(O)c4)oc4cc(O)cc(O)c4c3=O)[C@H](O)[C@H](O)[C@H]2O)[C@@H](O)[C@H](O)[C@H]1O
REMARK SMILES IDX 7 1 36 2 34 3 32 4 9 5 8 6 6 7 5 8 4 9 1 10 2 11 42 12 3 13
REMARK SMILES IDX 40 14 38 15 43 16 41 18 39 20 37 22 35 24 10 26 11 27 12 28
REMARK SMILES IDX 30 29 21 30 29 31 31 32 22 33 27 34 23 35 26 36 24 37 13 38
REMARK SMILES IDX 20 39 14 40 18 41 15 42 16 43 19 44 17 46 28 48 25 50 33 52
REMARK H PARENT 43 17 41 19 39 21 37 23 35 25 19 45 17 47 28 49 25 51 33 53
REMARK Flexibility Score: inf
ROOT
ATOM      1  C   UNL     1      -5.107   9.994  -7.402  1.00  0.00     0.180 C 
ATOM      2  C   UNL     1      -5.068  11.436  -7.956  1.00  0.00     0.177 C 
ATOM      3  C   UNL     1      -4.442  12.358  -6.888  1.00  0.00     0.180 C 
ATOM      4  C   UNL     1      -3.076  11.785  -6.461  1.00  0.00     0.214 C 
ATOM      5  C   UNL     1      -3.186  10.290  -6.090  1.00  0.00     0.339 C 
ATOM      6  O   UNL     1      -3.780   9.550  -7.148  1.00  0.00    -0.332 OA
ENDROOT
BRANCH   1   7
ATOM      7  C   UNL     1      -5.792   9.025  -8.394  1.00  0.00     0.198 C 
BRANCH   7   8
ATOM      8  O   UNL     1      -6.998   8.502  -7.862  1.00  0.00    -0.347 OA
BRANCH   8   9
ATOM      9  C   UNL     1      -7.153   8.784  -6.474  1.00  0.00     0.281 C 
ATOM     10  C   UNL     1      -9.630  11.497  -6.754  1.00  0.00     0.041 C 
ATOM     11  C   UNL     1      -9.088  10.067  -6.829  1.00  0.00     0.150 C 
ATOM     12  C   UNL     1     -10.012   9.079  -6.081  1.00  0.00     0.174 C 
ATOM     13  O   UNL     1      -7.775  10.047  -6.284  1.00  0.00    -0.344 OA
ATOM     14  C   UNL     1      -9.429   7.652  -6.182  1.00  0.00     0.179 C 
ATOM     15  C   UNL     1      -7.939   7.641  -5.782  1.00  0.00     0.202 C 
BRANCH  12  16
ATOM     16  O   UNL     1     -10.116   9.449  -4.731  1.00  0.00    -0.388 OA
ATOM     17  H   UNL     1     -10.661   8.745  -4.291  1.00  0.00     0.211 HD
ENDBRANCH  12  16
BRANCH  14  18
ATOM     18  O   UNL     1      -9.566   7.169  -7.490  1.00  0.00    -0.387 OA
ATOM     19  H   UNL     1     -10.428   7.513  -7.841  1.00  0.00     0.211 HD
ENDBRANCH  14  18
BRANCH  15  20
ATOM     20  O   UNL     1      -7.824   7.785  -4.387  1.00  0.00    -0.385 OA
ATOM     21  H   UNL     1      -7.973   6.887  -3.985  1.00  0.00     0.211 HD
ENDBRANCH  15  20
ENDBRANCH   8   9
ENDBRANCH   7   8
ENDBRANCH   1   7
BRANCH   2  22
ATOM     22  O   UNL     1      -4.283  11.489  -9.125  1.00  0.00    -0.387 OA
ATOM     23  H   UNL     1      -3.767  12.336  -9.096  1.00  0.00     0.211 HD
ENDBRANCH   2  22
BRANCH   3  24
ATOM     24  O   UNL     1      -5.275  12.490  -5.758  1.00  0.00    -0.387 OA
ATOM     25  H   UNL     1      -5.014  11.789  -5.098  1.00  0.00     0.211 HD
ENDBRANCH   3  24
BRANCH   5  26
ATOM     26  O   UNL     1      -1.857   9.808  -5.898  1.00  0.00    -0.454 OA
BRANCH  26  27
ATOM     27  C   UNL     1      -0.951  10.196  -4.899  1.00  0.00     0.214 A 
ATOM     28  C   UNL     1      -1.109   9.938  -3.518  1.00  0.00     0.180 A 
ATOM     29  C   UNL     1       0.200  10.869  -5.320  1.00  0.00     0.239 A 
ATOM     30  O   UNL     1      -0.175  10.338  -2.659  1.00  0.00    -0.452 OA
ATOM     31  C   UNL     1       1.169  11.277  -4.382  1.00  0.00     0.111 A 
ATOM     32  O   UNL     1       0.353  11.102  -6.550  1.00  0.00    -0.285 OA
ATOM     33  C   UNL     1       0.934  10.971  -3.022  1.00  0.00     0.146 A 
ATOM     34  C   UNL     1       2.359  11.960  -4.738  1.00  0.00     0.134 A 
ATOM     35  C   UNL     1       1.874  11.321  -2.051  1.00  0.00     0.094 A 
ATOM     36  C   UNL     1       3.283  12.317  -3.750  1.00  0.00     0.093 A 
ATOM     37  C   UNL     1       3.044  11.993  -2.409  1.00  0.00     0.123 A 
BRANCH  28  38
ATOM     38  C   UNL     1      -2.230   9.183  -2.952  1.00  0.00     0.025 A 
ATOM     39  C   UNL     1      -3.501   9.278  -3.537  1.00  0.00     0.062 A 
ATOM     40  C   UNL     1      -1.986   8.212  -1.971  1.00  0.00     0.016 A 
ATOM     41  C   UNL     1      -4.534   8.419  -3.126  1.00  0.00     0.158 A 
ATOM     42  C   UNL     1      -3.010   7.355  -1.565  1.00  0.00     0.051 A 
ATOM     43  C   UNL     1      -4.287   7.454  -2.133  1.00  0.00     0.157 A 
BRANCH  41  44
ATOM     44  O   UNL     1      -5.791   8.507  -3.719  1.00  0.00    -0.504 OA
ATOM     45  H   UNL     1      -6.632   8.278  -3.193  1.00  0.00     0.293 HD
ENDBRANCH  41  44
BRANCH  43  46
ATOM     46  O   UNL     1      -5.286   6.572  -1.708  1.00  0.00    -0.504 OA
ATOM     47  H   UNL     1      -6.199   6.905  -1.431  1.00  0.00     0.293 HD
ENDBRANCH  43  46
ENDBRANCH  28  38
BRANCH  34  48
ATOM     48  O   UNL     1       2.628  12.297  -6.057  1.00  0.00    -0.507 OA
ATOM     49  H   UNL     1       3.029  11.614  -6.693  1.00  0.00     0.293 HD
ENDBRANCH  34  48
BRANCH  37  50
ATOM     50  O   UNL     1       3.967  12.330  -1.425  1.00  0.00    -0.508 OA
ATOM     51  H   UNL     1       4.722  12.984  -1.616  1.00  0.00     0.293 HD
ENDBRANCH  37  50
ENDBRANCH  26  27
ENDBRANCH   5  26
BRANCH   4  52
ATOM     52  O   UNL     1      -2.576  12.503  -5.359  1.00  0.00    -0.384 OA
ATOM     53  H   UNL     1      -1.750  12.034  -5.062  1.00  0.00     0.211 HD
ENDBRANCH   4  52
TORSDOF 16
ENDMDL
