MODEL 1
REMARK VINA RESULT:    -3.467      0.000      0.000
REMARK INTER + INTRA:          -4.162
REMARK INTER:                  -4.075
REMARK INTRA:                  -0.087
REMARK UNBOUND:                -0.087
REMARK SMILES O=C([O-])CCC(=O)[O-]
REMARK SMILES IDX 4 1 2 2 1 3 3 4 5 5 6 6 7 7 8 8
REMARK H PARENT
REMARK Flexibility Score: inf
ROOT
ATOM      1  C   UNL     1      14.665  45.040  -9.804  1.00  0.00     0.059 C 
ENDROOT
BRANCH   1   2
ATOM      2  C   UNL     1      13.725  44.069 -10.449  1.00  0.00     0.042 C 
ATOM      3  O   UNL     1      14.151  42.970 -10.892  1.00  0.00    -0.550 OA
ATOM      4  O   UNL     1      12.368  44.362 -10.526  1.00  0.00    -0.550 OA
ENDBRANCH   1   2
BRANCH   1   5
ATOM      5  C   UNL     1      15.374  45.915 -10.843  1.00  0.00     0.059 C 
BRANCH   5   6
ATOM      6  C   UNL     1      15.123  47.372 -10.600  1.00  0.00     0.042 C 
ATOM      7  O   UNL     1      13.996  47.763 -10.197  1.00  0.00    -0.550 OA
ATOM      8  O   UNL     1      16.122  48.303 -10.859  1.00  0.00    -0.550 OA
ENDBRANCH   5   6
ENDBRANCH   1   5
TORSDOF 3
ENDMDL
MODEL 2
REMARK VINA RESULT:    -3.454      1.677      2.284
REMARK INTER + INTRA:          -4.147
REMARK INTER:                  -4.047
REMARK INTRA:                  -0.100
REMARK UNBOUND:                -0.087
REMARK SMILES O=C([O-])CCC(=O)[O-]
REMARK SMILES IDX 4 1 2 2 1 3 3 4 5 5 6 6 7 7 8 8
REMARK H PARENT
REMARK Flexibility Score: inf
ROOT
ATOM      1  C   UNL     1      13.408  43.603 -10.372  1.00  0.00     0.059 C 
ENDROOT
BRANCH   1   2
ATOM      2  C   UNL     1      11.977  43.678  -9.935  1.00  0.00     0.042 C 
ATOM      3  O   UNL     1      11.659  44.340  -8.911  1.00  0.00    -0.550 OA
ATOM      4  O   UNL     1      10.988  43.050 -10.682  1.00  0.00    -0.550 OA
ENDBRANCH   1   2
BRANCH   1   5
ATOM      5  C   UNL     1      14.241  44.744  -9.776  1.00  0.00     0.059 C 
BRANCH   5   6
ATOM      6  C   UNL     1      14.283  45.931 -10.689  1.00  0.00     0.042 C 
ATOM      7  O   UNL     1      14.322  47.096 -10.213  1.00  0.00    -0.550 OA
ATOM      8  O   UNL     1      14.237  45.752 -12.066  1.00  0.00    -0.550 OA
ENDBRANCH   5   6
ENDBRANCH   1   5
TORSDOF 3
ENDMDL
MODEL 3
REMARK VINA RESULT:    -2.988      2.369      3.603
REMARK INTER + INTRA:          -3.599
REMARK INTER:                  -3.568
REMARK INTRA:                  -0.032
REMARK UNBOUND:                -0.087
REMARK SMILES O=C([O-])CCC(=O)[O-]
REMARK SMILES IDX 4 1 2 2 1 3 3 4 5 5 6 6 7 7 8 8
REMARK H PARENT
REMARK Flexibility Score: inf
ROOT
ATOM      1  C   UNL     1      11.971  43.460  -9.333  1.00  0.00     0.059 C 
ENDROOT
BRANCH   1   2
ATOM      2  C   UNL     1      10.489  43.309  -9.492  1.00  0.00     0.042 C 
ATOM      3  O   UNL     1       9.959  43.399 -10.631  1.00  0.00    -0.550 OA
ATOM      4  O   UNL     1       9.696  43.031  -8.385  1.00  0.00    -0.550 OA
ENDBRANCH   1   2
BRANCH   1   5
ATOM      5  C   UNL     1      12.549  44.455 -10.345  1.00  0.00     0.059 C 
BRANCH   5   6
ATOM      6  C   UNL     1      14.044  44.514 -10.270  1.00  0.00     0.042 C 
ATOM      7  O   UNL     1      14.617  45.546  -9.833  1.00  0.00    -0.550 OA
ATOM      8  O   UNL     1      14.806  43.443 -10.722  1.00  0.00    -0.550 OA
ENDBRANCH   5   6
ENDBRANCH   1   5
TORSDOF 3
ENDMDL
MODEL 4
REMARK VINA RESULT:    -2.861     16.049     16.707
REMARK INTER + INTRA:          -3.449
REMARK INTER:                  -3.358
REMARK INTRA:                  -0.091
REMARK UNBOUND:                -0.087
REMARK SMILES O=C([O-])CCC(=O)[O-]
REMARK SMILES IDX 4 1 2 2 1 3 3 4 5 5 6 6 7 7 8 8
REMARK H PARENT
REMARK Flexibility Score: inf
ROOT
ATOM      1  C   UNL     1       1.908  50.373   0.392  1.00  0.00     0.059 C 
ENDROOT
BRANCH   1   2
ATOM      2  C   UNL     1       2.881  50.365   1.531  1.00  0.00     0.042 C 
ATOM      3  O   UNL     1       2.639  49.695   2.569  1.00  0.00    -0.550 OA
ATOM      4  O   UNL     1       4.076  51.067   1.429  1.00  0.00    -0.550 OA
ENDBRANCH   1   2
BRANCH   1   5
ATOM      5  C   UNL     1       2.031  51.649  -0.447  1.00  0.00     0.059 C 
BRANCH   5   6
ATOM      6  C   UNL     1       2.742  51.393  -1.741  1.00  0.00     0.042 C 
ATOM      7  O   UNL     1       3.857  51.931  -1.970  1.00  0.00    -0.550 OA
ATOM      8  O   UNL     1       2.152  50.592  -2.712  1.00  0.00    -0.550 OA
ENDBRANCH   5   6
ENDBRANCH   1   5
TORSDOF 3
ENDMDL
MODEL 5
REMARK VINA RESULT:    -2.818     16.636     17.605
REMARK INTER + INTRA:          -3.399
REMARK INTER:                  -3.276
REMARK INTRA:                  -0.123
REMARK UNBOUND:                -0.087
REMARK SMILES O=C([O-])CCC(=O)[O-]
REMARK SMILES IDX 4 1 2 2 1 3 3 4 5 5 6 6 7 7 8 8
REMARK H PARENT
REMARK Flexibility Score: inf
ROOT
ATOM      1  C   UNL     1       4.314  52.102   0.668  1.00  0.00     0.059 C 
ENDROOT
BRANCH   1   2
ATOM      2  C   UNL     1       3.772  53.485   0.858  1.00  0.00     0.042 C 
ATOM      3  O   UNL     1       2.733  53.850   0.247  1.00  0.00    -0.550 OA
ATOM      4  O   UNL     1       4.393  54.360   1.741  1.00  0.00    -0.550 OA
ENDBRANCH   1   2
BRANCH   1   5
ATOM      5  C   UNL     1       3.656  51.102   1.624  1.00  0.00     0.059 C 
BRANCH   5   6
ATOM      6  C   UNL     1       2.578  50.314   0.943  1.00  0.00     0.042 C 
ATOM      7  O   UNL     1       1.879  49.498   1.599  1.00  0.00    -0.550 OA
ATOM      8  O   UNL     1       2.375  50.450  -0.425  1.00  0.00    -0.550 OA
ENDBRANCH   5   6
ENDBRANCH   1   5
TORSDOF 3
ENDMDL
MODEL 6
REMARK VINA RESULT:    -2.813     16.612     17.181
REMARK INTER + INTRA:          -3.394
REMARK INTER:                  -3.273
REMARK INTRA:                  -0.121
REMARK UNBOUND:                -0.087
REMARK SMILES O=C([O-])CCC(=O)[O-]
REMARK SMILES IDX 4 1 2 2 1 3 3 4 5 5 6 6 7 7 8 8
REMARK H PARENT
REMARK Flexibility Score: inf
ROOT
ATOM      1  C   UNL     1       3.709  51.130   1.509  1.00  0.00     0.059 C 
ENDROOT
BRANCH   1   2
ATOM      2  C   UNL     1       2.600  50.399   0.816  1.00  0.00     0.042 C 
ATOM      3  O   UNL     1       1.875  49.591   1.454  1.00  0.00    -0.550 OA
ATOM      4  O   UNL     1       2.342  50.640  -0.528  1.00  0.00    -0.550 OA
ENDBRANCH   1   2
BRANCH   1   5
ATOM      5  C   UNL     1       4.339  52.191   0.601  1.00  0.00     0.059 C 
BRANCH   5   6
ATOM      6  C   UNL     1       3.784  53.555   0.878  1.00  0.00     0.042 C 
ATOM      7  O   UNL     1       2.786  53.976   0.235  1.00  0.00    -0.550 OA
ATOM      8  O   UNL     1       4.396  54.378   1.816  1.00  0.00    -0.550 OA
ENDBRANCH   5   6
ENDBRANCH   1   5
TORSDOF 3
ENDMDL
MODEL 7
REMARK VINA RESULT:    -2.809     16.013     16.694
REMARK INTER + INTRA:          -3.389
REMARK INTER:                  -3.260
REMARK INTRA:                  -0.128
REMARK UNBOUND:                -0.087
REMARK SMILES O=C([O-])CCC(=O)[O-]
REMARK SMILES IDX 4 1 2 2 1 3 3 4 5 5 6 6 7 7 8 8
REMARK H PARENT
REMARK Flexibility Score: inf
ROOT
ATOM      1  C   UNL     1       1.878  51.598  -0.196  1.00  0.00     0.059 C 
ENDROOT
BRANCH   1   2
ATOM      2  C   UNL     1       2.340  51.688  -1.618  1.00  0.00     0.042 C 
ATOM      3  O   UNL     1       2.268  50.683  -2.374  1.00  0.00    -0.550 OA
ATOM      4  O   UNL     1       2.814  52.893  -2.121  1.00  0.00    -0.550 OA
ENDBRANCH   1   2
BRANCH   1   5
ATOM      5  C   UNL     1       2.903  50.880   0.687  1.00  0.00     0.059 C 
BRANCH   5   6
ATOM      6  C   UNL     1       3.939  51.827   1.212  1.00  0.00     0.042 C 
ATOM      7  O   UNL     1       5.041  51.389   1.638  1.00  0.00    -0.550 OA
ATOM      8  O   UNL     1       3.671  53.189   1.270  1.00  0.00    -0.550 OA
ENDBRANCH   5   6
ENDBRANCH   1   5
TORSDOF 3
ENDMDL
