MODEL 1
REMARK VINA RESULT:    -3.376      0.000      0.000
REMARK INTER + INTRA:          -4.343
REMARK INTER:                  -4.265
REMARK INTRA:                  -0.078
REMARK UNBOUND:                -0.078
REMARK SMILES CCCCCCO
REMARK SMILES IDX 4 1 3 2 2 3 1 4 5 5 6 6 7 7
REMARK H PARENT 7 8
REMARK Flexibility Score: inf
ROOT
ATOM      1  C   UNL     1      30.360  25.238  22.448  1.00  0.00     0.002 C 
ENDROOT
BRANCH   1   2
ATOM      2  C   UNL     1      31.664  25.967  22.816  1.00  0.00    -0.000 C 
BRANCH   2   3
ATOM      3  C   UNL     1      31.907  26.028  24.331  1.00  0.00    -0.003 C 
ATOM      4  C   UNL     1      31.878  24.633  24.948  1.00  0.00     0.004 C 
ENDBRANCH   2   3
ENDBRANCH   1   2
BRANCH   1   5
ATOM      5  C   UNL     1      29.123  26.147  22.305  1.00  0.00     0.028 C 
BRANCH   5   6
ATOM      6  C   UNL     1      28.443  26.060  20.933  1.00  0.00     0.156 C 
BRANCH   6   7
ATOM      7  O   UNL     1      27.285  26.849  20.891  1.00  0.00    -0.396 OA
ATOM      8  H   UNL     1      26.646  26.450  21.538  1.00  0.00     0.210 HD
ENDBRANCH   6   7
ENDBRANCH   5   6
ENDBRANCH   1   5
TORSDOF 5
ENDMDL
MODEL 2
REMARK VINA RESULT:    -3.328      1.514      2.183
REMARK INTER + INTRA:          -4.282
REMARK INTER:                  -4.125
REMARK INTRA:                  -0.157
REMARK UNBOUND:                -0.078
REMARK SMILES CCCCCCO
REMARK SMILES IDX 4 1 3 2 2 3 1 4 5 5 6 6 7 7
REMARK H PARENT 7 8
REMARK Flexibility Score: inf
ROOT
ATOM      1  C   UNL     1      30.270  25.252  22.337  1.00  0.00     0.002 C 
ENDROOT
BRANCH   1   2
ATOM      2  C   UNL     1      30.529  26.493  23.209  1.00  0.00    -0.000 C 
BRANCH   2   3
ATOM      3  C   UNL     1      31.738  27.314  22.736  1.00  0.00    -0.003 C 
ATOM      4  C   UNL     1      31.297  28.497  21.879  1.00  0.00     0.004 C 
ENDBRANCH   2   3
ENDBRANCH   1   2
BRANCH   1   5
ATOM      5  C   UNL     1      28.944  25.273  21.552  1.00  0.00     0.028 C 
BRANCH   5   6
ATOM      6  C   UNL     1      28.008  26.424  21.945  1.00  0.00     0.156 C 
BRANCH   6   7
ATOM      7  O   UNL     1      27.238  26.846  20.851  1.00  0.00    -0.396 OA
ATOM      8  H   UNL     1      27.417  27.816  20.736  1.00  0.00     0.210 HD
ENDBRANCH   6   7
ENDBRANCH   5   6
ENDBRANCH   1   5
TORSDOF 5
ENDMDL
MODEL 3
REMARK VINA RESULT:    -3.307      0.997      1.389
REMARK INTER + INTRA:          -4.255
REMARK INTER:                  -4.150
REMARK INTRA:                  -0.105
REMARK UNBOUND:                -0.078
REMARK SMILES CCCCCCO
REMARK SMILES IDX 4 1 3 2 2 3 1 4 5 5 6 6 7 7
REMARK H PARENT 7 8
REMARK Flexibility Score: inf
ROOT
ATOM      1  C   UNL     1      30.104  24.913  22.155  1.00  0.00     0.002 C 
ENDROOT
BRANCH   1   2
ATOM      2  C   UNL     1      31.130  25.210  23.263  1.00  0.00    -0.000 C 
BRANCH   2   3
ATOM      3  C   UNL     1      32.081  26.362  22.903  1.00  0.00    -0.003 C 
ATOM      4  C   UNL     1      31.917  27.531  23.869  1.00  0.00     0.004 C 
ENDBRANCH   2   3
ENDBRANCH   1   2
BRANCH   1   5
ATOM      5  C   UNL     1      28.809  25.747  22.227  1.00  0.00     0.028 C 
BRANCH   5   6
ATOM      6  C   UNL     1      28.446  26.445  20.909  1.00  0.00     0.156 C 
BRANCH   6   7
ATOM      7  O   UNL     1      27.118  26.895  20.924  1.00  0.00    -0.396 OA
ATOM      8  H   UNL     1      26.632  26.366  20.238  1.00  0.00     0.210 HD
ENDBRANCH   6   7
ENDBRANCH   5   6
ENDBRANCH   1   5
TORSDOF 5
ENDMDL
MODEL 4
REMARK VINA RESULT:    -3.058      4.413      6.021
REMARK INTER + INTRA:          -3.940
REMARK INTER:                  -3.857
REMARK INTRA:                  -0.083
REMARK UNBOUND:                -0.078
REMARK SMILES CCCCCCO
REMARK SMILES IDX 4 1 3 2 2 3 1 4 5 5 6 6 7 7
REMARK H PARENT 7 8
REMARK Flexibility Score: inf
ROOT
ATOM      1  C   UNL     1      25.382  27.447  23.491  1.00  0.00     0.002 C 
ENDROOT
BRANCH   1   2
ATOM      2  C   UNL     1      24.835  28.377  24.589  1.00  0.00    -0.000 C 
BRANCH   2   3
ATOM      3  C   UNL     1      24.193  29.653  24.025  1.00  0.00    -0.003 C 
ATOM      4  C   UNL     1      25.183  30.814  24.030  1.00  0.00     0.004 C 
ENDBRANCH   2   3
ENDBRANCH   1   2
BRANCH   1   5
ATOM      5  C   UNL     1      26.896  27.568  23.231  1.00  0.00     0.028 C 
BRANCH   5   6
ATOM      6  C   UNL     1      27.438  26.539  22.229  1.00  0.00     0.156 C 
BRANCH   6   7
ATOM      7  O   UNL     1      27.089  26.881  20.915  1.00  0.00    -0.396 OA
ATOM      8  H   UNL     1      26.537  27.705  20.973  1.00  0.00     0.210 HD
ENDBRANCH   6   7
ENDBRANCH   5   6
ENDBRANCH   1   5
TORSDOF 5
ENDMDL
MODEL 5
REMARK VINA RESULT:    -3.018      1.675      2.468
REMARK INTER + INTRA:          -3.891
REMARK INTER:                  -3.740
REMARK INTRA:                  -0.151
REMARK UNBOUND:                -0.078
REMARK SMILES CCCCCCO
REMARK SMILES IDX 4 1 3 2 2 3 1 4 5 5 6 6 7 7
REMARK H PARENT 7 8
REMARK Flexibility Score: inf
ROOT
ATOM      1  C   UNL     1      29.057  27.206  23.018  1.00  0.00     0.002 C 
ENDROOT
BRANCH   1   2
ATOM      2  C   UNL     1      30.191  26.403  23.679  1.00  0.00    -0.000 C 
BRANCH   2   3
ATOM      3  C   UNL     1      30.764  25.312  22.762  1.00  0.00    -0.003 C 
ATOM      4  C   UNL     1      29.742  24.885  21.712  1.00  0.00     0.004 C 
ENDBRANCH   2   3
ENDBRANCH   1   2
BRANCH   1   5
ATOM      5  C   UNL     1      27.715  27.180  23.776  1.00  0.00     0.028 C 
BRANCH   5   6
ATOM      6  C   UNL     1      26.491  27.011  22.865  1.00  0.00     0.156 C 
BRANCH   6   7
ATOM      7  O   UNL     1      26.866  26.987  21.514  1.00  0.00    -0.396 OA
ATOM      8  H   UNL     1      26.143  27.447  21.011  1.00  0.00     0.210 HD
ENDBRANCH   6   7
ENDBRANCH   5   6
ENDBRANCH   1   5
TORSDOF 5
ENDMDL
MODEL 6
REMARK VINA RESULT:    -3.010      2.996      4.100
REMARK INTER + INTRA:          -3.879
REMARK INTER:                  -3.750
REMARK INTRA:                  -0.130
REMARK UNBOUND:                -0.078
REMARK SMILES CCCCCCO
REMARK SMILES IDX 4 1 3 2 2 3 1 4 5 5 6 6 7 7
REMARK H PARENT 7 8
REMARK Flexibility Score: inf
ROOT
ATOM      1  C   UNL     1      26.961  26.681  23.438  1.00  0.00     0.002 C 
ENDROOT
BRANCH   1   2
ATOM      2  C   UNL     1      27.719  26.637  22.099  1.00  0.00    -0.000 C 
BRANCH   2   3
ATOM      3  C   UNL     1      28.334  25.261  21.806  1.00  0.00    -0.003 C 
ATOM      4  C   UNL     1      29.842  25.274  22.035  1.00  0.00     0.004 C 
ENDBRANCH   2   3
ENDBRANCH   1   2
BRANCH   1   5
ATOM      5  C   UNL     1      25.454  26.371  23.343  1.00  0.00     0.028 C 
BRANCH   5   6
ATOM      6  C   UNL     1      25.051  25.039  23.990  1.00  0.00     0.156 C 
BRANCH   6   7
ATOM      7  O   UNL     1      25.293  23.963  23.124  1.00  0.00    -0.396 OA
ATOM      8  H   UNL     1      26.241  24.039  22.836  1.00  0.00     0.210 HD
ENDBRANCH   6   7
ENDBRANCH   5   6
ENDBRANCH   1   5
TORSDOF 5
ENDMDL
MODEL 7
REMARK VINA RESULT:    -2.876      2.792      4.393
REMARK INTER + INTRA:          -3.711
REMARK INTER:                  -3.603
REMARK INTRA:                  -0.108
REMARK UNBOUND:                -0.078
REMARK SMILES CCCCCCO
REMARK SMILES IDX 4 1 3 2 2 3 1 4 5 5 6 6 7 7
REMARK H PARENT 7 8
REMARK Flexibility Score: inf
ROOT
ATOM      1  C   UNL     1      28.479  27.243  23.362  1.00  0.00     0.002 C 
ENDROOT
BRANCH   1   2
ATOM      2  C   UNL     1      27.192  27.431  24.186  1.00  0.00    -0.000 C 
BRANCH   2   3
ATOM      3  C   UNL     1      26.362  28.640  23.729  1.00  0.00    -0.003 C 
ATOM      4  C   UNL     1      24.893  28.470  24.103  1.00  0.00     0.004 C 
ENDBRANCH   2   3
ENDBRANCH   1   2
BRANCH   1   5
ATOM      5  C   UNL     1      28.517  25.968  22.497  1.00  0.00     0.028 C 
BRANCH   5   6
ATOM      6  C   UNL     1      28.312  26.228  20.998  1.00  0.00     0.156 C 
BRANCH   6   7
ATOM      7  O   UNL     1      27.092  26.877  20.759  1.00  0.00    -0.396 OA
ATOM      8  H   UNL     1      26.912  26.793  19.786  1.00  0.00     0.210 HD
ENDBRANCH   6   7
ENDBRANCH   5   6
ENDBRANCH   1   5
TORSDOF 5
ENDMDL
MODEL 8
REMARK VINA RESULT:    -2.845      1.947      3.510
REMARK INTER + INTRA:          -3.672
REMARK INTER:                  -3.436
REMARK INTRA:                  -0.236
REMARK UNBOUND:                -0.078
REMARK SMILES CCCCCCO
REMARK SMILES IDX 4 1 3 2 2 3 1 4 5 5 6 6 7 7
REMARK H PARENT 7 8
REMARK Flexibility Score: inf
ROOT
ATOM      1  C   UNL     1      30.414  25.642  23.085  1.00  0.00     0.002 C 
ENDROOT
BRANCH   1   2
ATOM      2  C   UNL     1      29.792  24.992  21.836  1.00  0.00    -0.000 C 
BRANCH   2   3
ATOM      3  C   UNL     1      28.473  25.653  21.413  1.00  0.00    -0.003 C 
ATOM      4  C   UNL     1      27.722  26.205  22.621  1.00  0.00     0.004 C 
ENDBRANCH   2   3
ENDBRANCH   1   2
BRANCH   1   5
ATOM      5  C   UNL     1      31.540  26.656  22.798  1.00  0.00     0.028 C 
BRANCH   5   6
ATOM      6  C   UNL     1      31.057  28.110  22.706  1.00  0.00     0.156 C 
BRANCH   6   7
ATOM      7  O   UNL     1      30.655  28.427  21.400  1.00  0.00    -0.396 OA
ATOM      8  H   UNL     1      29.702  28.702  21.456  1.00  0.00     0.210 HD
ENDBRANCH   6   7
ENDBRANCH   5   6
ENDBRANCH   1   5
TORSDOF 5
ENDMDL
MODEL 9
REMARK VINA RESULT:    -2.793      3.814      4.986
REMARK INTER + INTRA:          -3.606
REMARK INTER:                  -3.573
REMARK INTRA:                  -0.033
REMARK UNBOUND:                -0.078
REMARK SMILES CCCCCCO
REMARK SMILES IDX 4 1 3 2 2 3 1 4 5 5 6 6 7 7
REMARK H PARENT 7 8
REMARK Flexibility Score: inf
ROOT
ATOM      1  C   UNL     1      26.493  28.003  23.517  1.00  0.00     0.002 C 
ENDROOT
BRANCH   1   2
ATOM      2  C   UNL     1      26.947  26.649  22.943  1.00  0.00    -0.000 C 
BRANCH   2   3
ATOM      3  C   UNL     1      28.431  26.634  22.550  1.00  0.00    -0.003 C 
ATOM      4  C   UNL     1      28.633  25.966  21.193  1.00  0.00     0.004 C 
ENDBRANCH   2   3
ENDBRANCH   1   2
BRANCH   1   5
ATOM      5  C   UNL     1      25.019  28.060  23.963  1.00  0.00     0.028 C 
BRANCH   5   6
ATOM      6  C   UNL     1      24.488  29.484  24.174  1.00  0.00     0.156 C 
BRANCH   6   7
ATOM      7  O   UNL     1      24.198  30.102  22.950  1.00  0.00    -0.396 OA
ATOM      8  H   UNL     1      24.906  30.782  22.800  1.00  0.00     0.210 HD
ENDBRANCH   6   7
ENDBRANCH   5   6
ENDBRANCH   1   5
TORSDOF 5
ENDMDL
