MODEL 1
REMARK VINA RESULT:    -2.539      0.000      0.000
REMARK INTER + INTRA:          -2.844
REMARK INTER:                  -2.835
REMARK INTRA:                  -0.009
REMARK UNBOUND:                -0.009
REMARK SMILES CCCC(=O)[O-]
REMARK SMILES IDX 3 1 4 2 5 3 6 4 2 5 1 6
REMARK H PARENT
REMARK Flexibility Score: inf
ROOT
ATOM      1  C   UNL     1      24.955  39.352  -0.253  1.00  0.00     0.052 C 
ENDROOT
BRANCH   1   2
ATOM      2  C   UNL     1      25.920  39.539  -1.381  1.00  0.00     0.041 C 
ATOM      3  O   UNL     1      25.867  40.574  -2.095  1.00  0.00    -0.550 OA
ATOM      4  O   UNL     1      26.911  38.593  -1.612  1.00  0.00    -0.550 OA
ENDBRANCH   1   2
BRANCH   1   5
ATOM      5  C   UNL     1      25.467  40.049   1.011  1.00  0.00     0.003 C 
ATOM      6  C   UNL     1      24.310  40.498   1.899  1.00  0.00     0.004 C 
ENDBRANCH   1   5
TORSDOF 2
ENDMDL
MODEL 2
REMARK VINA RESULT:    -2.497     17.582     18.354
REMARK INTER + INTRA:          -2.798
REMARK INTER:                  -2.791
REMARK INTRA:                  -0.007
REMARK UNBOUND:                -0.009
REMARK SMILES CCCC(=O)[O-]
REMARK SMILES IDX 3 1 4 2 5 3 6 4 2 5 1 6
REMARK H PARENT
REMARK Flexibility Score: inf
ROOT
ATOM      1  C   UNL     1      43.014  33.051  -0.358  1.00  0.00     0.052 C 
ENDROOT
BRANCH   1   2
ATOM      2  C   UNL     1      41.944  32.820  -1.378  1.00  0.00     0.041 C 
ATOM      3  O   UNL     1      41.140  33.741  -1.673  1.00  0.00    -0.550 OA
ATOM      4  O   UNL     1      41.868  31.601  -2.040  1.00  0.00    -0.550 OA
ENDBRANCH   1   2
BRANCH   1   5
ATOM      5  C   UNL     1      42.589  32.487   1.000  1.00  0.00     0.003 C 
ATOM      6  C   UNL     1      43.803  32.108   1.844  1.00  0.00     0.004 C 
ENDBRANCH   1   5
TORSDOF 2
ENDMDL
MODEL 3
REMARK VINA RESULT:    -2.444      2.190      3.342
REMARK INTER + INTRA:          -2.739
REMARK INTER:                  -2.714
REMARK INTRA:                  -0.025
REMARK UNBOUND:                -0.009
REMARK SMILES CCCC(=O)[O-]
REMARK SMILES IDX 3 1 4 2 5 3 6 4 2 5 1 6
REMARK H PARENT
REMARK Flexibility Score: inf
ROOT
ATOM      1  C   UNL     1      25.737  39.776  -1.300  1.00  0.00     0.052 C 
ENDROOT
BRANCH   1   2
ATOM      2  C   UNL     1      25.102  39.690   0.052  1.00  0.00     0.041 C 
ATOM      3  O   UNL     1      23.975  39.146   0.189  1.00  0.00    -0.550 OA
ATOM      4  O   UNL     1      25.778  40.165   1.168  1.00  0.00    -0.550 OA
ENDBRANCH   1   2
BRANCH   1   5
ATOM      5  C   UNL     1      26.851  38.736  -1.436  1.00  0.00     0.003 C 
ATOM      6  C   UNL     1      28.154  39.381  -1.900  1.00  0.00     0.004 C 
ENDBRANCH   1   5
TORSDOF 2
ENDMDL
MODEL 4
REMARK VINA RESULT:    -2.426      2.498      3.525
REMARK INTER + INTRA:          -2.718
REMARK INTER:                  -2.682
REMARK INTRA:                  -0.037
REMARK UNBOUND:                -0.009
REMARK SMILES CCCC(=O)[O-]
REMARK SMILES IDX 3 1 4 2 5 3 6 4 2 5 1 6
REMARK H PARENT
REMARK Flexibility Score: inf
ROOT
ATOM      1  C   UNL     1      24.796  39.428   0.053  1.00  0.00     0.052 C 
ENDROOT
BRANCH   1   2
ATOM      2  C   UNL     1      25.018  40.154   1.343  1.00  0.00     0.041 C 
ATOM      3  O   UNL     1      26.178  40.258   1.820  1.00  0.00    -0.550 OA
ATOM      4  O   UNL     1      23.949  40.759   1.993  1.00  0.00    -0.550 OA
ENDBRANCH   1   2
BRANCH   1   5
ATOM      5  C   UNL     1      25.744  39.955  -1.027  1.00  0.00     0.003 C 
ATOM      6  C   UNL     1      26.779  38.902  -1.412  1.00  0.00     0.004 C 
ENDBRANCH   1   5
TORSDOF 2
ENDMDL
MODEL 5
REMARK VINA RESULT:    -2.414     17.972     18.905
REMARK INTER + INTRA:          -2.706
REMARK INTER:                  -2.669
REMARK INTRA:                  -0.037
REMARK UNBOUND:                -0.009
REMARK SMILES CCCC(=O)[O-]
REMARK SMILES IDX 3 1 4 2 5 3 6 4 2 5 1 6
REMARK H PARENT
REMARK Flexibility Score: inf
ROOT
ATOM      1  C   UNL     1      43.334  32.970   0.050  1.00  0.00     0.052 C 
ENDROOT
BRANCH   1   2
ATOM      2  C   UNL     1      43.097  32.361   1.395  1.00  0.00     0.041 C 
ATOM      3  O   UNL     1      44.046  31.828   2.026  1.00  0.00    -0.550 OA
ATOM      4  O   UNL     1      41.836  32.425   1.975  1.00  0.00    -0.550 OA
ENDBRANCH   1   2
BRANCH   1   5
ATOM      5  C   UNL     1      42.008  33.172  -0.688  1.00  0.00     0.003 C 
ATOM      6  C   UNL     1      41.813  32.115  -1.770  1.00  0.00     0.004 C 
ENDBRANCH   1   5
TORSDOF 2
ENDMDL
MODEL 6
REMARK VINA RESULT:    -2.381     17.036     17.952
REMARK INTER + INTRA:          -2.668
REMARK INTER:                  -2.630
REMARK INTRA:                  -0.038
REMARK UNBOUND:                -0.009
REMARK SMILES CCCC(=O)[O-]
REMARK SMILES IDX 3 1 4 2 5 3 6 4 2 5 1 6
REMARK H PARENT
REMARK Flexibility Score: inf
ROOT
ATOM      1  C   UNL     1      42.027  32.473  -1.366  1.00  0.00     0.052 C 
ENDROOT
BRANCH   1   2
ATOM      2  C   UNL     1      42.803  32.728  -0.113  1.00  0.00     0.041 C 
ATOM      3  O   UNL     1      42.330  32.396   1.005  1.00  0.00    -0.550 OA
ATOM      4  O   UNL     1      44.073  33.287  -0.184  1.00  0.00    -0.550 OA
ENDBRANCH   1   2
BRANCH   1   5
ATOM      5  C   UNL     1      41.025  33.603  -1.614  1.00  0.00     0.003 C 
ATOM      6  C   UNL     1      39.602  33.159  -1.286  1.00  0.00     0.004 C 
ENDBRANCH   1   5
TORSDOF 2
ENDMDL
MODEL 7
REMARK VINA RESULT:    -2.291      1.665      2.190
REMARK INTER + INTRA:          -2.568
REMARK INTER:                  -2.561
REMARK INTRA:                  -0.007
REMARK UNBOUND:                -0.009
REMARK SMILES CCCC(=O)[O-]
REMARK SMILES IDX 3 1 4 2 5 3 6 4 2 5 1 6
REMARK H PARENT
REMARK Flexibility Score: inf
ROOT
ATOM      1  C   UNL     1      25.621  40.111   1.425  1.00  0.00     0.052 C 
ENDROOT
BRANCH   1   2
ATOM      2  C   UNL     1      25.041  39.743   0.096  1.00  0.00     0.041 C 
ATOM      3  O   UNL     1      23.967  39.091   0.032  1.00  0.00    -0.550 OA
ATOM      4  O   UNL     1      25.662  40.164  -1.073  1.00  0.00    -0.550 OA
ENDBRANCH   1   2
BRANCH   1   5
ATOM      5  C   UNL     1      24.553  40.748   2.318  1.00  0.00     0.003 C 
ATOM      6  C   UNL     1      25.183  41.659   3.367  1.00  0.00     0.004 C 
ENDBRANCH   1   5
TORSDOF 2
ENDMDL
MODEL 8
REMARK VINA RESULT:    -2.286     18.587     19.262
REMARK INTER + INTRA:          -2.562
REMARK INTER:                  -2.556
REMARK INTRA:                  -0.007
REMARK UNBOUND:                -0.009
REMARK SMILES CCCC(=O)[O-]
REMARK SMILES IDX 3 1 4 2 5 3 6 4 2 5 1 6
REMARK H PARENT
REMARK Flexibility Score: inf
ROOT
ATOM      1  C   UNL     1      42.625  32.375   1.597  1.00  0.00     0.052 C 
ENDROOT
BRANCH   1   2
ATOM      2  C   UNL     1      42.937  32.663   0.163  1.00  0.00     0.041 C 
ATOM      3  O   UNL     1      42.128  32.328  -0.741  1.00  0.00    -0.550 OA
ATOM      4  O   UNL     1      44.098  33.348  -0.172  1.00  0.00    -0.550 OA
ENDBRANCH   1   2
BRANCH   1   5
ATOM      5  C   UNL     1      43.873  31.863   2.323  1.00  0.00     0.003 C 
ATOM      6  C   UNL     1      43.531  31.378   3.729  1.00  0.00     0.004 C 
ENDBRANCH   1   5
TORSDOF 2
ENDMDL
MODEL 9
REMARK VINA RESULT:    -2.184      1.569      1.643
REMARK INTER + INTRA:          -2.448
REMARK INTER:                  -2.435
REMARK INTRA:                  -0.013
REMARK UNBOUND:                -0.009
REMARK SMILES CCCC(=O)[O-]
REMARK SMILES IDX 3 1 4 2 5 3 6 4 2 5 1 6
REMARK H PARENT
REMARK Flexibility Score: inf
ROOT
ATOM      1  C   UNL     1      26.318  39.095  -0.184  1.00  0.00     0.052 C 
ENDROOT
BRANCH   1   2
ATOM      2  C   UNL     1      26.627  39.748  -1.494  1.00  0.00     0.041 C 
ATOM      3  O   UNL     1      25.789  40.516  -2.034  1.00  0.00    -0.550 OA
ATOM      4  O   UNL     1      27.863  39.546  -2.096  1.00  0.00    -0.550 OA
ENDBRANCH   1   2
BRANCH   1   5
ATOM      5  C   UNL     1      27.452  39.337   0.815  1.00  0.00     0.003 C 
ATOM      6  C   UNL     1      26.939  40.031   2.073  1.00  0.00     0.004 C 
ENDBRANCH   1   5
TORSDOF 2
ENDMDL
