MODEL 1
REMARK VINA RESULT:    -3.636      0.000      0.000
REMARK INTER + INTRA:          -8.780
REMARK INTER:                  -6.612
REMARK INTRA:                  -2.168
REMARK UNBOUND:                -2.168
REMARK SMILES CCCCCCCCCCCCCC[C@H](C)C(=O)[O-]
REMARK SMILES IDX 9 1 10 2 11 3 12 4 13 5 14 6 15 7 16 8 17 9 18 10 19 11 8 12
REMARK SMILES IDX 7 13 6 14 5 15 4 16 3 17 2 18 1 19
REMARK H PARENT
REMARK Flexibility Score: inf
ROOT
ATOM      1  C   UNL     1      -8.843   2.696  -8.608  1.00  0.00     0.000 C 
ENDROOT
BRANCH   1   2
ATOM      2  C   UNL     1      -8.783   3.619  -7.375  1.00  0.00     0.000 C 
BRANCH   2   3
ATOM      3  C   UNL     1      -9.816   4.760  -7.363  1.00  0.00     0.000 C 
BRANCH   3   4
ATOM      4  C   UNL     1     -11.031   4.475  -8.262  1.00  0.00     0.000 C 
BRANCH   4   5
ATOM      5  C   UNL     1     -11.079   5.391  -9.496  1.00  0.00     0.001 C 
BRANCH   5   6
ATOM      6  C   UNL     1      -9.989   6.477  -9.473  1.00  0.00     0.009 C 
BRANCH   6   7
ATOM      7  C   UNL     1      -9.070   6.400 -10.710  1.00  0.00     0.032 C 
ATOM      8  C   UNL     1      -9.242   5.057 -11.427  1.00  0.00     0.014 C 
BRANCH   7   9
ATOM      9  C   UNL     1      -7.626   6.591 -10.330  1.00  0.00     0.044 C 
ATOM     10  O   UNL     1      -7.273   6.505  -9.124  1.00  0.00    -0.550 OA
ATOM     11  O   UNL     1      -6.673   6.866 -11.304  1.00  0.00    -0.550 OA
ENDBRANCH   7   9
ENDBRANCH   6   7
ENDBRANCH   5   6
ENDBRANCH   4   5
ENDBRANCH   3   4
ENDBRANCH   2   3
ENDBRANCH   1   2
BRANCH   1  12
ATOM     12  C   UNL     1      -9.220   1.230  -8.314  1.00  0.00     0.000 C 
BRANCH  12  13
ATOM     13  C   UNL     1     -10.158   0.582  -9.348  1.00  0.00    -0.000 C 
BRANCH  13  14
ATOM     14  C   UNL     1     -10.428   1.487 -10.559  1.00  0.00    -0.000 C 
BRANCH  14  15
ATOM     15  C   UNL     1      -9.714   0.956 -11.811  1.00  0.00    -0.000 C 
BRANCH  15  16
ATOM     16  C   UNL     1      -8.346   1.620 -12.041  1.00  0.00    -0.000 C 
BRANCH  16  17
ATOM     17  C   UNL     1      -7.176   0.641 -11.865  1.00  0.00    -0.000 C 
BRANCH  17  18
ATOM     18  C   UNL     1      -6.606   0.719 -10.443  1.00  0.00    -0.003 C 
ATOM     19  C   UNL     1      -5.087   0.577 -10.450  1.00  0.00     0.004 C 
ENDBRANCH  17  18
ENDBRANCH  16  17
ENDBRANCH  15  16
ENDBRANCH  14  15
ENDBRANCH  13  14
ENDBRANCH  12  13
ENDBRANCH   1  12
TORSDOF 14
ENDMDL
MODEL 2
REMARK VINA RESULT:    -3.293     11.565     14.499
REMARK INTER + INTRA:          -8.156
REMARK INTER:                  -6.447
REMARK INTRA:                  -1.709
REMARK UNBOUND:                -2.168
REMARK SMILES CCCCCCCCCCCCCC[C@H](C)C(=O)[O-]
REMARK SMILES IDX 9 1 10 2 11 3 12 4 13 5 14 6 15 7 16 8 17 9 18 10 19 11 8 12
REMARK SMILES IDX 7 13 6 14 5 15 4 16 3 17 2 18 1 19
REMARK H PARENT
REMARK Flexibility Score: inf
ROOT
ATOM      1  C   UNL     1      -0.620  -8.178 -10.255  1.00  0.00     0.000 C 
ENDROOT
BRANCH   1   2
ATOM      2  C   UNL     1      -1.497  -7.753 -11.449  1.00  0.00     0.000 C 
BRANCH   2   3
ATOM      3  C   UNL     1      -1.084  -6.432 -12.124  1.00  0.00     0.000 C 
BRANCH   3   4
ATOM      4  C   UNL     1      -1.727  -5.200 -11.467  1.00  0.00     0.000 C 
BRANCH   4   5
ATOM      5  C   UNL     1      -0.685  -4.230 -10.888  1.00  0.00     0.001 C 
BRANCH   5   6
ATOM      6  C   UNL     1       0.132  -3.513 -11.978  1.00  0.00     0.009 C 
BRANCH   6   7
ATOM      7  C   UNL     1       1.650  -3.615 -11.726  1.00  0.00     0.032 C 
ATOM      8  C   UNL     1       2.003  -4.969 -11.100  1.00  0.00     0.014 C 
BRANCH   7   9
ATOM      9  C   UNL     1       2.132  -2.503 -10.833  1.00  0.00     0.044 C 
ATOM     10  O   UNL     1       2.317  -2.714  -9.605  1.00  0.00    -0.550 OA
ATOM     11  O   UNL     1       2.373  -1.237 -11.354  1.00  0.00    -0.550 OA
ENDBRANCH   7   9
ENDBRANCH   6   7
ENDBRANCH   5   6
ENDBRANCH   4   5
ENDBRANCH   3   4
ENDBRANCH   2   3
ENDBRANCH   1   2
BRANCH   1  12
ATOM     12  C   UNL     1       0.739  -8.804 -10.627  1.00  0.00     0.000 C 
BRANCH  12  13
ATOM     13  C   UNL     1       0.786  -9.475 -12.011  1.00  0.00    -0.000 C 
BRANCH  13  14
ATOM     14  C   UNL     1       1.089 -10.978 -11.936  1.00  0.00    -0.000 C 
BRANCH  14  15
ATOM     15  C   UNL     1       1.022 -11.479 -10.486  1.00  0.00    -0.000 C 
BRANCH  15  16
ATOM     16  C   UNL     1       0.296 -12.828 -10.358  1.00  0.00    -0.000 C 
BRANCH  16  17
ATOM     17  C   UNL     1      -0.836 -12.795  -9.320  1.00  0.00    -0.000 C 
BRANCH  17  18
ATOM     18  C   UNL     1      -1.626 -11.484  -9.413  1.00  0.00    -0.003 C 
ATOM     19  C   UNL     1      -2.512 -11.462 -10.656  1.00  0.00     0.004 C 
ENDBRANCH  17  18
ENDBRANCH  16  17
ENDBRANCH  15  16
ENDBRANCH  14  15
ENDBRANCH  13  14
ENDBRANCH  12  13
ENDBRANCH   1  12
TORSDOF 14
ENDMDL
MODEL 3
REMARK VINA RESULT:    -2.724     11.884     14.850
REMARK INTER + INTRA:          -7.122
REMARK INTER:                  -5.835
REMARK INTRA:                  -1.286
REMARK UNBOUND:                -2.168
REMARK SMILES CCCCCCCCCCCCCC[C@H](C)C(=O)[O-]
REMARK SMILES IDX 9 1 10 2 11 3 12 4 13 5 14 6 15 7 16 8 17 9 18 10 19 11 8 12
REMARK SMILES IDX 7 13 6 14 5 15 4 16 3 17 2 18 1 19
REMARK H PARENT
REMARK Flexibility Score: inf
ROOT
ATOM      1  C   UNL     1      -0.879  -8.491 -10.845  1.00  0.00     0.000 C 
ENDROOT
BRANCH   1   2
ATOM      2  C   UNL     1       0.071  -7.277 -10.880  1.00  0.00     0.000 C 
BRANCH   2   3
ATOM      3  C   UNL     1       1.451  -7.511 -10.240  1.00  0.00     0.000 C 
BRANCH   3   4
ATOM      4  C   UNL     1       2.538  -6.585 -10.811  1.00  0.00     0.000 C 
BRANCH   4   5
ATOM      5  C   UNL     1       2.034  -5.746 -11.996  1.00  0.00     0.001 C 
BRANCH   5   6
ATOM      6  C   UNL     1       2.645  -4.333 -12.028  1.00  0.00     0.009 C 
BRANCH   6   7
ATOM      7  C   UNL     1       1.937  -3.373 -11.051  1.00  0.00     0.032 C 
ATOM      8  C   UNL     1       0.431  -3.329 -11.335  1.00  0.00     0.014 C 
BRANCH   7   9
ATOM      9  C   UNL     1       2.509  -1.984 -11.137  1.00  0.00     0.044 C 
ATOM     10  O   UNL     1       3.665  -1.749 -10.696  1.00  0.00    -0.550 OA
ATOM     11  O   UNL     1       1.768  -0.951 -11.699  1.00  0.00    -0.550 OA
ENDBRANCH   7   9
ENDBRANCH   6   7
ENDBRANCH   5   6
ENDBRANCH   4   5
ENDBRANCH   3   4
ENDBRANCH   2   3
ENDBRANCH   1   2
BRANCH   1  12
ATOM     12  C   UNL     1      -0.458  -9.628  -9.892  1.00  0.00     0.000 C 
BRANCH  12  13
ATOM     13  C   UNL     1       0.350 -10.760 -10.552  1.00  0.00    -0.000 C 
BRANCH  13  14
ATOM     14  C   UNL     1       0.032 -12.142  -9.964  1.00  0.00    -0.000 C 
BRANCH  14  15
ATOM     15  C   UNL     1      -1.417 -12.203  -9.459  1.00  0.00    -0.000 C 
BRANCH  15  16
ATOM     16  C   UNL     1      -2.304 -13.125 -10.313  1.00  0.00    -0.000 C 
BRANCH  16  17
ATOM     17  C   UNL     1      -2.600 -12.541 -11.702  1.00  0.00    -0.000 C 
BRANCH  17  18
ATOM     18  C   UNL     1      -3.988 -11.890 -11.738  1.00  0.00    -0.003 C 
ATOM     19  C   UNL     1      -3.901 -10.391 -11.466  1.00  0.00     0.004 C 
ENDBRANCH  17  18
ENDBRANCH  16  17
ENDBRANCH  15  16
ENDBRANCH  14  15
ENDBRANCH  13  14
ENDBRANCH  12  13
ENDBRANCH   1  12
TORSDOF 14
ENDMDL
MODEL 4
REMARK VINA RESULT:    -2.631     12.423     15.124
REMARK INTER + INTRA:          -6.952
REMARK INTER:                  -6.016
REMARK INTRA:                  -0.936
REMARK UNBOUND:                -2.168
REMARK SMILES CCCCCCCCCCCCCC[C@H](C)C(=O)[O-]
REMARK SMILES IDX 9 1 10 2 11 3 12 4 13 5 14 6 15 7 16 8 17 9 18 10 19 11 8 12
REMARK SMILES IDX 7 13 6 14 5 15 4 16 3 17 2 18 1 19
REMARK H PARENT
REMARK Flexibility Score: inf
ROOT
ATOM      1  C   UNL     1       1.994  -3.757 -11.524  1.00  0.00     0.000 C 
ENDROOT
BRANCH   1   2
ATOM      2  C   UNL     1       0.903  -4.833 -11.350  1.00  0.00     0.000 C 
BRANCH   2   3
ATOM      3  C   UNL     1      -0.504  -4.417 -11.815  1.00  0.00     0.000 C 
BRANCH   3   4
ATOM      4  C   UNL     1      -1.535  -5.550 -11.682  1.00  0.00     0.000 C 
BRANCH   4   5
ATOM      5  C   UNL     1      -0.975  -6.912 -12.123  1.00  0.00     0.001 C 
BRANCH   5   6
ATOM      6  C   UNL     1      -1.639  -8.093 -11.392  1.00  0.00     0.009 C 
BRANCH   6   7
ATOM      7  C   UNL     1      -0.613  -9.170 -10.981  1.00  0.00     0.032 C 
ATOM      8  C   UNL     1      -1.268 -10.222 -10.079  1.00  0.00     0.014 C 
BRANCH   7   9
ATOM      9  C   UNL     1       0.567  -8.559 -10.274  1.00  0.00     0.044 C 
ATOM     10  O   UNL     1       0.404  -7.954  -9.181  1.00  0.00    -0.550 OA
ATOM     11  O   UNL     1       1.841  -8.654 -10.821  1.00  0.00    -0.550 OA
ENDBRANCH   7   9
ENDBRANCH   6   7
ENDBRANCH   5   6
ENDBRANCH   4   5
ENDBRANCH   3   4
ENDBRANCH   2   3
ENDBRANCH   1   2
BRANCH   1  12
ATOM     12  C   UNL     1       2.224  -2.851 -10.297  1.00  0.00     0.000 C 
BRANCH  12  13
ATOM     13  C   UNL     1       2.966  -1.536 -10.593  1.00  0.00    -0.000 C 
BRANCH  13  14
ATOM     14  C   UNL     1       3.530  -1.477 -12.020  1.00  0.00    -0.000 C 
BRANCH  14  15
ATOM     15  C   UNL     1       5.041  -1.201 -12.001  1.00  0.00    -0.000 C 
BRANCH  15  16
ATOM     16  C   UNL     1       5.628  -1.205 -10.580  1.00  0.00    -0.000 C 
BRANCH  16  17
ATOM     17  C   UNL     1       6.910  -0.366 -10.467  1.00  0.00    -0.000 C 
BRANCH  17  18
ATOM     18  C   UNL     1       7.861  -0.959  -9.420  1.00  0.00    -0.003 C 
ATOM     19  C   UNL     1       8.344  -2.345  -9.837  1.00  0.00     0.004 C 
ENDBRANCH  17  18
ENDBRANCH  16  17
ENDBRANCH  15  16
ENDBRANCH  14  15
ENDBRANCH  13  14
ENDBRANCH  12  13
ENDBRANCH   1  12
TORSDOF 14
ENDMDL
MODEL 5
REMARK VINA RESULT:    -2.438     11.760     14.135
REMARK INTER + INTRA:          -6.601
REMARK INTER:                  -5.586
REMARK INTRA:                  -1.015
REMARK UNBOUND:                -2.168
REMARK SMILES CCCCCCCCCCCCCC[C@H](C)C(=O)[O-]
REMARK SMILES IDX 9 1 10 2 11 3 12 4 13 5 14 6 15 7 16 8 17 9 18 10 19 11 8 12
REMARK SMILES IDX 7 13 6 14 5 15 4 16 3 17 2 18 1 19
REMARK H PARENT
REMARK Flexibility Score: inf
ROOT
ATOM      1  C   UNL     1       1.136  -3.733 -11.218  1.00  0.00     0.000 C 
ENDROOT
BRANCH   1   2
ATOM      2  C   UNL     1       2.000  -2.939 -10.217  1.00  0.00     0.000 C 
BRANCH   2   3
ATOM      3  C   UNL     1       2.090  -1.427 -10.487  1.00  0.00     0.000 C 
BRANCH   3   4
ATOM      4  C   UNL     1       2.713  -1.102 -11.856  1.00  0.00     0.000 C 
BRANCH   4   5
ATOM      5  C   UNL     1       3.996  -1.904 -12.125  1.00  0.00     0.001 C 
BRANCH   5   6
ATOM      6  C   UNL     1       5.202  -1.383 -11.324  1.00  0.00     0.009 C 
BRANCH   6   7
ATOM      7  C   UNL     1       6.518  -1.490 -12.122  1.00  0.00     0.032 C 
ATOM      8  C   UNL     1       7.273  -2.770 -11.748  1.00  0.00     0.014 C 
BRANCH   7   9
ATOM      9  C   UNL     1       7.400  -0.293 -11.886  1.00  0.00     0.044 C 
ATOM     10  O   UNL     1       6.891   0.812 -11.562  1.00  0.00    -0.550 OA
ATOM     11  O   UNL     1       8.779  -0.398 -12.026  1.00  0.00    -0.550 OA
ENDBRANCH   7   9
ENDBRANCH   6   7
ENDBRANCH   5   6
ENDBRANCH   4   5
ENDBRANCH   3   4
ENDBRANCH   2   3
ENDBRANCH   1   2
BRANCH   1  12
ATOM     12  C   UNL     1      -0.307  -4.021 -10.756  1.00  0.00     0.000 C 
BRANCH  12  13
ATOM     13  C   UNL     1      -1.303  -4.314 -11.892  1.00  0.00    -0.000 C 
BRANCH  13  14
ATOM     14  C   UNL     1      -1.640  -5.807 -12.020  1.00  0.00    -0.000 C 
BRANCH  14  15
ATOM     15  C   UNL     1      -1.180  -6.581 -10.776  1.00  0.00    -0.000 C 
BRANCH  15  16
ATOM     16  C   UNL     1      -1.222  -8.105 -10.977  1.00  0.00    -0.000 C 
BRANCH  16  17
ATOM     17  C   UNL     1      -0.006  -8.817 -10.365  1.00  0.00    -0.000 C 
BRANCH  17  18
ATOM     18  C   UNL     1       1.093  -7.810 -10.004  1.00  0.00    -0.003 C 
ATOM     19  C   UNL     1       2.113  -7.680 -11.131  1.00  0.00     0.004 C 
ENDBRANCH  17  18
ENDBRANCH  16  17
ENDBRANCH  15  16
ENDBRANCH  14  15
ENDBRANCH  13  14
ENDBRANCH  12  13
ENDBRANCH   1  12
TORSDOF 14
ENDMDL
MODEL 6
REMARK VINA RESULT:    -2.415     14.358     17.531
REMARK INTER + INTRA:          -6.560
REMARK INTER:                  -5.528
REMARK INTRA:                  -1.032
REMARK UNBOUND:                -2.168
REMARK SMILES CCCCCCCCCCCCCC[C@H](C)C(=O)[O-]
REMARK SMILES IDX 9 1 10 2 11 3 12 4 13 5 14 6 15 7 16 8 17 9 18 10 19 11 8 12
REMARK SMILES IDX 7 13 6 14 5 15 4 16 3 17 2 18 1 19
REMARK H PARENT
REMARK Flexibility Score: inf
ROOT
ATOM      1  C   UNL     1       1.868  -7.786 -10.576  1.00  0.00     0.000 C 
ENDROOT
BRANCH   1   2
ATOM      2  C   UNL     1       0.806  -6.669 -10.618  1.00  0.00     0.000 C 
BRANCH   2   3
ATOM      3  C   UNL     1      -0.653  -7.152 -10.528  1.00  0.00     0.000 C 
BRANCH   3   4
ATOM      4  C   UNL     1      -1.231  -7.561 -11.893  1.00  0.00     0.000 C 
BRANCH   4   5
ATOM      5  C   UNL     1      -1.912  -8.939 -11.855  1.00  0.00     0.001 C 
BRANCH   5   6
ATOM      6  C   UNL     1      -1.471  -9.787 -10.649  1.00  0.00     0.009 C 
BRANCH   6   7
ATOM      7  C   UNL     1      -1.683 -11.296 -10.893  1.00  0.00     0.032 C 
ATOM      8  C   UNL     1      -3.154 -11.589 -11.208  1.00  0.00     0.014 C 
BRANCH   7   9
ATOM      9  C   UNL     1      -1.247 -12.109  -9.704  1.00  0.00     0.044 C 
ATOM     10  O   UNL     1      -2.095 -12.488  -8.853  1.00  0.00    -0.550 OA
ATOM     11  O   UNL     1       0.091 -12.446  -9.534  1.00  0.00    -0.550 OA
ENDBRANCH   7   9
ENDBRANCH   6   7
ENDBRANCH   5   6
ENDBRANCH   4   5
ENDBRANCH   3   4
ENDBRANCH   2   3
ENDBRANCH   1   2
BRANCH   1  12
ATOM     12  C   UNL     1       2.772  -7.880 -11.822  1.00  0.00     0.000 C 
BRANCH  12  13
ATOM     13  C   UNL     1       3.831  -6.769 -11.939  1.00  0.00    -0.000 C 
BRANCH  13  14
ATOM     14  C   UNL     1       5.253  -7.316 -12.125  1.00  0.00    -0.000 C 
BRANCH  14  15
ATOM     15  C   UNL     1       5.264  -8.851 -12.052  1.00  0.00    -0.000 C 
BRANCH  15  16
ATOM     16  C   UNL     1       6.657  -9.420 -11.737  1.00  0.00    -0.000 C 
BRANCH  16  17
ATOM     17  C   UNL     1       7.393  -8.617 -10.654  1.00  0.00    -0.000 C 
BRANCH  17  18
ATOM     18  C   UNL     1       7.652  -9.479  -9.413  1.00  0.00    -0.003 C 
ATOM     19  C   UNL     1       7.841 -10.945  -9.791  1.00  0.00     0.004 C 
ENDBRANCH  17  18
ENDBRANCH  16  17
ENDBRANCH  15  16
ENDBRANCH  14  15
ENDBRANCH  13  14
ENDBRANCH  12  13
ENDBRANCH   1  12
TORSDOF 14
ENDMDL
MODEL 7
REMARK VINA RESULT:    -2.366     12.161     15.632
REMARK INTER + INTRA:          -6.470
REMARK INTER:                  -5.414
REMARK INTRA:                  -1.056
REMARK UNBOUND:                -2.168
REMARK SMILES CCCCCCCCCCCCCC[C@H](C)C(=O)[O-]
REMARK SMILES IDX 9 1 10 2 11 3 12 4 13 5 14 6 15 7 16 8 17 9 18 10 19 11 8 12
REMARK SMILES IDX 7 13 6 14 5 15 4 16 3 17 2 18 1 19
REMARK H PARENT
REMARK Flexibility Score: inf
ROOT
ATOM      1  C   UNL     1      -1.035  -6.926 -10.809  1.00  0.00     0.000 C 
ENDROOT
BRANCH   1   2
ATOM      2  C   UNL     1       0.484  -6.824 -10.568  1.00  0.00     0.000 C 
BRANCH   2   3
ATOM      3  C   UNL     1       1.212  -8.172 -10.414  1.00  0.00     0.000 C 
BRANCH   3   4
ATOM      4  C   UNL     1       1.914  -8.622 -11.706  1.00  0.00     0.000 C 
BRANCH   4   5
ATOM      5  C   UNL     1       1.560 -10.066 -12.096  1.00  0.00     0.001 C 
BRANCH   5   6
ATOM      6  C   UNL     1       0.141 -10.470 -11.656  1.00  0.00     0.009 C 
BRANCH   6   7
ATOM      7  C   UNL     1       0.160 -11.439 -10.456  1.00  0.00     0.032 C 
ATOM      8  C   UNL     1       0.534 -12.854 -10.912  1.00  0.00     0.014 C 
BRANCH   7   9
ATOM      9  C   UNL     1      -1.171 -11.467  -9.754  1.00  0.00     0.044 C 
ATOM     10  O   UNL     1      -1.866 -10.420  -9.677  1.00  0.00    -0.550 OA
ATOM     11  O   UNL     1      -1.641 -12.645  -9.185  1.00  0.00    -0.550 OA
ENDBRANCH   7   9
ENDBRANCH   6   7
ENDBRANCH   5   6
ENDBRANCH   4   5
ENDBRANCH   3   4
ENDBRANCH   2   3
ENDBRANCH   1   2
BRANCH   1  12
ATOM     12  C   UNL     1      -1.720  -5.614 -11.243  1.00  0.00     0.000 C 
BRANCH  12  13
ATOM     13  C   UNL     1      -0.984  -4.329 -10.825  1.00  0.00    -0.000 C 
BRANCH  13  14
ATOM     14  C   UNL     1      -0.511  -3.494 -12.023  1.00  0.00    -0.000 C 
BRANCH  14  15
ATOM     15  C   UNL     1       1.000  -3.232 -11.947  1.00  0.00    -0.000 C 
BRANCH  15  16
ATOM     16  C   UNL     1       1.430  -2.627 -10.601  1.00  0.00    -0.000 C 
BRANCH  16  17
ATOM     17  C   UNL     1       2.916  -2.237 -10.575  1.00  0.00    -0.000 C 
BRANCH  17  18
ATOM     18  C   UNL     1       3.330  -1.572 -11.893  1.00  0.00    -0.003 C 
ATOM     19  C   UNL     1       4.789  -1.127 -11.851  1.00  0.00     0.004 C 
ENDBRANCH  17  18
ENDBRANCH  16  17
ENDBRANCH  15  16
ENDBRANCH  14  15
ENDBRANCH  13  14
ENDBRANCH  12  13
ENDBRANCH   1  12
TORSDOF 14
ENDMDL
MODEL 8
REMARK VINA RESULT:    -2.353      2.300      5.505
REMARK INTER + INTRA:          -6.448
REMARK INTER:                  -4.706
REMARK INTRA:                  -1.742
REMARK UNBOUND:                -2.168
REMARK SMILES CCCCCCCCCCCCCC[C@H](C)C(=O)[O-]
REMARK SMILES IDX 9 1 10 2 11 3 12 4 13 5 14 6 15 7 16 8 17 9 18 10 19 11 8 12
REMARK SMILES IDX 7 13 6 14 5 15 4 16 3 17 2 18 1 19
REMARK H PARENT
REMARK Flexibility Score: inf
ROOT
ATOM      1  C   UNL     1     -10.195   3.809 -11.485  1.00  0.00     0.000 C 
ENDROOT
BRANCH   1   2
ATOM      2  C   UNL     1     -11.112   2.656 -11.940  1.00  0.00     0.000 C 
BRANCH   2   3
ATOM      3  C   UNL     1     -10.671   1.253 -11.488  1.00  0.00     0.000 C 
BRANCH   3   4
ATOM      4  C   UNL     1     -10.865   1.023  -9.980  1.00  0.00     0.000 C 
BRANCH   4   5
ATOM      5  C   UNL     1      -9.536   1.023  -9.208  1.00  0.00     0.001 C 
BRANCH   5   6
ATOM      6  C   UNL     1      -8.326   1.335 -10.107  1.00  0.00     0.009 C 
BRANCH   6   7
ATOM      7  C   UNL     1      -7.243   0.240 -10.019  1.00  0.00     0.032 C 
ATOM      8  C   UNL     1      -7.226  -0.392  -8.623  1.00  0.00     0.014 C 
BRANCH   7   9
ATOM      9  C   UNL     1      -5.880   0.791 -10.342  1.00  0.00     0.044 C 
ATOM     10  O   UNL     1      -5.300   1.558  -9.529  1.00  0.00    -0.550 OA
ATOM     11  O   UNL     1      -5.254   0.462 -11.539  1.00  0.00    -0.550 OA
ENDBRANCH   7   9
ENDBRANCH   6   7
ENDBRANCH   5   6
ENDBRANCH   4   5
ENDBRANCH   3   4
ENDBRANCH   2   3
ENDBRANCH   1   2
BRANCH   1  12
ATOM     12  C   UNL     1     -10.910   4.978 -10.779  1.00  0.00     0.000 C 
BRANCH  12  13
ATOM     13  C   UNL     1     -10.005   6.172 -10.424  1.00  0.00    -0.000 C 
BRANCH  13  14
ATOM     14  C   UNL     1      -8.597   6.052 -11.023  1.00  0.00    -0.000 C 
BRANCH  14  15
ATOM     15  C   UNL     1      -7.536   6.560 -10.036  1.00  0.00    -0.000 C 
BRANCH  15  16
ATOM     16  C   UNL     1      -7.774   6.063  -8.601  1.00  0.00    -0.000 C 
BRANCH  16  17
ATOM     17  C   UNL     1      -7.484   4.564  -8.437  1.00  0.00    -0.000 C 
BRANCH  17  18
ATOM     18  C   UNL     1      -8.638   3.858  -7.715  1.00  0.00    -0.003 C 
ATOM     19  C   UNL     1      -9.700   4.857  -7.265  1.00  0.00     0.004 C 
ENDBRANCH  17  18
ENDBRANCH  16  17
ENDBRANCH  15  16
ENDBRANCH  14  15
ENDBRANCH  13  14
ENDBRANCH  12  13
ENDBRANCH   1  12
TORSDOF 14
ENDMDL
MODEL 9
REMARK VINA RESULT:    -2.263     12.943     15.082
REMARK INTER + INTRA:          -6.283
REMARK INTER:                  -5.488
REMARK INTRA:                  -0.795
REMARK UNBOUND:                -2.168
REMARK SMILES CCCCCCCCCCCCCC[C@H](C)C(=O)[O-]
REMARK SMILES IDX 9 1 10 2 11 3 12 4 13 5 14 6 15 7 16 8 17 9 18 10 19 11 8 12
REMARK SMILES IDX 7 13 6 14 5 15 4 16 3 17 2 18 1 19
REMARK H PARENT
REMARK Flexibility Score: inf
ROOT
ATOM      1  C   UNL     1       1.943  -3.373 -10.625  1.00  0.00     0.000 C 
ENDROOT
BRANCH   1   2
ATOM      2  C   UNL     1       1.637  -1.937 -11.094  1.00  0.00     0.000 C 
BRANCH   2   3
ATOM      3  C   UNL     1       2.787  -1.234 -11.839  1.00  0.00     0.000 C 
BRANCH   3   4
ATOM      4  C   UNL     1       4.172  -1.771 -11.441  1.00  0.00     0.000 C 
BRANCH   4   5
ATOM      5  C   UNL     1       5.318  -1.009 -12.125  1.00  0.00     0.001 C 
BRANCH   5   6
ATOM      6  C   UNL     1       6.706  -1.551 -11.740  1.00  0.00     0.009 C 
BRANCH   6   7
ATOM      7  C   UNL     1       6.985  -1.409 -10.229  1.00  0.00     0.032 C 
ATOM      8  C   UNL     1       7.210   0.061  -9.858  1.00  0.00     0.014 C 
BRANCH   7   9
ATOM      9  C   UNL     1       8.179  -2.226  -9.814  1.00  0.00     0.044 C 
ATOM     10  O   UNL     1       9.014  -2.607 -10.676  1.00  0.00    -0.550 OA
ATOM     11  O   UNL     1       8.368  -2.567  -8.480  1.00  0.00    -0.550 OA
ENDBRANCH   7   9
ENDBRANCH   6   7
ENDBRANCH   5   6
ENDBRANCH   4   5
ENDBRANCH   3   4
ENDBRANCH   2   3
ENDBRANCH   1   2
BRANCH   1  12
ATOM     12  C   UNL     1       1.787  -4.464 -11.704  1.00  0.00     0.000 C 
BRANCH  12  13
ATOM     13  C   UNL     1       2.325  -5.850 -11.307  1.00  0.00    -0.000 C 
BRANCH  13  14
ATOM     14  C   UNL     1       1.318  -6.979 -11.568  1.00  0.00    -0.000 C 
BRANCH  14  15
ATOM     15  C   UNL     1      -0.124  -6.471 -11.425  1.00  0.00    -0.000 C 
BRANCH  15  16
ATOM     16  C   UNL     1      -1.039  -7.476 -10.706  1.00  0.00    -0.000 C 
BRANCH  16  17
ATOM     17  C   UNL     1      -1.569  -8.570 -11.645  1.00  0.00    -0.000 C 
BRANCH  17  18
ATOM     18  C   UNL     1      -2.378  -9.614 -10.866  1.00  0.00    -0.003 C 
ATOM     19  C   UNL     1      -1.550 -10.223  -9.737  1.00  0.00     0.004 C 
ENDBRANCH  17  18
ENDBRANCH  16  17
ENDBRANCH  15  16
ENDBRANCH  14  15
ENDBRANCH  13  14
ENDBRANCH  12  13
ENDBRANCH   1  12
TORSDOF 14
ENDMDL
