MODEL 1
REMARK VINA RESULT:    -5.710      0.000      0.000
REMARK INTER + INTRA:         -10.589
REMARK INTER:                  -8.881
REMARK INTRA:                  -1.708
REMARK UNBOUND:                -1.708
REMARK SMILES C[C@]12C[C@]3(O)O[C@H](O1)[C@@]1(COC(=O)c4ccccc4)[C@@H]3C[C@]12O[C@@H]1O[C@H](CO)[C@H](O)[C@H](O)[C@H]1O
REMARK SMILES IDX 1 1 2 2 3 3 4 4 20 5 21 6 22 7 9 8 7 9 8 10 6 11 23 12 24 13
REMARK SMILES IDX 33 14 25 15 31 16 26 17 29 18 34 19 32 21 27 23 28 24 30 26
REMARK SMILES IDX 5 28 10 30 11 31 12 32 13 33 14 34 15 35 19 36 16 37 18 38
REMARK SMILES IDX 17 39
REMARK H PARENT 34 20 32 22 28 25 30 27 5 29
REMARK Flexibility Score: inf
ROOT
ATOM      1  C   UNL     1      41.545  15.365  22.709  1.00  0.00     0.046 C 
ATOM      2  C   UNL     1      43.056  15.155  22.655  1.00  0.00     0.104 C 
ATOM      3  C   UNL     1      43.761  16.293  21.830  1.00  0.00     0.104 C 
ATOM      4  C   UNL     1      45.284  15.951  21.973  1.00  0.00     0.175 C 
ATOM      5  C   UNL     1      45.645  15.697  23.469  1.00  0.00     0.070 C 
ATOM      6  C   UNL     1      44.590  16.249  24.448  1.00  0.00     0.050 C 
ATOM      7  C   UNL     1      43.737  15.006  24.071  1.00  0.00     0.115 C 
ATOM      8  C   UNL     1      45.018  14.312  23.611  1.00  0.00     0.096 C 
ATOM      9  C   UNL     1      44.764  13.807  22.201  1.00  0.00     0.267 C 
ATOM     10  O   UNL     1      43.370  13.952  21.983  1.00  0.00    -0.342 OA
ATOM     11  O   UNL     1      45.466  14.695  21.346  1.00  0.00    -0.320 OA
ENDROOT
BRANCH   7  12
ATOM     12  O   UNL     1      42.960  14.238  24.999  1.00  0.00    -0.339 OA
BRANCH  12  13
ATOM     13  C   UNL     1      42.574  14.894  26.197  1.00  0.00     0.282 C 
ATOM     14  C   UNL     1      41.046  15.121  26.284  1.00  0.00     0.202 C 
ATOM     15  O   UNL     1      43.082  14.193  27.325  1.00  0.00    -0.341 OA
ATOM     16  C   UNL     1      40.284  13.814  26.555  1.00  0.00     0.179 C 
ATOM     17  C   UNL     1      42.465  12.938  27.572  1.00  0.00     0.178 C 
ATOM     18  C   UNL     1      40.927  13.053  27.723  1.00  0.00     0.177 C 
BRANCH  14  19
ATOM     19  O   UNL     1      40.786  16.041  27.314  1.00  0.00    -0.385 OA
ATOM     20  H   UNL     1      41.526  16.705  27.306  1.00  0.00     0.211 HD
ENDBRANCH  14  19
BRANCH  16  21
ATOM     21  O   UNL     1      40.259  13.027  25.395  1.00  0.00    -0.387 OA
ATOM     22  H   UNL     1      39.334  13.061  25.036  1.00  0.00     0.211 HD
ENDBRANCH  16  21
BRANCH  17  23
ATOM     23  C   UNL     1      42.960  11.842  26.601  1.00  0.00     0.191 C 
BRANCH  23  24
ATOM     24  O   UNL     1      43.362  10.708  27.318  1.00  0.00    -0.394 OA
ATOM     25  H   UNL     1      43.529  11.013  28.248  1.00  0.00     0.210 HD
ENDBRANCH  23  24
ENDBRANCH  17  23
BRANCH  18  26
ATOM     26  O   UNL     1      40.328  11.789  27.861  1.00  0.00    -0.387 OA
ATOM     27  H   UNL     1      40.719  11.375  28.673  1.00  0.00     0.211 HD
ENDBRANCH  18  26
ENDBRANCH  12  13
ENDBRANCH   7  12
BRANCH   4  28
ATOM     28  O   UNL     1      46.108  16.933  21.406  1.00  0.00    -0.365 OA
ATOM     29  H   UNL     1      45.644  17.262  20.592  1.00  0.00     0.214 HD
ENDBRANCH   4  28
BRANCH   8  30
ATOM     30  C   UNL     1      45.736  13.356  24.588  1.00  0.00     0.249 C 
BRANCH  30  31
ATOM     31  O   UNL     1      46.121  12.157  23.917  1.00  0.00    -0.461 OA
BRANCH  31  32
ATOM     32  C   UNL     1      45.733  10.872  24.315  1.00  0.00     0.338 C 
ATOM     33  O   UNL     1      45.821  10.526  25.526  1.00  0.00    -0.246 OA
BRANCH  32  34
ATOM     34  C   UNL     1      45.223   9.918  23.306  1.00  0.00     0.060 A 
ATOM     35  C   UNL     1      44.155  10.269  22.458  1.00  0.00     0.015 A 
ATOM     36  C   UNL     1      45.811   8.647  23.173  1.00  0.00     0.015 A 
ATOM     37  C   UNL     1      43.686   9.364  21.501  1.00  0.00     0.001 A 
ATOM     38  C   UNL     1      45.336   7.745  22.215  1.00  0.00     0.001 A 
ATOM     39  C   UNL     1      44.274   8.103  21.379  1.00  0.00     0.000 A 
ENDBRANCH  32  34
ENDBRANCH  31  32
ENDBRANCH  30  31
ENDBRANCH   8  30
TORSDOF 12
ENDMDL
MODEL 2
REMARK VINA RESULT:    -5.598      2.657      5.841
REMARK INTER + INTRA:         -10.415
REMARK INTER:                  -8.848
REMARK INTRA:                  -1.567
REMARK UNBOUND:                -1.708
REMARK SMILES C[C@]12C[C@]3(O)O[C@H](O1)[C@@]1(COC(=O)c4ccccc4)[C@@H]3C[C@]12O[C@@H]1O[C@H](CO)[C@H](O)[C@H](O)[C@H]1O
REMARK SMILES IDX 1 1 2 2 3 3 4 4 20 5 21 6 22 7 9 8 7 9 8 10 6 11 23 12 24 13
REMARK SMILES IDX 33 14 25 15 31 16 26 17 29 18 34 19 32 21 27 23 28 24 30 26
REMARK SMILES IDX 5 28 10 30 11 31 12 32 13 33 14 34 15 35 19 36 16 37 18 38
REMARK SMILES IDX 17 39
REMARK H PARENT 34 20 32 22 28 25 30 27 5 29
REMARK Flexibility Score: inf
ROOT
ATOM      1  C   UNL     1      45.351  14.267  24.662  1.00  0.00     0.046 C 
ATOM      2  C   UNL     1      43.852  14.438  24.425  1.00  0.00     0.104 C 
ATOM      3  C   UNL     1      43.568  15.540  23.340  1.00  0.00     0.104 C 
ATOM      4  C   UNL     1      42.010  15.495  23.177  1.00  0.00     0.175 C 
ATOM      5  C   UNL     1      41.529  14.024  22.979  1.00  0.00     0.070 C 
ATOM      6  C   UNL     1      42.662  13.067  22.561  1.00  0.00     0.050 C 
ATOM      7  C   UNL     1      43.102  13.100  24.052  1.00  0.00     0.115 C 
ATOM      8  C   UNL     1      41.688  13.548  24.421  1.00  0.00     0.096 C 
ATOM      9  C   UNL     1      41.831  14.796  25.275  1.00  0.00     0.267 C 
ATOM     10  O   UNL     1      43.208  14.890  25.599  1.00  0.00    -0.342 OA
ATOM     11  O   UNL     1      41.474  15.878  24.430  1.00  0.00    -0.320 OA
ENDROOT
BRANCH   7  12
ATOM     12  O   UNL     1      43.565  11.963  24.791  1.00  0.00    -0.339 OA
BRANCH  12  13
ATOM     13  C   UNL     1      44.068  10.875  24.031  1.00  0.00     0.282 C 
ATOM     14  C   UNL     1      45.582  10.645  24.253  1.00  0.00     0.202 C 
ATOM     15  O   UNL     1      43.300   9.705  24.282  1.00  0.00    -0.341 OA
ATOM     16  C   UNL     1      45.875  10.035  25.633  1.00  0.00     0.179 C 
ATOM     17  C   UNL     1      43.473   9.147  25.577  1.00  0.00     0.178 C 
ATOM     18  C   UNL     1      44.958   8.831  25.891  1.00  0.00     0.177 C 
BRANCH  14  19
ATOM     19  O   UNL     1      46.058   9.787  23.247  1.00  0.00    -0.385 OA
ATOM     20  H   UNL     1      45.434   9.866  22.477  1.00  0.00     0.211 HD
ENDBRANCH  14  19
BRANCH  16  21
ATOM     21  O   UNL     1      45.718  11.010  26.629  1.00  0.00    -0.387 OA
ATOM     22  H   UNL     1      45.803  10.552  27.505  1.00  0.00     0.211 HD
ENDBRANCH  16  21
BRANCH  17  23
ATOM     23  C   UNL     1      42.716   9.943  26.663  1.00  0.00     0.191 C 
BRANCH  23  24
ATOM     24  O   UNL     1      42.394   9.105  27.738  1.00  0.00    -0.394 OA
ATOM     25  H   UNL     1      42.212   8.210  27.348  1.00  0.00     0.210 HD
ENDBRANCH  23  24
ENDBRANCH  17  23
BRANCH  18  26
ATOM     26  O   UNL     1      45.118   8.380  27.213  1.00  0.00    -0.387 OA
ATOM     27  H   UNL     1      45.969   8.768  27.544  1.00  0.00     0.211 HD
ENDBRANCH  18  26
ENDBRANCH  12  13
ENDBRANCH   7  12
BRANCH   4  28
ATOM     28  O   UNL     1      41.555  16.328  22.146  1.00  0.00    -0.365 OA
ATOM     29  H   UNL     1      42.204  17.075  22.074  1.00  0.00     0.214 HD
ENDBRANCH   4  28
BRANCH   8  30
ATOM     30  C   UNL     1      40.671  12.483  24.884  1.00  0.00     0.249 C 
BRANCH  30  31
ATOM     31  O   UNL     1      40.414  12.616  26.282  1.00  0.00    -0.461 OA
BRANCH  31  32
ATOM     32  C   UNL     1      39.149  12.479  26.867  1.00  0.00     0.338 C 
ATOM     33  O   UNL     1      38.658  13.418  27.553  1.00  0.00    -0.246 OA
BRANCH  32  34
ATOM     34  C   UNL     1      38.393  11.221  26.682  1.00  0.00     0.060 A 
ATOM     35  C   UNL     1      38.961   9.980  27.031  1.00  0.00     0.015 A 
ATOM     36  C   UNL     1      37.085  11.251  26.164  1.00  0.00     0.015 A 
ATOM     37  C   UNL     1      38.235   8.797  26.860  1.00  0.00     0.001 A 
ATOM     38  C   UNL     1      36.364  10.064  25.994  1.00  0.00     0.001 A 
ATOM     39  C   UNL     1      36.939   8.838  26.343  1.00  0.00     0.000 A 
ENDBRANCH  32  34
ENDBRANCH  31  32
ENDBRANCH  30  31
ENDBRANCH   8  30
TORSDOF 12
ENDMDL
MODEL 3
REMARK VINA RESULT:    -5.566      1.377      1.630
REMARK INTER + INTRA:         -10.366
REMARK INTER:                  -8.841
REMARK INTRA:                  -1.525
REMARK UNBOUND:                -1.708
REMARK SMILES C[C@]12C[C@]3(O)O[C@H](O1)[C@@]1(COC(=O)c4ccccc4)[C@@H]3C[C@]12O[C@@H]1O[C@H](CO)[C@H](O)[C@H](O)[C@H]1O
REMARK SMILES IDX 1 1 2 2 3 3 4 4 20 5 21 6 22 7 9 8 7 9 8 10 6 11 23 12 24 13
REMARK SMILES IDX 33 14 25 15 31 16 26 17 29 18 34 19 32 21 27 23 28 24 30 26
REMARK SMILES IDX 5 28 10 30 11 31 12 32 13 33 14 34 15 35 19 36 16 37 18 38
REMARK SMILES IDX 17 39
REMARK H PARENT 34 20 32 22 28 25 30 27 5 29
REMARK Flexibility Score: inf
ROOT
ATOM      1  C   UNL     1      40.877  13.631  23.217  1.00  0.00     0.046 C 
ATOM      2  C   UNL     1      42.359  13.997  23.249  1.00  0.00     0.104 C 
ATOM      3  C   UNL     1      42.613  15.405  22.594  1.00  0.00     0.104 C 
ATOM      4  C   UNL     1      44.149  15.631  22.808  1.00  0.00     0.175 C 
ATOM      5  C   UNL     1      44.536  15.349  24.293  1.00  0.00     0.070 C 
ATOM      6  C   UNL     1      43.325  15.355  25.246  1.00  0.00     0.050 C 
ATOM      7  C   UNL     1      43.007  13.940  24.686  1.00  0.00     0.115 C 
ATOM      8  C   UNL     1      44.467  13.825  24.250  1.00  0.00     0.096 C 
ATOM      9  C   UNL     1      44.458  13.434  22.782  1.00  0.00     0.267 C 
ATOM     10  O   UNL     1      43.117  13.083  22.482  1.00  0.00    -0.342 OA
ATOM     11  O   UNL     1      44.802  14.614  22.072  1.00  0.00    -0.320 OA
ENDROOT
BRANCH   7  12
ATOM     12  O   UNL     1      42.545  12.836  25.475  1.00  0.00    -0.339 OA
BRANCH  12  13
ATOM     13  C   UNL     1      42.161  13.126  26.810  1.00  0.00     0.282 C 
ATOM     14  C   UNL     1      40.626  13.207  26.982  1.00  0.00     0.202 C 
ATOM     15  O   UNL     1      42.759  12.198  27.705  1.00  0.00    -0.341 OA
ATOM     16  C   UNL     1      39.966  11.820  26.916  1.00  0.00     0.179 C 
ATOM     17  C   UNL     1      42.239  10.878  27.627  1.00  0.00     0.178 C 
ATOM     18  C   UNL     1      40.703  10.834  27.832  1.00  0.00     0.177 C 
BRANCH  14  19
ATOM     19  O   UNL     1      40.343  13.806  28.222  1.00  0.00    -0.385 OA
ATOM     20  H   UNL     1      39.356  13.791  28.335  1.00  0.00     0.211 HD
ENDBRANCH  14  19
BRANCH  16  21
ATOM     21  O   UNL     1      39.950  11.362  25.591  1.00  0.00    -0.387 OA
ATOM     22  H   UNL     1      39.701  10.401  25.615  1.00  0.00     0.211 HD
ENDBRANCH  16  21
BRANCH  17  23
ATOM     23  C   UNL     1      42.769  10.113  26.394  1.00  0.00     0.191 C 
BRANCH  23  24
ATOM     24  O   UNL     1      43.190   8.830  26.767  1.00  0.00    -0.394 OA
ATOM     25  H   UNL     1      42.813   8.667  27.672  1.00  0.00     0.210 HD
ENDBRANCH  23  24
ENDBRANCH  17  23
BRANCH  18  26
ATOM     26  O   UNL     1      40.197   9.536  27.645  1.00  0.00    -0.387 OA
ATOM     27  H   UNL     1      39.422   9.441  28.257  1.00  0.00     0.211 HD
ENDBRANCH  18  26
ENDBRANCH  12  13
ENDBRANCH   7  12
BRANCH   4  28
ATOM     28  O   UNL     1      44.564  16.906  22.403  1.00  0.00    -0.365 OA
ATOM     29  H   UNL     1      45.366  16.779  21.832  1.00  0.00     0.214 HD
ENDBRANCH   4  28
BRANCH   8  30
ATOM     30  C   UNL     1      45.461  13.089  25.173  1.00  0.00     0.249 C 
BRANCH  30  31
ATOM     31  O   UNL     1      46.124  12.046  24.459  1.00  0.00    -0.461 OA
BRANCH  31  32
ATOM     32  C   UNL     1      45.794  10.688  24.562  1.00  0.00     0.338 C 
ATOM     33  O   UNL     1      45.891  10.091  25.670  1.00  0.00    -0.246 OA
BRANCH  32  34
ATOM     34  C   UNL     1      45.337   9.956  23.361  1.00  0.00     0.060 A 
ATOM     35  C   UNL     1      44.488   8.838  23.478  1.00  0.00     0.015 A 
ATOM     36  C   UNL     1      45.737  10.377  22.080  1.00  0.00     0.015 A 
ATOM     37  C   UNL     1      44.054   8.157  22.336  1.00  0.00     0.001 A 
ATOM     38  C   UNL     1      45.301   9.692  20.941  1.00  0.00     0.001 A 
ATOM     39  C   UNL     1      44.460   8.583  21.069  1.00  0.00     0.000 A 
ENDBRANCH  32  34
ENDBRANCH  31  32
ENDBRANCH  30  31
ENDBRANCH   8  30
TORSDOF 12
ENDMDL
MODEL 4
REMARK VINA RESULT:    -5.520      2.917      6.354
REMARK INTER + INTRA:         -10.295
REMARK INTER:                  -9.242
REMARK INTRA:                  -1.052
REMARK UNBOUND:                -1.708
REMARK SMILES C[C@]12C[C@]3(O)O[C@H](O1)[C@@]1(COC(=O)c4ccccc4)[C@@H]3C[C@]12O[C@@H]1O[C@H](CO)[C@H](O)[C@H](O)[C@H]1O
REMARK SMILES IDX 1 1 2 2 3 3 4 4 20 5 21 6 22 7 9 8 7 9 8 10 6 11 23 12 24 13
REMARK SMILES IDX 33 14 25 15 31 16 26 17 29 18 34 19 32 21 27 23 28 24 30 26
REMARK SMILES IDX 5 28 10 30 11 31 12 32 13 33 14 34 15 35 19 36 16 37 18 38
REMARK SMILES IDX 17 39
REMARK H PARENT 34 20 32 22 28 25 30 27 5 29
REMARK Flexibility Score: inf
ROOT
ATOM      1  C   UNL     1      41.874  10.775  29.229  1.00  0.00     0.046 C 
ATOM      2  C   UNL     1      42.237  11.495  27.933  1.00  0.00     0.104 C 
ATOM      3  C   UNL     1      43.689  11.120  27.459  1.00  0.00     0.104 C 
ATOM      4  C   UNL     1      43.829  11.874  26.092  1.00  0.00     0.175 C 
ATOM      5  C   UNL     1      42.588  11.594  25.190  1.00  0.00     0.070 C 
ATOM      6  C   UNL     1      41.779  10.361  25.637  1.00  0.00     0.050 C 
ATOM      7  C   UNL     1      41.206  11.271  26.760  1.00  0.00     0.115 C 
ATOM      8  C   UNL     1      41.585  12.487  25.916  1.00  0.00     0.096 C 
ATOM      9  C   UNL     1      42.397  13.408  26.812  1.00  0.00     0.267 C 
ATOM     10  O   UNL     1      42.254  12.895  28.126  1.00  0.00    -0.342 OA
ATOM     11  O   UNL     1      43.744  13.254  26.395  1.00  0.00    -0.320 OA
ENDROOT
BRANCH   7  12
ATOM     12  O   UNL     1      39.840  11.266  27.195  1.00  0.00    -0.339 OA
BRANCH  12  13
ATOM     13  C   UNL     1      38.979  10.328  26.570  1.00  0.00     0.282 C 
ATOM     14  C   UNL     1      38.561   9.180  27.520  1.00  0.00     0.202 C 
ATOM     15  O   UNL     1      37.859  10.993  26.000  1.00  0.00    -0.341 OA
ATOM     16  C   UNL     1      37.555   9.650  28.583  1.00  0.00     0.179 C 
ATOM     17  C   UNL     1      36.937  11.519  26.944  1.00  0.00     0.178 C 
ATOM     18  C   UNL     1      36.414  10.439  27.925  1.00  0.00     0.177 C 
BRANCH  14  19
ATOM     19  O   UNL     1      37.992   8.148  26.755  1.00  0.00    -0.385 OA
ATOM     20  H   UNL     1      37.329   7.687  27.334  1.00  0.00     0.211 HD
ENDBRANCH  14  19
BRANCH  16  21
ATOM     21  O   UNL     1      38.210  10.424  29.551  1.00  0.00    -0.387 OA
ATOM     22  H   UNL     1      38.809  11.052  29.070  1.00  0.00     0.211 HD
ENDBRANCH  16  21
BRANCH  17  23
ATOM     23  C   UNL     1      37.448  12.822  27.597  1.00  0.00     0.191 C 
BRANCH  23  24
ATOM     24  O   UNL     1      36.373  13.679  27.869  1.00  0.00    -0.394 OA
ATOM     25  H   UNL     1      36.693  14.313  28.563  1.00  0.00     0.210 HD
ENDBRANCH  23  24
ENDBRANCH  17  23
BRANCH  18  26
ATOM     26  O   UNL     1      35.587  11.001  28.914  1.00  0.00    -0.387 OA
ATOM     27  H   UNL     1      36.187  11.346  29.624  1.00  0.00     0.211 HD
ENDBRANCH  18  26
ENDBRANCH  12  13
ENDBRANCH   7  12
BRANCH   4  28
ATOM     28  O   UNL     1      45.025  11.565  25.431  1.00  0.00    -0.365 OA
ATOM     29  H   UNL     1      45.695  11.356  26.133  1.00  0.00     0.214 HD
ENDBRANCH   4  28
BRANCH   8  30
ATOM     30  C   UNL     1      40.506  13.137  25.023  1.00  0.00     0.249 C 
BRANCH  30  31
ATOM     31  O   UNL     1      41.071  14.199  24.255  1.00  0.00    -0.461 OA
BRANCH  31  32
ATOM     32  C   UNL     1      41.298  14.138  22.874  1.00  0.00     0.338 C 
ATOM     33  O   UNL     1      40.618  13.358  22.151  1.00  0.00    -0.246 OA
BRANCH  32  34
ATOM     34  C   UNL     1      42.345  14.989  22.269  1.00  0.00     0.060 A 
ATOM     35  C   UNL     1      43.703  14.798  22.589  1.00  0.00     0.015 A 
ATOM     36  C   UNL     1      41.996  15.998  21.353  1.00  0.00     0.015 A 
ATOM     37  C   UNL     1      44.687  15.603  22.005  1.00  0.00     0.001 A 
ATOM     38  C   UNL     1      42.983  16.800  20.773  1.00  0.00     0.001 A 
ATOM     39  C   UNL     1      44.329  16.602  21.099  1.00  0.00     0.000 A 
ENDBRANCH  32  34
ENDBRANCH  31  32
ENDBRANCH  30  31
ENDBRANCH   8  30
TORSDOF 12
ENDMDL
MODEL 5
REMARK VINA RESULT:    -5.469      2.339      7.527
REMARK INTER + INTRA:         -10.214
REMARK INTER:                  -9.294
REMARK INTRA:                  -0.920
REMARK UNBOUND:                -1.708
REMARK SMILES C[C@]12C[C@]3(O)O[C@H](O1)[C@@]1(COC(=O)c4ccccc4)[C@@H]3C[C@]12O[C@@H]1O[C@H](CO)[C@H](O)[C@H](O)[C@H]1O
REMARK SMILES IDX 1 1 2 2 3 3 4 4 20 5 21 6 22 7 9 8 7 9 8 10 6 11 23 12 24 13
REMARK SMILES IDX 33 14 25 15 31 16 26 17 29 18 34 19 32 21 27 23 28 24 30 26
REMARK SMILES IDX 5 28 10 30 11 31 12 32 13 33 14 34 15 35 19 36 16 37 18 38
REMARK SMILES IDX 17 39
REMARK H PARENT 34 20 32 22 28 25 30 27 5 29
REMARK Flexibility Score: inf
ROOT
ATOM      1  C   UNL     1      43.224  11.827  22.707  1.00  0.00     0.046 C 
ATOM      2  C   UNL     1      42.528  12.265  23.993  1.00  0.00     0.104 C 
ATOM      3  C   UNL     1      42.406  11.072  25.010  1.00  0.00     0.104 C 
ATOM      4  C   UNL     1      41.763  11.739  26.275  1.00  0.00     0.175 C 
ATOM      5  C   UNL     1      42.532  13.043  26.649  1.00  0.00     0.070 C 
ATOM      6  C   UNL     1      43.931  13.127  26.007  1.00  0.00     0.050 C 
ATOM      7  C   UNL     1      43.194  13.513  24.694  1.00  0.00     0.115 C 
ATOM      8  C   UNL     1      41.993  13.940  25.537  1.00  0.00     0.096 C 
ATOM      9  C   UNL     1      40.777  13.232  24.963  1.00  0.00     0.267 C 
ATOM     10  O   UNL     1      41.201  12.673  23.730  1.00  0.00    -0.342 OA
ATOM     11  O   UNL     1      40.481  12.185  25.874  1.00  0.00    -0.320 OA
ENDROOT
BRANCH   7  12
ATOM     12  O   UNL     1      43.643  14.512  23.771  1.00  0.00    -0.339 OA
BRANCH  12  13
ATOM     13  C   UNL     1      44.899  14.285  23.151  1.00  0.00     0.282 C 
ATOM     14  C   UNL     1      44.935  14.772  21.683  1.00  0.00     0.202 C 
ATOM     15  O   UNL     1      45.941  14.851  23.935  1.00  0.00    -0.341 OA
ATOM     16  C   UNL     1      44.974  16.305  21.586  1.00  0.00     0.179 C 
ATOM     17  C   UNL     1      45.973  16.271  23.944  1.00  0.00     0.178 C 
ATOM     18  C   UNL     1      46.056  16.872  22.518  1.00  0.00     0.177 C 
BRANCH  14  19
ATOM     19  O   UNL     1      46.070  14.229  21.057  1.00  0.00    -0.385 OA
ATOM     20  H   UNL     1      46.518  14.972  20.571  1.00  0.00     0.211 HD
ENDBRANCH  14  19
BRANCH  16  21
ATOM     21  O   UNL     1      43.714  16.836  21.896  1.00  0.00    -0.387 OA
ATOM     22  H   UNL     1      43.865  17.662  22.426  1.00  0.00     0.211 HD
ENDBRANCH  16  21
BRANCH  17  23
ATOM     23  C   UNL     1      44.884  16.874  24.860  1.00  0.00     0.191 C 
BRANCH  23  24
ATOM     24  O   UNL     1      45.170  18.219  25.128  1.00  0.00    -0.394 OA
ATOM     25  H   UNL     1      45.527  18.601  24.284  1.00  0.00     0.210 HD
ENDBRANCH  23  24
ENDBRANCH  17  23
BRANCH  18  26
ATOM     26  O   UNL     1      45.979  18.275  22.545  1.00  0.00    -0.387 OA
ATOM     27  H   UNL     1      45.061  18.515  22.257  1.00  0.00     0.211 HD
ENDBRANCH  18  26
ENDBRANCH  12  13
ENDBRANCH   7  12
BRANCH   4  28
ATOM     28  O   UNL     1      41.684  10.859  27.363  1.00  0.00    -0.365 OA
ATOM     29  H   UNL     1      40.719  10.717  27.547  1.00  0.00     0.214 HD
ENDBRANCH   4  28
BRANCH   8  30
ATOM     30  C   UNL     1      41.837  15.431  25.904  1.00  0.00     0.249 C 
BRANCH  30  31
ATOM     31  O   UNL     1      40.519  15.690  26.384  1.00  0.00    -0.461 OA
BRANCH  31  32
ATOM     32  C   UNL     1      40.149  15.642  27.735  1.00  0.00     0.338 C 
ATOM     33  O   UNL     1      41.031  15.593  28.636  1.00  0.00    -0.246 OA
BRANCH  32  34
ATOM     34  C   UNL     1      38.715  15.644  28.098  1.00  0.00     0.060 A 
ATOM     35  C   UNL     1      37.981  14.442  28.142  1.00  0.00     0.015 A 
ATOM     36  C   UNL     1      38.067  16.850  28.418  1.00  0.00     0.015 A 
ATOM     37  C   UNL     1      36.628  14.452  28.496  1.00  0.00     0.001 A 
ATOM     38  C   UNL     1      36.713  16.855  28.769  1.00  0.00     0.001 A 
ATOM     39  C   UNL     1      35.994  15.656  28.808  1.00  0.00     0.000 A 
ENDBRANCH  32  34
ENDBRANCH  31  32
ENDBRANCH  30  31
ENDBRANCH   8  30
TORSDOF 12
ENDMDL
MODEL 6
REMARK VINA RESULT:    -5.405      2.312      6.493
REMARK INTER + INTRA:         -10.115
REMARK INTER:                  -8.437
REMARK INTRA:                  -1.678
REMARK UNBOUND:                -1.708
REMARK SMILES C[C@]12C[C@]3(O)O[C@H](O1)[C@@]1(COC(=O)c4ccccc4)[C@@H]3C[C@]12O[C@@H]1O[C@H](CO)[C@H](O)[C@H](O)[C@H]1O
REMARK SMILES IDX 1 1 2 2 3 3 4 4 20 5 21 6 22 7 9 8 7 9 8 10 6 11 23 12 24 13
REMARK SMILES IDX 33 14 25 15 31 16 26 17 29 18 34 19 32 21 27 23 28 24 30 26
REMARK SMILES IDX 5 28 10 30 11 31 12 32 13 33 14 34 15 35 19 36 16 37 18 38
REMARK SMILES IDX 17 39
REMARK H PARENT 34 20 32 22 28 25 30 27 5 29
REMARK Flexibility Score: inf
ROOT
ATOM      1  C   UNL     1      45.348  13.895  24.840  1.00  0.00     0.046 C 
ATOM      2  C   UNL     1      43.856  14.130  24.620  1.00  0.00     0.104 C 
ATOM      3  C   UNL     1      43.607  15.263  23.558  1.00  0.00     0.104 C 
ATOM      4  C   UNL     1      42.047  15.283  23.409  1.00  0.00     0.175 C 
ATOM      5  C   UNL     1      41.506  13.836  23.188  1.00  0.00     0.070 C 
ATOM      6  C   UNL     1      42.596  12.843  22.742  1.00  0.00     0.050 C 
ATOM      7  C   UNL     1      43.050  12.830  24.229  1.00  0.00     0.115 C 
ATOM      8  C   UNL     1      41.658  13.327  24.620  1.00  0.00     0.096 C 
ATOM      9  C   UNL     1      41.857  14.552  25.496  1.00  0.00     0.267 C 
ATOM     10  O   UNL     1      43.240  14.585  25.808  1.00  0.00    -0.342 OA
ATOM     11  O   UNL     1      41.537  15.664  24.674  1.00  0.00    -0.320 OA
ENDROOT
BRANCH   7  12
ATOM     12  O   UNL     1      43.473  11.662  24.943  1.00  0.00    -0.339 OA
BRANCH  12  13
ATOM     13  C   UNL     1      43.984  10.593  24.162  1.00  0.00     0.282 C 
ATOM     14  C   UNL     1      45.531  10.536  24.174  1.00  0.00     0.202 C 
ATOM     15  O   UNL     1      43.394   9.364  24.565  1.00  0.00    -0.341 OA
ATOM     16  C   UNL     1      46.078  10.037  25.521  1.00  0.00     0.179 C 
ATOM     17  C   UNL     1      43.806   8.899  25.843  1.00  0.00     0.178 C 
ATOM     18  C   UNL     1      45.346   8.759  25.954  1.00  0.00     0.177 C 
BRANCH  14  19
ATOM     19  O   UNL     1      45.956   9.679  23.145  1.00  0.00    -0.385 OA
ATOM     20  H   UNL     1      46.553  10.209  22.552  1.00  0.00     0.211 HD
ENDBRANCH  14  19
BRANCH  16  21
ATOM     21  O   UNL     1      45.952  11.043  26.490  1.00  0.00    -0.387 OA
ATOM     22  H   UNL     1      46.830  11.124  26.944  1.00  0.00     0.211 HD
ENDBRANCH  16  21
BRANCH  17  23
ATOM     23  C   UNL     1      43.121   9.668  26.994  1.00  0.00     0.191 C 
BRANCH  23  24
ATOM     24  O   UNL     1      41.731   9.654  26.824  1.00  0.00    -0.394 OA
ATOM     25  H   UNL     1      41.553  10.105  25.957  1.00  0.00     0.210 HD
ENDBRANCH  23  24
ENDBRANCH  17  23
BRANCH  18  26
ATOM     26  O   UNL     1      45.736   8.400  27.256  1.00  0.00    -0.387 OA
ATOM     27  H   UNL     1      45.888   7.420  27.248  1.00  0.00     0.211 HD
ENDBRANCH  18  26
ENDBRANCH  12  13
ENDBRANCH   7  12
BRANCH   4  28
ATOM     28  O   UNL     1      41.617  16.152  22.398  1.00  0.00    -0.365 OA
ATOM     29  H   UNL     1      41.545  15.613  21.568  1.00  0.00     0.214 HD
ENDBRANCH   4  28
BRANCH   8  30
ATOM     30  C   UNL     1      40.602  12.295  25.072  1.00  0.00     0.249 C 
BRANCH  30  31
ATOM     31  O   UNL     1      40.471  12.311  26.493  1.00  0.00    -0.461 OA
BRANCH  31  32
ATOM     32  C   UNL     1      39.294  11.984  27.179  1.00  0.00     0.338 C 
ATOM     33  O   UNL     1      39.026  10.779  27.448  1.00  0.00    -0.246 OA
BRANCH  32  34
ATOM     34  C   UNL     1      38.361  13.059  27.581  1.00  0.00     0.060 A 
ATOM     35  C   UNL     1      36.970  12.840  27.590  1.00  0.00     0.015 A 
ATOM     36  C   UNL     1      38.857  14.316  27.972  1.00  0.00     0.015 A 
ATOM     37  C   UNL     1      36.096  13.860  27.980  1.00  0.00     0.001 A 
ATOM     38  C   UNL     1      37.978  15.333  28.360  1.00  0.00     0.001 A 
ATOM     39  C   UNL     1      36.599  15.105  28.364  1.00  0.00     0.000 A 
ENDBRANCH  32  34
ENDBRANCH  31  32
ENDBRANCH  30  31
ENDBRANCH   8  30
TORSDOF 12
ENDMDL
MODEL 7
REMARK VINA RESULT:    -5.370      1.829      4.934
REMARK INTER + INTRA:         -10.061
REMARK INTER:                  -8.595
REMARK INTRA:                  -1.466
REMARK UNBOUND:                -1.708
REMARK SMILES C[C@]12C[C@]3(O)O[C@H](O1)[C@@]1(COC(=O)c4ccccc4)[C@@H]3C[C@]12O[C@@H]1O[C@H](CO)[C@H](O)[C@H](O)[C@H]1O
REMARK SMILES IDX 1 1 2 2 3 3 4 4 20 5 21 6 22 7 9 8 7 9 8 10 6 11 23 12 24 13
REMARK SMILES IDX 33 14 25 15 31 16 26 17 29 18 34 19 32 21 27 23 28 24 30 26
REMARK SMILES IDX 5 28 10 30 11 31 12 32 13 33 14 34 15 35 19 36 16 37 18 38
REMARK SMILES IDX 17 39
REMARK H PARENT 34 20 32 22 28 25 30 27 5 29
REMARK Flexibility Score: inf
ROOT
ATOM      1  C   UNL     1      43.289   9.233  24.944  1.00  0.00     0.046 C 
ATOM      2  C   UNL     1      43.957  10.482  24.376  1.00  0.00     0.104 C 
ATOM      3  C   UNL     1      44.465  10.240  22.907  1.00  0.00     0.104 C 
ATOM      4  C   UNL     1      45.022  11.642  22.482  1.00  0.00     0.175 C 
ATOM      5  C   UNL     1      43.981  12.758  22.802  1.00  0.00     0.070 C 
ATOM      6  C   UNL     1      42.558  12.212  23.028  1.00  0.00     0.050 C 
ATOM      7  C   UNL     1      43.058  11.778  24.434  1.00  0.00     0.115 C 
ATOM      8  C   UNL     1      44.177  12.811  24.315  1.00  0.00     0.096 C 
ATOM      9  C   UNL     1      45.479  12.085  24.607  1.00  0.00     0.267 C 
ATOM     10  O   UNL     1      45.109  10.817  25.123  1.00  0.00    -0.342 OA
ATOM     11  O   UNL     1      46.109  11.911  23.347  1.00  0.00    -0.320 OA
ENDROOT
BRANCH   7  12
ATOM     12  O   UNL     1      42.292  11.885  25.641  1.00  0.00    -0.339 OA
BRANCH  12  13
ATOM     13  C   UNL     1      40.983  11.338  25.612  1.00  0.00     0.282 C 
ATOM     14  C   UNL     1      40.712  10.384  26.800  1.00  0.00     0.202 C 
ATOM     15  O   UNL     1      40.018  12.378  25.522  1.00  0.00    -0.341 OA
ATOM     16  C   UNL     1      40.546  11.146  28.124  1.00  0.00     0.179 C 
ATOM     17  C   UNL     1      39.883  13.166  26.697  1.00  0.00     0.178 C 
ATOM     18  C   UNL     1      39.563  12.312  27.950  1.00  0.00     0.177 C 
BRANCH  14  19
ATOM     19  O   UNL     1      39.545   9.649  26.528  1.00  0.00    -0.385 OA
ATOM     20  H   UNL     1      38.775  10.203  26.827  1.00  0.00     0.211 HD
ENDBRANCH  14  19
BRANCH  16  21
ATOM     21  O   UNL     1      41.794  11.601  28.572  1.00  0.00    -0.387 OA
ATOM     22  H   UNL     1      41.757  11.632  29.564  1.00  0.00     0.211 HD
ENDBRANCH  16  21
BRANCH  17  23
ATOM     23  C   UNL     1      41.039  14.179  26.857  1.00  0.00     0.191 C 
BRANCH  23  24
ATOM     24  O   UNL     1      40.638  15.244  27.673  1.00  0.00    -0.394 OA
ATOM     25  H   UNL     1      40.831  14.966  28.607  1.00  0.00     0.210 HD
ENDBRANCH  23  24
ENDBRANCH  17  23
BRANCH  18  26
ATOM     26  O   UNL     1      39.539  13.098  29.115  1.00  0.00    -0.387 OA
ATOM     27  H   UNL     1      40.307  13.723  29.052  1.00  0.00     0.211 HD
ENDBRANCH  18  26
ENDBRANCH  12  13
ENDBRANCH   7  12
BRANCH   4  28
ATOM     28  O   UNL     1      45.415  11.676  21.137  1.00  0.00    -0.365 OA
ATOM     29  H   UNL     1      45.644  10.744  20.882  1.00  0.00     0.214 HD
ENDBRANCH   4  28
BRANCH   8  30
ATOM     30  C   UNL     1      43.978  14.199  24.962  1.00  0.00     0.249 C 
BRANCH  30  31
ATOM     31  O   UNL     1      45.202  14.933  24.948  1.00  0.00    -0.461 OA
BRANCH  31  32
ATOM     32  C   UNL     1      45.443  16.048  24.134  1.00  0.00     0.338 C 
ATOM     33  O   UNL     1      45.886  17.118  24.635  1.00  0.00    -0.246 OA
BRANCH  32  34
ATOM     34  C   UNL     1      45.168  15.965  22.684  1.00  0.00     0.060 A 
ATOM     35  C   UNL     1      46.096  15.370  21.807  1.00  0.00     0.015 A 
ATOM     36  C   UNL     1      43.963  16.470  22.161  1.00  0.00     0.015 A 
ATOM     37  C   UNL     1      45.823  15.288  20.438  1.00  0.00     0.001 A 
ATOM     38  C   UNL     1      43.696  16.388  20.791  1.00  0.00     0.001 A 
ATOM     39  C   UNL     1      44.626  15.796  19.929  1.00  0.00     0.000 A 
ENDBRANCH  32  34
ENDBRANCH  31  32
ENDBRANCH  30  31
ENDBRANCH   8  30
TORSDOF 12
ENDMDL
MODEL 8
REMARK VINA RESULT:    -5.338      1.676      5.407
REMARK INTER + INTRA:         -10.011
REMARK INTER:                  -8.786
REMARK INTRA:                  -1.225
REMARK UNBOUND:                -1.708
REMARK SMILES C[C@]12C[C@]3(O)O[C@H](O1)[C@@]1(COC(=O)c4ccccc4)[C@@H]3C[C@]12O[C@@H]1O[C@H](CO)[C@H](O)[C@H](O)[C@H]1O
REMARK SMILES IDX 1 1 2 2 3 3 4 4 20 5 21 6 22 7 9 8 7 9 8 10 6 11 23 12 24 13
REMARK SMILES IDX 33 14 25 15 31 16 26 17 29 18 34 19 32 21 27 23 28 24 30 26
REMARK SMILES IDX 5 28 10 30 11 31 12 32 13 33 14 34 15 35 19 36 16 37 18 38
REMARK SMILES IDX 17 39
REMARK H PARENT 34 20 32 22 28 25 30 27 5 29
REMARK Flexibility Score: inf
ROOT
ATOM      1  C   UNL     1      41.135  14.685  27.395  1.00  0.00     0.046 C 
ATOM      2  C   UNL     1      41.179  13.160  27.435  1.00  0.00     0.104 C 
ATOM      3  C   UNL     1      39.965  12.574  28.244  1.00  0.00     0.104 C 
ATOM      4  C   UNL     1      40.140  11.024  28.088  1.00  0.00     0.175 C 
ATOM      5  C   UNL     1      40.367  10.653  26.590  1.00  0.00     0.070 C 
ATOM      6  C   UNL     1      39.941  11.770  25.618  1.00  0.00     0.050 C 
ATOM      7  C   UNL     1      41.266  12.480  26.013  1.00  0.00     0.115 C 
ATOM      8  C   UNL     1      41.813  11.127  26.466  1.00  0.00     0.096 C 
ATOM      9  C   UNL     1      42.331  11.312  27.882  1.00  0.00     0.267 C 
ATOM     10  O   UNL     1      42.335  12.711  28.113  1.00  0.00    -0.342 OA
ATOM     11  O   UNL     1      41.364  10.702  28.723  1.00  0.00    -0.320 OA
ENDROOT
BRANCH   7  12
ATOM     12  O   UNL     1      42.121  13.178  25.099  1.00  0.00    -0.339 OA
BRANCH  12  13
ATOM     13  C   UNL     1      41.910  12.931  23.718  1.00  0.00     0.282 C 
ATOM     14  C   UNL     1      40.978  13.978  23.063  1.00  0.00     0.202 C 
ATOM     15  O   UNL     1      43.156  12.818  23.043  1.00  0.00    -0.341 OA
ATOM     16  C   UNL     1      41.674  15.337  22.885  1.00  0.00     0.179 C 
ATOM     17  C   UNL     1      43.879  14.035  22.924  1.00  0.00     0.178 C 
ATOM     18  C   UNL     1      43.052  15.150  22.235  1.00  0.00     0.177 C 
BRANCH  14  19
ATOM     19  O   UNL     1      40.566  13.491  21.811  1.00  0.00    -0.385 OA
ATOM     20  H   UNL     1      40.981  14.073  21.120  1.00  0.00     0.211 HD
ENDBRANCH  14  19
BRANCH  16  21
ATOM     21  O   UNL     1      41.785  15.982  24.125  1.00  0.00    -0.387 OA
ATOM     22  H   UNL     1      41.037  16.631  24.187  1.00  0.00     0.211 HD
ENDBRANCH  16  21
BRANCH  17  23
ATOM     23  C   UNL     1      44.570  14.437  24.246  1.00  0.00     0.191 C 
BRANCH  23  24
ATOM     24  O   UNL     1      45.029  13.296  24.916  1.00  0.00    -0.394 OA
ATOM     25  H   UNL     1      44.383  12.572  24.707  1.00  0.00     0.210 HD
ENDBRANCH  23  24
ENDBRANCH  17  23
BRANCH  18  26
ATOM     26  O   UNL     1      43.746  16.372  22.223  1.00  0.00    -0.387 OA
ATOM     27  H   UNL     1      43.277  16.960  21.578  1.00  0.00     0.211 HD
ENDBRANCH  18  26
ENDBRANCH  12  13
ENDBRANCH   7  12
BRANCH   4  28
ATOM     28  O   UNL     1      39.070  10.306  28.639  1.00  0.00    -0.365 OA
ATOM     29  H   UNL     1      38.905  10.686  29.541  1.00  0.00     0.214 HD
ENDBRANCH   4  28
BRANCH   8  30
ATOM     30  C   UNL     1      42.694  10.318  25.488  1.00  0.00     0.249 C 
BRANCH  30  31
ATOM     31  O   UNL     1      44.076  10.552  25.757  1.00  0.00    -0.461 OA
BRANCH  31  32
ATOM     32  C   UNL     1      45.127   9.883  25.116  1.00  0.00     0.338 C 
ATOM     33  O   UNL     1      46.111   9.457  25.782  1.00  0.00    -0.246 OA
BRANCH  32  34
ATOM     34  C   UNL     1      45.079   9.683  23.651  1.00  0.00     0.060 A 
ATOM     35  C   UNL     1      45.630  10.639  22.776  1.00  0.00     0.015 A 
ATOM     36  C   UNL     1      44.490   8.525  23.113  1.00  0.00     0.015 A 
ATOM     37  C   UNL     1      45.588  10.437  21.392  1.00  0.00     0.001 A 
ATOM     38  C   UNL     1      44.449   8.329  21.729  1.00  0.00     0.001 A 
ATOM     39  C   UNL     1      44.998   9.285  20.869  1.00  0.00     0.000 A 
ENDBRANCH  32  34
ENDBRANCH  31  32
ENDBRANCH  30  31
ENDBRANCH   8  30
TORSDOF 12
ENDMDL
MODEL 9
REMARK VINA RESULT:    -5.297      2.178      6.907
REMARK INTER + INTRA:          -9.948
REMARK INTER:                  -8.123
REMARK INTRA:                  -1.824
REMARK UNBOUND:                -1.708
REMARK SMILES C[C@]12C[C@]3(O)O[C@H](O1)[C@@]1(COC(=O)c4ccccc4)[C@@H]3C[C@]12O[C@@H]1O[C@H](CO)[C@H](O)[C@H](O)[C@H]1O
REMARK SMILES IDX 1 1 2 2 3 3 4 4 20 5 21 6 22 7 9 8 7 9 8 10 6 11 23 12 24 13
REMARK SMILES IDX 33 14 25 15 31 16 26 17 29 18 34 19 32 21 27 23 28 24 30 26
REMARK SMILES IDX 5 28 10 30 11 31 12 32 13 33 14 34 15 35 19 36 16 37 18 38
REMARK SMILES IDX 17 39
REMARK H PARENT 34 20 32 22 28 25 30 27 5 29
REMARK Flexibility Score: inf
ROOT
ATOM      1  C   UNL     1      44.620  15.082  26.603  1.00  0.00     0.046 C 
ATOM      2  C   UNL     1      43.170  14.668  26.841  1.00  0.00     0.104 C 
ATOM      3  C   UNL     1      42.359  15.813  27.551  1.00  0.00     0.104 C 
ATOM      4  C   UNL     1      40.903  15.237  27.616  1.00  0.00     0.175 C 
ATOM      5  C   UNL     1      40.473  14.691  26.220  1.00  0.00     0.070 C 
ATOM      6  C   UNL     1      41.349  15.220  25.067  1.00  0.00     0.050 C 
ATOM      7  C   UNL     1      42.414  14.191  25.540  1.00  0.00     0.115 C 
ATOM      8  C   UNL     1      41.298  13.406  26.227  1.00  0.00     0.096 C 
ATOM      9  C   UNL     1      41.737  13.182  27.664  1.00  0.00     0.267 C 
ATOM     10  O   UNL     1      43.102  13.560  27.715  1.00  0.00    -0.342 OA
ATOM     11  O   UNL     1      40.971  14.089  28.442  1.00  0.00    -0.320 OA
ENDROOT
BRANCH   7  12
ATOM     12  O   UNL     1      43.229  13.401  24.665  1.00  0.00    -0.339 OA
BRANCH  12  13
ATOM     13  C   UNL     1      43.244  13.780  23.297  1.00  0.00     0.282 C 
ATOM     14  C   UNL     1      44.635  14.272  22.832  1.00  0.00     0.202 C 
ATOM     15  O   UNL     1      42.746  12.722  22.490  1.00  0.00    -0.341 OA
ATOM     16  C   UNL     1      45.638  13.115  22.697  1.00  0.00     0.179 C 
ATOM     17  C   UNL     1      43.602  11.592  22.397  1.00  0.00     0.178 C 
ATOM     18  C   UNL     1      45.020  11.963  21.893  1.00  0.00     0.177 C 
BRANCH  14  19
ATOM     19  O   UNL     1      44.491  14.920  21.594  1.00  0.00    -0.385 OA
ATOM     20  H   UNL     1      45.403  15.027  21.212  1.00  0.00     0.211 HD
ENDBRANCH  14  19
BRANCH  16  21
ATOM     21  O   UNL     1      46.043  12.683  23.967  1.00  0.00    -0.387 OA
ATOM     22  H   UNL     1      45.403  11.982  24.257  1.00  0.00     0.211 HD
ENDBRANCH  16  21
BRANCH  17  23
ATOM     23  C   UNL     1      43.554  10.716  23.669  1.00  0.00     0.191 C 
BRANCH  23  24
ATOM     24  O   UNL     1      43.876   9.390  23.354  1.00  0.00    -0.394 OA
ATOM     25  H   UNL     1      44.868   9.343  23.332  1.00  0.00     0.210 HD
ENDBRANCH  23  24
ENDBRANCH  17  23
BRANCH  18  26
ATOM     26  O   UNL     1      45.878  10.850  21.910  1.00  0.00    -0.387 OA
ATOM     27  H   UNL     1      45.689  10.332  21.086  1.00  0.00     0.211 HD
ENDBRANCH  18  26
ENDBRANCH  12  13
ENDBRANCH   7  12
BRANCH   4  28
ATOM     28  O   UNL     1      39.980  16.170  28.109  1.00  0.00    -0.365 OA
ATOM     29  H   UNL     1      39.141  15.673  28.294  1.00  0.00     0.214 HD
ENDBRANCH   4  28
BRANCH   8  30
ATOM     30  C   UNL     1      40.667  12.209  25.483  1.00  0.00     0.249 C 
BRANCH  30  31
ATOM     31  O   UNL     1      40.353  11.163  26.402  1.00  0.00    -0.461 OA
BRANCH  31  32
ATOM     32  C   UNL     1      39.050  10.783  26.749  1.00  0.00     0.338 C 
ATOM     33  O   UNL     1      38.574   9.689  26.336  1.00  0.00    -0.246 OA
BRANCH  32  34
ATOM     34  C   UNL     1      38.231  11.677  27.596  1.00  0.00     0.060 A 
ATOM     35  C   UNL     1      38.479  11.784  28.979  1.00  0.00     0.015 A 
ATOM     36  C   UNL     1      37.198  12.442  27.027  1.00  0.00     0.015 A 
ATOM     37  C   UNL     1      37.705  12.639  29.771  1.00  0.00     0.001 A 
ATOM     38  C   UNL     1      36.426  13.293  27.824  1.00  0.00     0.001 A 
ATOM     39  C   UNL     1      36.679  13.392  29.195  1.00  0.00     0.000 A 
ENDBRANCH  32  34
ENDBRANCH  31  32
ENDBRANCH  30  31
ENDBRANCH   8  30
TORSDOF 12
ENDMDL
