MODEL 1
REMARK VINA RESULT:    -5.771      0.000      0.000
REMARK INTER + INTRA:          -9.401
REMARK INTER:                  -7.964
REMARK INTRA:                  -1.437
REMARK UNBOUND:                -1.437
REMARK SMILES CCCCc1cccc(O)c1CCCC
REMARK SMILES IDX 5 1 11 2 9 3 8 4 7 5 6 6 4 7 3 8 2 9 1 10 12 11 13 12 14 13
REMARK SMILES IDX 15 14 10 15
REMARK H PARENT 10 16
REMARK Flexibility Score: inf
ROOT
ATOM      1  C   UNL     1      15.617  44.583   4.956  1.00  0.00    -0.041 A 
ATOM      2  C   UNL     1      15.234  45.264   6.153  1.00  0.00    -0.003 A 
ATOM      3  C   UNL     1      15.986  45.032   7.339  1.00  0.00     0.119 A 
ATOM      4  C   UNL     1      17.119  44.215   7.304  1.00  0.00     0.046 A 
ATOM      5  C   UNL     1      17.518  43.606   6.121  1.00  0.00     0.004 A 
ATOM      6  C   UNL     1      16.774  43.782   4.960  1.00  0.00     0.004 A 
ENDROOT
BRANCH   1   7
ATOM      7  C   UNL     1      14.837  44.663   3.656  1.00  0.00     0.036 C 
BRANCH   7   8
ATOM      8  C   UNL     1      14.217  43.308   3.288  1.00  0.00     0.004 C 
BRANCH   8   9
ATOM      9  C   UNL     1      12.759  43.180   3.754  1.00  0.00    -0.003 C 
ATOM     10  C   UNL     1      12.606  42.276   4.978  1.00  0.00     0.004 C 
ENDBRANCH   8   9
ENDBRANCH   7   8
ENDBRANCH   1   7
BRANCH   2  11
ATOM     11  C   UNL     1      14.088  46.266   6.176  1.00  0.00     0.040 C 
BRANCH  11  12
ATOM     12  C   UNL     1      12.770  45.595   6.600  1.00  0.00     0.005 C 
BRANCH  12  13
ATOM     13  C   UNL     1      11.568  46.269   5.929  1.00  0.00    -0.003 C 
ATOM     14  C   UNL     1      11.891  46.674   4.493  1.00  0.00     0.004 C 
ENDBRANCH  12  13
ENDBRANCH  11  12
ENDBRANCH   2  11
BRANCH   3  15
ATOM     15  O   UNL     1      15.640  45.587   8.575  1.00  0.00    -0.508 OA
ATOM     16  H   UNL     1      16.018  45.281   9.460  1.00  0.00     0.293 HD
ENDBRANCH   3  15
TORSDOF 7
ENDMDL
MODEL 2
REMARK VINA RESULT:    -5.639      1.526      3.528
REMARK INTER + INTRA:          -9.219
REMARK INTER:                  -7.913
REMARK INTRA:                  -1.306
REMARK UNBOUND:                -1.437
REMARK SMILES CCCCc1cccc(O)c1CCCC
REMARK SMILES IDX 5 1 11 2 9 3 8 4 7 5 6 6 4 7 3 8 2 9 1 10 12 11 13 12 14 13
REMARK SMILES IDX 15 14 10 15
REMARK H PARENT 10 16
REMARK Flexibility Score: inf
ROOT
ATOM      1  C   UNL     1      15.255  45.302   6.157  1.00  0.00    -0.041 A 
ATOM      2  C   UNL     1      15.739  44.655   4.977  1.00  0.00    -0.003 A 
ATOM      3  C   UNL     1      16.950  43.910   5.057  1.00  0.00     0.119 A 
ATOM      4  C   UNL     1      17.599  43.755   6.284  1.00  0.00     0.046 A 
ATOM      5  C   UNL     1      17.088  44.338   7.437  1.00  0.00     0.004 A 
ATOM      6  C   UNL     1      15.932  45.107   7.375  1.00  0.00     0.004 A 
ENDROOT
BRANCH   1   7
ATOM      7  C   UNL     1      14.039  46.210   6.179  1.00  0.00     0.036 C 
BRANCH   7   8
ATOM      8  C   UNL     1      13.184  45.973   7.432  1.00  0.00     0.004 C 
BRANCH   8   9
ATOM      9  C   UNL     1      11.718  46.386   7.234  1.00  0.00    -0.003 C 
ATOM     10  C   UNL     1      11.421  46.851   5.808  1.00  0.00     0.004 C 
ENDBRANCH   8   9
ENDBRANCH   7   8
ENDBRANCH   1   7
BRANCH   2  11
ATOM     11  C   UNL     1      14.969  44.697   3.664  1.00  0.00     0.040 C 
BRANCH  11  12
ATOM     12  C   UNL     1      14.107  43.436   3.485  1.00  0.00     0.005 C 
BRANCH  12  13
ATOM     13  C   UNL     1      12.647  43.709   3.863  1.00  0.00    -0.003 C 
ATOM     14  C   UNL     1      12.287  43.046   5.190  1.00  0.00     0.004 C 
ENDBRANCH  12  13
ENDBRANCH  11  12
ENDBRANCH   2  11
BRANCH   3  15
ATOM     15  O   UNL     1      17.544  43.311   3.942  1.00  0.00    -0.508 OA
ATOM     16  H   UNL     1      17.517  43.697   3.009  1.00  0.00     0.293 HD
ENDBRANCH   3  15
TORSDOF 7
ENDMDL
MODEL 3
REMARK VINA RESULT:    -5.626      1.161      3.804
REMARK INTER + INTRA:          -9.201
REMARK INTER:                  -8.238
REMARK INTRA:                  -0.964
REMARK UNBOUND:                -1.437
REMARK SMILES CCCCc1cccc(O)c1CCCC
REMARK SMILES IDX 5 1 11 2 9 3 8 4 7 5 6 6 4 7 3 8 2 9 1 10 12 11 13 12 14 13
REMARK SMILES IDX 15 14 10 15
REMARK H PARENT 10 16
REMARK Flexibility Score: inf
ROOT
ATOM      1  C   UNL     1      14.055  45.737   4.734  1.00  0.00    -0.041 A 
ATOM      2  C   UNL     1      14.272  45.740   6.147  1.00  0.00    -0.003 A 
ATOM      3  C   UNL     1      13.257  46.273   6.992  1.00  0.00     0.119 A 
ATOM      4  C   UNL     1      12.048  46.710   6.446  1.00  0.00     0.046 A 
ATOM      5  C   UNL     1      11.823  46.647   5.076  1.00  0.00     0.004 A 
ATOM      6  C   UNL     1      12.816  46.171   4.228  1.00  0.00     0.004 A 
ENDROOT
BRANCH   1   7
ATOM      7  C   UNL     1      15.098  45.295   3.724  1.00  0.00     0.036 C 
BRANCH   7   8
ATOM      8  C   UNL     1      14.904  43.826   3.323  1.00  0.00     0.004 C 
BRANCH   8   9
ATOM      9  C   UNL     1      13.651  43.200   3.956  1.00  0.00    -0.003 C 
ATOM     10  C   UNL     1      12.726  42.555   2.925  1.00  0.00     0.004 C 
ENDBRANCH   8   9
ENDBRANCH   7   8
ENDBRANCH   1   7
BRANCH   2  11
ATOM     11  C   UNL     1      15.525  45.138   6.769  1.00  0.00     0.040 C 
BRANCH  11  12
ATOM     12  C   UNL     1      15.291  43.679   7.193  1.00  0.00     0.005 C 
BRANCH  12  13
ATOM     13  C   UNL     1      16.355  42.753   6.591  1.00  0.00    -0.003 C 
ATOM     14  C   UNL     1      17.524  43.551   6.022  1.00  0.00     0.004 C 
ENDBRANCH  12  13
ENDBRANCH  11  12
ENDBRANCH   2  11
BRANCH   3  15
ATOM     15  O   UNL     1      13.411  46.393   8.376  1.00  0.00    -0.508 OA
ATOM     16  H   UNL     1      12.644  46.501   9.025  1.00  0.00     0.293 HD
ENDBRANCH   3  15
TORSDOF 7
ENDMDL
MODEL 4
REMARK VINA RESULT:    -5.503      1.587      4.358
REMARK INTER + INTRA:          -9.032
REMARK INTER:                  -7.789
REMARK INTRA:                  -1.243
REMARK UNBOUND:                -1.437
REMARK SMILES CCCCc1cccc(O)c1CCCC
REMARK SMILES IDX 5 1 11 2 9 3 8 4 7 5 6 6 4 7 3 8 2 9 1 10 12 11 13 12 14 13
REMARK SMILES IDX 15 14 10 15
REMARK H PARENT 10 16
REMARK Flexibility Score: inf
ROOT
ATOM      1  C   UNL     1      13.221  45.978   6.562  1.00  0.00    -0.041 A 
ATOM      2  C   UNL     1      13.634  44.959   7.475  1.00  0.00    -0.003 A 
ATOM      3  C   UNL     1      12.771  44.621   8.556  1.00  0.00     0.119 A 
ATOM      4  C   UNL     1      11.515  45.224   8.666  1.00  0.00     0.046 A 
ATOM      5  C   UNL     1      11.098  46.171   7.738  1.00  0.00     0.004 A 
ATOM      6  C   UNL     1      11.941  46.549   6.700  1.00  0.00     0.004 A 
ENDROOT
BRANCH   1   7
ATOM      7  C   UNL     1      14.091  46.501   5.434  1.00  0.00     0.036 C 
BRANCH   7   8
ATOM      8  C   UNL     1      13.773  45.801   4.106  1.00  0.00     0.004 C 
BRANCH   8   9
ATOM      9  C   UNL     1      14.957  44.981   3.571  1.00  0.00    -0.003 C 
ATOM     10  C   UNL     1      14.678  43.478   3.553  1.00  0.00     0.004 C 
ENDBRANCH   8   9
ENDBRANCH   7   8
ENDBRANCH   1   7
BRANCH   2  11
ATOM     11  C   UNL     1      14.937  44.193   7.288  1.00  0.00     0.040 C 
BRANCH  11  12
ATOM     12  C   UNL     1      16.105  44.902   7.994  1.00  0.00     0.005 C 
BRANCH  12  13
ATOM     13  C   UNL     1      17.292  45.089   7.041  1.00  0.00    -0.003 C 
ATOM     14  C   UNL     1      17.567  43.816   6.245  1.00  0.00     0.004 C 
ENDBRANCH  12  13
ENDBRANCH  11  12
ENDBRANCH   2  11
BRANCH   3  15
ATOM     15  O   UNL     1      13.122  43.697   9.544  1.00  0.00    -0.508 OA
ATOM     16  H   UNL     1      14.033  43.267   9.620  1.00  0.00     0.293 HD
ENDBRANCH   3  15
TORSDOF 7
ENDMDL
MODEL 5
REMARK VINA RESULT:    -5.421      1.949      4.607
REMARK INTER + INTRA:          -8.918
REMARK INTER:                  -7.827
REMARK INTRA:                  -1.092
REMARK UNBOUND:                -1.437
REMARK SMILES CCCCc1cccc(O)c1CCCC
REMARK SMILES IDX 5 1 11 2 9 3 8 4 7 5 6 6 4 7 3 8 2 9 1 10 12 11 13 12 14 13
REMARK SMILES IDX 15 14 10 15
REMARK H PARENT 10 16
REMARK Flexibility Score: inf
ROOT
ATOM      1  C   UNL     1      14.049  45.765   6.202  1.00  0.00    -0.041 A 
ATOM      2  C   UNL     1      13.645  45.793   4.831  1.00  0.00    -0.003 A 
ATOM      3  C   UNL     1      12.357  46.309   4.509  1.00  0.00     0.119 A 
ATOM      4  C   UNL     1      11.547  46.848   5.512  1.00  0.00     0.046 A 
ATOM      5  C   UNL     1      11.974  46.871   6.834  1.00  0.00     0.004 A 
ATOM      6  C   UNL     1      13.208  46.332   7.178  1.00  0.00     0.004 A 
ENDROOT
BRANCH   1   7
ATOM      7  C   UNL     1      15.347  45.146   6.684  1.00  0.00     0.036 C 
BRANCH   7   8
ATOM      8  C   UNL     1      15.130  43.717   7.201  1.00  0.00     0.004 C 
BRANCH   8   9
ATOM      9  C   UNL     1      16.247  42.754   6.766  1.00  0.00    -0.003 C 
ATOM     10  C   UNL     1      17.436  43.476   6.131  1.00  0.00     0.004 C 
ENDBRANCH   8   9
ENDBRANCH   7   8
ENDBRANCH   1   7
BRANCH   2  11
ATOM     11  C   UNL     1      14.572  45.340   3.711  1.00  0.00     0.040 C 
BRANCH  11  12
ATOM     12  C   UNL     1      14.663  43.806   3.650  1.00  0.00     0.005 C 
BRANCH  12  13
ATOM     13  C   UNL     1      13.310  43.188   3.279  1.00  0.00    -0.003 C 
ATOM     14  C   UNL     1      12.727  42.394   4.445  1.00  0.00     0.004 C 
ENDBRANCH  12  13
ENDBRANCH  11  12
ENDBRANCH   2  11
BRANCH   3  15
ATOM     15  O   UNL     1      11.842  46.303   3.210  1.00  0.00    -0.508 OA
ATOM     16  H   UNL     1      12.274  45.826   2.431  1.00  0.00     0.293 HD
ENDBRANCH   3  15
TORSDOF 7
ENDMDL
MODEL 6
REMARK VINA RESULT:    -5.407      1.639      2.276
REMARK INTER + INTRA:          -8.899
REMARK INTER:                  -7.478
REMARK INTRA:                  -1.422
REMARK UNBOUND:                -1.437
REMARK SMILES CCCCc1cccc(O)c1CCCC
REMARK SMILES IDX 5 1 11 2 9 3 8 4 7 5 6 6 4 7 3 8 2 9 1 10 12 11 13 12 14 13
REMARK SMILES IDX 15 14 10 15
REMARK H PARENT 10 16
REMARK Flexibility Score: inf
ROOT
ATOM      1  C   UNL     1      15.166  43.441   6.282  1.00  0.00    -0.041 A 
ATOM      2  C   UNL     1      14.825  43.658   7.653  1.00  0.00    -0.003 A 
ATOM      3  C   UNL     1      15.861  43.614   8.629  1.00  0.00     0.119 A 
ATOM      4  C   UNL     1      17.190  43.439   8.234  1.00  0.00     0.046 A 
ATOM      5  C   UNL     1      17.518  43.289   6.892  1.00  0.00     0.004 A 
ATOM      6  C   UNL     1      16.519  43.284   5.926  1.00  0.00     0.004 A 
ENDROOT
BRANCH   1   7
ATOM      7  C   UNL     1      14.144  43.359   5.163  1.00  0.00     0.036 C 
BRANCH   7   8
ATOM      8  C   UNL     1      14.470  44.343   4.031  1.00  0.00     0.004 C 
BRANCH   8   9
ATOM      9  C   UNL     1      14.077  45.789   4.372  1.00  0.00    -0.003 C 
ATOM     10  C   UNL     1      12.636  46.118   3.984  1.00  0.00     0.004 C 
ENDBRANCH   8   9
ENDBRANCH   7   8
ENDBRANCH   1   7
BRANCH   2  11
ATOM     11  C   UNL     1      13.403  43.990   8.084  1.00  0.00     0.040 C 
BRANCH  11  12
ATOM     12  C   UNL     1      13.169  45.510   8.108  1.00  0.00     0.005 C 
BRANCH  12  13
ATOM     13  C   UNL     1      11.746  45.856   7.654  1.00  0.00    -0.003 C 
ATOM     14  C   UNL     1      11.061  44.650   7.017  1.00  0.00     0.004 C 
ENDBRANCH  12  13
ENDBRANCH  11  12
ENDBRANCH   2  11
BRANCH   3  15
ATOM     15  O   UNL     1      15.615  43.733   9.999  1.00  0.00    -0.508 OA
ATOM     16  H   UNL     1      15.985  43.106  10.699  1.00  0.00     0.293 HD
ENDBRANCH   3  15
TORSDOF 7
ENDMDL
MODEL 7
REMARK VINA RESULT:    -5.363      1.805      2.163
REMARK INTER + INTRA:          -8.838
REMARK INTER:                  -7.570
REMARK INTRA:                  -1.268
REMARK UNBOUND:                -1.437
REMARK SMILES CCCCc1cccc(O)c1CCCC
REMARK SMILES IDX 5 1 11 2 9 3 8 4 7 5 6 6 4 7 3 8 2 9 1 10 12 11 13 12 14 13
REMARK SMILES IDX 15 14 10 15
REMARK H PARENT 10 16
REMARK Flexibility Score: inf
ROOT
ATOM      1  C   UNL     1      15.806  43.709   6.587  1.00  0.00    -0.041 A 
ATOM      2  C   UNL     1      14.750  44.260   7.377  1.00  0.00    -0.003 A 
ATOM      3  C   UNL     1      14.269  43.513   8.489  1.00  0.00     0.119 A 
ATOM      4  C   UNL     1      14.878  42.305   8.839  1.00  0.00     0.046 A 
ATOM      5  C   UNL     1      15.944  41.808   8.101  1.00  0.00     0.004 A 
ATOM      6  C   UNL     1      16.402  42.498   6.984  1.00  0.00     0.004 A 
ENDROOT
BRANCH   1   7
ATOM      7  C   UNL     1      16.334  44.355   5.320  1.00  0.00     0.036 C 
BRANCH   7   8
ATOM      8  C   UNL     1      16.026  43.500   4.083  1.00  0.00     0.004 C 
BRANCH   8   9
ATOM      9  C   UNL     1      14.771  43.974   3.333  1.00  0.00    -0.003 C 
ATOM     10  C   UNL     1      13.583  43.027   3.508  1.00  0.00     0.004 C 
ENDBRANCH   8   9
ENDBRANCH   7   8
ENDBRANCH   1   7
BRANCH   2  11
ATOM     11  C   UNL     1      14.170  45.640   7.093  1.00  0.00     0.040 C 
BRANCH  11  12
ATOM     12  C   UNL     1      12.931  45.547   6.188  1.00  0.00     0.005 C 
BRANCH  12  13
ATOM     13  C   UNL     1      12.770  46.816   5.342  1.00  0.00    -0.003 C 
ATOM     14  C   UNL     1      12.277  46.485   3.937  1.00  0.00     0.004 C 
ENDBRANCH  12  13
ENDBRANCH  11  12
ENDBRANCH   2  11
BRANCH   3  15
ATOM     15  O   UNL     1      13.187  43.930   9.270  1.00  0.00    -0.508 OA
ATOM     16  H   UNL     1      12.454  43.317   9.598  1.00  0.00     0.293 HD
ENDBRANCH   3  15
TORSDOF 7
ENDMDL
MODEL 8
REMARK VINA RESULT:    -5.161      2.077      4.518
REMARK INTER + INTRA:          -8.560
REMARK INTER:                  -7.684
REMARK INTRA:                  -0.876
REMARK UNBOUND:                -1.437
REMARK SMILES CCCCc1cccc(O)c1CCCC
REMARK SMILES IDX 5 1 11 2 9 3 8 4 7 5 6 6 4 7 3 8 2 9 1 10 12 11 13 12 14 13
REMARK SMILES IDX 15 14 10 15
REMARK H PARENT 10 16
REMARK Flexibility Score: inf
ROOT
ATOM      1  C   UNL     1      13.003  43.819   6.222  1.00  0.00    -0.041 A 
ATOM      2  C   UNL     1      14.110  44.069   7.091  1.00  0.00    -0.003 A 
ATOM      3  C   UNL     1      14.031  45.161   8.000  1.00  0.00     0.119 A 
ATOM      4  C   UNL     1      12.859  45.918   8.087  1.00  0.00     0.046 A 
ATOM      5  C   UNL     1      11.766  45.629   7.279  1.00  0.00     0.004 A 
ATOM      6  C   UNL     1      11.837  44.595   6.353  1.00  0.00     0.004 A 
ENDROOT
BRANCH   1   7
ATOM      7  C   UNL     1      13.007  42.754   5.140  1.00  0.00     0.036 C 
BRANCH   7   8
ATOM      8  C   UNL     1      13.194  43.370   3.746  1.00  0.00     0.004 C 
BRANCH   8   9
ATOM      9  C   UNL     1      14.666  43.673   3.427  1.00  0.00    -0.003 C 
ATOM     10  C   UNL     1      14.986  45.167   3.469  1.00  0.00     0.004 C 
ENDBRANCH   8   9
ENDBRANCH   7   8
ENDBRANCH   1   7
BRANCH   2  11
ATOM     11  C   UNL     1      15.338  43.168   7.107  1.00  0.00     0.040 C 
BRANCH  11  12
ATOM     12  C   UNL     1      15.064  41.868   7.883  1.00  0.00     0.005 C 
BRANCH  12  13
ATOM     13  C   UNL     1      16.315  41.404   8.639  1.00  0.00    -0.003 C 
ATOM     14  C   UNL     1      16.163  39.966   9.127  1.00  0.00     0.004 C 
ENDBRANCH  12  13
ENDBRANCH  11  12
ENDBRANCH   2  11
BRANCH   3  15
ATOM     15  O   UNL     1      15.092  45.534   8.830  1.00  0.00    -0.508 OA
ATOM     16  H   UNL     1      15.742  46.278   8.620  1.00  0.00     0.293 HD
ENDBRANCH   3  15
TORSDOF 7
ENDMDL
MODEL 9
REMARK VINA RESULT:    -5.122      2.065      4.571
REMARK INTER + INTRA:          -8.506
REMARK INTER:                  -7.259
REMARK INTRA:                  -1.247
REMARK UNBOUND:                -1.437
REMARK SMILES CCCCc1cccc(O)c1CCCC
REMARK SMILES IDX 5 1 11 2 9 3 8 4 7 5 6 6 4 7 3 8 2 9 1 10 12 11 13 12 14 13
REMARK SMILES IDX 15 14 10 15
REMARK H PARENT 10 16
REMARK Flexibility Score: inf
ROOT
ATOM      1  C   UNL     1      13.516  45.221   7.416  1.00  0.00    -0.041 A 
ATOM      2  C   UNL     1      12.929  46.085   6.441  1.00  0.00    -0.003 A 
ATOM      3  C   UNL     1      11.558  46.443   6.584  1.00  0.00     0.119 A 
ATOM      4  C   UNL     1      10.835  46.017   7.701  1.00  0.00     0.046 A 
ATOM      5  C   UNL     1      11.432  45.227   8.675  1.00  0.00     0.004 A 
ATOM      6  C   UNL     1      12.756  44.828   8.534  1.00  0.00     0.004 A 
ENDROOT
BRANCH   1   7
ATOM      7  C   UNL     1      14.932  44.683   7.320  1.00  0.00     0.036 C 
BRANCH   7   8
ATOM      8  C   UNL     1      14.944  43.154   7.185  1.00  0.00     0.004 C 
BRANCH   8   9
ATOM      9  C   UNL     1      16.266  42.622   6.609  1.00  0.00    -0.003 C 
ATOM     10  C   UNL     1      17.316  43.718   6.427  1.00  0.00     0.004 C 
ENDBRANCH   8   9
ENDBRANCH   7   8
ENDBRANCH   1   7
BRANCH   2  11
ATOM     11  C   UNL     1      13.741  46.672   5.294  1.00  0.00     0.040 C 
BRANCH  11  12
ATOM     12  C   UNL     1      13.608  45.817   4.023  1.00  0.00     0.005 C 
BRANCH  12  13
ATOM     13  C   UNL     1      14.950  45.180   3.645  1.00  0.00    -0.003 C 
ATOM     14  C   UNL     1      14.801  43.680   3.406  1.00  0.00     0.004 C 
ENDBRANCH  12  13
ENDBRANCH  11  12
ENDBRANCH   2  11
BRANCH   3  15
ATOM     15  O   UNL     1      10.875  47.214   5.639  1.00  0.00    -0.508 OA
ATOM     16  H   UNL     1      11.280  47.542   4.774  1.00  0.00     0.293 HD
ENDBRANCH   3  15
TORSDOF 7
ENDMDL
