MODEL 1
REMARK VINA RESULT:    -2.816      0.000      0.000
REMARK INTER + INTRA:          -3.425
REMARK INTER:                  -3.309
REMARK INTRA:                  -0.116
REMARK UNBOUND:                -0.116
REMARK SMILES O=C([O-])CCC(=O)[O-]
REMARK SMILES IDX 4 1 2 2 1 3 3 4 5 5 6 6 7 7 8 8
REMARK H PARENT
REMARK Flexibility Score: inf
ROOT
ATOM      1  C   UNL     1      31.034  25.675  22.597  1.00  0.00     0.059 C 
ENDROOT
BRANCH   1   2
ATOM      2  C   UNL     1      31.058  25.534  24.088  1.00  0.00     0.042 C 
ATOM      3  O   UNL     1      30.403  26.331  24.811  1.00  0.00    -0.550 OA
ATOM      4  O   UNL     1      31.772  24.498  24.677  1.00  0.00    -0.550 OA
ENDBRANCH   1   2
BRANCH   1   5
ATOM      5  C   UNL     1      29.908  24.846  21.970  1.00  0.00     0.059 C 
BRANCH   5   6
ATOM      6  C   UNL     1      28.724  25.695  21.623  1.00  0.00     0.042 C 
ATOM      7  O   UNL     1      28.712  26.361  20.555  1.00  0.00    -0.550 OA
ATOM      8  O   UNL     1      27.649  25.784  22.500  1.00  0.00    -0.550 OA
ENDBRANCH   5   6
ENDBRANCH   1   5
TORSDOF 3
ENDMDL
MODEL 2
REMARK VINA RESULT:    -2.808      0.062      3.830
REMARK INTER + INTRA:          -3.416
REMARK INTER:                  -3.311
REMARK INTRA:                  -0.105
REMARK UNBOUND:                -0.116
REMARK SMILES O=C([O-])CCC(=O)[O-]
REMARK SMILES IDX 4 1 2 2 1 3 3 4 5 5 6 6 7 7 8 8
REMARK H PARENT
REMARK Flexibility Score: inf
ROOT
ATOM      1  C   UNL     1      29.923  24.849  21.971  1.00  0.00     0.059 C 
ENDROOT
BRANCH   1   2
ATOM      2  C   UNL     1      28.716  25.666  21.626  1.00  0.00     0.042 C 
ATOM      3  O   UNL     1      28.692  26.346  20.567  1.00  0.00    -0.550 OA
ATOM      4  O   UNL     1      27.602  25.644  22.456  1.00  0.00    -0.550 OA
ENDBRANCH   1   2
BRANCH   1   5
ATOM      5  C   UNL     1      31.017  25.706  22.620  1.00  0.00     0.059 C 
BRANCH   5   6
ATOM      6  C   UNL     1      31.047  25.530  24.106  1.00  0.00     0.042 C 
ATOM      7  O   UNL     1      30.425  26.332  24.852  1.00  0.00    -0.550 OA
ATOM      8  O   UNL     1      31.795  24.504  24.672  1.00  0.00    -0.550 OA
ENDBRANCH   5   6
ENDBRANCH   1   5
TORSDOF 3
ENDMDL
MODEL 3
REMARK VINA RESULT:    -2.770      1.822      2.459
REMARK INTER + INTRA:          -3.372
REMARK INTER:                  -3.197
REMARK INTRA:                  -0.175
REMARK UNBOUND:                -0.116
REMARK SMILES O=C([O-])CCC(=O)[O-]
REMARK SMILES IDX 4 1 2 2 1 3 3 4 5 5 6 6 7 7 8 8
REMARK H PARENT
REMARK Flexibility Score: inf
ROOT
ATOM      1  C   UNL     1      30.482  26.047  23.408  1.00  0.00     0.059 C 
ENDROOT
BRANCH   1   2
ATOM      2  C   UNL     1      30.601  27.493  23.036  1.00  0.00     0.042 C 
ATOM      3  O   UNL     1      31.510  27.874  22.252  1.00  0.00    -0.550 OA
ATOM      4  O   UNL     1      29.683  28.415  23.525  1.00  0.00    -0.550 OA
ENDBRANCH   1   2
BRANCH   1   5
ATOM      5  C   UNL     1      30.110  25.183  22.198  1.00  0.00     0.059 C 
BRANCH   5   6
ATOM      6  C   UNL     1      28.807  25.608  21.596  1.00  0.00     0.042 C 
ATOM      7  O   UNL     1      27.724  25.359  22.188  1.00  0.00    -0.550 OA
ATOM      8  O   UNL     1      28.784  26.243  20.360  1.00  0.00    -0.550 OA
ENDBRANCH   5   6
ENDBRANCH   1   5
TORSDOF 3
ENDMDL
MODEL 4
REMARK VINA RESULT:    -2.765      1.870      3.607
REMARK INTER + INTRA:          -3.366
REMARK INTER:                  -3.192
REMARK INTRA:                  -0.173
REMARK UNBOUND:                -0.116
REMARK SMILES O=C([O-])CCC(=O)[O-]
REMARK SMILES IDX 4 1 2 2 1 3 3 4 5 5 6 6 7 7 8 8
REMARK H PARENT
REMARK Flexibility Score: inf
ROOT
ATOM      1  C   UNL     1      30.140  25.234  22.177  1.00  0.00     0.059 C 
ENDROOT
BRANCH   1   2
ATOM      2  C   UNL     1      28.814  25.618  21.594  1.00  0.00     0.042 C 
ATOM      3  O   UNL     1      27.750  25.360  22.215  1.00  0.00    -0.550 OA
ATOM      4  O   UNL     1      28.758  26.294  20.382  1.00  0.00    -0.550 OA
ENDBRANCH   1   2
BRANCH   1   5
ATOM      5  C   UNL     1      30.486  26.090  23.401  1.00  0.00     0.059 C 
BRANCH   5   6
ATOM      6  C   UNL     1      30.509  27.549  23.065  1.00  0.00     0.042 C 
ATOM      7  O   UNL     1      29.710  28.342  23.628  1.00  0.00    -0.550 OA
ATOM      8  O   UNL     1      31.386  28.028  22.099  1.00  0.00    -0.550 OA
ENDBRANCH   5   6
ENDBRANCH   1   5
TORSDOF 3
ENDMDL
MODEL 5
REMARK VINA RESULT:    -2.750      2.496      4.357
REMARK INTER + INTRA:          -3.349
REMARK INTER:                  -3.311
REMARK INTRA:                  -0.038
REMARK UNBOUND:                -0.116
REMARK SMILES O=C([O-])CCC(=O)[O-]
REMARK SMILES IDX 4 1 2 2 1 3 3 4 5 5 6 6 7 7 8 8
REMARK H PARENT
REMARK Flexibility Score: inf
ROOT
ATOM      1  C   UNL     1      26.989  27.032  22.625  1.00  0.00     0.059 C 
ENDROOT
BRANCH   1   2
ATOM      2  C   UNL     1      25.666  26.988  23.326  1.00  0.00     0.042 C 
ATOM      3  O   UNL     1      25.175  25.885  23.685  1.00  0.00    -0.550 OA
ATOM      4  O   UNL     1      24.993  28.168  23.617  1.00  0.00    -0.550 OA
ENDBRANCH   1   2
BRANCH   1   5
ATOM      5  C   UNL     1      27.553  25.625  22.397  1.00  0.00     0.059 C 
BRANCH   5   6
ATOM      6  C   UNL     1      28.763  25.652  21.516  1.00  0.00     0.042 C 
ATOM      7  O   UNL     1      28.789  26.389  20.496  1.00  0.00    -0.550 OA
ATOM      8  O   UNL     1      29.849  24.831  21.797  1.00  0.00    -0.550 OA
ENDBRANCH   5   6
ENDBRANCH   1   5
TORSDOF 3
ENDMDL
MODEL 6
REMARK VINA RESULT:    -2.730      1.420      3.584
REMARK INTER + INTRA:          -3.324
REMARK INTER:                  -3.181
REMARK INTRA:                  -0.143
REMARK UNBOUND:                -0.116
REMARK SMILES O=C([O-])CCC(=O)[O-]
REMARK SMILES IDX 4 1 2 2 1 3 3 4 5 5 6 6 7 7 8 8
REMARK H PARENT
REMARK Flexibility Score: inf
ROOT
ATOM      1  C   UNL     1      29.163  26.305  21.645  1.00  0.00     0.059 C 
ENDROOT
BRANCH   1   2
ATOM      2  C   UNL     1      28.140  26.647  22.684  1.00  0.00     0.042 C 
ATOM      3  O   UNL     1      27.113  25.931  22.823  1.00  0.00    -0.550 OA
ATOM      4  O   UNL     1      28.339  27.735  23.524  1.00  0.00    -0.550 OA
ENDBRANCH   1   2
BRANCH   1   5
ATOM      5  C   UNL     1      30.020  25.107  22.071  1.00  0.00     0.059 C 
BRANCH   5   6
ATOM      6  C   UNL     1      31.124  25.519  22.994  1.00  0.00     0.042 C 
ATOM      7  O   UNL     1      31.383  24.834  24.018  1.00  0.00    -0.550 OA
ATOM      8  O   UNL     1      31.843  26.682  22.746  1.00  0.00    -0.550 OA
ENDBRANCH   5   6
ENDBRANCH   1   5
TORSDOF 3
ENDMDL
MODEL 7
REMARK VINA RESULT:    -2.694      2.506      3.804
REMARK INTER + INTRA:          -3.282
REMARK INTER:                  -3.233
REMARK INTRA:                  -0.049
REMARK UNBOUND:                -0.116
REMARK SMILES O=C([O-])CCC(=O)[O-]
REMARK SMILES IDX 4 1 2 2 1 3 3 4 5 5 6 6 7 7 8 8
REMARK H PARENT
REMARK Flexibility Score: inf
ROOT
ATOM      1  C   UNL     1      27.676  25.874  22.512  1.00  0.00     0.059 C 
ENDROOT
BRANCH   1   2
ATOM      2  C   UNL     1      28.786  25.684  21.524  1.00  0.00     0.042 C 
ATOM      3  O   UNL     1      28.821  26.372  20.470  1.00  0.00    -0.550 OA
ATOM      4  O   UNL     1      29.802  24.775  21.786  1.00  0.00    -0.550 OA
ENDBRANCH   1   2
BRANCH   1   5
ATOM      5  C   UNL     1      27.753  27.247  23.189  1.00  0.00     0.059 C 
BRANCH   5   6
ATOM      6  C   UNL     1      26.392  27.834  23.404  1.00  0.00     0.042 C 
ATOM      7  O   UNL     1      25.363  27.131  23.226  1.00  0.00    -0.550 OA
ATOM      8  O   UNL     1      26.258  29.170  23.761  1.00  0.00    -0.550 OA
ENDBRANCH   5   6
ENDBRANCH   1   5
TORSDOF 3
ENDMDL
MODEL 8
REMARK VINA RESULT:    -2.650      1.669      2.444
REMARK INTER + INTRA:          -3.230
REMARK INTER:                  -3.089
REMARK INTRA:                  -0.141
REMARK UNBOUND:                -0.116
REMARK SMILES O=C([O-])CCC(=O)[O-]
REMARK SMILES IDX 4 1 2 2 1 3 3 4 5 5 6 6 7 7 8 8
REMARK H PARENT
REMARK Flexibility Score: inf
ROOT
ATOM      1  C   UNL     1      29.172  25.271  21.680  1.00  0.00     0.059 C 
ENDROOT
BRANCH   1   2
ATOM      2  C   UNL     1      30.274  25.877  22.495  1.00  0.00     0.042 C 
ATOM      3  O   UNL     1      30.880  25.185  23.355  1.00  0.00    -0.550 OA
ATOM      4  O   UNL     1      30.657  27.194  22.277  1.00  0.00    -0.550 OA
ENDBRANCH   1   2
BRANCH   1   5
ATOM      5  C   UNL     1      28.068  26.292  21.379  1.00  0.00     0.059 C 
BRANCH   5   6
ATOM      6  C   UNL     1      27.263  26.611  22.601  1.00  0.00     0.042 C 
ATOM      7  O   UNL     1      27.334  27.752  23.127  1.00  0.00    -0.550 OA
ATOM      8  O   UNL     1      26.464  25.634  23.184  1.00  0.00    -0.550 OA
ENDBRANCH   5   6
ENDBRANCH   1   5
TORSDOF 3
ENDMDL
MODEL 9
REMARK VINA RESULT:    -2.597      2.226      3.999
REMARK INTER + INTRA:          -3.169
REMARK INTER:                  -3.131
REMARK INTRA:                  -0.037
REMARK UNBOUND:                -0.116
REMARK SMILES O=C([O-])CCC(=O)[O-]
REMARK SMILES IDX 4 1 2 2 1 3 3 4 5 5 6 6 7 7 8 8
REMARK H PARENT
REMARK Flexibility Score: inf
ROOT
ATOM      1  C   UNL     1      27.655  26.422  22.418  1.00  0.00     0.059 C 
ENDROOT
BRANCH   1   2
ATOM      2  C   UNL     1      26.679  27.331  23.101  1.00  0.00     0.042 C 
ATOM      3  O   UNL     1      27.059  28.441  23.557  1.00  0.00    -0.550 OA
ATOM      4  O   UNL     1      25.342  26.968  23.198  1.00  0.00    -0.550 OA
ENDBRANCH   1   2
BRANCH   1   5
ATOM      5  C   UNL     1      29.087  26.663  22.908  1.00  0.00     0.059 C 
BRANCH   5   6
ATOM      6  C   UNL     1      30.015  25.577  22.458  1.00  0.00     0.042 C 
ATOM      7  O   UNL     1      29.613  24.691  21.659  1.00  0.00    -0.550 OA
ATOM      8  O   UNL     1      31.312  25.520  22.952  1.00  0.00    -0.550 OA
ENDBRANCH   5   6
ENDBRANCH   1   5
TORSDOF 3
ENDMDL
