MODEL 1
REMARK VINA RESULT:    -5.457      0.000      0.000
REMARK INTER + INTRA:          -6.581
REMARK INTER:                  -6.414
REMARK INTRA:                  -0.167
REMARK UNBOUND:                -0.167
REMARK SMILES COc1ccc(C=CC(=O)[O-])cc1
REMARK SMILES IDX 6 1 5 2 12 3 4 4 13 5 3 6 7 7 8 8 9 9 10 10 11 11 2 12 1 13
REMARK H PARENT
REMARK Flexibility Score: inf
ROOT
ATOM      1  C   UNL     1     -35.678  -6.135 -15.333  1.00  0.00    -0.025 A 
ATOM      2  C   UNL     1     -35.991  -6.140 -13.958  1.00  0.00     0.012 A 
ATOM      3  C   UNL     1     -36.195  -7.155 -16.147  1.00  0.00     0.012 A 
ATOM      4  C   UNL     1     -36.821  -7.130 -13.425  1.00  0.00     0.047 A 
ATOM      5  C   UNL     1     -37.025  -8.143 -15.611  1.00  0.00     0.047 A 
ATOM      6  C   UNL     1     -37.347  -8.135 -14.242  1.00  0.00     0.118 A 
ENDROOT
BRANCH   1   7
ATOM      7  C   UNL     1     -34.792  -5.115 -15.947  1.00  0.00     0.010 C 
ATOM      8  C   UNL     1     -33.931  -5.377 -16.940  1.00  0.00     0.025 C 
BRANCH   8   9
ATOM      9  C   UNL     1     -33.063  -4.336 -17.511  1.00  0.00     0.064 C 
ATOM     10  O   UNL     1     -32.045  -3.957 -16.876  1.00  0.00    -0.545 OA
ATOM     11  O   UNL     1     -33.348  -3.761 -18.745  1.00  0.00    -0.545 OA
ENDBRANCH   8   9
ENDBRANCH   1   7
BRANCH   6  12
ATOM     12  O   UNL     1     -38.176  -9.104 -13.658  1.00  0.00    -0.497 OA
ATOM     13  C   UNL     1     -39.599  -9.063 -13.677  1.00  0.00     0.278 C 
ENDBRANCH   6  12
TORSDOF 3
ENDMDL
MODEL 2
REMARK VINA RESULT:    -5.445      4.847      6.239
REMARK INTER + INTRA:          -6.566
REMARK INTER:                  -6.402
REMARK INTRA:                  -0.165
REMARK UNBOUND:                -0.167
REMARK SMILES COc1ccc(C=CC(=O)[O-])cc1
REMARK SMILES IDX 6 1 5 2 12 3 4 4 13 5 3 6 7 7 8 8 9 9 10 10 11 11 2 12 1 13
REMARK H PARENT
REMARK Flexibility Score: inf
ROOT
ATOM      1  C   UNL     1     -31.820  -4.859 -17.151  1.00  0.00    -0.025 A 
ATOM      2  C   UNL     1     -33.121  -5.392 -17.246  1.00  0.00     0.012 A 
ATOM      3  C   UNL     1     -31.569  -3.587 -17.689  1.00  0.00     0.012 A 
ATOM      4  C   UNL     1     -34.146  -4.653 -17.843  1.00  0.00     0.047 A 
ATOM      5  C   UNL     1     -32.597  -2.850 -18.285  1.00  0.00     0.047 A 
ATOM      6  C   UNL     1     -33.898  -3.379 -18.363  1.00  0.00     0.118 A 
ENDROOT
BRANCH   1   7
ATOM      7  C   UNL     1     -30.693  -5.606 -16.538  1.00  0.00     0.010 C 
ATOM      8  C   UNL     1     -30.389  -6.876 -16.840  1.00  0.00     0.025 C 
BRANCH   8   9
ATOM      9  C   UNL     1     -29.269  -7.581 -16.198  1.00  0.00     0.064 C 
ATOM     10  O   UNL     1     -28.446  -8.216 -16.907  1.00  0.00    -0.545 OA
ATOM     11  O   UNL     1     -29.102  -7.556 -14.818  1.00  0.00    -0.545 OA
ENDBRANCH   8   9
ENDBRANCH   1   7
BRANCH   6  12
ATOM     12  O   UNL     1     -34.962  -2.678 -18.951  1.00  0.00    -0.497 OA
ATOM     13  C   UNL     1     -36.324  -3.087 -18.892  1.00  0.00     0.278 C 
ENDBRANCH   6  12
TORSDOF 3
ENDMDL
MODEL 3
REMARK VINA RESULT:    -5.437      0.226      1.629
REMARK INTER + INTRA:          -6.557
REMARK INTER:                  -6.404
REMARK INTRA:                  -0.153
REMARK UNBOUND:                -0.167
REMARK SMILES COc1ccc(C=CC(=O)[O-])cc1
REMARK SMILES IDX 6 1 5 2 12 3 4 4 13 5 3 6 7 7 8 8 9 9 10 10 11 11 2 12 1 13
REMARK H PARENT
REMARK Flexibility Score: inf
ROOT
ATOM      1  C   UNL     1     -35.663  -6.183 -15.340  1.00  0.00    -0.025 A 
ATOM      2  C   UNL     1     -36.259  -7.167 -16.154  1.00  0.00     0.012 A 
ATOM      3  C   UNL     1     -35.953  -6.177 -13.966  1.00  0.00     0.012 A 
ATOM      4  C   UNL     1     -37.103  -8.132 -15.596  1.00  0.00     0.047 A 
ATOM      5  C   UNL     1     -36.797  -7.144 -13.411  1.00  0.00     0.047 A 
ATOM      6  C   UNL     1     -37.377  -8.133 -14.225  1.00  0.00     0.118 A 
ENDROOT
BRANCH   1   7
ATOM      7  C   UNL     1     -34.770  -5.130 -15.882  1.00  0.00     0.010 C 
ATOM      8  C   UNL     1     -33.756  -5.374 -16.723  1.00  0.00     0.025 C 
BRANCH   8   9
ATOM      9  C   UNL     1     -32.888  -4.298 -17.227  1.00  0.00     0.064 C 
ATOM     10  O   UNL     1     -33.185  -3.711 -18.300  1.00  0.00    -0.545 OA
ATOM     11  O   UNL     1     -31.743  -3.916 -16.536  1.00  0.00    -0.545 OA
ENDBRANCH   8   9
ENDBRANCH   1   7
BRANCH   6  12
ATOM     12  O   UNL     1     -38.229  -9.124 -13.716  1.00  0.00    -0.497 OA
ATOM     13  C   UNL     1     -39.650  -9.041 -13.716  1.00  0.00     0.278 C 
ENDBRANCH   6  12
TORSDOF 3
ENDMDL
MODEL 4
REMARK VINA RESULT:    -5.341      3.291      5.769
REMARK INTER + INTRA:          -6.445
REMARK INTER:                  -6.271
REMARK INTRA:                  -0.173
REMARK UNBOUND:                -0.167
REMARK SMILES COc1ccc(C=CC(=O)[O-])cc1
REMARK SMILES IDX 6 1 5 2 12 3 4 4 13 5 3 6 7 7 8 8 9 9 10 10 11 11 2 12 1 13
REMARK H PARENT
REMARK Flexibility Score: inf
ROOT
ATOM      1  C   UNL     1     -32.377  -2.962 -18.534  1.00  0.00    -0.025 A 
ATOM      2  C   UNL     1     -33.778  -3.109 -18.565  1.00  0.00     0.012 A 
ATOM      3  C   UNL     1     -31.663  -3.513 -17.458  1.00  0.00     0.012 A 
ATOM      4  C   UNL     1     -34.438  -3.814 -17.555  1.00  0.00     0.047 A 
ATOM      5  C   UNL     1     -32.326  -4.218 -16.449  1.00  0.00     0.047 A 
ATOM      6  C   UNL     1     -33.723  -4.376 -16.493  1.00  0.00     0.118 A 
ENDROOT
BRANCH   1   7
ATOM      7  C   UNL     1     -31.628  -2.214 -19.575  1.00  0.00     0.010 C 
ATOM      8  C   UNL     1     -30.476  -2.637 -20.112  1.00  0.00     0.025 C 
BRANCH   8   9
ATOM      9  C   UNL     1     -29.761  -1.856 -21.133  1.00  0.00     0.064 C 
ATOM     10  O   UNL     1     -30.416  -1.216 -21.997  1.00  0.00    -0.545 OA
ATOM     11  O   UNL     1     -28.372  -1.811 -21.161  1.00  0.00    -0.545 OA
ENDBRANCH   8   9
ENDBRANCH   1   7
BRANCH   6  12
ATOM     12  O   UNL     1     -34.433  -5.075 -15.505  1.00  0.00    -0.497 OA
ATOM     13  C   UNL     1     -35.647  -5.782 -15.735  1.00  0.00     0.278 C 
ENDBRANCH   6  12
TORSDOF 3
ENDMDL
MODEL 5
REMARK VINA RESULT:    -5.307      3.003      7.613
REMARK INTER + INTRA:          -6.404
REMARK INTER:                  -6.237
REMARK INTRA:                  -0.167
REMARK UNBOUND:                -0.167
REMARK SMILES COc1ccc(C=CC(=O)[O-])cc1
REMARK SMILES IDX 6 1 5 2 12 3 4 4 13 5 3 6 7 7 8 8 9 9 10 10 11 11 2 12 1 13
REMARK H PARENT
REMARK Flexibility Score: inf
ROOT
ATOM      1  C   UNL     1     -32.854  -3.765 -17.605  1.00  0.00    -0.025 A 
ATOM      2  C   UNL     1     -31.486  -3.691 -17.278  1.00  0.00     0.012 A 
ATOM      3  C   UNL     1     -33.287  -3.230 -18.828  1.00  0.00     0.012 A 
ATOM      4  C   UNL     1     -30.575  -3.116 -18.169  1.00  0.00     0.047 A 
ATOM      5  C   UNL     1     -32.374  -2.656 -19.718  1.00  0.00     0.047 A 
ATOM      6  C   UNL     1     -31.007  -2.598 -19.394  1.00  0.00     0.118 A 
ENDROOT
BRANCH   1   7
ATOM      7  C   UNL     1     -33.864  -4.354 -16.690  1.00  0.00     0.010 C 
ATOM      8  C   UNL     1     -34.543  -5.479 -16.955  1.00  0.00     0.025 C 
BRANCH   8   9
ATOM      9  C   UNL     1     -35.544  -6.020 -16.023  1.00  0.00     0.064 C 
ATOM     10  O   UNL     1     -35.783  -5.413 -14.947  1.00  0.00    -0.545 OA
ATOM     11  O   UNL     1     -36.234  -7.192 -16.312  1.00  0.00    -0.545 OA
ENDBRANCH   8   9
ENDBRANCH   1   7
BRANCH   6  12
ATOM     12  O   UNL     1     -30.053  -2.033 -20.253  1.00  0.00    -0.497 OA
ATOM     13  C   UNL     1     -30.287  -1.722 -21.623  1.00  0.00     0.278 C 
ENDBRANCH   6  12
TORSDOF 3
ENDMDL
MODEL 6
REMARK VINA RESULT:    -5.287      3.045      7.737
REMARK INTER + INTRA:          -6.380
REMARK INTER:                  -6.215
REMARK INTRA:                  -0.166
REMARK UNBOUND:                -0.167
REMARK SMILES COc1ccc(C=CC(=O)[O-])cc1
REMARK SMILES IDX 6 1 5 2 12 3 4 4 13 5 3 6 7 7 8 8 9 9 10 10 11 11 2 12 1 13
REMARK H PARENT
REMARK Flexibility Score: inf
ROOT
ATOM      1  C   UNL     1     -33.019  -3.691 -17.786  1.00  0.00    -0.025 A 
ATOM      2  C   UNL     1     -33.323  -3.262 -19.093  1.00  0.00     0.012 A 
ATOM      3  C   UNL     1     -31.695  -3.585 -17.330  1.00  0.00     0.012 A 
ATOM      4  C   UNL     1     -32.327  -2.718 -19.909  1.00  0.00     0.047 A 
ATOM      5  C   UNL     1     -30.701  -3.040 -18.148  1.00  0.00     0.047 A 
ATOM      6  C   UNL     1     -31.013  -2.599 -19.447  1.00  0.00     0.118 A 
ENDROOT
BRANCH   1   7
ATOM      7  C   UNL     1     -34.036  -4.286 -16.883  1.00  0.00     0.010 C 
ATOM      8  C   UNL     1     -34.496  -5.539 -17.004  1.00  0.00     0.025 C 
BRANCH   8   9
ATOM      9  C   UNL     1     -35.514  -6.083 -16.092  1.00  0.00     0.064 C 
ATOM     10  O   UNL     1     -36.415  -6.836 -16.544  1.00  0.00    -0.545 OA
ATOM     11  O   UNL     1     -35.497  -5.781 -14.734  1.00  0.00    -0.545 OA
ENDBRANCH   8   9
ENDBRANCH   1   7
BRANCH   6  12
ATOM     12  O   UNL     1     -30.051  -2.045 -20.305  1.00  0.00    -0.497 OA
ATOM     13  C   UNL     1     -30.310  -1.626 -21.641  1.00  0.00     0.278 C 
ENDBRANCH   6  12
TORSDOF 3
ENDMDL
MODEL 7
REMARK VINA RESULT:    -5.203      1.407      1.610
REMARK INTER + INTRA:          -6.282
REMARK INTER:                  -6.116
REMARK INTRA:                  -0.166
REMARK UNBOUND:                -0.167
REMARK SMILES COc1ccc(C=CC(=O)[O-])cc1
REMARK SMILES IDX 6 1 5 2 12 3 4 4 13 5 3 6 7 7 8 8 9 9 10 10 11 11 2 12 1 13
REMARK H PARENT
REMARK Flexibility Score: inf
ROOT
ATOM      1  C   UNL     1     -36.706  -6.610 -14.943  1.00  0.00    -0.025 A 
ATOM      2  C   UNL     1     -37.848  -5.983 -14.405  1.00  0.00     0.012 A 
ATOM      3  C   UNL     1     -36.624  -8.011 -14.907  1.00  0.00     0.012 A 
ATOM      4  C   UNL     1     -38.889  -6.747 -13.869  1.00  0.00     0.047 A 
ATOM      5  C   UNL     1     -37.667  -8.773 -14.372  1.00  0.00     0.047 A 
ATOM      6  C   UNL     1     -38.812  -8.143 -13.850  1.00  0.00     0.118 A 
ENDROOT
BRANCH   1   7
ATOM      7  C   UNL     1     -35.568  -5.846 -15.512  1.00  0.00     0.010 C 
ATOM      8  C   UNL     1     -35.113  -6.008 -16.762  1.00  0.00     0.025 C 
BRANCH   8   9
ATOM      9  C   UNL     1     -33.973  -5.235 -17.280  1.00  0.00     0.064 C 
ATOM     10  O   UNL     1     -32.832  -5.763 -17.320  1.00  0.00    -0.545 OA
ATOM     11  O   UNL     1     -34.136  -3.930 -17.730  1.00  0.00    -0.545 OA
ENDBRANCH   8   9
ENDBRANCH   1   7
BRANCH   6  12
ATOM     12  O   UNL     1     -39.884  -8.864 -13.303  1.00  0.00    -0.497 OA
ATOM     13  C   UNL     1     -41.248  -8.465 -13.388  1.00  0.00     0.278 C 
ENDBRANCH   6  12
TORSDOF 3
ENDMDL
MODEL 8
REMARK VINA RESULT:    -5.134      1.887      6.815
REMARK INTER + INTRA:          -6.201
REMARK INTER:                  -6.041
REMARK INTRA:                  -0.159
REMARK UNBOUND:                -0.167
REMARK SMILES COc1ccc(C=CC(=O)[O-])cc1
REMARK SMILES IDX 6 1 5 2 12 3 4 4 13 5 3 6 7 7 8 8 9 9 10 10 11 11 2 12 1 13
REMARK H PARENT
REMARK Flexibility Score: inf
ROOT
ATOM      1  C   UNL     1     -34.406  -5.091 -17.300  1.00  0.00    -0.025 A 
ATOM      2  C   UNL     1     -34.785  -4.183 -18.308  1.00  0.00     0.012 A 
ATOM      3  C   UNL     1     -33.107  -5.010 -16.771  1.00  0.00     0.012 A 
ATOM      4  C   UNL     1     -33.891  -3.205 -18.754  1.00  0.00     0.047 A 
ATOM      5  C   UNL     1     -32.216  -4.030 -17.218  1.00  0.00     0.047 A 
ATOM      6  C   UNL     1     -32.605  -3.116 -18.214  1.00  0.00     0.118 A 
ENDROOT
BRANCH   1   7
ATOM      7  C   UNL     1     -35.311  -6.155 -16.799  1.00  0.00     0.010 C 
ATOM      8  C   UNL     1     -35.768  -6.214 -15.541  1.00  0.00     0.025 C 
BRANCH   8   9
ATOM      9  C   UNL     1     -36.655  -7.295 -15.086  1.00  0.00     0.064 C 
ATOM     10  O   UNL     1     -37.406  -7.107 -14.094  1.00  0.00    -0.545 OA
ATOM     11  O   UNL     1     -36.680  -8.525 -15.735  1.00  0.00    -0.545 OA
ENDBRANCH   8   9
ENDBRANCH   1   7
BRANCH   6  12
ATOM     12  O   UNL     1     -31.747  -2.116 -18.694  1.00  0.00    -0.497 OA
ATOM     13  C   UNL     1     -31.077  -2.165 -19.949  1.00  0.00     0.278 C 
ENDBRANCH   6  12
TORSDOF 3
ENDMDL
MODEL 9
REMARK VINA RESULT:    -5.086      1.539      6.422
REMARK INTER + INTRA:          -6.144
REMARK INTER:                  -5.995
REMARK INTRA:                  -0.150
REMARK UNBOUND:                -0.167
REMARK SMILES COc1ccc(C=CC(=O)[O-])cc1
REMARK SMILES IDX 6 1 5 2 12 3 4 4 13 5 3 6 7 7 8 8 9 9 10 10 11 11 2 12 1 13
REMARK H PARENT
REMARK Flexibility Score: inf
ROOT
ATOM      1  C   UNL     1     -36.412  -6.102 -14.734  1.00  0.00    -0.025 A 
ATOM      2  C   UNL     1     -36.046  -6.518 -16.029  1.00  0.00     0.012 A 
ATOM      3  C   UNL     1     -35.761  -4.992 -14.171  1.00  0.00     0.012 A 
ATOM      4  C   UNL     1     -35.070  -5.822 -16.748  1.00  0.00     0.047 A 
ATOM      5  C   UNL     1     -34.786  -4.296 -14.893  1.00  0.00     0.047 A 
ATOM      6  C   UNL     1     -34.435  -4.707 -16.192  1.00  0.00     0.118 A 
ENDROOT
BRANCH   1   7
ATOM      7  C   UNL     1     -37.432  -6.812 -13.924  1.00  0.00     0.010 C 
ATOM      8  C   UNL     1     -38.743  -6.805 -14.204  1.00  0.00     0.025 C 
BRANCH   8   9
ATOM      9  C   UNL     1     -39.721  -7.515 -13.365  1.00  0.00     0.064 C 
ATOM     10  O   UNL     1     -40.482  -6.859 -12.607  1.00  0.00    -0.545 OA
ATOM     11  O   UNL     1     -39.820  -8.902 -13.395  1.00  0.00    -0.545 OA
ENDBRANCH   8   9
ENDBRANCH   1   7
BRANCH   6  12
ATOM     12  O   UNL     1     -33.464  -4.042 -16.955  1.00  0.00    -0.497 OA
ATOM     13  C   UNL     1     -32.060  -4.204 -16.788  1.00  0.00     0.278 C 
ENDBRANCH   6  12
TORSDOF 3
ENDMDL
