MODEL 1
REMARK VINA RESULT:    -2.995      0.000      0.000
REMARK INTER + INTRA:          -4.512
REMARK INTER:                  -4.046
REMARK INTRA:                  -0.466
REMARK UNBOUND:                -0.466
REMARK SMILES CCCCCCCC(=O)[O-]
REMARK SMILES IDX 5 1 6 2 7 3 8 4 9 5 10 6 4 7 3 8 2 9 1 10
REMARK H PARENT
REMARK Flexibility Score: inf
ROOT
ATOM      1  C   UNL     1      14.900  13.328   7.135  1.00  0.00     0.000 C 
ENDROOT
BRANCH   1   2
ATOM      2  C   UNL     1      14.011  12.830   8.284  1.00  0.00     0.006 C 
BRANCH   2   3
ATOM      3  C   UNL     1      14.461  13.359   9.652  1.00  0.00     0.053 C 
BRANCH   3   4
ATOM      4  C   UNL     1      14.117  12.379  10.730  1.00  0.00     0.041 C 
ATOM      5  O   UNL     1      13.235  12.660  11.583  1.00  0.00    -0.550 OA
ATOM      6  O   UNL     1      14.806  11.176  10.822  1.00  0.00    -0.550 OA
ENDBRANCH   3   4
ENDBRANCH   2   3
ENDBRANCH   1   2
BRANCH   1   7
ATOM      7  C   UNL     1      16.341  13.617   7.582  1.00  0.00     0.000 C 
BRANCH   7   8
ATOM      8  C   UNL     1      16.764  15.039   7.186  1.00  0.00    -0.000 C 
BRANCH   8   9
ATOM      9  C   UNL     1      16.795  16.002   8.384  1.00  0.00    -0.003 C 
ATOM     10  C   UNL     1      15.521  16.838   8.503  1.00  0.00     0.004 C 
ENDBRANCH   8   9
ENDBRANCH   7   8
ENDBRANCH   1   7
TORSDOF 6
ENDMDL
MODEL 2
REMARK VINA RESULT:    -2.911      2.528      4.350
REMARK INTER + INTRA:          -4.398
REMARK INTER:                  -4.075
REMARK INTRA:                  -0.324
REMARK UNBOUND:                -0.466
REMARK SMILES CCCCCCCC(=O)[O-]
REMARK SMILES IDX 5 1 6 2 7 3 8 4 9 5 10 6 4 7 3 8 2 9 1 10
REMARK H PARENT
REMARK Flexibility Score: inf
ROOT
ATOM      1  C   UNL     1      14.877  13.308   7.083  1.00  0.00     0.000 C 
ENDROOT
BRANCH   1   2
ATOM      2  C   UNL     1      16.258  13.633   7.673  1.00  0.00     0.006 C 
BRANCH   2   3
ATOM      3  C   UNL     1      16.716  15.062   7.351  1.00  0.00     0.053 C 
BRANCH   3   4
ATOM      4  C   UNL     1      16.234  16.013   8.401  1.00  0.00     0.041 C 
ATOM      5  O   UNL     1      15.416  16.923   8.104  1.00  0.00    -0.550 OA
ATOM      6  O   UNL     1      16.727  15.928   9.697  1.00  0.00    -0.550 OA
ENDBRANCH   3   4
ENDBRANCH   2   3
ENDBRANCH   1   2
BRANCH   1   7
ATOM      7  C   UNL     1      13.893  12.774   8.136  1.00  0.00     0.000 C 
BRANCH   7   8
ATOM      8  C   UNL     1      14.389  13.083   9.557  1.00  0.00    -0.000 C 
BRANCH   8   9
ATOM      9  C   UNL     1      13.967  12.012  10.575  1.00  0.00    -0.003 C 
ATOM     10  C   UNL     1      13.639  12.599  11.948  1.00  0.00     0.004 C 
ENDBRANCH   8   9
ENDBRANCH   7   8
ENDBRANCH   1   7
TORSDOF 6
ENDMDL
MODEL 3
REMARK VINA RESULT:    -2.811     10.681     11.924
REMARK INTER + INTRA:          -4.263
REMARK INTER:                  -4.175
REMARK INTRA:                  -0.088
REMARK UNBOUND:                -0.466
REMARK SMILES CCCCCCCC(=O)[O-]
REMARK SMILES IDX 5 1 6 2 7 3 8 4 9 5 10 6 4 7 3 8 2 9 1 10
REMARK H PARENT
REMARK Flexibility Score: inf
ROOT
ATOM      1  C   UNL     1      13.644  20.081  -0.376  1.00  0.00     0.000 C 
ENDROOT
BRANCH   1   2
ATOM      2  C   UNL     1      14.045  21.340  -1.160  1.00  0.00     0.006 C 
BRANCH   2   3
ATOM      3  C   UNL     1      15.525  21.337  -1.565  1.00  0.00     0.053 C 
BRANCH   3   4
ATOM      4  C   UNL     1      16.395  21.133  -0.365  1.00  0.00     0.041 C 
ATOM      5  O   UNL     1      16.830  22.125   0.278  1.00  0.00    -0.550 OA
ATOM      6  O   UNL     1      16.766  19.850   0.015  1.00  0.00    -0.550 OA
ENDBRANCH   3   4
ENDBRANCH   2   3
ENDBRANCH   1   2
BRANCH   1   7
ATOM      7  C   UNL     1      12.395  19.395  -0.952  1.00  0.00     0.000 C 
BRANCH   7   8
ATOM      8  C   UNL     1      12.187  18.012  -0.318  1.00  0.00    -0.000 C 
BRANCH   8   9
ATOM      9  C   UNL     1      13.209  17.708   0.788  1.00  0.00    -0.003 C 
ATOM     10  C   UNL     1      12.747  16.597   1.731  1.00  0.00     0.004 C 
ENDBRANCH   8   9
ENDBRANCH   7   8
ENDBRANCH   1   7
TORSDOF 6
ENDMDL
MODEL 4
REMARK VINA RESULT:    -2.733      2.924      4.914
REMARK INTER + INTRA:          -4.157
REMARK INTER:                  -3.697
REMARK INTRA:                  -0.460
REMARK UNBOUND:                -0.466
REMARK SMILES CCCCCCCC(=O)[O-]
REMARK SMILES IDX 5 1 6 2 7 3 8 4 9 5 10 6 4 7 3 8 2 9 1 10
REMARK H PARENT
REMARK Flexibility Score: inf
ROOT
ATOM      1  C   UNL     1      14.127  12.761   9.153  1.00  0.00     0.000 C 
ENDROOT
BRANCH   1   2
ATOM      2  C   UNL     1      15.230  13.778   9.485  1.00  0.00     0.006 C 
BRANCH   2   3
ATOM      3  C   UNL     1      16.535  13.505   8.725  1.00  0.00     0.053 C 
BRANCH   3   4
ATOM      4  C   UNL     1      16.391  13.893   7.287  1.00  0.00     0.041 C 
ATOM      5  O   UNL     1      16.438  13.015   6.386  1.00  0.00    -0.550 OA
ATOM      6  O   UNL     1      16.258  15.231   6.937  1.00  0.00    -0.550 OA
ENDBRANCH   3   4
ENDBRANCH   2   3
ENDBRANCH   1   2
BRANCH   1   7
ATOM      7  C   UNL     1      13.763  11.869  10.349  1.00  0.00     0.000 C 
BRANCH   7   8
ATOM      8  C   UNL     1      13.769  12.674  11.657  1.00  0.00    -0.000 C 
BRANCH   8   9
ATOM      9  C   UNL     1      14.597  11.999  12.762  1.00  0.00    -0.003 C 
ATOM     10  C   UNL     1      15.807  11.243  12.216  1.00  0.00     0.004 C 
ENDBRANCH   8   9
ENDBRANCH   7   8
ENDBRANCH   1   7
TORSDOF 6
ENDMDL
MODEL 5
REMARK VINA RESULT:    -2.727      2.391      4.494
REMARK INTER + INTRA:          -4.149
REMARK INTER:                  -3.682
REMARK INTRA:                  -0.468
REMARK UNBOUND:                -0.466
REMARK SMILES CCCCCCCC(=O)[O-]
REMARK SMILES IDX 5 1 6 2 7 3 8 4 9 5 10 6 4 7 3 8 2 9 1 10
REMARK H PARENT
REMARK Flexibility Score: inf
ROOT
ATOM      1  C   UNL     1      16.253  13.576  11.049  1.00  0.00     0.000 C 
ENDROOT
BRANCH   1   2
ATOM      2  C   UNL     1      16.482  14.196   9.662  1.00  0.00     0.006 C 
BRANCH   2   3
ATOM      3  C   UNL     1      15.171  14.503   8.927  1.00  0.00     0.053 C 
BRANCH   3   4
ATOM      4  C   UNL     1      14.825  13.388   7.990  1.00  0.00     0.041 C 
ATOM      5  O   UNL     1      15.553  13.152   6.990  1.00  0.00    -0.550 OA
ATOM      6  O   UNL     1      13.670  12.642   8.193  1.00  0.00    -0.550 OA
ENDBRANCH   3   4
ENDBRANCH   2   3
ENDBRANCH   1   2
BRANCH   1   7
ATOM      7  C   UNL     1      16.160  12.043  11.006  1.00  0.00     0.000 C 
BRANCH   7   8
ATOM      8  C   UNL     1      14.932  11.546  11.783  1.00  0.00    -0.000 C 
BRANCH   8   9
ATOM      9  C   UNL     1      13.756  12.533  11.725  1.00  0.00    -0.003 C 
ATOM     10  C   UNL     1      13.143  12.802  13.100  1.00  0.00     0.004 C 
ENDBRANCH   8   9
ENDBRANCH   7   8
ENDBRANCH   1   7
TORSDOF 6
ENDMDL
MODEL 6
REMARK VINA RESULT:    -2.666      2.676      3.807
REMARK INTER + INTRA:          -4.067
REMARK INTER:                  -3.852
REMARK INTRA:                  -0.216
REMARK UNBOUND:                -0.466
REMARK SMILES CCCCCCCC(=O)[O-]
REMARK SMILES IDX 5 1 6 2 7 3 8 4 9 5 10 6 4 7 3 8 2 9 1 10
REMARK H PARENT
REMARK Flexibility Score: inf
ROOT
ATOM      1  C   UNL     1      15.515  16.979   8.637  1.00  0.00     0.000 C 
ENDROOT
BRANCH   1   2
ATOM      2  C   UNL     1      15.822  15.584   8.072  1.00  0.00     0.006 C 
BRANCH   2   3
ATOM      3  C   UNL     1      15.189  14.458   8.900  1.00  0.00     0.053 C 
BRANCH   3   4
ATOM      4  C   UNL     1      14.670  13.379   8.003  1.00  0.00     0.041 C 
ATOM      5  O   UNL     1      13.685  12.679   8.359  1.00  0.00    -0.550 OA
ATOM      6  O   UNL     1      15.304  13.111   6.797  1.00  0.00    -0.550 OA
ENDBRANCH   3   4
ENDBRANCH   2   3
ENDBRANCH   1   2
BRANCH   1   7
ATOM      7  C   UNL     1      16.746  17.899   8.646  1.00  0.00     0.000 C 
BRANCH   7   8
ATOM      8  C   UNL     1      16.534  19.090   9.593  1.00  0.00    -0.000 C 
BRANCH   8   9
ATOM      9  C   UNL     1      15.320  18.904  10.515  1.00  0.00    -0.003 C 
ATOM     10  C   UNL     1      14.957  20.178  11.279  1.00  0.00     0.004 C 
ENDBRANCH   8   9
ENDBRANCH   7   8
ENDBRANCH   1   7
TORSDOF 6
ENDMDL
MODEL 7
REMARK VINA RESULT:    -2.571      3.083      4.684
REMARK INTER + INTRA:          -3.938
REMARK INTER:                  -3.548
REMARK INTRA:                  -0.390
REMARK UNBOUND:                -0.466
REMARK SMILES CCCCCCCC(=O)[O-]
REMARK SMILES IDX 5 1 6 2 7 3 8 4 9 5 10 6 4 7 3 8 2 9 1 10
REMARK H PARENT
REMARK Flexibility Score: inf
ROOT
ATOM      1  C   UNL     1      16.477  15.129   7.131  1.00  0.00     0.000 C 
ENDROOT
BRANCH   1   2
ATOM      2  C   UNL     1      16.725  16.036   8.346  1.00  0.00     0.006 C 
BRANCH   2   3
ATOM      3  C   UNL     1      15.569  17.013   8.600  1.00  0.00     0.053 C 
BRANCH   3   4
ATOM      4  C   UNL     1      15.950  18.012   9.648  1.00  0.00     0.041 C 
ATOM      5  O   UNL     1      15.813  17.733  10.868  1.00  0.00    -0.550 OA
ATOM      6  O   UNL     1      16.410  19.269   9.276  1.00  0.00    -0.550 OA
ENDBRANCH   3   4
ENDBRANCH   2   3
ENDBRANCH   1   2
BRANCH   1   7
ATOM      7  C   UNL     1      16.197  13.671   7.527  1.00  0.00     0.000 C 
BRANCH   7   8
ATOM      8  C   UNL     1      14.787  13.245   7.090  1.00  0.00    -0.000 C 
BRANCH   8   9
ATOM      9  C   UNL     1      13.911  12.799   8.271  1.00  0.00    -0.003 C 
ATOM     10  C   UNL     1      14.443  13.288   9.619  1.00  0.00     0.004 C 
ENDBRANCH   8   9
ENDBRANCH   7   8
ENDBRANCH   1   7
TORSDOF 6
ENDMDL
MODEL 8
REMARK VINA RESULT:    -2.557      1.661      2.429
REMARK INTER + INTRA:          -3.920
REMARK INTER:                  -3.711
REMARK INTRA:                  -0.209
REMARK UNBOUND:                -0.466
REMARK SMILES CCCCCCCC(=O)[O-]
REMARK SMILES IDX 5 1 6 2 7 3 8 4 9 5 10 6 4 7 3 8 2 9 1 10
REMARK H PARENT
REMARK Flexibility Score: inf
ROOT
ATOM      1  C   UNL     1      16.092  15.253   7.269  1.00  0.00     0.000 C 
ENDROOT
BRANCH   1   2
ATOM      2  C   UNL     1      15.727  13.790   7.564  1.00  0.00     0.006 C 
BRANCH   2   3
ATOM      3  C   UNL     1      15.461  13.536   9.053  1.00  0.00     0.053 C 
BRANCH   3   4
ATOM      4  C   UNL     1      14.215  12.725   9.230  1.00  0.00     0.041 C 
ATOM      5  O   UNL     1      13.515  12.414   8.230  1.00  0.00    -0.550 OA
ATOM      6  O   UNL     1      13.800  12.356  10.503  1.00  0.00    -0.550 OA
ENDBRANCH   3   4
ENDBRANCH   2   3
ENDBRANCH   1   2
BRANCH   1   7
ATOM      7  C   UNL     1      16.462  16.039   8.536  1.00  0.00     0.000 C 
BRANCH   7   8
ATOM      8  C   UNL     1      15.527  17.242   8.728  1.00  0.00    -0.000 C 
BRANCH   8   9
ATOM      9  C   UNL     1      16.206  18.408   9.463  1.00  0.00    -0.003 C 
ATOM     10  C   UNL     1      15.356  18.961  10.607  1.00  0.00     0.004 C 
ENDBRANCH   8   9
ENDBRANCH   7   8
ENDBRANCH   1   7
TORSDOF 6
ENDMDL
MODEL 9
REMARK VINA RESULT:    -2.328     10.144     11.142
REMARK INTER + INTRA:          -3.610
REMARK INTER:                  -3.257
REMARK INTRA:                  -0.353
REMARK UNBOUND:                -0.466
REMARK SMILES CCCCCCCC(=O)[O-]
REMARK SMILES IDX 5 1 6 2 7 3 8 4 9 5 10 6 4 7 3 8 2 9 1 10
REMARK H PARENT
REMARK Flexibility Score: inf
ROOT
ATOM      1  C   UNL     1      16.367  19.454   0.335  1.00  0.00     0.000 C 
ENDROOT
BRANCH   1   2
ATOM      2  C   UNL     1      15.155  18.732   0.944  1.00  0.00     0.006 C 
BRANCH   2   3
ATOM      3  C   UNL     1      13.828  19.162   0.305  1.00  0.00     0.053 C 
BRANCH   3   4
ATOM      4  C   UNL     1      12.854  18.026   0.309  1.00  0.00     0.041 C 
ATOM      5  O   UNL     1      11.914  17.995  -0.528  1.00  0.00    -0.550 OA
ATOM      6  O   UNL     1      12.954  17.027   1.270  1.00  0.00    -0.550 OA
ENDBRANCH   3   4
ENDBRANCH   2   3
ENDBRANCH   1   2
BRANCH   1   7
ATOM      7  C   UNL     1      16.170  20.975   0.250  1.00  0.00     0.000 C 
BRANCH   7   8
ATOM      8  C   UNL     1      17.125  21.595  -0.781  1.00  0.00    -0.000 C 
BRANCH   8   9
ATOM      9  C   UNL     1      16.399  22.074  -2.048  1.00  0.00    -0.003 C 
ATOM     10  C   UNL     1      14.877  22.035  -1.907  1.00  0.00     0.004 C 
ENDBRANCH   8   9
ENDBRANCH   7   8
ENDBRANCH   1   7
TORSDOF 6
ENDMDL
