MODEL 1
REMARK VINA RESULT:    28.918      0.000      0.000
REMARK INTER + INTRA:          31.654
REMARK INTER:                  31.454
REMARK INTRA:                   0.200
REMARK UNBOUND:                 0.200
REMARK SMILES CC1(C)CC[C@@]2(C(=O)[O-])CC[C@]3(C)C(=CC[C@@H]4[C@]5(C)CC[C@@H](O)C(C)(C)[C@@H]5CC[C@@]43C)[C@H]2C1
REMARK SMILES IDX 6 1 5 2 10 3 32 4 4 5 11 6 14 7 33 8 2 9 12 10 15 11 1 12
REMARK SMILES IDX 3 13 13 14 30 15 16 16 17 17 29 18 31 19 18 20 28 21 27 22
REMARK SMILES IDX 20 23 19 24 24 25 21 26 22 27 25 28 26 29 7 30 8 31 9 32
REMARK SMILES IDX 23 33
REMARK H PARENT 23 34
REMARK Flexibility Score: inf
ROOT
ATOM      1  C   UNL     1       4.160 174.712  46.006  1.00  0.00     0.017 C 
ATOM      2  C   UNL     1       2.875 174.205  46.731  1.00  0.00     0.014 C 
ATOM      3  C   UNL     1       4.263 176.273  46.101  1.00  0.00     0.014 C 
ATOM      4  C   UNL     1       5.422 174.016  46.602  1.00  0.00     0.028 C 
ATOM      5  C   UNL     1       2.955 174.236  48.265  1.00  0.00     0.007 C 
ATOM      6  C   UNL     1       5.676 176.867  46.330  1.00  0.00     0.013 C 
ATOM      7  C   UNL     1       6.724 174.598  46.044  1.00  0.00    -0.064 C 
ATOM      8  C   UNL     1       5.464 174.036  48.151  1.00  0.00     0.015 C 
ATOM      9  C   UNL     1       4.185 173.484  48.821  1.00  0.00    -0.035 C 
ATOM     10  C   UNL     1       6.870 176.079  45.686  1.00  0.00    -0.006 C 
ATOM     11  C   UNL     1       7.772 173.769  45.927  1.00  0.00    -0.027 C 
ATOM     12  C   UNL     1       4.273 173.742  50.342  1.00  0.00     0.011 C 
ATOM     13  C   UNL     1       4.053 171.956  48.610  1.00  0.00     0.011 C 
ATOM     14  C   UNL     1       6.738 176.202  44.136  1.00  0.00     0.017 C 
ATOM     15  C   UNL     1       8.308 176.631  46.179  1.00  0.00    -0.020 C 
ATOM     16  C   UNL     1       9.197 174.225  45.860  1.00  0.00     0.032 C 
ATOM     17  C   UNL     1       9.466 175.740  45.579  1.00  0.00     0.006 C 
ATOM     18  C   UNL     1       8.433 176.589  47.741  1.00  0.00     0.008 C 
ATOM     19  C   UNL     1       8.469 178.115  45.697  1.00  0.00     0.012 C 
ATOM     20  C   UNL     1      10.964 176.218  45.975  1.00  0.00    -0.025 C 
ATOM     21  C   UNL     1       9.849 176.322  48.320  1.00  0.00     0.005 C 
ATOM     22  C   UNL     1      11.010 176.863  47.443  1.00  0.00     0.003 C 
ATOM     23  C   UNL     1      11.971 175.016  45.839  1.00  0.00     0.010 C 
ATOM     24  C   UNL     1      11.424 177.284  44.919  1.00  0.00     0.012 C 
ATOM     25  C   UNL     1      12.439 176.893  48.165  1.00  0.00    -0.006 C 
ATOM     26  C   UNL     1      13.355 175.260  46.430  1.00  0.00     0.033 C 
ATOM     27  C   UNL     1      13.234 175.579  47.919  1.00  0.00     0.120 C 
ATOM     28  C   UNL     1      13.257 178.124  47.677  1.00  0.00     0.014 C 
ATOM     29  C   UNL     1      12.314 177.077  49.704  1.00  0.00     0.014 C 
ENDROOT
BRANCH   1  30
ATOM     30  C   UNL     1       3.973 174.313  44.541  1.00  0.00     0.048 C 
ATOM     31  O   UNL     1       3.683 173.132  44.210  1.00  0.00    -0.550 OA
ATOM     32  O   UNL     1       4.098 175.272  43.540  1.00  0.00    -0.550 OA
ENDBRANCH   1  30
BRANCH  27  33
ATOM     33  O   UNL     1      14.520 175.665  48.484  1.00  0.00    -0.393 OA
ATOM     34  H   UNL     1      14.448 176.255  49.279  1.00  0.00     0.210 HD
ENDBRANCH  27  33
TORSDOF 2
ENDMDL
