MODEL 1
REMARK VINA RESULT:    -3.693      0.000      0.000
REMARK INTER + INTRA:          -4.296
REMARK INTER:                  -4.233
REMARK INTRA:                  -0.063
REMARK UNBOUND:                -0.063
REMARK SMILES CC(C)[C@@H]([NH3+])C(=O)[O-]
REMARK SMILES IDX 4 1 5 2 6 6 7 7 8 8 2 9 1 10 3 11
REMARK H PARENT 5 3 5 4 5 5
REMARK Flexibility Score: inf
ROOT
ATOM      1  C   UNL     1    -116.722 -98.472  35.084  1.00  0.00     0.230 C 
ENDROOT
BRANCH   1   2
ATOM      2  N   UNL     1    -117.951 -99.261  34.903  1.00  0.00    -0.350 N 
ATOM      3  H   UNL     1    -118.462 -99.321  35.814  1.00  0.00     0.345 HD
ATOM      4  H   UNL     1    -118.586 -98.796  34.217  1.00  0.00     0.345 HD
ATOM      5  H   UNL     1    -117.740-100.231  34.580  1.00  0.00     0.345 HD
ENDBRANCH   1   2
BRANCH   1   6
ATOM      6  C   UNL     1    -115.907 -98.999  36.240  1.00  0.00     0.099 C 
ATOM      7  O   UNL     1    -114.696 -99.310  36.089  1.00  0.00    -0.544 OA
ATOM      8  O   UNL     1    -116.484 -99.094  37.500  1.00  0.00    -0.544 OA
ENDBRANCH   1   6
BRANCH   1   9
ATOM      9  C   UNL     1    -115.858 -98.383  33.789  1.00  0.00     0.047 C 
ATOM     10  C   UNL     1    -115.952 -96.998  33.132  1.00  0.00     0.014 C 
ATOM     11  C   UNL     1    -116.178 -99.480  32.759  1.00  0.00     0.014 C 
ENDBRANCH   1   9
TORSDOF 3
ENDMDL
MODEL 2
REMARK VINA RESULT:    -3.530      6.510      7.759
REMARK INTER + INTRA:          -4.108
REMARK INTER:                  -4.095
REMARK INTRA:                  -0.013
REMARK UNBOUND:                -0.063
REMARK SMILES CC(C)[C@@H]([NH3+])C(=O)[O-]
REMARK SMILES IDX 4 1 5 2 6 6 7 7 8 8 2 9 1 10 3 11
REMARK H PARENT 5 3 5 4 5 5
REMARK Flexibility Score: inf
ROOT
ATOM      1  C   UNL     1    -118.518 -98.350  42.011  1.00  0.00     0.230 C 
ENDROOT
BRANCH   1   2
ATOM      2  N   UNL     1    -118.841 -97.130  42.770  1.00  0.00    -0.350 N 
ATOM      3  H   UNL     1    -117.961 -96.596  42.958  1.00  0.00     0.345 HD
ATOM      4  H   UNL     1    -119.472 -96.511  42.214  1.00  0.00     0.345 HD
ATOM      5  H   UNL     1    -119.292 -97.357  43.684  1.00  0.00     0.345 HD
ENDBRANCH   1   2
BRANCH   1   6
ATOM      6  C   UNL     1    -118.303 -98.036  40.551  1.00  0.00     0.099 C 
ATOM      7  O   UNL     1    -118.201 -98.958  39.699  1.00  0.00    -0.544 OA
ATOM      8  O   UNL     1    -118.267 -96.713  40.130  1.00  0.00    -0.544 OA
ENDBRANCH   1   6
BRANCH   1   9
ATOM      9  C   UNL     1    -117.302 -99.130  42.598  1.00  0.00     0.047 C 
ATOM     10  C   UNL     1    -117.350 -99.195  44.132  1.00  0.00     0.014 C 
ATOM     11  C   UNL     1    -115.940 -98.587  42.134  1.00  0.00     0.014 C 
ENDBRANCH   1   9
TORSDOF 3
ENDMDL
MODEL 3
REMARK VINA RESULT:    -3.461      1.895      2.341
REMARK INTER + INTRA:          -4.030
REMARK INTER:                  -3.990
REMARK INTRA:                  -0.040
REMARK UNBOUND:                -0.063
REMARK SMILES CC(C)[C@@H]([NH3+])C(=O)[O-]
REMARK SMILES IDX 4 1 5 2 6 6 7 7 8 8 2 9 1 10 3 11
REMARK H PARENT 5 3 5 4 5 5
REMARK Flexibility Score: inf
ROOT
ATOM      1  C   UNL     1    -115.854 -97.688  33.737  1.00  0.00     0.230 C 
ENDROOT
BRANCH   1   2
ATOM      2  N   UNL     1    -115.653 -96.234  33.853  1.00  0.00    -0.350 N 
ATOM      3  H   UNL     1    -115.480 -95.831  32.903  1.00  0.00     0.345 HD
ATOM      4  H   UNL     1    -116.510 -95.777  34.238  1.00  0.00     0.345 HD
ATOM      5  H   UNL     1    -114.835 -96.008  34.462  1.00  0.00     0.345 HD
ENDBRANCH   1   2
BRANCH   1   6
ATOM      6  C   UNL     1    -115.808 -98.349  35.093  1.00  0.00     0.099 C 
ATOM      7  O   UNL     1    -114.710 -98.552  35.677  1.00  0.00    -0.544 OA
ATOM      8  O   UNL     1    -116.993 -98.693  35.730  1.00  0.00    -0.544 OA
ENDBRANCH   1   6
BRANCH   1   9
ATOM      9  C   UNL     1    -117.162 -98.065  32.978  1.00  0.00     0.047 C 
ATOM     10  C   UNL     1    -117.079 -99.467  32.355  1.00  0.00     0.014 C 
ATOM     11  C   UNL     1    -117.574 -97.036  31.911  1.00  0.00     0.014 C 
ENDBRANCH   1   9
TORSDOF 3
ENDMDL
MODEL 4
REMARK VINA RESULT:    -3.359      1.594      2.284
REMARK INTER + INTRA:          -3.913
REMARK INTER:                  -3.853
REMARK INTRA:                  -0.060
REMARK UNBOUND:                -0.063
REMARK SMILES CC(C)[C@@H]([NH3+])C(=O)[O-]
REMARK SMILES IDX 4 1 5 2 6 6 7 7 8 8 2 9 1 10 3 11
REMARK H PARENT 5 3 5 4 5 5
REMARK Flexibility Score: inf
ROOT
ATOM      1  C   UNL     1    -115.749 -98.192  34.115  1.00  0.00     0.230 C 
ENDROOT
BRANCH   1   2
ATOM      2  N   UNL     1    -115.750 -96.720  34.113  1.00  0.00    -0.350 N 
ATOM      3  H   UNL     1    -114.793 -96.373  34.356  1.00  0.00     0.345 HD
ATOM      4  H   UNL     1    -115.985 -96.356  33.163  1.00  0.00     0.345 HD
ATOM      5  H   UNL     1    -116.427 -96.337  34.810  1.00  0.00     0.345 HD
ENDBRANCH   1   2
BRANCH   1   6
ATOM      6  C   UNL     1    -115.741 -98.731  35.524  1.00  0.00     0.099 C 
ATOM      7  O   UNL     1    -116.755 -98.625  36.263  1.00  0.00    -0.544 OA
ATOM      8  O   UNL     1    -114.619 -99.398  35.999  1.00  0.00    -0.544 OA
ENDBRANCH   1   6
BRANCH   1   9
ATOM      9  C   UNL     1    -116.923 -98.804  33.292  1.00  0.00     0.047 C 
ATOM     10  C   UNL     1    -116.522-100.125  32.617  1.00  0.00     0.014 C 
ATOM     11  C   UNL     1    -117.515 -97.838  32.252  1.00  0.00     0.014 C 
ENDBRANCH   1   9
TORSDOF 3
ENDMDL
MODEL 5
REMARK VINA RESULT:    -3.319      6.280      7.999
REMARK INTER + INTRA:          -3.867
REMARK INTER:                  -3.838
REMARK INTRA:                  -0.030
REMARK UNBOUND:                -0.063
REMARK SMILES CC(C)[C@@H]([NH3+])C(=O)[O-]
REMARK SMILES IDX 4 1 5 2 6 6 7 7 8 8 2 9 1 10 3 11
REMARK H PARENT 5 3 5 4 5 5
REMARK Flexibility Score: inf
ROOT
ATOM      1  C   UNL     1    -117.908 -98.354  41.762  1.00  0.00     0.230 C 
ENDROOT
BRANCH   1   2
ATOM      2  N   UNL     1    -118.179 -96.948  41.421  1.00  0.00    -0.350 N 
ATOM      3  H   UNL     1    -117.499 -96.332  41.924  1.00  0.00     0.345 HD
ATOM      4  H   UNL     1    -118.050 -96.789  40.397  1.00  0.00     0.345 HD
ATOM      5  H   UNL     1    -119.146 -96.667  41.698  1.00  0.00     0.345 HD
ENDBRANCH   1   2
BRANCH   1   6
ATOM      6  C   UNL     1    -116.716 -98.875  40.997  1.00  0.00     0.099 C 
ATOM      7  O   UNL     1    -115.640 -99.153  41.588  1.00  0.00    -0.544 OA
ATOM      8  O   UNL     1    -116.822 -99.100  39.630  1.00  0.00    -0.544 OA
ENDBRANCH   1   6
BRANCH   1   9
ATOM      9  C   UNL     1    -117.733 -98.588  43.293  1.00  0.00     0.047 C 
ATOM     10  C   UNL     1    -118.203 -99.988  43.716  1.00  0.00     0.014 C 
ATOM     11  C   UNL     1    -118.413 -97.517  44.162  1.00  0.00     0.014 C 
ENDBRANCH   1   9
TORSDOF 3
ENDMDL
MODEL 6
REMARK VINA RESULT:    -3.302      4.166      4.881
REMARK INTER + INTRA:          -3.847
REMARK INTER:                  -3.804
REMARK INTRA:                  -0.043
REMARK UNBOUND:                -0.063
REMARK SMILES CC(C)[C@@H]([NH3+])C(=O)[O-]
REMARK SMILES IDX 4 1 5 2 6 6 7 7 8 8 2 9 1 10 3 11
REMARK H PARENT 5 3 5 4 5 5
REMARK Flexibility Score: inf
ROOT
ATOM      1  C   UNL     1    -118.125 -98.153  32.146  1.00  0.00     0.230 C 
ENDROOT
BRANCH   1   2
ATOM      2  N   UNL     1    -119.032 -97.475  33.086  1.00  0.00    -0.350 N 
ATOM      3  H   UNL     1    -118.841 -97.814  34.057  1.00  0.00     0.345 HD
ATOM      4  H   UNL     1    -118.866 -96.444  33.074  1.00  0.00     0.345 HD
ATOM      5  H   UNL     1    -120.033 -97.668  32.860  1.00  0.00     0.345 HD
ENDBRANCH   1   2
BRANCH   1   6
ATOM      6  C   UNL     1    -118.454 -97.786  30.719  1.00  0.00     0.099 C 
ATOM      7  O   UNL     1    -118.283 -96.612  30.297  1.00  0.00    -0.544 OA
ATOM      8  O   UNL     1    -118.904 -98.767  29.844  1.00  0.00    -0.544 OA
ENDBRANCH   1   6
BRANCH   1   9
ATOM      9  C   UNL     1    -116.620 -97.892  32.454  1.00  0.00     0.047 C 
ATOM     10  C   UNL     1    -115.956 -99.102  33.131  1.00  0.00     0.014 C 
ATOM     11  C   UNL     1    -116.371 -96.621  33.283  1.00  0.00     0.014 C 
ENDBRANCH   1   9
TORSDOF 3
ENDMDL
MODEL 7
REMARK VINA RESULT:    -3.086      3.206      3.748
REMARK INTER + INTRA:          -3.600
REMARK INTER:                  -3.522
REMARK INTRA:                  -0.078
REMARK UNBOUND:                -0.063
REMARK SMILES CC(C)[C@@H]([NH3+])C(=O)[O-]
REMARK SMILES IDX 4 1 5 2 6 6 7 7 8 8 2 9 1 10 3 11
REMARK H PARENT 5 3 5 4 5 5
REMARK Flexibility Score: inf
ROOT
ATOM      1  C   UNL     1    -116.766 -97.518  33.956  1.00  0.00     0.230 C 
ENDROOT
BRANCH   1   2
ATOM      2  N   UNL     1    -115.728 -96.508  33.695  1.00  0.00    -0.350 N 
ATOM      3  H   UNL     1    -115.385 -96.120  34.604  1.00  0.00     0.345 HD
ATOM      4  H   UNL     1    -114.911 -96.941  33.210  1.00  0.00     0.345 HD
ATOM      5  H   UNL     1    -116.097 -95.719  33.118  1.00  0.00     0.345 HD
ENDBRANCH   1   2
BRANCH   1   6
ATOM      6  C   UNL     1    -117.763 -97.572  32.824  1.00  0.00     0.099 C 
ATOM      7  O   UNL     1    -118.855 -98.186  32.953  1.00  0.00    -0.544 OA
ATOM      8  O   UNL     1    -117.498 -96.894  31.641  1.00  0.00    -0.544 OA
ENDBRANCH   1   6
BRANCH   1   9
ATOM      9  C   UNL     1    -116.181 -98.932  34.250  1.00  0.00     0.047 C 
ATOM     10  C   UNL     1    -115.166 -98.904  35.404  1.00  0.00     0.014 C 
ATOM     11  C   UNL     1    -115.561 -99.612  33.018  1.00  0.00     0.014 C 
ENDBRANCH   1   9
TORSDOF 3
ENDMDL
MODEL 8
REMARK VINA RESULT:    -3.048      6.406      7.969
REMARK INTER + INTRA:          -3.556
REMARK INTER:                  -3.484
REMARK INTRA:                  -0.072
REMARK UNBOUND:                -0.063
REMARK SMILES CC(C)[C@@H]([NH3+])C(=O)[O-]
REMARK SMILES IDX 4 1 5 2 6 6 7 7 8 8 2 9 1 10 3 11
REMARK H PARENT 5 3 5 4 5 5
REMARK Flexibility Score: inf
ROOT
ATOM      1  C   UNL     1    -117.287 -98.125  41.835  1.00  0.00     0.230 C 
ENDROOT
BRANCH   1   2
ATOM      2  N   UNL     1    -116.160 -99.036  41.579  1.00  0.00    -0.350 N 
ATOM      3  H   UNL     1    -115.280 -98.479  41.477  1.00  0.00     0.345 HD
ATOM      4  H   UNL     1    -116.028 -99.688  42.384  1.00  0.00     0.345 HD
ATOM      5  H   UNL     1    -116.306 -99.588  40.705  1.00  0.00     0.345 HD
ENDBRANCH   1   2
BRANCH   1   6
ATOM      6  C   UNL     1    -118.120 -97.934  40.592  1.00  0.00     0.099 C 
ATOM      7  O   UNL     1    -118.668 -98.915  40.024  1.00  0.00    -0.544 OA
ATOM      8  O   UNL     1    -118.329 -96.654  40.095  1.00  0.00    -0.544 OA
ENDBRANCH   1   6
BRANCH   1   9
ATOM      9  C   UNL     1    -118.174 -98.573  43.037  1.00  0.00     0.047 C 
ATOM     10  C   UNL     1    -119.074 -97.434  43.540  1.00  0.00     0.014 C 
ATOM     11  C   UNL     1    -117.373 -99.169  44.206  1.00  0.00     0.014 C 
ENDBRANCH   1   9
TORSDOF 3
ENDMDL
MODEL 9
REMARK VINA RESULT:    -2.981     12.194     12.850
REMARK INTER + INTRA:          -3.480
REMARK INTER:                  -3.473
REMARK INTRA:                  -0.007
REMARK UNBOUND:                -0.063
REMARK SMILES CC(C)[C@@H]([NH3+])C(=O)[O-]
REMARK SMILES IDX 4 1 5 2 6 6 7 7 8 8 2 9 1 10 3 11
REMARK H PARENT 5 3 5 4 5 5
REMARK Flexibility Score: inf
ROOT
ATOM      1  C   UNL     1    -118.649 -97.421  47.599  1.00  0.00     0.230 C 
ENDROOT
BRANCH   1   2
ATOM      2  N   UNL     1    -118.146 -96.958  48.903  1.00  0.00    -0.350 N 
ATOM      3  H   UNL     1    -117.693 -96.022  48.787  1.00  0.00     0.345 HD
ATOM      4  H   UNL     1    -118.934 -96.845  49.578  1.00  0.00     0.345 HD
ATOM      5  H   UNL     1    -117.441 -97.620  49.298  1.00  0.00     0.345 HD
ENDBRANCH   1   2
BRANCH   1   6
ATOM      6  C   UNL     1    -118.430 -96.375  46.533  1.00  0.00     0.099 C 
ATOM      7  O   UNL     1    -118.267 -95.164  46.840  1.00  0.00    -0.544 OA
ATOM      8  O   UNL     1    -118.355 -96.757  45.200  1.00  0.00    -0.544 OA
ENDBRANCH   1   6
BRANCH   1   9
ATOM      9  C   UNL     1    -118.048 -98.792  47.165  1.00  0.00     0.047 C 
ATOM     10  C   UNL     1    -119.125 -99.743  46.619  1.00  0.00     0.014 C 
ATOM     11  C   UNL     1    -117.239 -99.489  48.272  1.00  0.00     0.014 C 
ENDBRANCH   1   9
TORSDOF 3
ENDMDL
