MODEL 1
REMARK VINA RESULT:    -5.985      0.000      0.000
REMARK INTER + INTRA:          -6.510
REMARK INTER:                  -6.510
REMARK INTRA:                   0.000
REMARK UNBOUND:                 0.000
REMARK SMILES Cc1cc(O)c2c(c1)C(=O)c1cc(O)cc(O)c1C2=O
REMARK SMILES IDX 1 1 2 2 8 3 7 4 6 5 4 6 3 7 19 8 20 9 18 10 11 11 9 12 10 13
REMARK SMILES IDX 12 14 13 15 15 16 16 17 5 18 17 20 14 22
REMARK H PARENT 5 19 17 21 14 23
REMARK Flexibility Score: inf
ROOT
ATOM      1  C   UNL     1      27.843  41.300  84.115  1.00  0.00     0.044 C 
ATOM      2  C   UNL     1      26.724  42.175  84.599  1.00  0.00    -0.047 A 
ATOM      3  C   UNL     1      26.972  43.506  84.951  1.00  0.00     0.016 A 
ATOM      4  C   UNL     1      25.940  44.320  85.445  1.00  0.00     0.038 A 
ATOM      5  C   UNL     1      24.643  43.787  85.618  1.00  0.00     0.076 A 
ATOM      6  C   UNL     1      24.387  42.450  85.216  1.00  0.00     0.127 A 
ATOM      7  C   UNL     1      25.434  41.653  84.744  1.00  0.00     0.050 A 
ATOM      8  C   UNL     1      23.617  44.634  86.281  1.00  0.00     0.201 C 
ATOM      9  O   UNL     1      22.701  44.095  86.957  1.00  0.00    -0.288 OA
ATOM     10  C   UNL     1      23.782  46.110  86.302  1.00  0.00     0.076 A 
ATOM     11  C   UNL     1      25.080  46.640  86.130  1.00  0.00     0.041 A 
ATOM     12  C   UNL     1      26.205  45.738  85.786  1.00  0.00     0.194 C 
ATOM     13  O   UNL     1      27.386  46.185  85.759  1.00  0.00    -0.289 OA
ATOM     14  C   UNL     1      25.298  48.020  86.282  1.00  0.00     0.059 A 
ATOM     15  C   UNL     1      24.236  48.876  86.586  1.00  0.00     0.120 A 
ATOM     16  C   UNL     1      22.946  48.362  86.716  1.00  0.00     0.093 A 
ATOM     17  C   UNL     1      22.700  46.996  86.550  1.00  0.00     0.131 A 
ENDROOT
BRANCH   6  18
ATOM     18  O   UNL     1      23.109  41.887  85.237  1.00  0.00    -0.507 OA
ATOM     19  H   UNL     1      22.937  40.896  85.334  1.00  0.00     0.293 HD
ENDBRANCH   6  18
BRANCH  17  20
ATOM     20  O   UNL     1      21.371  46.569  86.605  1.00  0.00    -0.507 OA
ATOM     21  H   UNL     1      21.029  45.892  87.273  1.00  0.00     0.293 HD
ENDBRANCH  17  20
BRANCH  15  22
ATOM     22  O   UNL     1      24.450  50.243  86.749  1.00  0.00    -0.508 OA
ATOM     23  H   UNL     1      25.284  50.598  87.202  1.00  0.00     0.293 HD
ENDBRANCH  15  22
TORSDOF 3
ENDMDL
MODEL 2
REMARK VINA RESULT:    -5.860      1.063      1.222
REMARK INTER + INTRA:          -6.374
REMARK INTER:                  -6.374
REMARK INTRA:                   0.000
REMARK UNBOUND:                 0.000
REMARK SMILES Cc1cc(O)c2c(c1)C(=O)c1cc(O)cc(O)c1C2=O
REMARK SMILES IDX 1 1 2 2 8 3 7 4 6 5 4 6 3 7 19 8 20 9 18 10 11 11 9 12 10 13
REMARK SMILES IDX 12 14 13 15 15 16 16 17 5 18 17 20 14 22
REMARK H PARENT 5 19 17 21 14 23
REMARK Flexibility Score: inf
ROOT
ATOM      1  C   UNL     1      26.244  40.896  84.113  1.00  0.00     0.044 C 
ATOM      2  C   UNL     1      25.528  42.117  84.609  1.00  0.00    -0.047 A 
ATOM      3  C   UNL     1      26.237  43.297  84.859  1.00  0.00     0.016 A 
ATOM      4  C   UNL     1      25.583  44.433  85.364  1.00  0.00     0.038 A 
ATOM      5  C   UNL     1      24.201  44.380  85.651  1.00  0.00     0.076 A 
ATOM      6  C   UNL     1      23.478  43.197  85.353  1.00  0.00     0.127 A 
ATOM      7  C   UNL     1      24.154  42.072  84.869  1.00  0.00     0.050 A 
ATOM      8  C   UNL     1      23.578  45.551  86.321  1.00  0.00     0.201 C 
ATOM      9  O   UNL     1      22.592  45.383  87.087  1.00  0.00    -0.288 OA
ATOM     10  C   UNL     1      24.231  46.883  86.237  1.00  0.00     0.076 A 
ATOM     11  C   UNL     1      25.614  46.932  85.950  1.00  0.00     0.041 A 
ATOM     12  C   UNL     1      26.338  45.688  85.595  1.00  0.00     0.194 C 
ATOM     13  O   UNL     1      27.593  45.705  85.464  1.00  0.00    -0.289 OA
ATOM     14  C   UNL     1      26.295  48.161  85.998  1.00  0.00     0.059 A 
ATOM     15  C   UNL     1      25.611  49.338  86.313  1.00  0.00     0.120 A 
ATOM     16  C   UNL     1      24.239  49.300  86.557  1.00  0.00     0.093 A 
ATOM     17  C   UNL     1      23.535  48.093  86.495  1.00  0.00     0.131 A 
ENDROOT
BRANCH   6  18
ATOM     18  O   UNL     1      22.091  43.103  85.491  1.00  0.00    -0.507 OA
ATOM     19  H   UNL     1      21.616  42.269  85.806  1.00  0.00     0.293 HD
ENDBRANCH   6  18
BRANCH  17  20
ATOM     20  O   UNL     1      22.149  48.147  86.661  1.00  0.00    -0.507 OA
ATOM     21  H   UNL     1      21.661  47.710  87.430  1.00  0.00     0.293 HD
ENDBRANCH  17  20
BRANCH  15  22
ATOM     22  O   UNL     1      26.286  50.556  86.374  1.00  0.00    -0.508 OA
ATOM     23  H   UNL     1      25.812  51.412  86.638  1.00  0.00     0.293 HD
ENDBRANCH  15  22
TORSDOF 3
ENDMDL
MODEL 3
REMARK VINA RESULT:    -5.575      2.112      5.524
REMARK INTER + INTRA:          -6.064
REMARK INTER:                  -6.064
REMARK INTRA:                   0.000
REMARK UNBOUND:                 0.000
REMARK SMILES Cc1cc(O)c2c(c1)C(=O)c1cc(O)cc(O)c1C2=O
REMARK SMILES IDX 1 1 2 2 8 3 7 4 6 5 4 6 3 7 19 8 20 9 18 10 11 11 9 12 10 13
REMARK SMILES IDX 12 14 13 15 15 16 16 17 5 18 17 20 14 22
REMARK H PARENT 5 19 17 21 14 23
REMARK Flexibility Score: inf
ROOT
ATOM      1  C   UNL     1      24.660  47.949  89.845  1.00  0.00     0.044 C 
ATOM      2  C   UNL     1      24.433  46.761  88.957  1.00  0.00    -0.047 A 
ATOM      3  C   UNL     1      25.437  46.334  88.081  1.00  0.00     0.016 A 
ATOM      4  C   UNL     1      25.220  45.250  87.215  1.00  0.00     0.038 A 
ATOM      5  C   UNL     1      23.966  44.598  87.205  1.00  0.00     0.076 A 
ATOM      6  C   UNL     1      22.968  45.005  88.127  1.00  0.00     0.127 A 
ATOM      7  C   UNL     1      23.200  46.099  88.965  1.00  0.00     0.050 A 
ATOM      8  C   UNL     1      23.726  43.554  86.174  1.00  0.00     0.201 C 
ATOM      9  O   UNL     1      22.560  43.362  85.737  1.00  0.00    -0.288 OA
ATOM     10  C   UNL     1      24.879  42.877  85.527  1.00  0.00     0.076 A 
ATOM     11  C   UNL     1      26.131  43.533  85.539  1.00  0.00     0.041 A 
ATOM     12  C   UNL     1      26.300  44.785  86.313  1.00  0.00     0.194 C 
ATOM     13  O   UNL     1      27.375  45.442  86.224  1.00  0.00    -0.289 OA
ATOM     14  C   UNL     1      27.211  42.991  84.821  1.00  0.00     0.059 A 
ATOM     15  C   UNL     1      27.060  41.799  84.106  1.00  0.00     0.120 A 
ATOM     16  C   UNL     1      25.838  41.129  84.125  1.00  0.00     0.093 A 
ATOM     17  C   UNL     1      24.755  41.636  84.849  1.00  0.00     0.131 A 
ENDROOT
BRANCH   6  18
ATOM     18  O   UNL     1      21.750  44.336  88.266  1.00  0.00    -0.507 OA
ATOM     19  H   UNL     1      20.963  44.708  88.779  1.00  0.00     0.293 HD
ENDBRANCH   6  18
BRANCH  17  20
ATOM     20  O   UNL     1      23.592  40.863  84.895  1.00  0.00    -0.507 OA
ATOM     21  H   UNL     1      22.779  41.042  84.321  1.00  0.00     0.293 HD
ENDBRANCH  17  20
BRANCH  15  22
ATOM     22  O   UNL     1      28.125  41.266  83.382  1.00  0.00    -0.508 OA
ATOM     23  H   UNL     1      28.307  40.270  83.364  1.00  0.00     0.293 HD
ENDBRANCH  15  22
TORSDOF 3
ENDMDL
MODEL 4
REMARK VINA RESULT:    -5.515      1.575      6.233
REMARK INTER + INTRA:          -5.998
REMARK INTER:                  -5.998
REMARK INTRA:                   0.000
REMARK UNBOUND:                 0.000
REMARK SMILES Cc1cc(O)c2c(c1)C(=O)c1cc(O)cc(O)c1C2=O
REMARK SMILES IDX 1 1 2 2 8 3 7 4 6 5 4 6 3 7 19 8 20 9 18 10 11 11 9 12 10 13
REMARK SMILES IDX 12 14 13 15 15 16 16 17 5 18 17 20 14 22
REMARK H PARENT 5 19 17 21 14 23
REMARK Flexibility Score: inf
ROOT
ATOM      1  C   UNL     1      24.049  49.527  87.279  1.00  0.00     0.044 C 
ATOM      2  C   UNL     1      24.738  48.289  86.784  1.00  0.00    -0.047 A 
ATOM      3  C   UNL     1      24.019  47.098  86.625  1.00  0.00     0.016 A 
ATOM      4  C   UNL     1      24.663  45.924  86.203  1.00  0.00     0.038 A 
ATOM      5  C   UNL     1      26.056  45.931  85.964  1.00  0.00     0.076 A 
ATOM      6  C   UNL     1      26.771  47.151  86.082  1.00  0.00     0.127 A 
ATOM      7  C   UNL     1      26.112  48.303  86.521  1.00  0.00     0.050 A 
ATOM      8  C   UNL     1      26.724  44.638  85.664  1.00  0.00     0.201 C 
ATOM      9  O   UNL     1      27.926  44.461  85.999  1.00  0.00    -0.288 OA
ATOM     10  C   UNL     1      25.924  43.498  85.147  1.00  0.00     0.076 A 
ATOM     11  C   UNL     1      24.532  43.493  85.389  1.00  0.00     0.041 A 
ATOM     12  C   UNL     1      23.888  44.676  86.008  1.00  0.00     0.194 C 
ATOM     13  O   UNL     1      22.672  44.627  86.344  1.00  0.00    -0.289 OA
ATOM     14  C   UNL     1      23.765  42.369  85.038  1.00  0.00     0.059 A 
ATOM     15  C   UNL     1      24.366  41.260  84.436  1.00  0.00     0.120 A 
ATOM     16  C   UNL     1      25.732  41.277  84.158  1.00  0.00     0.093 A 
ATOM     17  C   UNL     1      26.514  42.392  84.479  1.00  0.00     0.131 A 
ENDROOT
BRANCH   6  18
ATOM     18  O   UNL     1      28.121  47.271  85.745  1.00  0.00    -0.507 OA
ATOM     19  H   UNL     1      28.622  46.587  85.195  1.00  0.00     0.293 HD
ENDBRANCH   6  18
BRANCH  17  20
ATOM     20  O   UNL     1      27.855  42.372  84.088  1.00  0.00    -0.507 OA
ATOM     21  H   UNL     1      28.197  42.810  83.244  1.00  0.00     0.293 HD
ENDBRANCH  17  20
BRANCH  15  22
ATOM     22  O   UNL     1      23.611  40.139  84.098  1.00  0.00    -0.508 OA
ATOM     23  H   UNL     1      24.037  39.318  83.686  1.00  0.00     0.293 HD
ENDBRANCH  15  22
TORSDOF 3
ENDMDL
MODEL 5
REMARK VINA RESULT:    -5.475      1.438      6.324
REMARK INTER + INTRA:          -5.956
REMARK INTER:                  -5.956
REMARK INTRA:                   0.000
REMARK UNBOUND:                 0.000
REMARK SMILES Cc1cc(O)c2c(c1)C(=O)c1cc(O)cc(O)c1C2=O
REMARK SMILES IDX 1 1 2 2 8 3 7 4 6 5 4 6 3 7 19 8 20 9 18 10 11 11 9 12 10 13
REMARK SMILES IDX 12 14 13 15 15 16 16 17 5 18 17 20 14 22
REMARK H PARENT 5 19 17 21 14 23
REMARK Flexibility Score: inf
ROOT
ATOM      1  C   UNL     1      21.435  47.975  87.691  1.00  0.00     0.044 C 
ATOM      2  C   UNL     1      22.618  47.227  87.150  1.00  0.00    -0.047 A 
ATOM      3  C   UNL     1      22.512  45.864  86.850  1.00  0.00     0.016 A 
ATOM      4  C   UNL     1      23.625  45.144  86.384  1.00  0.00     0.038 A 
ATOM      5  C   UNL     1      24.873  45.792  86.242  1.00  0.00     0.076 A 
ATOM      6  C   UNL     1      24.964  47.183  86.504  1.00  0.00     0.127 A 
ATOM      7  C   UNL     1      23.847  47.874  86.985  1.00  0.00     0.050 A 
ATOM      8  C   UNL     1      26.057  44.965  85.890  1.00  0.00     0.201 C 
ATOM      9  O   UNL     1      27.201  45.306  86.293  1.00  0.00    -0.288 OA
ATOM     10  C   UNL     1      25.866  43.647  85.232  1.00  0.00     0.076 A 
ATOM     11  C   UNL     1      24.618  43.002  85.376  1.00  0.00     0.041 A 
ATOM     12  C   UNL     1      23.495  43.709  86.039  1.00  0.00     0.194 C 
ATOM     13  O   UNL     1      22.421  43.094  86.285  1.00  0.00    -0.289 OA
ATOM     14  C   UNL     1      24.444  41.697  84.886  1.00  0.00     0.059 A 
ATOM     15  C   UNL     1      25.494  41.035  84.243  1.00  0.00     0.120 A 
ATOM     16  C   UNL     1      26.715  41.683  84.063  1.00  0.00     0.093 A 
ATOM     17  C   UNL     1      26.906  42.990  84.523  1.00  0.00     0.131 A 
ENDROOT
BRANCH   6  18
ATOM     18  O   UNL     1      26.126  47.921  86.272  1.00  0.00    -0.507 OA
ATOM     19  H   UNL     1      26.674  47.849  85.426  1.00  0.00     0.293 HD
ENDBRANCH   6  18
BRANCH  17  20
ATOM     20  O   UNL     1      28.125  43.606  84.225  1.00  0.00    -0.507 OA
ATOM     21  H   UNL     1      28.224  44.348  83.547  1.00  0.00     0.293 HD
ENDBRANCH  17  20
BRANCH  15  22
ATOM     22  O   UNL     1      25.329  39.736  83.768  1.00  0.00    -0.508 OA
ATOM     23  H   UNL     1      25.546  39.491  82.809  1.00  0.00     0.293 HD
ENDBRANCH  15  22
TORSDOF 3
ENDMDL
MODEL 6
REMARK VINA RESULT:    -5.380      2.754      4.450
REMARK INTER + INTRA:          -5.851
REMARK INTER:                  -5.851
REMARK INTRA:                   0.000
REMARK UNBOUND:                 0.000
REMARK SMILES Cc1cc(O)c2c(c1)C(=O)c1cc(O)cc(O)c1C2=O
REMARK SMILES IDX 1 1 2 2 8 3 7 4 6 5 4 6 3 7 19 8 20 9 18 10 11 11 9 12 10 13
REMARK SMILES IDX 12 14 13 15 15 16 16 17 5 18 17 20 14 22
REMARK H PARENT 5 19 17 21 14 23
REMARK Flexibility Score: inf
ROOT
ATOM      1  C   UNL     1      27.898  41.252  83.741  1.00  0.00     0.044 C 
ATOM      2  C   UNL     1      27.205  42.052  84.805  1.00  0.00    -0.047 A 
ATOM      3  C   UNL     1      25.850  41.837  85.078  1.00  0.00     0.016 A 
ATOM      4  C   UNL     1      25.181  42.609  86.042  1.00  0.00     0.038 A 
ATOM      5  C   UNL     1      25.873  43.634  86.726  1.00  0.00     0.076 A 
ATOM      6  C   UNL     1      27.258  43.817  86.479  1.00  0.00     0.127 A 
ATOM      7  C   UNL     1      27.897  43.049  85.501  1.00  0.00     0.050 A 
ATOM      8  C   UNL     1      25.096  44.524  87.628  1.00  0.00     0.201 C 
ATOM      9  O   UNL     1      25.462  45.718  87.797  1.00  0.00    -0.288 OA
ATOM     10  C   UNL     1      23.794  44.065  88.175  1.00  0.00     0.076 A 
ATOM     11  C   UNL     1      23.104  43.041  87.487  1.00  0.00     0.041 A 
ATOM     12  C   UNL     1      23.754  42.353  86.346  1.00  0.00     0.194 C 
ATOM     13  O   UNL     1      23.097  41.529  85.650  1.00  0.00    -0.289 OA
ATOM     14  C   UNL     1      21.809  42.675  87.893  1.00  0.00     0.059 A 
ATOM     15  C   UNL     1      21.202  43.308  88.981  1.00  0.00     0.120 A 
ATOM     16  C   UNL     1      21.895  44.291  89.686  1.00  0.00     0.093 A 
ATOM     17  C   UNL     1      23.193  44.658  89.316  1.00  0.00     0.131 A 
ENDROOT
BRANCH   6  18
ATOM     18  O   UNL     1      28.040  44.723  87.199  1.00  0.00    -0.507 OA
ATOM     19  H   UNL     1      28.768  44.444  87.842  1.00  0.00     0.293 HD
ENDBRANCH   6  18
BRANCH  17  20
ATOM     20  O   UNL     1      23.856  45.584  90.125  1.00  0.00    -0.507 OA
ATOM     21  H   UNL     1      23.539  46.533  90.263  1.00  0.00     0.293 HD
ENDBRANCH  17  20
BRANCH  15  22
ATOM     22  O   UNL     1      19.914  42.958  89.378  1.00  0.00    -0.508 OA
ATOM     23  H   UNL     1      19.744  42.170  89.992  1.00  0.00     0.293 HD
ENDBRANCH  15  22
TORSDOF 3
ENDMDL
MODEL 7
REMARK VINA RESULT:    -5.195      1.580      5.473
REMARK INTER + INTRA:          -5.650
REMARK INTER:                  -5.650
REMARK INTRA:                   0.000
REMARK UNBOUND:                 0.000
REMARK SMILES Cc1cc(O)c2c(c1)C(=O)c1cc(O)cc(O)c1C2=O
REMARK SMILES IDX 1 1 2 2 8 3 7 4 6 5 4 6 3 7 19 8 20 9 18 10 11 11 9 12 10 13
REMARK SMILES IDX 12 14 13 15 15 16 16 17 5 18 17 20 14 22
REMARK H PARENT 5 19 17 21 14 23
REMARK Flexibility Score: inf
ROOT
ATOM      1  C   UNL     1      27.010  49.719  87.030  1.00  0.00     0.044 C 
ATOM      2  C   UNL     1      26.302  48.402  86.893  1.00  0.00    -0.047 A 
ATOM      3  C   UNL     1      26.774  47.439  85.996  1.00  0.00     0.016 A 
ATOM      4  C   UNL     1      26.095  46.221  85.829  1.00  0.00     0.038 A 
ATOM      5  C   UNL     1      24.906  45.973  86.552  1.00  0.00     0.076 A 
ATOM      6  C   UNL     1      24.457  46.934  87.494  1.00  0.00     0.127 A 
ATOM      7  C   UNL     1      25.139  48.147  87.629  1.00  0.00     0.050 A 
ATOM      8  C   UNL     1      24.138  44.740  86.239  1.00  0.00     0.201 C 
ATOM      9  O   UNL     1      22.886  44.729  86.378  1.00  0.00    -0.288 OA
ATOM     10  C   UNL     1      24.820  43.592  85.586  1.00  0.00     0.076 A 
ATOM     11  C   UNL     1      26.008  43.844  84.863  1.00  0.00     0.041 A 
ATOM     12  C   UNL     1      26.620  45.193  84.899  1.00  0.00     0.194 C 
ATOM     13  O   UNL     1      27.606  45.458  84.155  1.00  0.00    -0.289 OA
ATOM     14  C   UNL     1      26.605  42.812  84.119  1.00  0.00     0.059 A 
ATOM     15  C   UNL     1      26.041  41.534  84.100  1.00  0.00     0.120 A 
ATOM     16  C   UNL     1      24.892  41.272  84.844  1.00  0.00     0.093 A 
ATOM     17  C   UNL     1      24.290  42.275  85.609  1.00  0.00     0.131 A 
ENDROOT
BRANCH   6  18
ATOM     18  O   UNL     1      23.364  46.714  88.335  1.00  0.00    -0.507 OA
ATOM     19  H   UNL     1      23.409  46.791  89.342  1.00  0.00     0.293 HD
ENDBRANCH   6  18
BRANCH  17  20
ATOM     20  O   UNL     1      23.195  41.914  86.399  1.00  0.00    -0.507 OA
ATOM     21  H   UNL     1      22.670  41.061  86.269  1.00  0.00     0.293 HD
ENDBRANCH  17  20
BRANCH  15  22
ATOM     22  O   UNL     1      26.623  40.512  83.352  1.00  0.00    -0.508 OA
ATOM     23  H   UNL     1      26.906  39.638  83.780  1.00  0.00     0.293 HD
ENDBRANCH  15  22
TORSDOF 3
ENDMDL
MODEL 8
REMARK VINA RESULT:    -5.177      1.584      3.440
REMARK INTER + INTRA:          -5.631
REMARK INTER:                  -5.631
REMARK INTRA:                   0.000
REMARK UNBOUND:                 0.000
REMARK SMILES Cc1cc(O)c2c(c1)C(=O)c1cc(O)cc(O)c1C2=O
REMARK SMILES IDX 1 1 2 2 8 3 7 4 6 5 4 6 3 7 19 8 20 9 18 10 11 11 9 12 10 13
REMARK SMILES IDX 12 14 13 15 15 16 16 17 5 18 17 20 14 22
REMARK H PARENT 5 19 17 21 14 23
REMARK Flexibility Score: inf
ROOT
ATOM      1  C   UNL     1      23.676  40.539  84.157  1.00  0.00     0.044 C 
ATOM      2  C   UNL     1      24.429  41.767  84.576  1.00  0.00    -0.047 A 
ATOM      3  C   UNL     1      23.785  42.775  85.302  1.00  0.00     0.016 A 
ATOM      4  C   UNL     1      24.469  43.948  85.661  1.00  0.00     0.038 A 
ATOM      5  C   UNL     1      25.813  44.129  85.264  1.00  0.00     0.076 A 
ATOM      6  C   UNL     1      26.475  43.084  84.568  1.00  0.00     0.127 A 
ATOM      7  C   UNL     1      25.767  41.934  84.205  1.00  0.00     0.050 A 
ATOM      8  C   UNL     1      26.455  45.442  85.534  1.00  0.00     0.201 C 
ATOM      9  O   UNL     1      27.353  45.871  84.762  1.00  0.00    -0.288 OA
ATOM     10  C   UNL     1      25.907  46.325  86.596  1.00  0.00     0.076 A 
ATOM     11  C   UNL     1      24.563  46.143  86.990  1.00  0.00     0.041 A 
ATOM     12  C   UNL     1      23.788  44.996  86.457  1.00  0.00     0.194 C 
ATOM     13  O   UNL     1      22.553  44.901  86.704  1.00  0.00    -0.289 OA
ATOM     14  C   UNL     1      23.968  47.045  87.889  1.00  0.00     0.059 A 
ATOM     15  C   UNL     1      24.702  48.114  88.409  1.00  0.00     0.120 A 
ATOM     16  C   UNL     1      26.041  48.275  88.054  1.00  0.00     0.093 A 
ATOM     17  C   UNL     1      26.661  47.379  87.177  1.00  0.00     0.131 A 
ENDROOT
BRANCH   6  18
ATOM     18  O   UNL     1      27.833  43.132  84.248  1.00  0.00    -0.507 OA
ATOM     19  H   UNL     1      28.538  43.521  84.859  1.00  0.00     0.293 HD
ENDBRANCH   6  18
BRANCH  17  20
ATOM     20  O   UNL     1      28.027  47.551  86.940  1.00  0.00    -0.507 OA
ATOM     21  H   UNL     1      28.488  47.255  86.090  1.00  0.00     0.293 HD
ENDBRANCH  17  20
BRANCH  15  22
ATOM     22  O   UNL     1      24.112  49.018  89.290  1.00  0.00    -0.508 OA
ATOM     23  H   UNL     1      23.760  48.724  90.194  1.00  0.00     0.293 HD
ENDBRANCH  15  22
TORSDOF 3
ENDMDL
MODEL 9
REMARK VINA RESULT:    -5.114      2.229      2.451
REMARK INTER + INTRA:          -5.563
REMARK INTER:                  -5.563
REMARK INTRA:                   0.000
REMARK UNBOUND:                 0.000
REMARK SMILES Cc1cc(O)c2c(c1)C(=O)c1cc(O)cc(O)c1C2=O
REMARK SMILES IDX 1 1 2 2 8 3 7 4 6 5 4 6 3 7 19 8 20 9 18 10 11 11 9 12 10 13
REMARK SMILES IDX 12 14 13 15 15 16 16 17 5 18 17 20 14 22
REMARK H PARENT 5 19 17 21 14 23
REMARK Flexibility Score: inf
ROOT
ATOM      1  C   UNL     1      25.869  40.498  83.750  1.00  0.00     0.044 C 
ATOM      2  C   UNL     1      25.297  41.576  84.623  1.00  0.00    -0.047 A 
ATOM      3  C   UNL     1      26.126  42.293  85.493  1.00  0.00     0.016 A 
ATOM      4  C   UNL     1      25.593  43.274  86.345  1.00  0.00     0.038 A 
ATOM      5  C   UNL     1      24.202  43.523  86.349  1.00  0.00     0.076 A 
ATOM      6  C   UNL     1      23.373  42.826  85.433  1.00  0.00     0.127 A 
ATOM      7  C   UNL     1      23.923  41.840  84.608  1.00  0.00     0.050 A 
ATOM      8  C   UNL     1      23.659  44.460  87.367  1.00  0.00     0.201 C 
ATOM      9  O   UNL     1      22.488  44.303  87.802  1.00  0.00    -0.288 OA
ATOM     10  C   UNL     1      24.557  45.458  88.003  1.00  0.00     0.076 A 
ATOM     11  C   UNL     1      25.947  45.206  87.998  1.00  0.00     0.041 A 
ATOM     12  C   UNL     1      26.484  44.050  87.240  1.00  0.00     0.194 C 
ATOM     13  O   UNL     1      27.705  43.745  87.336  1.00  0.00    -0.289 OA
ATOM     14  C   UNL     1      26.815  46.053  88.708  1.00  0.00     0.059 A 
ATOM     15  C   UNL     1      26.315  47.155  89.408  1.00  0.00     0.120 A 
ATOM     16  C   UNL     1      24.948  47.430  89.382  1.00  0.00     0.093 A 
ATOM     17  C   UNL     1      24.067  46.614  88.666  1.00  0.00     0.131 A 
ENDROOT
BRANCH   6  18
ATOM     18  O   UNL     1      22.011  43.100  85.287  1.00  0.00    -0.507 OA
ATOM     19  H   UNL     1      21.340  43.010  86.037  1.00  0.00     0.293 HD
ENDBRANCH   6  18
BRANCH  17  20
ATOM     20  O   UNL     1      22.727  47.006  88.611  1.00  0.00    -0.507 OA
ATOM     21  H   UNL     1      22.183  47.252  89.427  1.00  0.00     0.293 HD
ENDBRANCH  17  20
BRANCH  15  22
ATOM     22  O   UNL     1      27.170  47.989  90.124  1.00  0.00    -0.508 OA
ATOM     23  H   UNL     1      27.725  48.701  89.663  1.00  0.00     0.293 HD
ENDBRANCH  15  22
TORSDOF 3
ENDMDL
