MODEL 1
REMARK VINA RESULT:    26.189      0.000      0.000
REMARK INTER + INTRA:          32.322
REMARK INTER:                  32.313
REMARK INTRA:                   0.009
REMARK UNBOUND:                 0.009
REMARK SMILES Oc1cc(O)c2cc(O)c(-c3cc(O)c(O)c(O)c3)[o+]c2c1
REMARK SMILES IDX 10 1 20 2 21 3 22 4 2 5 3 6 4 7 6 8 7 9 8 10 11 11 12 12
REMARK SMILES IDX 13 13 19 14 15 15 17 16 14 17 16 19 18 21 9 23 1 25 5 27
REMARK H PARENT 14 18 16 20 18 22 9 24 1 26 5 28
REMARK Flexibility Score: inf
ROOT
ATOM      1  C   UNL     1     -10.394   8.441  19.213  1.00  0.00     0.402 A 
ATOM      2  O   UNL     1     -11.027   9.386  18.522  1.00  0.00    -0.202 OA
ATOM      3  C   UNL     1     -10.472  10.550  18.201  1.00  0.00     0.368 A 
ATOM      4  C   UNL     1     -11.216  11.480  17.471  1.00  0.00     0.162 A 
ATOM      5  C   UNL     1     -10.657  12.711  17.118  1.00  0.00     0.128 A 
ATOM      6  C   UNL     1      -9.346  13.014  17.497  1.00  0.00     0.093 A 
ATOM      7  C   UNL     1      -8.579  12.099  18.229  1.00  0.00     0.136 A 
ATOM      8  C   UNL     1      -9.145  10.849  18.593  1.00  0.00     0.125 A 
ATOM      9  C   UNL     1      -8.455   9.877  19.337  1.00  0.00     0.078 A 
ATOM     10  C   UNL     1      -9.080   8.670  19.661  1.00  0.00     0.223 A 
ENDROOT
BRANCH   1  11
ATOM     11  C   UNL     1     -11.116   7.181  19.499  1.00  0.00     0.091 A 
ATOM     12  C   UNL     1     -11.106   6.605  20.781  1.00  0.00     0.068 A 
ATOM     13  C   UNL     1     -11.778   5.400  21.025  1.00  0.00     0.162 A 
ATOM     14  C   UNL     1     -11.780   6.513  18.457  1.00  0.00     0.068 A 
ATOM     15  C   UNL     1     -12.456   4.752  19.987  1.00  0.00     0.200 A 
ATOM     16  C   UNL     1     -12.455   5.308  18.696  1.00  0.00     0.162 A 
BRANCH  13  17
ATOM     17  O   UNL     1     -11.770   4.837  22.301  1.00  0.00    -0.504 OA
ATOM     18  H   UNL     1     -11.453   3.888  22.460  1.00  0.00     0.293 HD
ENDBRANCH  13  17
BRANCH  15  19
ATOM     19  O   UNL     1     -13.123   3.555  20.250  1.00  0.00    -0.502 OA
ATOM     20  H   UNL     1     -13.953   3.516  20.830  1.00  0.00     0.293 HD
ENDBRANCH  15  19
BRANCH  16  21
ATOM     21  O   UNL     1     -13.123   4.663  17.657  1.00  0.00    -0.504 OA
ATOM     22  H   UNL     1     -13.051   3.661  17.520  1.00  0.00     0.293 HD
ENDBRANCH  16  21
ENDBRANCH   1  11
BRANCH  10  23
ATOM     23  O   UNL     1      -8.414   7.725  20.443  1.00  0.00    -0.500 OA
ATOM     24  H   UNL     1      -8.877   6.889  20.777  1.00  0.00     0.294 HD
ENDBRANCH  10  23
BRANCH   5  25
ATOM     25  O   UNL     1     -11.393  13.643  16.389  1.00  0.00    -0.507 OA
ATOM     26  H   UNL     1     -11.395  14.626  16.637  1.00  0.00     0.293 HD
ENDBRANCH   5  25
BRANCH   7  27
ATOM     27  O   UNL     1      -7.277  12.477  18.566  1.00  0.00    -0.507 OA
ATOM     28  H   UNL     1      -6.865  13.371  18.336  1.00  0.00     0.293 HD
ENDBRANCH   7  27
TORSDOF 7
ENDMDL
MODEL 2
REMARK VINA RESULT:    26.735     12.846     14.918
REMARK INTER + INTRA:          32.996
REMARK INTER:                  32.626
REMARK INTRA:                   0.371
REMARK UNBOUND:                 0.009
REMARK SMILES Oc1cc(O)c2cc(O)c(-c3cc(O)c(O)c(O)c3)[o+]c2c1
REMARK SMILES IDX 10 1 20 2 21 3 22 4 2 5 3 6 4 7 6 8 7 9 8 10 11 11 12 12
REMARK SMILES IDX 13 13 19 14 15 15 17 16 14 17 16 19 18 21 9 23 1 25 5 27
REMARK H PARENT 14 18 16 20 18 22 9 24 1 26 5 28
REMARK Flexibility Score: inf
ROOT
ATOM      1  C   UNL     1      -5.552  -2.402  12.942  1.00  0.00     0.402 A 
ATOM      2  O   UNL     1      -6.120  -2.911  14.031  1.00  0.00    -0.202 OA
ATOM      3  C   UNL     1      -7.436  -2.953  14.217  1.00  0.00     0.368 A 
ATOM      4  C   UNL     1      -7.939  -3.511  15.394  1.00  0.00     0.162 A 
ATOM      5  C   UNL     1      -9.318  -3.570  15.614  1.00  0.00     0.128 A 
ATOM      6  C   UNL     1     -10.198  -3.070  14.651  1.00  0.00     0.093 A 
ATOM      7  C   UNL     1      -9.718  -2.506  13.462  1.00  0.00     0.136 A 
ATOM      8  C   UNL     1      -8.319  -2.441  13.237  1.00  0.00     0.125 A 
ATOM      9  C   UNL     1      -7.748  -1.881  12.081  1.00  0.00     0.078 A 
ATOM     10  C   UNL     1      -6.359  -1.848  11.930  1.00  0.00     0.223 A 
ENDROOT
BRANCH   1  11
ATOM     11  C   UNL     1      -4.075  -2.422  12.848  1.00  0.00     0.091 A 
ATOM     12  C   UNL     1      -3.302  -3.280  13.650  1.00  0.00     0.068 A 
ATOM     13  C   UNL     1      -1.903  -3.268  13.562  1.00  0.00     0.162 A 
ATOM     14  C   UNL     1      -3.425  -1.529  11.982  1.00  0.00     0.068 A 
ATOM     15  C   UNL     1      -1.263  -2.389  12.679  1.00  0.00     0.200 A 
ATOM     16  C   UNL     1      -2.026  -1.513  11.888  1.00  0.00     0.162 A 
BRANCH  13  17
ATOM     17  O   UNL     1      -1.142  -4.125  14.354  1.00  0.00    -0.504 OA
ATOM     18  H   UNL     1      -0.377  -4.666  13.969  1.00  0.00     0.293 HD
ENDBRANCH  13  17
BRANCH  15  19
ATOM     19  O   UNL     1       0.130  -2.395  12.602  1.00  0.00    -0.502 OA
ATOM     20  H   UNL     1       0.625  -2.800  11.816  1.00  0.00     0.293 HD
ENDBRANCH  15  19
BRANCH  16  21
ATOM     21  O   UNL     1      -1.394  -0.632  11.014  1.00  0.00    -0.504 OA
ATOM     22  H   UNL     1      -0.583  -0.093  11.297  1.00  0.00     0.293 HD
ENDBRANCH  16  21
ENDBRANCH   1  11
BRANCH  10  23
ATOM     23  O   UNL     1      -5.791  -1.248  10.807  1.00  0.00    -0.500 OA
ATOM     24  H   UNL     1      -4.935  -1.596  10.393  1.00  0.00     0.294 HD
ENDBRANCH  10  23
BRANCH   5  25
ATOM     25  O   UNL     1      -9.828  -4.125  16.786  1.00  0.00    -0.507 OA
ATOM     26  H   UNL     1     -10.120  -3.544  17.563  1.00  0.00     0.293 HD
ENDBRANCH   5  25
BRANCH   7  27
ATOM     27  O   UNL     1     -10.664  -2.030  12.549  1.00  0.00    -0.507 OA
ATOM     28  H   UNL     1     -11.652  -1.946  12.744  1.00  0.00     0.293 HD
ENDBRANCH   7  27
TORSDOF 7
ENDMDL
MODEL 3
REMARK VINA RESULT:    27.573      5.048      8.443
REMARK INTER + INTRA:          34.030
REMARK INTER:                  34.343
REMARK INTRA:                  -0.313
REMARK UNBOUND:                 0.009
REMARK SMILES Oc1cc(O)c2cc(O)c(-c3cc(O)c(O)c(O)c3)[o+]c2c1
REMARK SMILES IDX 10 1 20 2 21 3 22 4 2 5 3 6 4 7 6 8 7 9 8 10 11 11 12 12
REMARK SMILES IDX 13 13 19 14 15 15 17 16 14 17 16 19 18 21 9 23 1 25 5 27
REMARK H PARENT 14 18 16 20 18 22 9 24 1 26 5 28
REMARK Flexibility Score: inf
ROOT
ATOM      1  C   UNL     1      -6.078   7.573  16.790  1.00  0.00     0.402 A 
ATOM      2  O   UNL     1      -6.690   7.068  15.722  1.00  0.00    -0.202 OA
ATOM      3  C   UNL     1      -6.741   5.766  15.458  1.00  0.00     0.368 A 
ATOM      4  C   UNL     1      -7.410   5.330  14.312  1.00  0.00     0.162 A 
ATOM      5  C   UNL     1      -7.481   3.967  14.011  1.00  0.00     0.128 A 
ATOM      6  C   UNL     1      -6.880   3.036  14.860  1.00  0.00     0.093 A 
ATOM      7  C   UNL     1      -6.202   3.447  16.016  1.00  0.00     0.136 A 
ATOM      8  C   UNL     1      -6.126   4.830  16.323  1.00  0.00     0.125 A 
ATOM      9  C   UNL     1      -5.457   5.334  17.451  1.00  0.00     0.078 A 
ATOM     10  C   UNL     1      -5.420   6.711  17.686  1.00  0.00     0.223 A 
ENDROOT
BRANCH   1  11
ATOM     11  C   UNL     1      -6.100   9.041  16.980  1.00  0.00     0.091 A 
ATOM     12  C   UNL     1      -7.265   9.708  17.398  1.00  0.00     0.068 A 
ATOM     13  C   UNL     1      -7.271  11.101  17.550  1.00  0.00     0.162 A 
ATOM     14  C   UNL     1      -4.953   9.794  16.683  1.00  0.00     0.068 A 
ATOM     15  C   UNL     1      -6.116  11.842  17.274  1.00  0.00     0.200 A 
ATOM     16  C   UNL     1      -4.953  11.187  16.835  1.00  0.00     0.162 A 
BRANCH  13  17
ATOM     17  O   UNL     1      -8.427  11.757  17.971  1.00  0.00    -0.504 OA
ATOM     18  H   UNL     1      -8.628  12.710  17.694  1.00  0.00     0.293 HD
ENDBRANCH  13  17
BRANCH  15  19
ATOM     19  O   UNL     1      -6.140  13.228  17.435  1.00  0.00    -0.502 OA
ATOM     20  H   UNL     1      -5.918  13.672  18.318  1.00  0.00     0.293 HD
ENDBRANCH  15  19
BRANCH  16  21
ATOM     21  O   UNL     1      -3.803  11.922  16.551  1.00  0.00    -0.504 OA
ATOM     22  H   UNL     1      -2.932  11.754  17.041  1.00  0.00     0.293 HD
ENDBRANCH  16  21
ENDBRANCH   1  11
BRANCH  10  23
ATOM     23  O   UNL     1      -4.714   7.215  18.779  1.00  0.00    -0.500 OA
ATOM     24  H   UNL     1      -3.856   7.741  18.662  1.00  0.00     0.294 HD
ENDBRANCH  10  23
BRANCH   5  25
ATOM     25  O   UNL     1      -8.147   3.525  12.870  1.00  0.00    -0.507 OA
ATOM     26  H   UNL     1      -9.106   3.201  12.909  1.00  0.00     0.293 HD
ENDBRANCH   5  25
BRANCH   7  27
ATOM     27  O   UNL     1      -5.631   2.452  16.814  1.00  0.00    -0.507 OA
ATOM     28  H   UNL     1      -5.897   2.266  17.771  1.00  0.00     0.293 HD
ENDBRANCH   7  27
TORSDOF 7
ENDMDL
MODEL 4
REMARK VINA RESULT:    27.594      5.085      8.493
REMARK INTER + INTRA:          34.056
REMARK INTER:                  34.372
REMARK INTRA:                  -0.316
REMARK UNBOUND:                 0.009
REMARK SMILES Oc1cc(O)c2cc(O)c(-c3cc(O)c(O)c(O)c3)[o+]c2c1
REMARK SMILES IDX 10 1 20 2 21 3 22 4 2 5 3 6 4 7 6 8 7 9 8 10 11 11 12 12
REMARK SMILES IDX 13 13 19 14 15 15 17 16 14 17 16 19 18 21 9 23 1 25 5 27
REMARK H PARENT 14 18 16 20 18 22 9 24 1 26 5 28
REMARK Flexibility Score: inf
ROOT
ATOM      1  C   UNL     1      -6.029   7.533  16.732  1.00  0.00     0.402 A 
ATOM      2  O   UNL     1      -6.650   7.025  15.670  1.00  0.00    -0.202 OA
ATOM      3  C   UNL     1      -6.741   5.720  15.434  1.00  0.00     0.368 A 
ATOM      4  C   UNL     1      -7.416   5.282  14.292  1.00  0.00     0.162 A 
ATOM      5  C   UNL     1      -7.529   3.916  14.020  1.00  0.00     0.128 A 
ATOM      6  C   UNL     1      -6.966   2.984  14.896  1.00  0.00     0.093 A 
ATOM      7  C   UNL     1      -6.285   3.398  16.047  1.00  0.00     0.136 A 
ATOM      8  C   UNL     1      -6.164   4.784  16.325  1.00  0.00     0.125 A 
ATOM      9  C   UNL     1      -5.489   5.291  17.447  1.00  0.00     0.078 A 
ATOM     10  C   UNL     1      -5.407   6.671  17.653  1.00  0.00     0.223 A 
ENDROOT
BRANCH   1  11
ATOM     11  C   UNL     1      -6.004   9.006  16.890  1.00  0.00     0.091 A 
ATOM     12  C   UNL     1      -4.841   9.751  16.628  1.00  0.00     0.068 A 
ATOM     13  C   UNL     1      -4.832  11.141  16.805  1.00  0.00     0.162 A 
ATOM     14  C   UNL     1      -7.146   9.669  17.365  1.00  0.00     0.068 A 
ATOM     15  C   UNL     1      -5.983  11.798  17.258  1.00  0.00     0.200 A 
ATOM     16  C   UNL     1      -7.144  11.060  17.542  1.00  0.00     0.162 A 
BRANCH  13  17
ATOM     17  O   UNL     1      -3.678  11.876  16.538  1.00  0.00    -0.504 OA
ATOM     18  H   UNL     1      -2.786  11.632  16.950  1.00  0.00     0.293 HD
ENDBRANCH  13  17
BRANCH  15  19
ATOM     19  O   UNL     1      -5.956  13.183  17.424  1.00  0.00    -0.502 OA
ATOM     20  H   UNL     1      -5.657  13.809  16.686  1.00  0.00     0.293 HD
ENDBRANCH  15  19
BRANCH  16  21
ATOM     21  O   UNL     1      -8.289  11.708  18.001  1.00  0.00    -0.504 OA
ATOM     22  H   UNL     1      -8.934  12.161  17.363  1.00  0.00     0.293 HD
ENDBRANCH  16  21
ENDBRANCH   1  11
BRANCH  10  23
ATOM     23  O   UNL     1      -4.693   7.175  18.740  1.00  0.00    -0.500 OA
ATOM     24  H   UNL     1      -5.049   7.939  19.302  1.00  0.00     0.294 HD
ENDBRANCH  10  23
BRANCH   5  25
ATOM     25  O   UNL     1      -8.201   3.471  12.884  1.00  0.00    -0.507 OA
ATOM     26  H   UNL     1      -8.776   4.095  12.330  1.00  0.00     0.293 HD
ENDBRANCH   5  25
BRANCH   7  27
ATOM     27  O   UNL     1      -5.753   2.403  16.872  1.00  0.00    -0.507 OA
ATOM     28  H   UNL     1      -4.786   2.360  17.163  1.00  0.00     0.293 HD
ENDBRANCH   7  27
TORSDOF 7
ENDMDL
MODEL 5
REMARK VINA RESULT:    27.637      4.663      5.288
REMARK INTER + INTRA:          34.109
REMARK INTER:                  34.477
REMARK INTRA:                  -0.368
REMARK UNBOUND:                 0.009
REMARK SMILES Oc1cc(O)c2cc(O)c(-c3cc(O)c(O)c(O)c3)[o+]c2c1
REMARK SMILES IDX 10 1 20 2 21 3 22 4 2 5 3 6 4 7 6 8 7 9 8 10 11 11 12 12
REMARK SMILES IDX 13 13 19 14 15 15 17 16 14 17 16 19 18 21 9 23 1 25 5 27
REMARK H PARENT 14 18 16 20 18 22 9 24 1 26 5 28
REMARK Flexibility Score: inf
ROOT
ATOM      1  C   UNL     1      -6.257   8.035  16.645  1.00  0.00     0.402 A 
ATOM      2  O   UNL     1      -7.380   8.669  16.970  1.00  0.00    -0.202 OA
ATOM      3  C   UNL     1      -7.436   9.974  17.220  1.00  0.00     0.368 A 
ATOM      4  C   UNL     1      -8.664  10.551  17.551  1.00  0.00     0.162 A 
ATOM      5  C   UNL     1      -8.752  11.921  17.816  1.00  0.00     0.128 A 
ATOM      6  C   UNL     1      -7.606  12.716  17.749  1.00  0.00     0.093 A 
ATOM      7  C   UNL     1      -6.362  12.162  17.419  1.00  0.00     0.136 A 
ATOM      8  C   UNL     1      -6.268  10.771  17.152  1.00  0.00     0.125 A 
ATOM      9  C   UNL     1      -5.063  10.127  16.827  1.00  0.00     0.078 A 
ATOM     10  C   UNL     1      -5.047   8.751  16.582  1.00  0.00     0.223 A 
ENDROOT
BRANCH   1  11
ATOM     11  C   UNL     1      -6.326   6.580  16.380  1.00  0.00     0.091 A 
ATOM     12  C   UNL     1      -6.028   5.638  17.380  1.00  0.00     0.068 A 
ATOM     13  C   UNL     1      -6.078   4.265  17.102  1.00  0.00     0.162 A 
ATOM     14  C   UNL     1      -6.641   6.128  15.089  1.00  0.00     0.068 A 
ATOM     15  C   UNL     1      -6.415   3.821  15.817  1.00  0.00     0.200 A 
ATOM     16  C   UNL     1      -6.694   4.756  14.805  1.00  0.00     0.162 A 
BRANCH  13  17
ATOM     17  O   UNL     1      -5.788   3.335  18.099  1.00  0.00    -0.504 OA
ATOM     18  H   UNL     1      -5.103   2.602  17.958  1.00  0.00     0.293 HD
ENDBRANCH  13  17
BRANCH  15  19
ATOM     19  O   UNL     1      -6.463   2.451  15.560  1.00  0.00    -0.502 OA
ATOM     20  H   UNL     1      -5.656   1.851  15.683  1.00  0.00     0.293 HD
ENDBRANCH  15  19
BRANCH  16  21
ATOM     21  O   UNL     1      -7.022   4.319  13.523  1.00  0.00    -0.504 OA
ATOM     22  H   UNL     1      -6.580   3.506  13.110  1.00  0.00     0.293 HD
ENDBRANCH  16  21
ENDBRANCH   1  11
BRANCH  10  23
ATOM     23  O   UNL     1      -3.843   8.103  16.308  1.00  0.00    -0.500 OA
ATOM     24  H   UNL     1      -3.788   7.341  15.644  1.00  0.00     0.294 HD
ENDBRANCH  10  23
BRANCH   5  25
ATOM     25  O   UNL     1      -9.973  12.504  18.147  1.00  0.00    -0.507 OA
ATOM     26  H   UNL     1     -10.616  12.826  17.433  1.00  0.00     0.293 HD
ENDBRANCH   5  25
BRANCH   7  27
ATOM     27  O   UNL     1      -5.265  13.027  17.370  1.00  0.00    -0.507 OA
ATOM     28  H   UNL     1      -4.642  13.113  16.580  1.00  0.00     0.293 HD
ENDBRANCH   7  27
TORSDOF 7
ENDMDL
MODEL 6
REMARK VINA RESULT:    27.969      5.373      9.029
REMARK INTER + INTRA:          34.518
REMARK INTER:                  34.898
REMARK INTRA:                  -0.380
REMARK UNBOUND:                 0.009
REMARK SMILES Oc1cc(O)c2cc(O)c(-c3cc(O)c(O)c(O)c3)[o+]c2c1
REMARK SMILES IDX 10 1 20 2 21 3 22 4 2 5 3 6 4 7 6 8 7 9 8 10 11 11 12 12
REMARK SMILES IDX 13 13 19 14 15 15 17 16 14 17 16 19 18 21 9 23 1 25 5 27
REMARK H PARENT 14 18 16 20 18 22 9 24 1 26 5 28
REMARK Flexibility Score: inf
ROOT
ATOM      1  C   UNL     1      -6.190   7.325  15.977  1.00  0.00     0.402 A 
ATOM      2  O   UNL     1      -5.963   6.332  16.833  1.00  0.00    -0.202 OA
ATOM      3  C   UNL     1      -6.136   5.051  16.527  1.00  0.00     0.368 A 
ATOM      4  C   UNL     1      -5.869   4.078  17.493  1.00  0.00     0.162 A 
ATOM      5  C   UNL     1      -6.040   2.723  17.198  1.00  0.00     0.128 A 
ATOM      6  C   UNL     1      -6.480   2.339  15.929  1.00  0.00     0.093 A 
ATOM      7  C   UNL     1      -6.755   3.294  14.942  1.00  0.00     0.136 A 
ATOM      8  C   UNL     1      -6.586   4.671  15.239  1.00  0.00     0.125 A 
ATOM      9  C   UNL     1      -6.849   5.698  14.318  1.00  0.00     0.078 A 
ATOM     10  C   UNL     1      -6.663   7.034  14.684  1.00  0.00     0.223 A 
ENDROOT
BRANCH   1  11
ATOM     11  C   UNL     1      -5.949   8.713  16.434  1.00  0.00     0.091 A 
ATOM     12  C   UNL     1      -6.969   9.475  17.030  1.00  0.00     0.068 A 
ATOM     13  C   UNL     1      -6.727  10.794  17.435  1.00  0.00     0.162 A 
ATOM     14  C   UNL     1      -4.694   9.303  16.220  1.00  0.00     0.068 A 
ATOM     15  C   UNL     1      -5.465  11.369  17.238  1.00  0.00     0.200 A 
ATOM     16  C   UNL     1      -4.445  10.622  16.625  1.00  0.00     0.162 A 
BRANCH  13  17
ATOM     17  O   UNL     1      -7.740  11.544  18.031  1.00  0.00    -0.504 OA
ATOM     18  H   UNL     1      -8.644  11.140  18.245  1.00  0.00     0.293 HD
ENDBRANCH  13  17
BRANCH  15  19
ATOM     19  O   UNL     1      -5.242  12.682  17.652  1.00  0.00    -0.502 OA
ATOM     20  H   UNL     1      -4.483  13.242  17.282  1.00  0.00     0.293 HD
ENDBRANCH  15  19
BRANCH  16  21
ATOM     21  O   UNL     1      -3.190  11.191  16.419  1.00  0.00    -0.504 OA
ATOM     22  H   UNL     1      -2.573  11.410  17.193  1.00  0.00     0.293 HD
ENDBRANCH  16  21
ENDBRANCH   1  11
BRANCH  10  23
ATOM     23  O   UNL     1      -6.973   8.055  13.786  1.00  0.00    -0.500 OA
ATOM     24  H   UNL     1      -6.561   8.095  12.861  1.00  0.00     0.294 HD
ENDBRANCH  10  23
BRANCH   5  25
ATOM     25  O   UNL     1      -5.776   1.747  18.157  1.00  0.00    -0.507 OA
ATOM     26  H   UNL     1      -4.970   1.811  18.768  1.00  0.00     0.293 HD
ENDBRANCH   5  25
BRANCH   7  27
ATOM     27  O   UNL     1      -7.189   2.827  13.698  1.00  0.00    -0.507 OA
ATOM     28  H   UNL     1      -6.576   2.626  12.920  1.00  0.00     0.293 HD
ENDBRANCH   7  27
TORSDOF 7
ENDMDL
