MODEL 1
REMARK VINA RESULT:    -7.893      0.000      0.000
REMARK INTER + INTRA:          -9.116
REMARK INTER:                  -9.278
REMARK INTRA:                   0.162
REMARK UNBOUND:                 0.162
REMARK SMILES O=c1c(O)c(-c2ccc(O)c(O)c2)oc2cc(O)ccc12
REMARK SMILES IDX 5 1 3 2 2 3 1 4 21 5 15 6 14 7 16 8 17 9 19 10 20 11 6 12
REMARK SMILES IDX 7 13 8 14 9 15 13 16 11 17 10 18 12 20 4 22 18 24
REMARK H PARENT 10 19 12 21 4 23 18 25
REMARK Flexibility Score: inf
ROOT
ATOM      1  C   UNL     1      27.349   4.387  68.584  1.00  0.00     0.180 A 
ATOM      2  C   UNL     1      28.152   3.326  68.117  1.00  0.00     0.208 A 
ATOM      3  C   UNL     1      29.330   3.012  68.811  1.00  0.00     0.235 A 
ATOM      4  O   UNL     1      30.071   2.074  68.406  1.00  0.00    -0.285 OA
ATOM      5  C   UNL     1      29.670   3.744  69.959  1.00  0.00     0.069 A 
ATOM      6  C   UNL     1      28.802   4.776  70.377  1.00  0.00     0.142 A 
ATOM      7  O   UNL     1      27.700   5.047  69.686  1.00  0.00    -0.452 OA
ATOM      8  C   UNL     1      29.100   5.522  71.523  1.00  0.00     0.094 A 
ATOM      9  C   UNL     1      30.262   5.250  72.258  1.00  0.00     0.119 A 
ATOM     10  C   UNL     1      31.125   4.230  71.847  1.00  0.00     0.047 A 
ATOM     11  C   UNL     1      30.834   3.478  70.704  1.00  0.00     0.020 A 
ENDROOT
BRANCH   1  12
ATOM     12  C   UNL     1      26.101   4.791  67.897  1.00  0.00     0.025 A 
ATOM     13  C   UNL     1      25.223   3.805  67.425  1.00  0.00     0.016 A 
ATOM     14  C   UNL     1      24.030   4.162  66.792  1.00  0.00     0.051 A 
ATOM     15  C   UNL     1      23.690   5.513  66.636  1.00  0.00     0.157 A 
ATOM     16  C   UNL     1      25.747   6.146  67.758  1.00  0.00     0.062 A 
ATOM     17  C   UNL     1      24.552   6.508  67.126  1.00  0.00     0.158 A 
BRANCH  15  18
ATOM     18  O   UNL     1      22.500   5.868  66.002  1.00  0.00    -0.504 OA
ATOM     19  H   UNL     1      22.371   6.785  65.592  1.00  0.00     0.293 HD
ENDBRANCH  15  18
BRANCH  17  20
ATOM     20  O   UNL     1      24.237   7.861  67.000  1.00  0.00    -0.504 OA
ATOM     21  H   UNL     1      24.442   8.531  67.732  1.00  0.00     0.293 HD
ENDBRANCH  17  20
ENDBRANCH   1  12
BRANCH   2  22
ATOM     22  O   UNL     1      27.763   2.584  66.999  1.00  0.00    -0.502 OA
ATOM     23  H   UNL     1      28.418   2.024  66.467  1.00  0.00     0.293 HD
ENDBRANCH   2  22
BRANCH   9  24
ATOM     24  O   UNL     1      30.567   5.988  73.400  1.00  0.00    -0.508 OA
ATOM     25  H   UNL     1      31.524   6.200  73.653  1.00  0.00     0.293 HD
ENDBRANCH   9  24
TORSDOF 5
ENDMDL
MODEL 2
REMARK VINA RESULT:    -7.415      1.379      6.607
REMARK INTER + INTRA:          -8.554
REMARK INTER:                  -8.378
REMARK INTRA:                  -0.176
REMARK UNBOUND:                 0.162
REMARK SMILES O=c1c(O)c(-c2ccc(O)c(O)c2)oc2cc(O)ccc12
REMARK SMILES IDX 5 1 3 2 2 3 1 4 21 5 15 6 14 7 16 8 17 9 19 10 20 11 6 12
REMARK SMILES IDX 7 13 8 14 9 15 13 16 11 17 10 18 12 20 4 22 18 24
REMARK H PARENT 10 19 12 21 4 23 18 25
REMARK Flexibility Score: inf
ROOT
ATOM      1  C   UNL     1      27.822   4.857  70.358  1.00  0.00     0.180 A 
ATOM      2  C   UNL     1      27.808   3.549  69.830  1.00  0.00     0.208 A 
ATOM      3  C   UNL     1      26.968   3.265  68.743  1.00  0.00     0.235 A 
ATOM      4  O   UNL     1      26.931   2.099  68.261  1.00  0.00    -0.285 OA
ATOM      5  C   UNL     1      26.180   4.289  68.195  1.00  0.00     0.069 A 
ATOM      6  C   UNL     1      26.267   5.578  68.764  1.00  0.00     0.142 A 
ATOM      7  O   UNL     1      27.069   5.802  69.799  1.00  0.00    -0.452 OA
ATOM      8  C   UNL     1      25.505   6.628  68.240  1.00  0.00     0.094 A 
ATOM      9  C   UNL     1      24.651   6.405  67.151  1.00  0.00     0.119 A 
ATOM     10  C   UNL     1      24.561   5.128  66.586  1.00  0.00     0.047 A 
ATOM     11  C   UNL     1      25.320   4.073  67.103  1.00  0.00     0.020 A 
ENDROOT
BRANCH   1  12
ATOM     12  C   UNL     1      28.667   5.230  71.515  1.00  0.00     0.025 A 
ATOM     13  C   UNL     1      30.061   5.255  71.371  1.00  0.00     0.016 A 
ATOM     14  C   UNL     1      30.878   5.624  72.444  1.00  0.00     0.051 A 
ATOM     15  C   UNL     1      30.309   5.990  73.671  1.00  0.00     0.157 A 
ATOM     16  C   UNL     1      28.098   5.618  72.742  1.00  0.00     0.062 A 
ATOM     17  C   UNL     1      28.912   5.991  73.818  1.00  0.00     0.158 A 
BRANCH  15  18
ATOM     18  O   UNL     1      31.125   6.356  74.740  1.00  0.00    -0.504 OA
ATOM     19  H   UNL     1      31.180   7.315  75.061  1.00  0.00     0.293 HD
ENDBRANCH  15  18
BRANCH  17  20
ATOM     20  O   UNL     1      28.313   6.364  75.022  1.00  0.00    -0.504 OA
ATOM     21  H   UNL     1      27.481   6.941  75.051  1.00  0.00     0.293 HD
ENDBRANCH  17  20
ENDBRANCH   1  12
BRANCH   2  22
ATOM     22  O   UNL     1      28.640   2.561  70.366  1.00  0.00    -0.502 OA
ATOM     23  H   UNL     1      28.674   1.621  69.992  1.00  0.00     0.293 HD
ENDBRANCH   2  22
BRANCH   9  24
ATOM     24  O   UNL     1      23.888   7.444  66.623  1.00  0.00    -0.508 OA
ATOM     25  H   UNL     1      22.881   7.468  66.727  1.00  0.00     0.293 HD
ENDBRANCH   9  24
TORSDOF 5
ENDMDL
MODEL 3
REMARK VINA RESULT:    -7.305      9.752     12.127
REMARK INTER + INTRA:          -8.425
REMARK INTER:                  -8.111
REMARK INTRA:                  -0.313
REMARK UNBOUND:                 0.162
REMARK SMILES O=c1c(O)c(-c2ccc(O)c(O)c2)oc2cc(O)ccc12
REMARK SMILES IDX 5 1 3 2 2 3 1 4 21 5 15 6 14 7 16 8 17 9 19 10 20 11 6 12
REMARK SMILES IDX 7 13 8 14 9 15 13 16 11 17 10 18 12 20 4 22 18 24
REMARK H PARENT 10 19 12 21 4 23 18 25
REMARK Flexibility Score: inf
ROOT
ATOM      1  C   UNL     1      23.693  15.023  71.685  1.00  0.00     0.180 A 
ATOM      2  C   UNL     1      24.650  14.411  72.521  1.00  0.00     0.208 A 
ATOM      3  C   UNL     1      25.370  13.311  72.033  1.00  0.00     0.235 A 
ATOM      4  O   UNL     1      26.224  12.740  72.767  1.00  0.00    -0.285 OA
ATOM      5  C   UNL     1      25.137  12.859  70.725  1.00  0.00     0.069 A 
ATOM      6  C   UNL     1      24.180  13.540  69.942  1.00  0.00     0.142 A 
ATOM      7  O   UNL     1      23.513  14.573  70.445  1.00  0.00    -0.452 OA
ATOM      8  C   UNL     1      23.927  13.126  68.630  1.00  0.00     0.094 A 
ATOM      9  C   UNL     1      24.619  12.035  68.087  1.00  0.00     0.119 A 
ATOM     10  C   UNL     1      25.567  11.358  68.861  1.00  0.00     0.047 A 
ATOM     11  C   UNL     1      25.828  11.765  70.173  1.00  0.00     0.020 A 
ENDROOT
BRANCH   1  12
ATOM     12  C   UNL     1      22.880  16.177  72.133  1.00  0.00     0.025 A 
ATOM     13  C   UNL     1      23.240  17.472  71.732  1.00  0.00     0.016 A 
ATOM     14  C   UNL     1      22.476  18.573  72.125  1.00  0.00     0.051 A 
ATOM     15  C   UNL     1      21.330  18.394  72.912  1.00  0.00     0.157 A 
ATOM     16  C   UNL     1      21.717  15.998  72.905  1.00  0.00     0.062 A 
ATOM     17  C   UNL     1      20.948  17.099  73.299  1.00  0.00     0.158 A 
BRANCH  15  18
ATOM     18  O   UNL     1      20.570  19.495  73.305  1.00  0.00    -0.504 OA
ATOM     19  H   UNL     1      20.977  20.419  73.386  1.00  0.00     0.293 HD
ENDBRANCH  15  18
BRANCH  17  20
ATOM     20  O   UNL     1      19.805  16.884  74.070  1.00  0.00    -0.504 OA
ATOM     21  H   UNL     1      19.117  17.611  74.223  1.00  0.00     0.293 HD
ENDBRANCH  17  20
ENDBRANCH   1  12
BRANCH   2  22
ATOM     22  O   UNL     1      24.894  14.913  73.802  1.00  0.00    -0.502 OA
ATOM     23  H   UNL     1      24.452  14.528  74.628  1.00  0.00     0.293 HD
ENDBRANCH   2  22
BRANCH   9  24
ATOM     24  O   UNL     1      24.373  11.616  66.782  1.00  0.00    -0.508 OA
ATOM     25  H   UNL     1      23.882  10.752  66.586  1.00  0.00     0.293 HD
ENDBRANCH   9  24
TORSDOF 5
ENDMDL
MODEL 4
REMARK VINA RESULT:    -7.264     16.846     18.487
REMARK INTER + INTRA:          -8.377
REMARK INTER:                  -8.532
REMARK INTRA:                   0.155
REMARK UNBOUND:                 0.162
REMARK SMILES O=c1c(O)c(-c2ccc(O)c(O)c2)oc2cc(O)ccc12
REMARK SMILES IDX 5 1 3 2 2 3 1 4 21 5 15 6 14 7 16 8 17 9 19 10 20 11 6 12
REMARK SMILES IDX 7 13 8 14 9 15 13 16 11 17 10 18 12 20 4 22 18 24
REMARK H PARENT 10 19 12 21 4 23 18 25
REMARK Flexibility Score: inf
ROOT
ATOM      1  C   UNL     1      13.582   6.381  80.157  1.00  0.00     0.180 A 
ATOM      2  C   UNL     1      12.482   7.025  79.552  1.00  0.00     0.208 A 
ATOM      3  C   UNL     1      12.716   7.903  78.483  1.00  0.00     0.235 A 
ATOM      4  O   UNL     1      11.749   8.499  77.933  1.00  0.00    -0.285 OA
ATOM      5  C   UNL     1      14.029   8.104  78.030  1.00  0.00     0.069 A 
ATOM      6  C   UNL     1      15.073   7.404  78.672  1.00  0.00     0.142 A 
ATOM      7  O   UNL     1      14.810   6.588  79.687  1.00  0.00    -0.452 OA
ATOM      8  C   UNL     1      16.394   7.569  78.242  1.00  0.00     0.094 A 
ATOM      9  C   UNL     1      16.688   8.430  77.177  1.00  0.00     0.119 A 
ATOM     10  C   UNL     1      15.655   9.126  76.539  1.00  0.00     0.047 A 
ATOM     11  C   UNL     1      14.331   8.966  76.960  1.00  0.00     0.020 A 
ENDROOT
BRANCH   1  12
ATOM     12  C   UNL     1      13.419   5.455  81.301  1.00  0.00     0.025 A 
ATOM     13  C   UNL     1      12.378   4.515  81.286  1.00  0.00     0.016 A 
ATOM     14  C   UNL     1      12.218   3.618  82.345  1.00  0.00     0.051 A 
ATOM     15  C   UNL     1      13.108   3.637  83.427  1.00  0.00     0.157 A 
ATOM     16  C   UNL     1      14.324   5.457  82.379  1.00  0.00     0.062 A 
ATOM     17  C   UNL     1      14.168   4.559  83.441  1.00  0.00     0.158 A 
BRANCH  15  18
ATOM     18  O   UNL     1      12.946   2.742  84.484  1.00  0.00    -0.504 OA
ATOM     19  H   UNL     1      12.054   2.300  84.673  1.00  0.00     0.293 HD
ENDBRANCH  15  18
BRANCH  17  20
ATOM     20  O   UNL     1      15.080   4.594  84.496  1.00  0.00    -0.504 OA
ATOM     21  H   UNL     1      15.206   3.808  85.123  1.00  0.00     0.293 HD
ENDBRANCH  17  20
ENDBRANCH   1  12
BRANCH   2  22
ATOM     22  O   UNL     1      11.181   6.768  79.994  1.00  0.00    -0.502 OA
ATOM     23  H   UNL     1      10.985   6.416  80.923  1.00  0.00     0.293 HD
ENDBRANCH   2  22
BRANCH   9  24
ATOM     24  O   UNL     1      18.001   8.601  76.743  1.00  0.00    -0.508 OA
ATOM     25  H   UNL     1      18.386   9.522  76.571  1.00  0.00     0.293 HD
ENDBRANCH   9  24
TORSDOF 5
ENDMDL
MODEL 5
REMARK VINA RESULT:    -7.160      9.761     12.784
REMARK INTER + INTRA:          -8.254
REMARK INTER:                  -8.168
REMARK INTRA:                  -0.086
REMARK UNBOUND:                 0.162
REMARK SMILES O=c1c(O)c(-c2ccc(O)c(O)c2)oc2cc(O)ccc12
REMARK SMILES IDX 5 1 3 2 2 3 1 4 21 5 15 6 14 7 16 8 17 9 19 10 20 11 6 12
REMARK SMILES IDX 7 13 8 14 9 15 13 16 11 17 10 18 12 20 4 22 18 24
REMARK H PARENT 10 19 12 21 4 23 18 25
REMARK Flexibility Score: inf
ROOT
ATOM      1  C   UNL     1      23.403  14.849  70.791  1.00  0.00     0.180 A 
ATOM      2  C   UNL     1      22.664  14.704  71.984  1.00  0.00     0.208 A 
ATOM      3  C   UNL     1      21.980  15.816  72.497  1.00  0.00     0.235 A 
ATOM      4  O   UNL     1      21.322  15.714  73.568  1.00  0.00    -0.285 OA
ATOM      5  C   UNL     1      22.029  17.036  71.803  1.00  0.00     0.069 A 
ATOM      6  C   UNL     1      22.770  17.094  70.603  1.00  0.00     0.142 A 
ATOM      7  O   UNL     1      23.411  16.019  70.157  1.00  0.00    -0.452 OA
ATOM      8  C   UNL     1      22.834  18.289  69.877  1.00  0.00     0.094 A 
ATOM      9  C   UNL     1      22.166  19.431  70.339  1.00  0.00     0.119 A 
ATOM     10  C   UNL     1      21.433  19.377  71.528  1.00  0.00     0.047 A 
ATOM     11  C   UNL     1      21.361  18.187  72.259  1.00  0.00     0.020 A 
ENDROOT
BRANCH   1  12
ATOM     12  C   UNL     1      24.166  13.728  70.197  1.00  0.00     0.025 A 
ATOM     13  C   UNL     1      25.166  13.098  70.952  1.00  0.00     0.016 A 
ATOM     14  C   UNL     1      25.885  12.025  70.419  1.00  0.00     0.051 A 
ATOM     15  C   UNL     1      25.604  11.557  69.129  1.00  0.00     0.157 A 
ATOM     16  C   UNL     1      23.871  13.242  68.909  1.00  0.00     0.062 A 
ATOM     17  C   UNL     1      24.588  12.167  68.373  1.00  0.00     0.158 A 
BRANCH  15  18
ATOM     18  O   UNL     1      26.324  10.487  68.598  1.00  0.00    -0.504 OA
ATOM     19  H   UNL     1      25.874   9.611  68.359  1.00  0.00     0.293 HD
ENDBRANCH  15  18
BRANCH  17  20
ATOM     20  O   UNL     1      24.273  11.715  67.091  1.00  0.00    -0.504 OA
ATOM     21  H   UNL     1      23.356  11.852  66.685  1.00  0.00     0.293 HD
ENDBRANCH  17  20
ENDBRANCH   1  12
BRANCH   2  22
ATOM     22  O   UNL     1      22.595  13.465  72.626  1.00  0.00    -0.502 OA
ATOM     23  H   UNL     1      23.316  13.143  73.261  1.00  0.00     0.293 HD
ENDBRANCH   2  22
BRANCH   9  24
ATOM     24  O   UNL     1      22.226  20.625  69.623  1.00  0.00    -0.508 OA
ATOM     25  H   UNL     1      21.427  21.245  69.559  1.00  0.00     0.293 HD
ENDBRANCH   9  24
TORSDOF 5
ENDMDL
MODEL 6
REMARK VINA RESULT:    -7.099     13.343     15.367
REMARK INTER + INTRA:          -8.183
REMARK INTER:                  -7.877
REMARK INTRA:                  -0.306
REMARK UNBOUND:                 0.162
REMARK SMILES O=c1c(O)c(-c2ccc(O)c(O)c2)oc2cc(O)ccc12
REMARK SMILES IDX 5 1 3 2 2 3 1 4 21 5 15 6 14 7 16 8 17 9 19 10 20 11 6 12
REMARK SMILES IDX 7 13 8 14 9 15 13 16 11 17 10 18 12 20 4 22 18 24
REMARK H PARENT 10 19 12 21 4 23 18 25
REMARK Flexibility Score: inf
ROOT
ATOM      1  C   UNL     1      23.519  18.664  70.487  1.00  0.00     0.180 A 
ATOM      2  C   UNL     1      23.127  18.655  69.133  1.00  0.00     0.208 A 
ATOM      3  C   UNL     1      23.935  19.308  68.189  1.00  0.00     0.235 A 
ATOM      4  O   UNL     1      23.599  19.323  66.973  1.00  0.00    -0.285 OA
ATOM      5  C   UNL     1      25.118  19.935  68.611  1.00  0.00     0.069 A 
ATOM      6  C   UNL     1      25.454  19.879  69.981  1.00  0.00     0.142 A 
ATOM      7  O   UNL     1      24.657  19.257  70.843  1.00  0.00    -0.452 OA
ATOM      8  C   UNL     1      26.630  20.482  70.438  1.00  0.00     0.094 A 
ATOM      9  C   UNL     1      27.478  21.145  69.541  1.00  0.00     0.119 A 
ATOM     10  C   UNL     1      27.148  21.204  68.184  1.00  0.00     0.047 A 
ATOM     11  C   UNL     1      25.975  20.602  67.717  1.00  0.00     0.020 A 
ENDROOT
BRANCH   1  12
ATOM     12  C   UNL     1      22.712  18.013  71.544  1.00  0.00     0.025 A 
ATOM     13  C   UNL     1      21.773  18.771  72.260  1.00  0.00     0.016 A 
ATOM     14  C   UNL     1      20.986  18.174  73.248  1.00  0.00     0.051 A 
ATOM     15  C   UNL     1      21.115  16.806  73.523  1.00  0.00     0.157 A 
ATOM     16  C   UNL     1      22.824  16.636  71.809  1.00  0.00     0.062 A 
ATOM     17  C   UNL     1      22.036  16.034  72.796  1.00  0.00     0.158 A 
BRANCH  15  18
ATOM     18  O   UNL     1      20.330  16.212  74.510  1.00  0.00    -0.504 OA
ATOM     19  H   UNL     1      20.725  15.570  75.188  1.00  0.00     0.293 HD
ENDBRANCH  15  18
BRANCH  17  20
ATOM     20  O   UNL     1      22.179  14.666  73.035  1.00  0.00    -0.504 OA
ATOM     21  H   UNL     1      22.934  14.126  72.629  1.00  0.00     0.293 HD
ENDBRANCH  17  20
ENDBRANCH   1  12
BRANCH   2  22
ATOM     22  O   UNL     1      21.969  17.982  68.736  1.00  0.00    -0.502 OA
ATOM     23  H   UNL     1      21.044  18.290  69.010  1.00  0.00     0.293 HD
ENDBRANCH   2  22
BRANCH   9  24
ATOM     24  O   UNL     1      28.651  21.750  69.989  1.00  0.00    -0.508 OA
ATOM     25  H   UNL     1      28.632  22.542  70.619  1.00  0.00     0.293 HD
ENDBRANCH   9  24
TORSDOF 5
ENDMDL
MODEL 7
REMARK VINA RESULT:    -7.090      9.947     12.870
REMARK INTER + INTRA:          -8.172
REMARK INTER:                  -8.319
REMARK INTRA:                   0.146
REMARK UNBOUND:                 0.162
REMARK SMILES O=c1c(O)c(-c2ccc(O)c(O)c2)oc2cc(O)ccc12
REMARK SMILES IDX 5 1 3 2 2 3 1 4 21 5 15 6 14 7 16 8 17 9 19 10 20 11 6 12
REMARK SMILES IDX 7 13 8 14 9 15 13 16 11 17 10 18 12 20 4 22 18 24
REMARK H PARENT 10 19 12 21 4 23 18 25
REMARK Flexibility Score: inf
ROOT
ATOM      1  C   UNL     1      23.440  15.410  70.087  1.00  0.00     0.180 A 
ATOM      2  C   UNL     1      23.219  16.430  69.138  1.00  0.00     0.208 A 
ATOM      3  C   UNL     1      22.579  17.609  69.548  1.00  0.00     0.235 A 
ATOM      4  O   UNL     1      22.360  18.531  68.714  1.00  0.00    -0.285 OA
ATOM      5  C   UNL     1      22.193  17.754  70.889  1.00  0.00     0.069 A 
ATOM      6  C   UNL     1      22.471  16.698  71.784  1.00  0.00     0.142 A 
ATOM      7  O   UNL     1      23.072  15.594  71.353  1.00  0.00    -0.452 OA
ATOM      8  C   UNL     1      22.112  16.810  73.132  1.00  0.00     0.094 A 
ATOM      9  C   UNL     1      21.473  17.966  73.599  1.00  0.00     0.119 A 
ATOM     10  C   UNL     1      21.195  19.014  72.715  1.00  0.00     0.047 A 
ATOM     11  C   UNL     1      21.552  18.912  71.366  1.00  0.00     0.020 A 
ENDROOT
BRANCH   1  12
ATOM     12  C   UNL     1      24.092  14.130  69.730  1.00  0.00     0.025 A 
ATOM     13  C   UNL     1      24.932  13.500  70.660  1.00  0.00     0.016 A 
ATOM     14  C   UNL     1      25.542  12.282  70.352  1.00  0.00     0.051 A 
ATOM     15  C   UNL     1      25.308  11.667  69.115  1.00  0.00     0.157 A 
ATOM     16  C   UNL     1      23.842  13.500  68.497  1.00  0.00     0.062 A 
ATOM     17  C   UNL     1      24.449  12.278  68.186  1.00  0.00     0.158 A 
BRANCH  15  18
ATOM     18  O   UNL     1      25.919  10.451  68.809  1.00  0.00    -0.504 OA
ATOM     19  H   UNL     1      25.403   9.691  68.381  1.00  0.00     0.293 HD
ENDBRANCH  15  18
BRANCH  17  20
ATOM     20  O   UNL     1      24.183  11.685  66.951  1.00  0.00    -0.504 OA
ATOM     21  H   UNL     1      24.752  10.932  66.584  1.00  0.00     0.293 HD
ENDBRANCH  17  20
ENDBRANCH   1  12
BRANCH   2  22
ATOM     22  O   UNL     1      23.657  16.276  67.820  1.00  0.00    -0.502 OA
ATOM     23  H   UNL     1      23.882  17.067  67.229  1.00  0.00     0.293 HD
ENDBRANCH   2  22
BRANCH   9  24
ATOM     24  O   UNL     1      21.111  18.085  74.939  1.00  0.00    -0.508 OA
ATOM     25  H   UNL     1      21.690  17.708  75.679  1.00  0.00     0.293 HD
ENDBRANCH   9  24
TORSDOF 5
ENDMDL
MODEL 8
REMARK VINA RESULT:    -7.024     16.722     17.981
REMARK INTER + INTRA:          -8.094
REMARK INTER:                  -8.471
REMARK INTRA:                   0.377
REMARK UNBOUND:                 0.162
REMARK SMILES O=c1c(O)c(-c2ccc(O)c(O)c2)oc2cc(O)ccc12
REMARK SMILES IDX 5 1 3 2 2 3 1 4 21 5 15 6 14 7 16 8 17 9 19 10 20 11 6 12
REMARK SMILES IDX 7 13 8 14 9 15 13 16 11 17 10 18 12 20 4 22 18 24
REMARK H PARENT 10 19 12 21 4 23 18 25
REMARK Flexibility Score: inf
ROOT
ATOM      1  C   UNL     1      14.018   6.726  79.847  1.00  0.00     0.180 A 
ATOM      2  C   UNL     1      12.666   6.334  79.758  1.00  0.00     0.208 A 
ATOM      3  C   UNL     1      12.109   5.584  80.804  1.00  0.00     0.235 A 
ATOM      4  O   UNL     1      10.904   5.212  80.743  1.00  0.00    -0.285 OA
ATOM      5  C   UNL     1      12.899   5.261  81.919  1.00  0.00     0.069 A 
ATOM      6  C   UNL     1      14.236   5.711  81.944  1.00  0.00     0.142 A 
ATOM      7  O   UNL     1      14.729   6.412  80.928  1.00  0.00    -0.452 OA
ATOM      8  C   UNL     1      15.053   5.418  83.042  1.00  0.00     0.094 A 
ATOM      9  C   UNL     1      14.549   4.677  84.118  1.00  0.00     0.119 A 
ATOM     10  C   UNL     1      13.224   4.228  84.096  1.00  0.00     0.047 A 
ATOM     11  C   UNL     1      12.400   4.517  83.004  1.00  0.00     0.020 A 
ENDROOT
BRANCH   1  12
ATOM     12  C   UNL     1      14.684   7.503  78.776  1.00  0.00     0.025 A 
ATOM     13  C   UNL     1      13.916   8.329  77.944  1.00  0.00     0.016 A 
ATOM     14  C   UNL     1      14.526   9.086  76.940  1.00  0.00     0.051 A 
ATOM     15  C   UNL     1      15.915   9.040  76.765  1.00  0.00     0.157 A 
ATOM     16  C   UNL     1      16.082   7.474  78.612  1.00  0.00     0.062 A 
ATOM     17  C   UNL     1      16.696   8.233  77.609  1.00  0.00     0.158 A 
BRANCH  15  18
ATOM     18  O   UNL     1      16.522   9.795  75.762  1.00  0.00    -0.504 OA
ATOM     19  H   UNL     1      16.278  10.766  75.609  1.00  0.00     0.293 HD
ENDBRANCH  15  18
BRANCH  17  20
ATOM     20  O   UNL     1      18.083   8.176  77.472  1.00  0.00    -0.504 OA
ATOM     21  H   UNL     1      18.681   8.950  77.735  1.00  0.00     0.293 HD
ENDBRANCH  17  20
ENDBRANCH   1  12
BRANCH   2  22
ATOM     22  O   UNL     1      11.891   6.712  78.658  1.00  0.00    -0.502 OA
ATOM     23  H   UNL     1      12.216   7.381  77.972  1.00  0.00     0.293 HD
ENDBRANCH   2  22
BRANCH   9  24
ATOM     24  O   UNL     1      15.355   4.380  85.215  1.00  0.00    -0.508 OA
ATOM     25  H   UNL     1      15.873   5.101  85.702  1.00  0.00     0.293 HD
ENDBRANCH   9  24
TORSDOF 5
ENDMDL
MODEL 9
REMARK VINA RESULT:    -6.885      9.834     13.097
REMARK INTER + INTRA:          -7.931
REMARK INTER:                  -7.614
REMARK INTRA:                  -0.317
REMARK UNBOUND:                 0.162
REMARK SMILES O=c1c(O)c(-c2ccc(O)c(O)c2)oc2cc(O)ccc12
REMARK SMILES IDX 5 1 3 2 2 3 1 4 21 5 15 6 14 7 16 8 17 9 19 10 20 11 6 12
REMARK SMILES IDX 7 13 8 14 9 15 13 16 11 17 10 18 12 20 4 22 18 24
REMARK H PARENT 10 19 12 21 4 23 18 25
REMARK Flexibility Score: inf
ROOT
ATOM      1  C   UNL     1      22.658  14.987  70.695  1.00  0.00     0.180 A 
ATOM      2  C   UNL     1      22.935  16.362  70.546  1.00  0.00     0.208 A 
ATOM      3  C   UNL     1      21.997  17.297  71.008  1.00  0.00     0.235 A 
ATOM      4  O   UNL     1      22.218  18.532  70.876  1.00  0.00    -0.285 OA
ATOM      5  C   UNL     1      20.819  16.845  71.624  1.00  0.00     0.069 A 
ATOM      6  C   UNL     1      20.626  15.453  71.759  1.00  0.00     0.142 A 
ATOM      7  O   UNL     1      21.536  14.601  71.299  1.00  0.00    -0.452 OA
ATOM      8  C   UNL     1      19.470  14.963  72.376  1.00  0.00     0.094 A 
ATOM      9  C   UNL     1      18.500  15.850  72.862  1.00  0.00     0.119 A 
ATOM     10  C   UNL     1      18.688  17.229  72.729  1.00  0.00     0.047 A 
ATOM     11  C   UNL     1      19.841  17.728  72.115  1.00  0.00     0.020 A 
ENDROOT
BRANCH   1  12
ATOM     12  C   UNL     1      23.588  13.940  70.217  1.00  0.00     0.025 A 
ATOM     13  C   UNL     1      23.487  13.478  68.896  1.00  0.00     0.016 A 
ATOM     14  C   UNL     1      24.368  12.505  68.416  1.00  0.00     0.051 A 
ATOM     15  C   UNL     1      25.373  11.991  69.246  1.00  0.00     0.157 A 
ATOM     16  C   UNL     1      24.612  13.437  71.041  1.00  0.00     0.062 A 
ATOM     17  C   UNL     1      25.497  12.464  70.563  1.00  0.00     0.158 A 
BRANCH  15  18
ATOM     18  O   UNL     1      26.250  11.019  68.766  1.00  0.00    -0.504 OA
ATOM     19  H   UNL     1      26.374  10.860  67.774  1.00  0.00     0.293 HD
ENDBRANCH  15  18
BRANCH  17  20
ATOM     20  O   UNL     1      26.497  11.984  71.411  1.00  0.00    -0.504 OA
ATOM     21  H   UNL     1      27.455  11.874  71.102  1.00  0.00     0.293 HD
ENDBRANCH  17  20
ENDBRANCH   1  12
BRANCH   2  22
ATOM     22  O   UNL     1      24.138  16.782  69.971  1.00  0.00    -0.502 OA
ATOM     23  H   UNL     1      24.500  16.377  69.117  1.00  0.00     0.293 HD
ENDBRANCH   2  22
BRANCH   9  24
ATOM     24  O   UNL     1      17.345  15.370  73.478  1.00  0.00    -0.508 OA
ATOM     25  H   UNL     1      17.388  14.688  74.224  1.00  0.00     0.293 HD
ENDBRANCH   9  24
TORSDOF 5
ENDMDL
