MODEL 1
REMARK VINA RESULT:    -4.713      0.000      0.000
REMARK INTER + INTRA:          -5.969
REMARK INTER:                  -5.815
REMARK INTRA:                  -0.154
REMARK UNBOUND:                -0.154
REMARK SMILES CCCCC=CC(C)=O
REMARK SMILES IDX 4 1 3 2 2 3 1 4 5 5 6 6 7 7 9 8 8 9
REMARK H PARENT
REMARK Flexibility Score: inf
ROOT
ATOM      1  C   UNL     1     -16.244 -14.920  24.538  1.00  0.00     0.027 C 
ENDROOT
BRANCH   1   2
ATOM      2  C   UNL     1     -15.170 -14.717  25.621  1.00  0.00     0.004 C 
BRANCH   2   3
ATOM      3  C   UNL     1     -14.666 -16.027  26.255  1.00  0.00    -0.003 C 
ATOM      4  C   UNL     1     -13.237 -15.916  26.788  1.00  0.00     0.004 C 
ENDBRANCH   2   3
ENDBRANCH   1   2
BRANCH   1   5
ATOM      5  C   UNL     1     -17.640 -14.717  25.071  1.00  0.00    -0.023 C 
ATOM      6  C   UNL     1     -18.745 -15.267  24.541  1.00  0.00     0.042 C 
BRANCH   6   7
ATOM      7  C   UNL     1     -18.792 -16.165  23.363  1.00  0.00     0.152 C 
ATOM      8  O   UNL     1     -18.347 -17.342  23.410  1.00  0.00    -0.295 OA
ATOM      9  C   UNL     1     -19.410 -15.670  22.095  1.00  0.00     0.093 C 
ENDBRANCH   6   7
ENDBRANCH   1   5
TORSDOF 4
ENDMDL
MODEL 2
REMARK VINA RESULT:    -4.637      1.513      4.935
REMARK INTER + INTRA:          -5.875
REMARK INTER:                  -6.212
REMARK INTRA:                   0.337
REMARK UNBOUND:                -0.154
REMARK SMILES CCCCC=CC(C)=O
REMARK SMILES IDX 4 1 3 2 2 3 1 4 5 5 6 6 7 7 9 8 8 9
REMARK H PARENT
REMARK Flexibility Score: inf
ROOT
ATOM      1  C   UNL     1     -16.969 -15.397  24.585  1.00  0.00     0.027 C 
ENDROOT
BRANCH   1   2
ATOM      2  C   UNL     1     -18.436 -15.016  24.851  1.00  0.00     0.004 C 
BRANCH   2   3
ATOM      3  C   UNL     1     -19.452 -15.835  24.033  1.00  0.00    -0.003 C 
ATOM      4  C   UNL     1     -19.090 -15.917  22.549  1.00  0.00     0.004 C 
ENDBRANCH   2   3
ENDBRANCH   1   2
BRANCH   1   5
ATOM      5  C   UNL     1     -16.005 -14.356  25.096  1.00  0.00    -0.023 C 
ATOM      6  C   UNL     1     -14.916 -14.624  25.834  1.00  0.00     0.042 C 
BRANCH   6   7
ATOM      7  C   UNL     1     -14.466 -15.968  26.267  1.00  0.00     0.152 C 
ATOM      8  O   UNL     1     -15.166 -16.997  26.069  1.00  0.00    -0.295 OA
ATOM      9  C   UNL     1     -13.133 -16.111  26.928  1.00  0.00     0.093 C 
ENDBRANCH   6   7
ENDBRANCH   1   5
TORSDOF 4
ENDMDL
MODEL 3
REMARK VINA RESULT:    -4.503     10.907     12.378
REMARK INTER + INTRA:          -5.710
REMARK INTER:                  -5.996
REMARK INTRA:                   0.285
REMARK UNBOUND:                -0.154
REMARK SMILES CCCCC=CC(C)=O
REMARK SMILES IDX 4 1 3 2 2 3 1 4 5 5 6 6 7 7 9 8 8 9
REMARK H PARENT
REMARK Flexibility Score: inf
ROOT
ATOM      1  C   UNL     1     -20.133 -20.521  15.247  1.00  0.00     0.027 C 
ENDROOT
BRANCH   1   2
ATOM      2  C   UNL     1     -20.130 -21.420  16.496  1.00  0.00     0.004 C 
BRANCH   2   3
ATOM      3  C   UNL     1     -21.478 -22.114  16.768  1.00  0.00    -0.003 C 
ATOM      4  C   UNL     1     -22.301 -21.409  17.848  1.00  0.00     0.004 C 
ENDBRANCH   2   3
ENDBRANCH   1   2
BRANCH   1   5
ATOM      5  C   UNL     1     -19.871 -21.297  13.981  1.00  0.00    -0.023 C 
ATOM      6  C   UNL     1     -20.127 -20.844  12.743  1.00  0.00     0.042 C 
BRANCH   6   7
ATOM      7  C   UNL     1     -20.695 -19.519  12.401  1.00  0.00     0.152 C 
ATOM      8  O   UNL     1     -21.325 -18.829  13.246  1.00  0.00    -0.295 OA
ATOM      9  C   UNL     1     -20.491 -18.973  11.024  1.00  0.00     0.093 C 
ENDBRANCH   6   7
ENDBRANCH   1   5
TORSDOF 4
ENDMDL
MODEL 4
REMARK VINA RESULT:    -4.291      1.738      2.338
REMARK INTER + INTRA:          -5.448
REMARK INTER:                  -5.340
REMARK INTRA:                  -0.109
REMARK UNBOUND:                -0.154
REMARK SMILES CCCCC=CC(C)=O
REMARK SMILES IDX 4 1 3 2 2 3 1 4 5 5 6 6 7 7 9 8 8 9
REMARK H PARENT
REMARK Flexibility Score: inf
ROOT
ATOM      1  C   UNL     1     -15.200 -15.398  25.957  1.00  0.00     0.027 C 
ENDROOT
BRANCH   1   2
ATOM      2  C   UNL     1     -13.787 -14.979  26.396  1.00  0.00     0.004 C 
BRANCH   2   3
ATOM      3  C   UNL     1     -13.008 -16.086  27.132  1.00  0.00    -0.003 C 
ATOM      4  C   UNL     1     -11.960 -16.762  26.247  1.00  0.00     0.004 C 
ENDBRANCH   2   3
ENDBRANCH   1   2
BRANCH   1   5
ATOM      5  C   UNL     1     -15.548 -14.886  24.582  1.00  0.00    -0.023 C 
ATOM      6  C   UNL     1     -16.796 -14.624  24.160  1.00  0.00     0.042 C 
BRANCH   6   7
ATOM      7  C   UNL     1     -18.035 -14.778  24.957  1.00  0.00     0.152 C 
ATOM      8  O   UNL     1     -18.239 -14.103  26.002  1.00  0.00    -0.295 OA
ATOM      9  C   UNL     1     -19.085 -15.737  24.494  1.00  0.00     0.093 C 
ENDBRANCH   6   7
ENDBRANCH   1   5
TORSDOF 4
ENDMDL
MODEL 5
REMARK VINA RESULT:    -4.102     10.795     12.681
REMARK INTER + INTRA:          -5.215
REMARK INTER:                  -5.079
REMARK INTRA:                  -0.136
REMARK UNBOUND:                -0.154
REMARK SMILES CCCCC=CC(C)=O
REMARK SMILES IDX 4 1 3 2 2 3 1 4 5 5 6 6 7 7 9 8 8 9
REMARK H PARENT
REMARK Flexibility Score: inf
ROOT
ATOM      1  C   UNL     1     -19.789 -21.036  13.648  1.00  0.00     0.027 C 
ENDROOT
BRANCH   1   2
ATOM      2  C   UNL     1     -20.116 -20.777  12.167  1.00  0.00     0.004 C 
BRANCH   2   3
ATOM      3  C   UNL     1     -20.861 -19.453  11.914  1.00  0.00    -0.003 C 
ATOM      4  C   UNL     1     -20.443 -18.778  10.606  1.00  0.00     0.004 C 
ENDBRANCH   2   3
ENDBRANCH   1   2
BRANCH   1   5
ATOM      5  C   UNL     1     -20.292 -19.935  14.547  1.00  0.00    -0.023 C 
ATOM      6  C   UNL     1     -20.627 -20.099  15.837  1.00  0.00     0.042 C 
BRANCH   6   7
ATOM      7  C   UNL     1     -20.556 -21.366  16.602  1.00  0.00     0.152 C 
ATOM      8  O   UNL     1     -19.477 -22.004  16.727  1.00  0.00    -0.295 OA
ATOM      9  C   UNL     1     -21.790 -21.886  17.267  1.00  0.00     0.093 C 
ENDBRANCH   6   7
ENDBRANCH   1   5
TORSDOF 4
ENDMDL
MODEL 6
REMARK VINA RESULT:    -4.066      6.441      7.024
REMARK INTER + INTRA:          -5.170
REMARK INTER:                  -4.873
REMARK INTRA:                  -0.297
REMARK UNBOUND:                -0.154
REMARK SMILES CCCCC=CC(C)=O
REMARK SMILES IDX 4 1 3 2 2 3 1 4 5 5 6 6 7 7 9 8 8 9
REMARK H PARENT
REMARK Flexibility Score: inf
ROOT
ATOM      1  C   UNL     1     -14.950 -22.687  22.659  1.00  0.00     0.027 C 
ENDROOT
BRANCH   1   2
ATOM      2  C   UNL     1     -14.446 -22.067  23.974  1.00  0.00     0.004 C 
BRANCH   2   3
ATOM      3  C   UNL     1     -14.184 -23.096  25.090  1.00  0.00    -0.003 C 
ATOM      4  C   UNL     1     -13.830 -24.482  24.547  1.00  0.00     0.004 C 
ENDBRANCH   2   3
ENDBRANCH   1   2
BRANCH   1   5
ATOM      5  C   UNL     1     -15.174 -21.653  21.585  1.00  0.00    -0.023 C 
ATOM      6  C   UNL     1     -16.316 -20.968  21.414  1.00  0.00     0.042 C 
BRANCH   6   7
ATOM      7  C   UNL     1     -17.540 -21.094  22.239  1.00  0.00     0.152 C 
ATOM      8  O   UNL     1     -18.475 -21.877  21.922  1.00  0.00    -0.295 OA
ATOM      9  C   UNL     1     -17.656 -20.294  23.497  1.00  0.00     0.093 C 
ENDBRANCH   6   7
ENDBRANCH   1   5
TORSDOF 4
ENDMDL
MODEL 7
REMARK VINA RESULT:    -3.972      6.298      7.462
REMARK INTER + INTRA:          -5.054
REMARK INTER:                  -4.484
REMARK INTRA:                  -0.570
REMARK UNBOUND:                -0.154
REMARK SMILES CCCCC=CC(C)=O
REMARK SMILES IDX 4 1 3 2 2 3 1 4 5 5 6 6 7 7 9 8 8 9
REMARK H PARENT
REMARK Flexibility Score: inf
ROOT
ATOM      1  C   UNL     1     -15.420 -20.631  24.098  1.00  0.00     0.027 C 
ENDROOT
BRANCH   1   2
ATOM      2  C   UNL     1     -16.949 -20.514  23.977  1.00  0.00     0.004 C 
BRANCH   2   3
ATOM      3  C   UNL     1     -17.457 -20.437  22.525  1.00  0.00    -0.003 C 
ATOM      4  C   UNL     1     -18.185 -21.707  22.083  1.00  0.00     0.004 C 
ENDBRANCH   2   3
ENDBRANCH   1   2
BRANCH   1   5
ATOM      5  C   UNL     1     -14.941 -22.054  23.967  1.00  0.00    -0.023 C 
ATOM      6  C   UNL     1     -14.261 -22.535  22.913  1.00  0.00     0.042 C 
BRANCH   6   7
ATOM      7  C   UNL     1     -13.857 -21.767  21.713  1.00  0.00     0.152 C 
ATOM      8  O   UNL     1     -12.812 -21.064  21.696  1.00  0.00    -0.295 OA
ATOM      9  C   UNL     1     -14.697 -21.850  20.479  1.00  0.00     0.093 C 
ENDBRANCH   6   7
ENDBRANCH   1   5
TORSDOF 4
ENDMDL
MODEL 8
REMARK VINA RESULT:    -3.845      6.478      7.946
REMARK INTER + INTRA:          -4.897
REMARK INTER:                  -4.420
REMARK INTRA:                  -0.477
REMARK UNBOUND:                -0.154
REMARK SMILES CCCCC=CC(C)=O
REMARK SMILES IDX 4 1 3 2 2 3 1 4 5 5 6 6 7 7 9 8 8 9
REMARK H PARENT
REMARK Flexibility Score: inf
ROOT
ATOM      1  C   UNL     1     -15.224 -21.999  21.228  1.00  0.00     0.027 C 
ENDROOT
BRANCH   1   2
ATOM      2  C   UNL     1     -16.333 -20.938  21.337  1.00  0.00     0.004 C 
BRANCH   2   3
ATOM      3  C   UNL     1     -17.534 -21.374  22.198  1.00  0.00    -0.003 C 
ATOM      4  C   UNL     1     -17.667 -20.560  23.485  1.00  0.00     0.004 C 
ENDBRANCH   2   3
ENDBRANCH   1   2
BRANCH   1   5
ATOM      5  C   UNL     1     -13.898 -21.497  21.740  1.00  0.00    -0.023 C 
ATOM      6  C   UNL     1     -13.396 -21.775  22.954  1.00  0.00     0.042 C 
BRANCH   6   7
ATOM      7  C   UNL     1     -14.037 -22.616  23.991  1.00  0.00     0.152 C 
ATOM      8  O   UNL     1     -14.080 -23.872  23.892  1.00  0.00    -0.295 OA
ATOM      9  C   UNL     1     -14.624 -21.961  25.200  1.00  0.00     0.093 C 
ENDBRANCH   6   7
ENDBRANCH   1   5
TORSDOF 4
ENDMDL
MODEL 9
REMARK VINA RESULT:    -3.810      9.581     10.413
REMARK INTER + INTRA:          -4.854
REMARK INTER:                  -4.266
REMARK INTRA:                  -0.588
REMARK UNBOUND:                -0.154
REMARK SMILES CCCCC=CC(C)=O
REMARK SMILES IDX 4 1 3 2 2 3 1 4 5 5 6 6 7 7 9 8 8 9
REMARK H PARENT
REMARK Flexibility Score: inf
ROOT
ATOM      1  C   UNL     1      -9.461 -21.933  20.699  1.00  0.00     0.027 C 
ENDROOT
BRANCH   1   2
ATOM      2  C   UNL     1      -8.770 -22.747  19.591  1.00  0.00     0.004 C 
BRANCH   2   3
ATOM      3  C   UNL     1      -9.331 -22.483  18.181  1.00  0.00    -0.003 C 
ATOM      4  C   UNL     1      -9.919 -21.079  18.029  1.00  0.00     0.004 C 
ENDBRANCH   2   3
ENDBRANCH   1   2
BRANCH   1   5
ATOM      5  C   UNL     1     -10.335 -22.789  21.580  1.00  0.00    -0.023 C 
ATOM      6  C   UNL     1     -11.677 -22.815  21.529  1.00  0.00     0.042 C 
BRANCH   6   7
ATOM      7  C   UNL     1     -12.528 -22.027  20.607  1.00  0.00     0.152 C 
ATOM      8  O   UNL     1     -12.827 -20.826  20.845  1.00  0.00    -0.295 OA
ATOM      9  C   UNL     1     -13.020 -22.663  19.347  1.00  0.00     0.093 C 
ENDBRANCH   6   7
ENDBRANCH   1   5
TORSDOF 4
ENDMDL
