MODEL 1
REMARK VINA RESULT:    -2.594      0.000      0.000
REMARK INTER + INTRA:          -2.821
REMARK INTER:                  -2.821
REMARK INTRA:                   0.000
REMARK UNBOUND:                 0.000
REMARK SMILES [NH3+]CC(=O)[O-]
REMARK SMILES IDX 2 1 1 2 3 6 4 7 5 8
REMARK H PARENT 1 3 1 4 1 5
REMARK Flexibility Score: inf
ROOT
ATOM      1  C   UNL     1       1.626   0.004  -6.851  1.00  0.00     0.312 C 
ENDROOT
BRANCH   1   2
ATOM      2  N   UNL     1       0.892   1.226  -6.528  1.00  0.00    -0.353 N 
ATOM      3  H   UNL     1       0.898   1.876  -7.348  1.00  0.00     0.344 HD
ATOM      4  H   UNL     1      -0.095   0.994  -6.268  1.00  0.00     0.344 HD
ATOM      5  H   UNL     1       1.354   1.698  -5.717  1.00  0.00     0.344 HD
ENDBRANCH   1   2
BRANCH   1   6
ATOM      6  C   UNL     1       1.522  -0.304  -8.314  1.00  0.00     0.096 C 
ATOM      7  O   UNL     1       0.589  -1.033  -8.743  1.00  0.00    -0.544 OA
ATOM      8  O   UNL     1       2.425   0.257  -9.208  1.00  0.00    -0.544 OA
ENDBRANCH   1   6
TORSDOF 2
ENDMDL
MODEL 2
REMARK VINA RESULT:    -2.559      2.446      2.744
REMARK INTER + INTRA:          -2.783
REMARK INTER:                  -2.783
REMARK INTRA:                   0.000
REMARK UNBOUND:                 0.000
REMARK SMILES [NH3+]CC(=O)[O-]
REMARK SMILES IDX 2 1 1 2 3 6 4 7 5 8
REMARK H PARENT 1 3 1 4 1 5
REMARK Flexibility Score: inf
ROOT
ATOM      1  C   UNL     1       1.497  -0.019  -8.477  1.00  0.00     0.312 C 
ENDROOT
BRANCH   1   2
ATOM      2  N   UNL     1       2.856   0.168  -8.982  1.00  0.00    -0.353 N 
ATOM      3  H   UNL     1       3.002  -0.409  -9.843  1.00  0.00     0.344 HD
ATOM      4  H   UNL     1       3.022   1.178  -9.200  1.00  0.00     0.344 HD
ATOM      5  H   UNL     1       3.537  -0.137  -8.250  1.00  0.00     0.344 HD
ENDBRANCH   1   2
BRANCH   1   6
ATOM      6  C   UNL     1       1.430   0.291  -7.013  1.00  0.00     0.096 C 
ATOM      7  O   UNL     1       2.304  -0.164  -6.229  1.00  0.00    -0.544 OA
ATOM      8  O   UNL     1       0.433   1.125  -6.524  1.00  0.00    -0.544 OA
ENDBRANCH   1   6
TORSDOF 2
ENDMDL
MODEL 3
REMARK VINA RESULT:    -2.529      2.043      2.439
REMARK INTER + INTRA:          -2.751
REMARK INTER:                  -2.751
REMARK INTRA:                   0.000
REMARK UNBOUND:                 0.000
REMARK SMILES [NH3+]CC(=O)[O-]
REMARK SMILES IDX 2 1 1 2 3 6 4 7 5 8
REMARK H PARENT 1 3 1 4 1 5
REMARK Flexibility Score: inf
ROOT
ATOM      1  C   UNL     1       2.472   0.109  -9.184  1.00  0.00     0.312 C 
ENDROOT
BRANCH   1   2
ATOM      2  N   UNL     1       3.687   0.037  -8.375  1.00  0.00    -0.353 N 
ATOM      3  H   UNL     1       4.161  -0.885  -8.519  1.00  0.00     0.344 HD
ATOM      4  H   UNL     1       4.338   0.814  -8.635  1.00  0.00     0.344 HD
ATOM      5  H   UNL     1       3.432   0.133  -7.365  1.00  0.00     0.344 HD
ENDBRANCH   1   2
BRANCH   1   6
ATOM      6  C   UNL     1       1.267  -0.219  -8.357  1.00  0.00     0.096 C 
ATOM      7  O   UNL     1       1.065   0.378  -7.267  1.00  0.00    -0.544 OA
ATOM      8  O   UNL     1       0.340  -1.146  -8.816  1.00  0.00    -0.544 OA
ENDBRANCH   1   6
TORSDOF 2
ENDMDL
MODEL 4
REMARK VINA RESULT:    -2.301      2.105      2.256
REMARK INTER + INTRA:          -2.503
REMARK INTER:                  -2.503
REMARK INTRA:                   0.000
REMARK UNBOUND:                 0.000
REMARK SMILES [NH3+]CC(=O)[O-]
REMARK SMILES IDX 2 1 1 2 3 6 4 7 5 8
REMARK H PARENT 1 3 1 4 1 5
REMARK Flexibility Score: inf
ROOT
ATOM      1  C   UNL     1       2.270  -0.001  -5.842  1.00  0.00     0.312 C 
ENDROOT
BRANCH   1   2
ATOM      2  N   UNL     1       3.517  -0.426  -6.476  1.00  0.00    -0.353 N 
ATOM      3  H   UNL     1       3.654   0.084  -7.378  1.00  0.00     0.344 HD
ATOM      4  H   UNL     1       4.326  -0.241  -5.837  1.00  0.00     0.344 HD
ATOM      5  H   UNL     1       3.469  -1.453  -6.670  1.00  0.00     0.344 HD
ENDBRANCH   1   2
BRANCH   1   6
ATOM      6  C   UNL     1       1.236   0.322  -6.877  1.00  0.00     0.096 C 
ATOM      7  O   UNL     1       0.305   1.127  -6.611  1.00  0.00    -0.544 OA
ATOM      8  O   UNL     1       1.331  -0.227  -8.149  1.00  0.00    -0.544 OA
ENDBRANCH   1   6
TORSDOF 2
ENDMDL
MODEL 5
REMARK VINA RESULT:    -2.294      2.124      2.373
REMARK INTER + INTRA:          -2.495
REMARK INTER:                  -2.495
REMARK INTRA:                   0.000
REMARK UNBOUND:                 0.000
REMARK SMILES [NH3+]CC(=O)[O-]
REMARK SMILES IDX 2 1 1 2 3 6 4 7 5 8
REMARK H PARENT 1 3 1 4 1 5
REMARK Flexibility Score: inf
ROOT
ATOM      1  C   UNL     1       2.235   0.000  -5.839  1.00  0.00     0.312 C 
ENDROOT
BRANCH   1   2
ATOM      2  N   UNL     1       3.491  -0.447  -6.439  1.00  0.00    -0.353 N 
ATOM      3  H   UNL     1       4.048  -0.991  -5.740  1.00  0.00     0.344 HD
ATOM      4  H   UNL     1       3.296  -1.042  -7.278  1.00  0.00     0.344 HD
ATOM      5  H   UNL     1       4.044   0.388  -6.737  1.00  0.00     0.344 HD
ENDBRANCH   1   2
BRANCH   1   6
ATOM      6  C   UNL     1       1.232   0.334  -6.901  1.00  0.00     0.096 C 
ATOM      7  O   UNL     1       1.358  -0.138  -8.062  1.00  0.00    -0.544 OA
ATOM      8  O   UNL     1       0.131   1.122  -6.594  1.00  0.00    -0.544 OA
ENDBRANCH   1   6
TORSDOF 2
ENDMDL
MODEL 6
REMARK VINA RESULT:    -1.997      7.014      7.217
REMARK INTER + INTRA:          -2.172
REMARK INTER:                  -2.172
REMARK INTRA:                   0.000
REMARK UNBOUND:                 0.000
REMARK SMILES [NH3+]CC(=O)[O-]
REMARK SMILES IDX 2 1 1 2 3 6 4 7 5 8
REMARK H PARENT 1 3 1 4 1 5
REMARK Flexibility Score: inf
ROOT
ATOM      1  C   UNL     1      -1.512   3.693  -4.435  1.00  0.00     0.312 C 
ENDROOT
BRANCH   1   2
ATOM      2  N   UNL     1      -1.492   4.124  -5.832  1.00  0.00    -0.353 N 
ATOM      3  H   UNL     1      -1.424   3.293  -6.463  1.00  0.00     0.344 HD
ATOM      4  H   UNL     1      -2.359   4.667  -6.052  1.00  0.00     0.344 HD
ATOM      5  H   UNL     1      -0.660   4.738  -5.987  1.00  0.00     0.344 HD
ENDBRANCH   1   2
BRANCH   1   6
ATOM      6  C   UNL     1      -1.505   4.876  -3.517  1.00  0.00     0.096 C 
ATOM      7  O   UNL     1      -1.151   4.744  -2.315  1.00  0.00    -0.544 OA
ATOM      8  O   UNL     1      -1.839   6.134  -4.002  1.00  0.00    -0.544 OA
ENDBRANCH   1   6
TORSDOF 2
ENDMDL
MODEL 7
REMARK VINA RESULT:    -1.759      6.142      6.366
REMARK INTER + INTRA:          -1.913
REMARK INTER:                  -1.913
REMARK INTRA:                   0.000
REMARK UNBOUND:                 0.000
REMARK SMILES [NH3+]CC(=O)[O-]
REMARK SMILES IDX 2 1 1 2 3 6 4 7 5 8
REMARK H PARENT 1 3 1 4 1 5
REMARK Flexibility Score: inf
ROOT
ATOM      1  C   UNL     1      -1.629   4.551  -3.487  1.00  0.00     0.312 C 
ENDROOT
BRANCH   1   2
ATOM      2  N   UNL     1      -1.722   6.010  -3.479  1.00  0.00    -0.353 N 
ATOM      3  H   UNL     1      -1.171   6.400  -2.680  1.00  0.00     0.344 HD
ATOM      4  H   UNL     1      -1.360   6.397  -4.381  1.00  0.00     0.344 HD
ATOM      5  H   UNL     1      -2.723   6.288  -3.369  1.00  0.00     0.344 HD
ENDBRANCH   1   2
BRANCH   1   6
ATOM      6  C   UNL     1      -1.444   4.041  -4.883  1.00  0.00     0.096 C 
ATOM      7  O   UNL     1      -1.757   4.761  -5.867  1.00  0.00    -0.544 OA
ATOM      8  O   UNL     1      -0.877   2.790  -5.097  1.00  0.00    -0.544 OA
ENDBRANCH   1   6
TORSDOF 2
ENDMDL
MODEL 8
REMARK VINA RESULT:    -1.637      2.312      2.458
REMARK INTER + INTRA:          -1.780
REMARK INTER:                  -1.780
REMARK INTRA:                   0.000
REMARK UNBOUND:                 0.000
REMARK SMILES [NH3+]CC(=O)[O-]
REMARK SMILES IDX 2 1 1 2 3 6 4 7 5 8
REMARK H PARENT 1 3 1 4 1 5
REMARK Flexibility Score: inf
ROOT
ATOM      1  C   UNL     1       0.480  -0.800  -8.598  1.00  0.00     0.312 C 
ENDROOT
BRANCH   1   2
ATOM      2  N   UNL     1       0.814  -1.903  -9.498  1.00  0.00    -0.353 N 
ATOM      3  H   UNL     1       0.263  -2.754  -9.242  1.00  0.00     0.344 HD
ATOM      4  H   UNL     1       0.609  -1.633 -10.488  1.00  0.00     0.344 HD
ATOM      5  H   UNL     1       1.833  -2.118  -9.411  1.00  0.00     0.344 HD
ENDBRANCH   1   2
BRANCH   1   6
ATOM      6  C   UNL     1       1.724  -0.122  -8.109  1.00  0.00     0.096 C 
ATOM      7  O   UNL     1       1.941  -0.013  -6.874  1.00  0.00    -0.544 OA
ATOM      8  O   UNL     1       2.666   0.340  -9.019  1.00  0.00    -0.544 OA
ENDBRANCH   1   6
TORSDOF 2
ENDMDL
MODEL 9
REMARK VINA RESULT:    -1.539      5.451      5.734
REMARK INTER + INTRA:          -1.674
REMARK INTER:                  -1.674
REMARK INTRA:                   0.000
REMARK UNBOUND:                 0.000
REMARK SMILES [NH3+]CC(=O)[O-]
REMARK SMILES IDX 2 1 1 2 3 6 4 7 5 8
REMARK H PARENT 1 3 1 4 1 5
REMARK Flexibility Score: inf
ROOT
ATOM      1  C   UNL     1      -1.645  -2.975 -10.230  1.00  0.00     0.312 C 
ENDROOT
BRANCH   1   2
ATOM      2  N   UNL     1      -0.261  -2.639  -9.900  1.00  0.00    -0.353 N 
ATOM      3  H   UNL     1      -0.132  -1.601  -9.907  1.00  0.00     0.344 HD
ATOM      4  H   UNL     1      -0.014  -3.021  -8.958  1.00  0.00     0.344 HD
ATOM      5  H   UNL     1       0.373  -3.065 -10.614  1.00  0.00     0.344 HD
ENDBRANCH   1   2
BRANCH   1   6
ATOM      6  C   UNL     1      -1.706  -4.241 -11.029  1.00  0.00     0.096 C 
ATOM      7  O   UNL     1      -2.315  -5.246 -10.577  1.00  0.00    -0.544 OA
ATOM      8  O   UNL     1      -1.135  -4.292 -12.294  1.00  0.00    -0.544 OA
ENDBRANCH   1   6
TORSDOF 2
ENDMDL
