MODEL 1
REMARK VINA RESULT:    -4.772      0.000      0.000
REMARK INTER + INTRA:          -5.515
REMARK INTER:                  -5.469
REMARK INTRA:                  -0.046
REMARK UNBOUND:                -0.046
REMARK SMILES O=C([O-])c1cc(O)c(O)c(O)c1
REMARK SMILES IDX 4 1 5 2 12 3 6 4 10 5 8 6 2 7 1 8 3 9 7 10 11 12 9 14
REMARK H PARENT 7 11 11 13 9 15
REMARK Flexibility Score: inf
ROOT
ATOM      1  C   UNL     1      10.659 -16.520   7.657  1.00  0.00     0.005 A 
ATOM      2  C   UNL     1      10.363 -15.187   7.324  1.00  0.00     0.060 A 
ATOM      3  C   UNL     1      11.973 -16.856   8.022  1.00  0.00     0.060 A 
ATOM      4  C   UNL     1      11.362 -14.204   7.355  1.00  0.00     0.162 A 
ATOM      5  C   UNL     1      12.976 -15.881   8.056  1.00  0.00     0.162 A 
ATOM      6  C   UNL     1      12.673 -14.550   7.722  1.00  0.00     0.200 A 
ENDROOT
BRANCH   1   7
ATOM      7  C   UNL     1       9.605 -17.558   7.624  1.00  0.00     0.072 C 
ATOM      8  O   UNL     1       9.231 -18.124   8.687  1.00  0.00    -0.545 OA
ATOM      9  O   UNL     1       9.013 -17.924   6.421  1.00  0.00    -0.545 OA
ENDBRANCH   1   7
BRANCH   4  10
ATOM     10  O   UNL     1      11.055 -12.886   7.023  1.00  0.00    -0.504 OA
ATOM     11  H   UNL     1      10.173 -12.463   7.286  1.00  0.00     0.293 HD
ENDBRANCH   4  10
BRANCH   5  12
ATOM     12  O   UNL     1      14.268 -16.255   8.424  1.00  0.00    -0.504 OA
ATOM     13  H   UNL     1      15.029 -15.589   8.470  1.00  0.00     0.293 HD
ENDBRANCH   5  12
BRANCH   6  14
ATOM     14  O   UNL     1      13.681 -13.584   7.758  1.00  0.00    -0.502 OA
ATOM     15  H   UNL     1      14.663 -13.827   7.725  1.00  0.00     0.293 HD
ENDBRANCH   6  14
TORSDOF 4
ENDMDL
MODEL 2
REMARK VINA RESULT:    -4.755      1.179      4.232
REMARK INTER + INTRA:          -5.496
REMARK INTER:                  -5.451
REMARK INTRA:                  -0.045
REMARK UNBOUND:                -0.046
REMARK SMILES O=C([O-])c1cc(O)c(O)c(O)c1
REMARK SMILES IDX 4 1 5 2 12 3 6 4 10 5 8 6 2 7 1 8 3 9 7 10 11 12 9 14
REMARK H PARENT 7 11 11 13 9 15
REMARK Flexibility Score: inf
ROOT
ATOM      1  C   UNL     1      12.672 -15.595   8.256  1.00  0.00     0.005 A 
ATOM      2  C   UNL     1      11.815 -16.692   8.064  1.00  0.00     0.060 A 
ATOM      3  C   UNL     1      12.284 -14.333   7.776  1.00  0.00     0.060 A 
ATOM      4  C   UNL     1      10.590 -16.534   7.402  1.00  0.00     0.162 A 
ATOM      5  C   UNL     1      11.062 -14.167   7.114  1.00  0.00     0.162 A 
ATOM      6  C   UNL     1      10.210 -15.268   6.925  1.00  0.00     0.200 A 
ENDROOT
BRANCH   1   7
ATOM      7  C   UNL     1      13.966 -15.761   8.955  1.00  0.00     0.072 C 
ATOM      8  O   UNL     1      14.027 -15.703  10.213  1.00  0.00    -0.545 OA
ATOM      9  O   UNL     1      15.133 -15.983   8.233  1.00  0.00    -0.545 OA
ENDBRANCH   1   7
BRANCH   4  10
ATOM     10  O   UNL     1       9.749 -17.629   7.218  1.00  0.00    -0.504 OA
ATOM     11  H   UNL     1       8.917 -17.761   7.781  1.00  0.00     0.293 HD
ENDBRANCH   4  10
BRANCH   5  12
ATOM     12  O   UNL     1      10.713 -12.898   6.652  1.00  0.00    -0.504 OA
ATOM     13  H   UNL     1      10.361 -12.744   5.715  1.00  0.00     0.293 HD
ENDBRANCH   5  12
BRANCH   6  14
ATOM     14  O   UNL     1       8.993 -15.092   6.264  1.00  0.00    -0.502 OA
ATOM     15  H   UNL     1       8.133 -14.894   6.761  1.00  0.00     0.293 HD
ENDBRANCH   6  14
TORSDOF 4
ENDMDL
MODEL 3
REMARK VINA RESULT:    -4.749      1.198      3.811
REMARK INTER + INTRA:          -5.488
REMARK INTER:                  -5.444
REMARK INTRA:                  -0.045
REMARK UNBOUND:                -0.046
REMARK SMILES O=C([O-])c1cc(O)c(O)c(O)c1
REMARK SMILES IDX 4 1 5 2 12 3 6 4 10 5 8 6 2 7 1 8 3 9 7 10 11 12 9 14
REMARK H PARENT 7 11 11 13 9 15
REMARK Flexibility Score: inf
ROOT
ATOM      1  C   UNL     1      12.711 -15.538   8.262  1.00  0.00     0.005 A 
ATOM      2  C   UNL     1      12.317 -14.271   7.800  1.00  0.00     0.060 A 
ATOM      3  C   UNL     1      11.869 -16.639   8.036  1.00  0.00     0.060 A 
ATOM      4  C   UNL     1      11.100 -14.103   7.124  1.00  0.00     0.162 A 
ATOM      5  C   UNL     1      10.653 -16.481   7.362  1.00  0.00     0.162 A 
ATOM      6  C   UNL     1      10.264 -15.211   6.903  1.00  0.00     0.200 A 
ENDROOT
BRANCH   1   7
ATOM      7  C   UNL     1      13.996 -15.715   8.976  1.00  0.00     0.072 C 
ATOM      8  O   UNL     1      14.045 -15.642  10.233  1.00  0.00    -0.545 OA
ATOM      9  O   UNL     1      15.166 -15.966   8.269  1.00  0.00    -0.545 OA
ENDBRANCH   1   7
BRANCH   4  10
ATOM     10  O   UNL     1      10.720 -12.842   6.671  1.00  0.00    -0.504 OA
ATOM     11  H   UNL     1      10.274 -12.712   5.770  1.00  0.00     0.293 HD
ENDBRANCH   4  10
BRANCH   5  12
ATOM     12  O   UNL     1       9.844 -17.599   7.158  1.00  0.00    -0.504 OA
ATOM     13  H   UNL     1       9.748 -18.328   7.853  1.00  0.00     0.293 HD
ENDBRANCH   5  12
BRANCH   6  14
ATOM     14  O   UNL     1       9.049 -15.063   6.231  1.00  0.00    -0.502 OA
ATOM     15  H   UNL     1       8.680 -15.781   5.620  1.00  0.00     0.293 HD
ENDBRANCH   6  14
TORSDOF 4
ENDMDL
MODEL 4
REMARK VINA RESULT:    -4.695      0.101      2.431
REMARK INTER + INTRA:          -5.426
REMARK INTER:                  -5.380
REMARK INTRA:                  -0.046
REMARK UNBOUND:                -0.046
REMARK SMILES O=C([O-])c1cc(O)c(O)c(O)c1
REMARK SMILES IDX 4 1 5 2 12 3 6 4 10 5 8 6 2 7 1 8 3 9 7 10 11 12 9 14
REMARK H PARENT 7 11 11 13 9 15
REMARK Flexibility Score: inf
ROOT
ATOM      1  C   UNL     1      10.630 -16.501   7.670  1.00  0.00     0.005 A 
ATOM      2  C   UNL     1      11.928 -16.884   8.044  1.00  0.00     0.060 A 
ATOM      3  C   UNL     1      10.378 -15.154   7.361  1.00  0.00     0.060 A 
ATOM      4  C   UNL     1      12.962 -15.940   8.109  1.00  0.00     0.162 A 
ATOM      5  C   UNL     1      11.404 -14.204   7.424  1.00  0.00     0.162 A 
ATOM      6  C   UNL     1      12.701 -14.594   7.799  1.00  0.00     0.200 A 
ENDROOT
BRANCH   1   7
ATOM      7  C   UNL     1       9.538 -17.498   7.601  1.00  0.00     0.072 C 
ATOM      8  O   UNL     1       9.177 -18.125   8.633  1.00  0.00    -0.545 OA
ATOM      9  O   UNL     1       8.895 -17.756   6.396  1.00  0.00    -0.545 OA
ENDBRANCH   1   7
BRANCH   4  10
ATOM     10  O   UNL     1      14.246 -16.333   8.481  1.00  0.00    -0.504 OA
ATOM     11  H   UNL     1      14.927 -16.640   7.797  1.00  0.00     0.293 HD
ENDBRANCH   4  10
BRANCH   5  12
ATOM     12  O   UNL     1      11.115 -12.876   7.109  1.00  0.00    -0.504 OA
ATOM     13  H   UNL     1      11.325 -12.479   6.202  1.00  0.00     0.293 HD
ENDBRANCH   5  12
BRANCH   6  14
ATOM     14  O   UNL     1      13.718 -13.640   7.858  1.00  0.00    -0.502 OA
ATOM     15  H   UNL     1      14.088 -13.300   8.737  1.00  0.00     0.293 HD
ENDBRANCH   6  14
TORSDOF 4
ENDMDL
MODEL 5
REMARK VINA RESULT:    -4.193      1.284      4.557
REMARK INTER + INTRA:          -4.852
REMARK INTER:                  -4.800
REMARK INTRA:                  -0.052
REMARK UNBOUND:                -0.046
REMARK SMILES O=C([O-])c1cc(O)c(O)c(O)c1
REMARK SMILES IDX 4 1 5 2 12 3 6 4 10 5 8 6 2 7 1 8 3 9 7 10 11 12 9 14
REMARK H PARENT 7 11 11 13 9 15
REMARK Flexibility Score: inf
ROOT
ATOM      1  C   UNL     1      11.909 -15.498   8.168  1.00  0.00     0.005 A 
ATOM      2  C   UNL     1      11.273 -16.607   8.753  1.00  0.00     0.060 A 
ATOM      3  C   UNL     1      11.252 -14.798   7.143  1.00  0.00     0.060 A 
ATOM      4  C   UNL     1      10.002 -17.011   8.322  1.00  0.00     0.162 A 
ATOM      5  C   UNL     1       9.983 -15.195   6.707  1.00  0.00     0.162 A 
ATOM      6  C   UNL     1       9.353 -16.304   7.296  1.00  0.00     0.200 A 
ENDROOT
BRANCH   1   7
ATOM      7  C   UNL     1      13.251 -15.071   8.622  1.00  0.00     0.072 C 
ATOM      8  O   UNL     1      13.734 -15.513   9.699  1.00  0.00    -0.545 OA
ATOM      9  O   UNL     1      13.998 -14.175   7.867  1.00  0.00    -0.545 OA
ENDBRANCH   1   7
BRANCH   4  10
ATOM     10  O   UNL     1       9.383 -18.112   8.911  1.00  0.00    -0.504 OA
ATOM     11  H   UNL     1       8.796 -18.016   9.731  1.00  0.00     0.293 HD
ENDBRANCH   4  10
BRANCH   5  12
ATOM     12  O   UNL     1       9.363 -14.473   5.687  1.00  0.00    -0.504 OA
ATOM     13  H   UNL     1       8.877 -14.927   4.924  1.00  0.00     0.293 HD
ENDBRANCH   5  12
BRANCH   6  14
ATOM     14  O   UNL     1       8.087 -16.692   6.855  1.00  0.00    -0.502 OA
ATOM     15  H   UNL     1       7.237 -16.364   7.297  1.00  0.00     0.293 HD
ENDBRANCH   6  14
TORSDOF 4
ENDMDL
MODEL 6
REMARK VINA RESULT:    -4.092      2.040      2.602
REMARK INTER + INTRA:          -4.736
REMARK INTER:                  -4.683
REMARK INTRA:                  -0.053
REMARK UNBOUND:                -0.046
REMARK SMILES O=C([O-])c1cc(O)c(O)c(O)c1
REMARK SMILES IDX 4 1 5 2 12 3 6 4 10 5 8 6 2 7 1 8 3 9 7 10 11 12 9 14
REMARK H PARENT 7 11 11 13 9 15
REMARK Flexibility Score: inf
ROOT
ATOM      1  C   UNL     1      10.693 -16.457   7.840  1.00  0.00     0.005 A 
ATOM      2  C   UNL     1      11.502 -15.910   8.851  1.00  0.00     0.060 A 
ATOM      3  C   UNL     1      11.296 -17.195   6.808  1.00  0.00     0.060 A 
ATOM      4  C   UNL     1      12.891 -16.097   8.833  1.00  0.00     0.162 A 
ATOM      5  C   UNL     1      12.682 -17.386   6.783  1.00  0.00     0.162 A 
ATOM      6  C   UNL     1      13.485 -16.836   7.797  1.00  0.00     0.200 A 
ENDROOT
BRANCH   1   7
ATOM      7  C   UNL     1       9.226 -16.261   7.857  1.00  0.00     0.072 C 
ATOM      8  O   UNL     1       8.666 -15.700   8.838  1.00  0.00    -0.545 OA
ATOM      9  O   UNL     1       8.445 -16.692   6.792  1.00  0.00    -0.545 OA
ENDBRANCH   1   7
BRANCH   4  10
ATOM     10  O   UNL     1      13.682 -15.550   9.842  1.00  0.00    -0.504 OA
ATOM     11  H   UNL     1      14.201 -16.135  10.486  1.00  0.00     0.293 HD
ENDBRANCH   4  10
BRANCH   5  12
ATOM     12  O   UNL     1      13.242 -18.125   5.742  1.00  0.00    -0.504 OA
ATOM     13  H   UNL     1      12.980 -17.980   4.775  1.00  0.00     0.293 HD
ENDBRANCH   5  12
BRANCH   6  14
ATOM     14  O   UNL     1      14.867 -17.033   7.763  1.00  0.00    -0.502 OA
ATOM     15  H   UNL     1      15.460 -16.579   7.079  1.00  0.00     0.293 HD
ENDBRANCH   6  14
TORSDOF 4
ENDMDL
MODEL 7
REMARK VINA RESULT:    -3.993      2.100      2.644
REMARK INTER + INTRA:          -4.623
REMARK INTER:                  -4.574
REMARK INTRA:                  -0.048
REMARK UNBOUND:                -0.046
REMARK SMILES O=C([O-])c1cc(O)c(O)c(O)c1
REMARK SMILES IDX 4 1 5 2 12 3 6 4 10 5 8 6 2 7 1 8 3 9 7 10 11 12 9 14
REMARK H PARENT 7 11 11 13 9 15
REMARK Flexibility Score: inf
ROOT
ATOM      1  C   UNL     1      10.220 -16.933   8.075  1.00  0.00     0.005 A 
ATOM      2  C   UNL     1      10.837 -17.488   6.941  1.00  0.00     0.060 A 
ATOM      3  C   UNL     1      11.015 -16.296   9.041  1.00  0.00     0.060 A 
ATOM      4  C   UNL     1      12.226 -17.409   6.773  1.00  0.00     0.162 A 
ATOM      5  C   UNL     1      12.403 -16.212   8.881  1.00  0.00     0.162 A 
ATOM      6  C   UNL     1      13.014 -16.770   7.744  1.00  0.00     0.200 A 
ENDROOT
BRANCH   1   7
ATOM      7  C   UNL     1       8.753 -17.016   8.254  1.00  0.00     0.072 C 
ATOM      8  O   UNL     1       8.140 -18.094   8.027  1.00  0.00    -0.545 OA
ATOM      9  O   UNL     1       8.030 -15.906   8.675  1.00  0.00    -0.545 OA
ENDBRANCH   1   7
BRANCH   4  10
ATOM     10  O   UNL     1      12.825 -17.964   5.644  1.00  0.00    -0.504 OA
ATOM     11  H   UNL     1      12.932 -18.965   5.536  1.00  0.00     0.293 HD
ENDBRANCH   4  10
BRANCH   5  12
ATOM     12  O   UNL     1      13.158 -15.571   9.862  1.00  0.00    -0.504 OA
ATOM     13  H   UNL     1      13.055 -14.584  10.062  1.00  0.00     0.293 HD
ENDBRANCH   5  12
BRANCH   6  14
ATOM     14  O   UNL     1      14.399 -16.681   7.593  1.00  0.00    -0.502 OA
ATOM     15  H   UNL     1      15.037 -17.264   8.120  1.00  0.00     0.293 HD
ENDBRANCH   6  14
TORSDOF 4
ENDMDL
MODEL 8
REMARK VINA RESULT:    -3.599      1.562      4.616
REMARK INTER + INTRA:          -4.171
REMARK INTER:                  -4.126
REMARK INTRA:                  -0.045
REMARK UNBOUND:                -0.046
REMARK SMILES O=C([O-])c1cc(O)c(O)c(O)c1
REMARK SMILES IDX 4 1 5 2 12 3 6 4 10 5 8 6 2 7 1 8 3 9 7 10 11 12 9 14
REMARK H PARENT 7 11 11 13 9 15
REMARK Flexibility Score: inf
ROOT
ATOM      1  C   UNL     1      12.493 -15.700   8.126  1.00  0.00     0.005 A 
ATOM      2  C   UNL     1      12.787 -16.556   7.052  1.00  0.00     0.060 A 
ATOM      3  C   UNL     1      11.162 -15.576   8.556  1.00  0.00     0.060 A 
ATOM      4  C   UNL     1      11.768 -17.278   6.415  1.00  0.00     0.162 A 
ATOM      5  C   UNL     1      10.139 -16.293   7.927  1.00  0.00     0.162 A 
ATOM      6  C   UNL     1      10.439 -17.148   6.852  1.00  0.00     0.200 A 
ENDROOT
BRANCH   1   7
ATOM      7  C   UNL     1      13.568 -14.936   8.800  1.00  0.00     0.072 C 
ATOM      8  O   UNL     1      13.966 -13.838   8.327  1.00  0.00    -0.545 OA
ATOM      9  O   UNL     1      14.154 -15.421   9.963  1.00  0.00    -0.545 OA
ENDBRANCH   1   7
BRANCH   4  10
ATOM     10  O   UNL     1      12.072 -18.124   5.350  1.00  0.00    -0.504 OA
ATOM     11  H   UNL     1      11.964 -19.129   5.422  1.00  0.00     0.293 HD
ENDBRANCH   4  10
BRANCH   5  12
ATOM     12  O   UNL     1       8.830 -16.144   8.383  1.00  0.00    -0.504 OA
ATOM     13  H   UNL     1       8.422 -16.771   9.066  1.00  0.00     0.293 HD
ENDBRANCH   5  12
BRANCH   6  14
ATOM     14  O   UNL     1       9.412 -17.860   6.230  1.00  0.00    -0.502 OA
ATOM     15  H   UNL     1       9.461 -18.861   6.084  1.00  0.00     0.293 HD
ENDBRANCH   6  14
TORSDOF 4
ENDMDL
