MODEL 1
REMARK VINA RESULT:    32.937      0.000      0.000
REMARK INTER + INTRA:          49.071
REMARK INTER:                  45.453
REMARK INTRA:                   3.618
REMARK UNBOUND:                 3.618
REMARK SMILES CC[C@H](CC[C@H](C)[C@H]1CC[C@H]2[C@@H]3CC=C4C[C@H](O)CC[C@]4(C)[C@H]3CC[C@@]12C)C(C)C
REMARK SMILES IDX 5 1 4 2 3 3 2 4 1 5 28 6 29 7 30 8 6 9 7 10 8 11 9 12 26 13
REMARK SMILES IDX 10 14 11 15 25 16 27 17 12 18 24 19 23 20 13 21 21 22 14 23
REMARK SMILES IDX 15 24 20 25 22 26 16 27 19 28 17 29 18 30
REMARK H PARENT 18 31
REMARK Flexibility Score: inf
ROOT
ATOM      1  C   UNL     1       0.869  47.300  49.811  1.00  0.00     0.004 C 
ENDROOT
BRANCH   1   2
ATOM      2  C   UNL     1       2.394  47.081  49.727  1.00  0.00     0.004 C 
BRANCH   2   3
ATOM      3  C   UNL     1       3.119  48.104  48.805  1.00  0.00    -0.009 C 
BRANCH   3   4
ATOM      4  C   UNL     1       4.654  47.852  48.823  1.00  0.00     0.000 C 
ATOM      5  C   UNL     1       5.256  47.739  47.420  1.00  0.00     0.004 C 
ENDBRANCH   3   4
BRANCH   3   6
ATOM      6  C   UNL     1       2.536  48.120  47.350  1.00  0.00    -0.014 C 
ATOM      7  C   UNL     1       1.000  48.057  47.300  1.00  0.00     0.007 C 
ATOM      8  C   UNL     1       3.141  47.009  46.475  1.00  0.00     0.007 C 
ENDBRANCH   3   6
ENDBRANCH   2   3
ENDBRANCH   1   2
BRANCH   1   9
ATOM      9  C   UNL     1       0.096  46.053  50.323  1.00  0.00    -0.011 C 
ATOM     10  C   UNL     1       0.367  45.848  51.830  1.00  0.00     0.008 C 
BRANCH   9  11
ATOM     11  C   UNL     1       0.430  44.802  49.431  1.00  0.00    -0.002 C 
ATOM     12  C   UNL     1       1.189  45.078  48.140  1.00  0.00     0.005 C 
ATOM     13  C   UNL     1       1.175  43.605  50.095  1.00  0.00    -0.026 C 
ATOM     14  C   UNL     1       1.574  43.697  47.634  1.00  0.00     0.005 C 
ATOM     15  C   UNL     1       1.719  42.787  48.878  1.00  0.00    -0.001 C 
ATOM     16  C   UNL     1       2.352  44.054  50.997  1.00  0.00     0.007 C 
ATOM     17  C   UNL     1       0.166  42.764  50.923  1.00  0.00     0.012 C 
ATOM     18  C   UNL     1       3.189  42.262  49.022  1.00  0.00     0.000 C 
ATOM     19  C   UNL     1       3.154  42.869  51.546  1.00  0.00     0.005 C 
ATOM     20  C   UNL     1       3.521  41.803  50.467  1.00  0.00     0.003 C 
ATOM     21  C   UNL     1       3.418  41.100  48.032  1.00  0.00     0.031 C 
ATOM     22  C   UNL     1       5.004  41.269  50.588  1.00  0.00    -0.008 C 
ATOM     23  C   UNL     1       4.664  40.302  48.289  1.00  0.00    -0.027 C 
ATOM     24  C   UNL     1       5.288  40.244  49.484  1.00  0.00    -0.065 C 
ATOM     25  C   UNL     1       5.168  40.590  51.984  1.00  0.00     0.014 C 
ATOM     26  C   UNL     1       6.054  42.407  50.434  1.00  0.00     0.016 C 
ATOM     27  C   UNL     1       6.480  39.314  49.622  1.00  0.00     0.063 C 
ATOM     28  C   UNL     1       6.442  39.743  52.125  1.00  0.00     0.033 C 
ATOM     29  C   UNL     1       6.556  38.683  51.021  1.00  0.00     0.118 C 
BRANCH  29  30
ATOM     30  O   UNL     1       5.597  37.665  51.189  1.00  0.00    -0.393 OA
ATOM     31  H   UNL     1       5.260  37.703  52.121  1.00  0.00     0.210 HD
ENDBRANCH  29  30
ENDBRANCH   9  11
ENDBRANCH   1   9
TORSDOF 7
ENDMDL
MODEL 2
REMARK VINA RESULT:    35.834      1.257      2.739
REMARK INTER + INTRA:          53.068
REMARK INTER:                  51.198
REMARK INTRA:                   1.870
REMARK UNBOUND:                 3.618
REMARK SMILES CC[C@H](CC[C@H](C)[C@H]1CC[C@H]2[C@@H]3CC=C4C[C@H](O)CC[C@]4(C)[C@H]3CC[C@@]12C)C(C)C
REMARK SMILES IDX 5 1 4 2 3 3 2 4 1 5 28 6 29 7 30 8 6 9 7 10 8 11 9 12 26 13
REMARK SMILES IDX 10 14 11 15 25 16 27 17 12 18 24 19 23 20 13 21 21 22 14 23
REMARK SMILES IDX 15 24 20 25 22 26 16 27 19 28 17 29 18 30
REMARK H PARENT 18 31
REMARK Flexibility Score: inf
ROOT
ATOM      1  C   UNL     1       1.339  47.225  50.747  1.00  0.00     0.004 C 
ENDROOT
BRANCH   1   2
ATOM      2  C   UNL     1       0.263  48.091  50.058  1.00  0.00     0.004 C 
BRANCH   2   3
ATOM      3  C   UNL     1      -1.022  47.300  49.677  1.00  0.00    -0.009 C 
BRANCH   3   4
ATOM      4  C   UNL     1      -1.118  47.141  48.133  1.00  0.00     0.000 C 
ATOM      5  C   UNL     1      -0.000  47.876  47.388  1.00  0.00     0.004 C 
ENDBRANCH   3   4
BRANCH   3   6
ATOM      6  C   UNL     1      -1.125  45.925  50.424  1.00  0.00    -0.014 C 
ATOM      7  C   UNL     1      -0.373  45.895  51.766  1.00  0.00     0.007 C 
ATOM      8  C   UNL     1      -0.673  44.752  49.537  1.00  0.00     0.007 C 
ENDBRANCH   3   6
ENDBRANCH   2   3
ENDBRANCH   1   2
BRANCH   1   9
ATOM      9  C   UNL     1       2.452  46.742  49.777  1.00  0.00    -0.011 C 
ATOM     10  C   UNL     1       2.698  47.806  48.685  1.00  0.00     0.008 C 
BRANCH   9  11
ATOM     11  C   UNL     1       2.105  45.313  49.220  1.00  0.00    -0.002 C 
ATOM     12  C   UNL     1       2.469  45.050  47.765  1.00  0.00     0.005 C 
ATOM     13  C   UNL     1       2.629  44.072  50.004  1.00  0.00    -0.026 C 
ATOM     14  C   UNL     1       2.249  43.556  47.592  1.00  0.00     0.005 C 
ATOM     15  C   UNL     1       2.499  42.903  48.973  1.00  0.00    -0.001 C 
ATOM     16  C   UNL     1       4.106  44.221  50.447  1.00  0.00     0.007 C 
ATOM     17  C   UNL     1       1.727  43.825  51.243  1.00  0.00     0.012 C 
ATOM     18  C   UNL     1       3.715  41.916  48.918  1.00  0.00     0.000 C 
ATOM     19  C   UNL     1       4.650  42.949  51.107  1.00  0.00     0.005 C 
ATOM     20  C   UNL     1       4.328  41.642  50.316  1.00  0.00     0.003 C 
ATOM     21  C   UNL     1       3.268  40.588  48.268  1.00  0.00     0.031 C 
ATOM     22  C   UNL     1       5.546  40.638  50.238  1.00  0.00    -0.008 C 
ATOM     23  C   UNL     1       4.236  39.453  48.445  1.00  0.00    -0.027 C 
ATOM     24  C   UNL     1       5.155  39.395  49.431  1.00  0.00    -0.065 C 
ATOM     25  C   UNL     1       5.929  40.217  51.692  1.00  0.00     0.014 C 
ATOM     26  C   UNL     1       6.784  41.266  49.534  1.00  0.00     0.016 C 
ATOM     27  C   UNL     1       5.998  38.138  49.547  1.00  0.00     0.063 C 
ATOM     28  C   UNL     1       6.871  39.006  51.768  1.00  0.00     0.033 C 
ATOM     29  C   UNL     1       6.316  37.792  51.011  1.00  0.00     0.118 C 
BRANCH  29  30
ATOM     30  O   UNL     1       5.201  37.244  51.673  1.00  0.00    -0.393 OA
ATOM     31  H   UNL     1       5.527  36.687  52.427  1.00  0.00     0.210 HD
ENDBRANCH  29  30
ENDBRANCH   9  11
ENDBRANCH   1   9
TORSDOF 7
ENDMDL
