MODEL 1
REMARK VINA RESULT:    -3.883      0.000      0.000
REMARK INTER + INTRA:          -4.126
REMARK INTER:                  -4.110
REMARK INTRA:                  -0.016
REMARK UNBOUND:                -0.016
REMARK SMILES O=C([O-])c1cccnc1
REMARK SMILES IDX 4 1 5 2 9 3 6 4 8 5 7 6 2 7 1 8 3 9
REMARK H PARENT
REMARK Flexibility Score: inf
ROOT
ATOM      1  C   UNL     1      16.114  24.646  15.739  1.00  0.00     0.016 A 
ATOM      2  C   UNL     1      17.244  24.586  14.905  1.00  0.00     0.013 A 
ATOM      3  C   UNL     1      15.571  25.907  16.040  1.00  0.00     0.120 A 
ATOM      4  C   UNL     1      17.803  25.760  14.397  1.00  0.00     0.021 A 
ATOM      5  N   UNL     1      16.135  27.035  15.531  1.00  0.00    -0.264 NA
ATOM      6  C   UNL     1      17.229  26.989  14.725  1.00  0.00     0.111 A 
ENDROOT
BRANCH   1   7
ATOM      7  C   UNL     1      15.506  23.414  16.288  1.00  0.00     0.073 C 
ATOM      8  O   UNL     1      15.939  22.909  17.358  1.00  0.00    -0.545 OA
ATOM      9  O   UNL     1      14.449  22.796  15.629  1.00  0.00    -0.545 OA
ENDBRANCH   1   7
TORSDOF 1
ENDMDL
MODEL 2
REMARK VINA RESULT:    -3.856      2.982      3.850
REMARK INTER + INTRA:          -4.098
REMARK INTER:                  -4.082
REMARK INTRA:                  -0.016
REMARK UNBOUND:                -0.016
REMARK SMILES O=C([O-])c1cccnc1
REMARK SMILES IDX 4 1 5 2 9 3 6 4 8 5 7 6 2 7 1 8 3 9
REMARK H PARENT
REMARK Flexibility Score: inf
ROOT
ATOM      1  C   UNL     1      16.439  26.170  15.750  1.00  0.00     0.016 A 
ATOM      2  C   UNL     1      16.962  24.966  15.248  1.00  0.00     0.013 A 
ATOM      3  C   UNL     1      15.512  26.108  16.805  1.00  0.00     0.120 A 
ATOM      4  C   UNL     1      16.559  23.745  15.794  1.00  0.00     0.021 A 
ATOM      5  N   UNL     1      15.137  24.906  17.318  1.00  0.00    -0.264 NA
ATOM      6  C   UNL     1      15.636  23.735  16.839  1.00  0.00     0.111 A 
ENDROOT
BRANCH   1   7
ATOM      7  C   UNL     1      16.852  27.473  15.186  1.00  0.00     0.073 C 
ATOM      8  O   UNL     1      16.231  27.974  14.211  1.00  0.00    -0.545 OA
ATOM      9  O   UNL     1      17.933  28.163  15.724  1.00  0.00    -0.545 OA
ENDBRANCH   1   7
TORSDOF 1
ENDMDL
MODEL 3
REMARK VINA RESULT:    -3.845      1.166      1.345
REMARK INTER + INTRA:          -4.086
REMARK INTER:                  -4.063
REMARK INTRA:                  -0.023
REMARK UNBOUND:                -0.016
REMARK SMILES O=C([O-])c1cccnc1
REMARK SMILES IDX 4 1 5 2 9 3 6 4 8 5 7 6 2 7 1 8 3 9
REMARK H PARENT
REMARK Flexibility Score: inf
ROOT
ATOM      1  C   UNL     1      16.502  25.499  15.722  1.00  0.00     0.016 A 
ATOM      2  C   UNL     1      17.713  26.076  16.142  1.00  0.00     0.013 A 
ATOM      3  C   UNL     1      15.640  26.264  14.917  1.00  0.00     0.120 A 
ATOM      4  C   UNL     1      18.036  27.380  15.761  1.00  0.00     0.021 A 
ATOM      5  N   UNL     1      15.980  27.532  14.561  1.00  0.00    -0.264 NA
ATOM      6  C   UNL     1      17.148  28.101  14.963  1.00  0.00     0.111 A 
ENDROOT
BRANCH   1   7
ATOM      7  C   UNL     1      16.140  24.120  16.113  1.00  0.00     0.073 C 
ATOM      8  O   UNL     1      16.668  23.582  17.122  1.00  0.00    -0.545 OA
ATOM      9  O   UNL     1      15.211  23.398  15.372  1.00  0.00    -0.545 OA
ENDBRANCH   1   7
TORSDOF 1
ENDMDL
MODEL 4
REMARK VINA RESULT:    -3.820      2.727      3.528
REMARK INTER + INTRA:          -4.059
REMARK INTER:                  -4.038
REMARK INTRA:                  -0.021
REMARK UNBOUND:                -0.016
REMARK SMILES O=C([O-])c1cccnc1
REMARK SMILES IDX 4 1 5 2 9 3 6 4 8 5 7 6 2 7 1 8 3 9
REMARK H PARENT
REMARK Flexibility Score: inf
ROOT
ATOM      1  C   UNL     1      16.580  25.415  15.798  1.00  0.00     0.016 A 
ATOM      2  C   UNL     1      16.593  24.010  15.858  1.00  0.00     0.013 A 
ATOM      3  C   UNL     1      16.198  26.129  16.947  1.00  0.00     0.120 A 
ATOM      4  C   UNL     1      16.229  23.356  17.038  1.00  0.00     0.021 A 
ATOM      5  N   UNL     1      15.849  25.466  18.082  1.00  0.00    -0.264 NA
ATOM      6  C   UNL     1      15.856  24.108  18.151  1.00  0.00     0.111 A 
ENDROOT
BRANCH   1   7
ATOM      7  C   UNL     1      16.961  26.127  14.560  1.00  0.00     0.073 C 
ATOM      8  O   UNL     1      17.901  25.699  13.839  1.00  0.00    -0.545 OA
ATOM      9  O   UNL     1      16.286  27.280  14.175  1.00  0.00    -0.545 OA
ENDBRANCH   1   7
TORSDOF 1
ENDMDL
MODEL 5
REMARK VINA RESULT:    -3.816      3.019      4.080
REMARK INTER + INTRA:          -4.056
REMARK INTER:                  -4.035
REMARK INTRA:                  -0.021
REMARK UNBOUND:                -0.016
REMARK SMILES O=C([O-])c1cccnc1
REMARK SMILES IDX 4 1 5 2 9 3 6 4 8 5 7 6 2 7 1 8 3 9
REMARK H PARENT
REMARK Flexibility Score: inf
ROOT
ATOM      1  C   UNL     1      16.126  26.181  15.835  1.00  0.00     0.016 A 
ATOM      2  C   UNL     1      15.381  25.830  16.975  1.00  0.00     0.013 A 
ATOM      3  C   UNL     1      16.797  25.164  15.135  1.00  0.00     0.120 A 
ATOM      4  C   UNL     1      15.321  24.497  17.389  1.00  0.00     0.021 A 
ATOM      5  N   UNL     1      16.721  23.874  15.561  1.00  0.00    -0.264 NA
ATOM      6  C   UNL     1      16.005  23.523  16.662  1.00  0.00     0.111 A 
ENDROOT
BRANCH   1   7
ATOM      7  C   UNL     1      16.203  27.586  15.380  1.00  0.00     0.073 C 
ATOM      8  O   UNL     1      16.308  27.857  14.154  1.00  0.00    -0.545 OA
ATOM      9  O   UNL     1      16.160  28.628  16.300  1.00  0.00    -0.545 OA
ENDBRANCH   1   7
TORSDOF 1
ENDMDL
MODEL 6
REMARK VINA RESULT:    -3.760      1.571      2.176
REMARK INTER + INTRA:          -3.996
REMARK INTER:                  -3.978
REMARK INTRA:                  -0.018
REMARK UNBOUND:                -0.016
REMARK SMILES O=C([O-])c1cccnc1
REMARK SMILES IDX 4 1 5 2 9 3 6 4 8 5 7 6 2 7 1 8 3 9
REMARK H PARENT
REMARK Flexibility Score: inf
ROOT
ATOM      1  C   UNL     1      16.101  25.814  15.693  1.00  0.00     0.016 A 
ATOM      2  C   UNL     1      16.062  26.568  16.879  1.00  0.00     0.013 A 
ATOM      3  C   UNL     1      16.199  26.498  14.469  1.00  0.00     0.120 A 
ATOM      4  C   UNL     1      16.119  27.962  16.825  1.00  0.00     0.021 A 
ATOM      5  N   UNL     1      16.253  27.856  14.446  1.00  0.00    -0.264 NA
ATOM      6  C   UNL     1      16.215  28.596  15.586  1.00  0.00     0.111 A 
ENDROOT
BRANCH   1   7
ATOM      7  C   UNL     1      16.042  24.337  15.729  1.00  0.00     0.073 C 
ATOM      8  O   UNL     1      16.978  23.647  15.245  1.00  0.00    -0.545 OA
ATOM      9  O   UNL     1      14.950  23.689  16.297  1.00  0.00    -0.545 OA
ENDBRANCH   1   7
TORSDOF 1
ENDMDL
MODEL 7
REMARK VINA RESULT:    -3.674      3.768      4.680
REMARK INTER + INTRA:          -3.905
REMARK INTER:                  -3.888
REMARK INTRA:                  -0.017
REMARK UNBOUND:                -0.016
REMARK SMILES O=C([O-])c1cccnc1
REMARK SMILES IDX 4 1 5 2 9 3 6 4 8 5 7 6 2 7 1 8 3 9
REMARK H PARENT
REMARK Flexibility Score: inf
ROOT
ATOM      1  C   UNL     1      16.227  27.904  15.469  1.00  0.00     0.016 A 
ATOM      2  C   UNL     1      16.055  27.625  16.836  1.00  0.00     0.013 A 
ATOM      3  C   UNL     1      16.227  26.830  14.562  1.00  0.00     0.120 A 
ATOM      4  C   UNL     1      15.890  26.307  17.266  1.00  0.00     0.021 A 
ATOM      5  N   UNL     1      16.064  25.556  15.009  1.00  0.00    -0.264 NA
ATOM      6  C   UNL     1      15.898  25.274  16.328  1.00  0.00     0.111 A 
ENDROOT
BRANCH   1   7
ATOM      7  C   UNL     1      16.403  29.292  14.992  1.00  0.00     0.073 C 
ATOM      8  O   UNL     1      17.475  29.915  15.216  1.00  0.00    -0.545 OA
ATOM      9  O   UNL     1      15.387  29.930  14.289  1.00  0.00    -0.545 OA
ENDBRANCH   1   7
TORSDOF 1
ENDMDL
MODEL 8
REMARK VINA RESULT:    -3.670      1.461      1.935
REMARK INTER + INTRA:          -3.900
REMARK INTER:                  -3.882
REMARK INTRA:                  -0.018
REMARK UNBOUND:                -0.016
REMARK SMILES O=C([O-])c1cccnc1
REMARK SMILES IDX 4 1 5 2 9 3 6 4 8 5 7 6 2 7 1 8 3 9
REMARK H PARENT
REMARK Flexibility Score: inf
ROOT
ATOM      1  C   UNL     1      16.240  25.676  15.563  1.00  0.00     0.016 A 
ATOM      2  C   UNL     1      16.604  26.499  14.483  1.00  0.00     0.013 A 
ATOM      3  C   UNL     1      15.910  26.285  16.786  1.00  0.00     0.120 A 
ATOM      4  C   UNL     1      16.633  27.886  14.639  1.00  0.00     0.021 A 
ATOM      5  N   UNL     1      15.947  27.638  16.910  1.00  0.00    -0.264 NA
ATOM      6  C   UNL     1      16.298  28.444  15.873  1.00  0.00     0.111 A 
ENDROOT
BRANCH   1   7
ATOM      7  C   UNL     1      16.202  24.205  15.420  1.00  0.00     0.073 C 
ATOM      8  O   UNL     1      15.147  23.564  15.669  1.00  0.00    -0.545 OA
ATOM      9  O   UNL     1      17.333  23.508  15.007  1.00  0.00    -0.545 OA
ENDBRANCH   1   7
TORSDOF 1
ENDMDL
MODEL 9
REMARK VINA RESULT:    -3.472      2.629      3.462
REMARK INTER + INTRA:          -3.691
REMARK INTER:                  -3.673
REMARK INTRA:                  -0.018
REMARK UNBOUND:                -0.016
REMARK SMILES O=C([O-])c1cccnc1
REMARK SMILES IDX 4 1 5 2 9 3 6 4 8 5 7 6 2 7 1 8 3 9
REMARK H PARENT
REMARK Flexibility Score: inf
ROOT
ATOM      1  C   UNL     1      17.248  27.543  15.482  1.00  0.00     0.016 A 
ATOM      2  C   UNL     1      18.125  28.480  16.057  1.00  0.00     0.013 A 
ATOM      3  C   UNL     1      16.201  28.018  14.672  1.00  0.00     0.120 A 
ATOM      4  C   UNL     1      17.945  29.845  15.822  1.00  0.00     0.021 A 
ATOM      5  N   UNL     1      16.050  29.352  14.459  1.00  0.00    -0.264 NA
ATOM      6  C   UNL     1      16.891  30.266  15.012  1.00  0.00     0.111 A 
ENDROOT
BRANCH   1   7
ATOM      7  C   UNL     1      17.420  26.094  15.719  1.00  0.00     0.073 C 
ATOM      8  O   UNL     1      17.355  25.624  16.886  1.00  0.00    -0.545 OA
ATOM      9  O   UNL     1      17.657  25.230  14.656  1.00  0.00    -0.545 OA
ENDBRANCH   1   7
TORSDOF 1
ENDMDL
