MODEL 1
REMARK VINA RESULT:    -6.123      0.000      0.000
REMARK INTER + INTRA:          -8.825
REMARK INTER:                  -8.270
REMARK INTRA:                  -0.554
REMARK UNBOUND:                -0.554
REMARK SMILES O=c1c(-c2ccc(O)cc2)coc2c([C@@H]3O[C@H](CO)[C@H](O)[C@@H](O)[C@@H]3O)c(O)ccc12
REMARK SMILES IDX 3 1 11 2 12 3 13 4 30 5 2 6 1 7 29 8 28 9 26 10 14 11 4 12
REMARK SMILES IDX 5 13 6 14 7 15 10 16 9 17 8 18 15 20 24 21 16 22 22 23 17 24
REMARK SMILES IDX 20 25 25 26 23 28 18 30 19 31 21 33 27 35
REMARK H PARENT 8 19 25 27 23 29 19 32 21 34 27 36
REMARK Flexibility Score: inf
ROOT
ATOM      1  C   UNL     1      12.622  43.445  20.869  1.00  0.00     0.065 A 
ATOM      2  C   UNL     1      13.920  43.004  21.157  1.00  0.00     0.208 A 
ATOM      3  O   UNL     1      14.819  43.827  21.681  1.00  0.00    -0.463 OA
ATOM      4  C   UNL     1      14.562  45.101  21.970  1.00  0.00     0.147 A 
ATOM      5  C   UNL     1      13.270  45.625  21.727  1.00  0.00     0.066 A 
ATOM      6  C   UNL     1      12.293  44.781  21.171  1.00  0.00     0.200 A 
ATOM      7  O   UNL     1      11.124  45.210  20.962  1.00  0.00    -0.288 OA
ATOM      8  C   UNL     1      12.992  46.961  22.053  1.00  0.00     0.020 A 
ATOM      9  C   UNL     1      13.977  47.766  22.621  1.00  0.00     0.047 A 
ATOM     10  C   UNL     1      15.258  47.259  22.867  1.00  0.00     0.125 A 
ATOM     11  C   UNL     1      15.575  45.927  22.522  1.00  0.00     0.069 A 
ENDROOT
BRANCH   1  12
ATOM     12  C   UNL     1      11.637  42.510  20.267  1.00  0.00    -0.011 A 
ATOM     13  C   UNL     1      10.612  41.958  21.050  1.00  0.00     0.013 A 
ATOM     14  C   UNL     1       9.691  41.071  20.487  1.00  0.00     0.047 A 
ATOM     15  C   UNL     1       9.787  40.721  19.134  1.00  0.00     0.115 A 
ATOM     16  C   UNL     1      11.729  42.150  18.911  1.00  0.00     0.013 A 
ATOM     17  C   UNL     1      10.806  41.262  18.350  1.00  0.00     0.047 A 
BRANCH  15  18
ATOM     18  O   UNL     1       8.879  39.834  18.561  1.00  0.00    -0.508 OA
ATOM     19  H   UNL     1       8.626  39.897  17.581  1.00  0.00     0.293 HD
ENDBRANCH  15  18
ENDBRANCH   1  12
BRANCH  11  20
ATOM     20  C   UNL     1      16.973  45.390  22.802  1.00  0.00     0.188 C 
ATOM     21  C   UNL     1      17.993  45.942  21.781  1.00  0.00     0.179 C 
ATOM     22  O   UNL     1      17.379  45.722  24.116  1.00  0.00    -0.362 OA
ATOM     23  C   UNL     1      19.426  45.423  22.076  1.00  0.00     0.177 C 
ATOM     24  C   UNL     1      18.610  45.117  24.504  1.00  0.00     0.176 C 
ATOM     25  C   UNL     1      19.479  44.534  23.336  1.00  0.00     0.177 C 
BRANCH  21  26
ATOM     26  O   UNL     1      17.981  47.347  21.823  1.00  0.00    -0.387 OA
ATOM     27  H   UNL     1      17.287  47.651  21.182  1.00  0.00     0.211 HD
ENDBRANCH  21  26
BRANCH  23  28
ATOM     28  O   UNL     1      19.891  44.701  20.964  1.00  0.00    -0.387 OA
ATOM     29  H   UNL     1      20.598  45.247  20.536  1.00  0.00     0.211 HD
ENDBRANCH  23  28
BRANCH  24  30
ATOM     30  C   UNL     1      19.378  46.131  25.370  1.00  0.00     0.191 C 
BRANCH  30  31
ATOM     31  O   UNL     1      20.154  45.469  26.335  1.00  0.00    -0.394 OA
ATOM     32  H   UNL     1      21.097  45.495  26.025  1.00  0.00     0.210 HD
ENDBRANCH  30  31
ENDBRANCH  24  30
BRANCH  25  33
ATOM     33  O   UNL     1      20.815  44.351  23.728  1.00  0.00    -0.388 OA
ATOM     34  H   UNL     1      21.061  43.420  23.484  1.00  0.00     0.211 HD
ENDBRANCH  25  33
ENDBRANCH  11  20
BRANCH  10  35
ATOM     35  O   UNL     1      16.219  48.082  23.458  1.00  0.00    -0.507 OA
ATOM     36  H   UNL     1      16.027  49.047  23.688  1.00  0.00     0.293 HD
ENDBRANCH  10  35
TORSDOF 9
ENDMDL
MODEL 2
REMARK VINA RESULT:    -6.068     14.072     15.876
REMARK INTER + INTRA:          -8.751
REMARK INTER:                  -8.877
REMARK INTRA:                   0.126
REMARK UNBOUND:                -0.554
REMARK SMILES O=c1c(-c2ccc(O)cc2)coc2c([C@@H]3O[C@H](CO)[C@H](O)[C@@H](O)[C@@H]3O)c(O)ccc12
REMARK SMILES IDX 3 1 11 2 12 3 13 4 30 5 2 6 1 7 29 8 28 9 26 10 14 11 4 12
REMARK SMILES IDX 5 13 6 14 7 15 10 16 9 17 8 18 15 20 24 21 16 22 22 23 17 24
REMARK SMILES IDX 20 25 25 26 23 28 18 30 19 31 21 33 27 35
REMARK H PARENT 8 19 25 27 23 29 19 32 21 34 27 36
REMARK Flexibility Score: inf
ROOT
ATOM      1  C   UNL     1      11.887  33.713  28.151  1.00  0.00     0.065 A 
ATOM      2  C   UNL     1      12.622  33.720  29.345  1.00  0.00     0.208 A 
ATOM      3  O   UNL     1      13.287  32.643  29.741  1.00  0.00    -0.463 OA
ATOM      4  C   UNL     1      13.310  31.503  29.052  1.00  0.00     0.147 A 
ATOM      5  C   UNL     1      12.608  31.415  27.827  1.00  0.00     0.066 A 
ATOM      6  C   UNL     1      11.891  32.537  27.377  1.00  0.00     0.200 A 
ATOM      7  O   UNL     1      11.273  32.500  26.276  1.00  0.00    -0.288 OA
ATOM      8  C   UNL     1      12.650  30.222  27.088  1.00  0.00     0.020 A 
ATOM      9  C   UNL     1      13.385  29.134  27.553  1.00  0.00     0.047 A 
ATOM     10  C   UNL     1      14.084  29.209  28.763  1.00  0.00     0.125 A 
ATOM     11  C   UNL     1      14.035  30.386  29.541  1.00  0.00     0.069 A 
ENDROOT
BRANCH   1  12
ATOM     12  C   UNL     1      11.138  34.926  27.736  1.00  0.00    -0.011 A 
ATOM     13  C   UNL     1      11.763  36.182  27.736  1.00  0.00     0.013 A 
ATOM     14  C   UNL     1      11.056  37.325  27.354  1.00  0.00     0.047 A 
ATOM     15  C   UNL     1       9.712  37.227  26.972  1.00  0.00     0.115 A 
ATOM     16  C   UNL     1       9.787  34.837  27.356  1.00  0.00     0.013 A 
ATOM     17  C   UNL     1       9.082  35.983  26.974  1.00  0.00     0.047 A 
BRANCH  15  18
ATOM     18  O   UNL     1       8.994  38.359  26.594  1.00  0.00    -0.508 OA
ATOM     19  H   UNL     1       8.399  38.356  25.774  1.00  0.00     0.293 HD
ENDBRANCH  15  18
ENDBRANCH   1  12
BRANCH  11  20
ATOM     20  C   UNL     1      14.807  30.453  30.853  1.00  0.00     0.188 C 
ATOM     21  C   UNL     1      14.014  31.239  31.922  1.00  0.00     0.179 C 
ATOM     22  O   UNL     1      15.095  29.152  31.327  1.00  0.00    -0.362 OA
ATOM     23  C   UNL     1      14.780  31.287  33.271  1.00  0.00     0.177 C 
ATOM     24  C   UNL     1      15.952  29.135  32.466  1.00  0.00     0.176 C 
ATOM     25  C   UNL     1      16.107  30.501  33.220  1.00  0.00     0.177 C 
BRANCH  21  26
ATOM     26  O   UNL     1      12.760  30.633  32.111  1.00  0.00    -0.387 OA
ATOM     27  H   UNL     1      12.807  29.733  31.695  1.00  0.00     0.211 HD
ENDBRANCH  21  26
BRANCH  23  28
ATOM     28  O   UNL     1      15.034  32.628  33.607  1.00  0.00    -0.387 OA
ATOM     29  H   UNL     1      14.885  33.167  32.790  1.00  0.00     0.211 HD
ENDBRANCH  23  28
BRANCH  24  30
ATOM     30  C   UNL     1      15.484  27.994  33.388  1.00  0.00     0.191 C 
BRANCH  30  31
ATOM     31  O   UNL     1      14.086  27.875  33.356  1.00  0.00    -0.394 OA
ATOM     32  H   UNL     1      13.763  28.393  32.574  1.00  0.00     0.210 HD
ENDBRANCH  30  31
ENDBRANCH  24  30
BRANCH  25  33
ATOM     33  O   UNL     1      16.596  30.318  34.525  1.00  0.00    -0.388 OA
ATOM     34  H   UNL     1      17.204  31.081  34.712  1.00  0.00     0.211 HD
ENDBRANCH  25  33
ENDBRANCH  11  20
BRANCH  10  35
ATOM     35  O   UNL     1      14.831  28.111  29.193  1.00  0.00    -0.507 OA
ATOM     36  H   UNL     1      14.742  27.738  30.128  1.00  0.00     0.293 HD
ENDBRANCH  10  35
TORSDOF 9
ENDMDL
MODEL 3
REMARK VINA RESULT:    -5.821      1.808      8.050
REMARK INTER + INTRA:          -8.417
REMARK INTER:                  -7.873
REMARK INTRA:                  -0.544
REMARK UNBOUND:                -0.554
REMARK SMILES O=c1c(-c2ccc(O)cc2)coc2c([C@@H]3O[C@H](CO)[C@H](O)[C@@H](O)[C@@H]3O)c(O)ccc12
REMARK SMILES IDX 3 1 11 2 12 3 13 4 30 5 2 6 1 7 29 8 28 9 26 10 14 11 4 12
REMARK SMILES IDX 5 13 6 14 7 15 10 16 9 17 8 18 15 20 24 21 16 22 22 23 17 24
REMARK SMILES IDX 20 25 25 26 23 28 18 30 19 31 21 33 27 35
REMARK H PARENT 8 19 25 27 23 29 19 32 21 34 27 36
REMARK Flexibility Score: inf
ROOT
ATOM      1  C   UNL     1      15.421  44.724  22.033  1.00  0.00     0.065 A 
ATOM      2  C   UNL     1      14.949  43.457  21.665  1.00  0.00     0.208 A 
ATOM      3  O   UNL     1      13.677  43.272  21.337  1.00  0.00    -0.463 OA
ATOM      4  C   UNL     1      12.775  44.252  21.329  1.00  0.00     0.147 A 
ATOM      5  C   UNL     1      13.170  45.567  21.671  1.00  0.00     0.066 A 
ATOM      6  C   UNL     1      14.511  45.799  22.025  1.00  0.00     0.200 A 
ATOM      7  O   UNL     1      14.901  46.964  22.313  1.00  0.00    -0.288 OA
ATOM      8  C   UNL     1      12.225  46.604  21.639  1.00  0.00     0.020 A 
ATOM      9  C   UNL     1      10.909  46.345  21.266  1.00  0.00     0.047 A 
ATOM     10  C   UNL     1      10.506  45.048  20.925  1.00  0.00     0.125 A 
ATOM     11  C   UNL     1      11.428  43.980  20.976  1.00  0.00     0.069 A 
ENDROOT
BRANCH   1  12
ATOM     12  C   UNL     1      16.846  44.904  22.411  1.00  0.00    -0.011 A 
ATOM     13  C   UNL     1      17.860  44.734  21.457  1.00  0.00     0.013 A 
ATOM     14  C   UNL     1      19.202  44.894  21.815  1.00  0.00     0.047 A 
ATOM     15  C   UNL     1      19.546  45.220  23.134  1.00  0.00     0.115 A 
ATOM     16  C   UNL     1      17.199  45.226  23.733  1.00  0.00     0.013 A 
ATOM     17  C   UNL     1      18.543  45.386  24.088  1.00  0.00     0.047 A 
BRANCH  15  18
ATOM     18  O   UNL     1      20.878  45.377  23.504  1.00  0.00    -0.508 OA
ATOM     19  H   UNL     1      21.142  45.542  24.469  1.00  0.00     0.293 HD
ENDBRANCH  15  18
ENDBRANCH   1  12
BRANCH  11  20
ATOM     20  C   UNL     1      10.974  42.576  20.596  1.00  0.00     0.188 C 
ATOM     21  C   UNL     1      11.286  42.277  19.112  1.00  0.00     0.179 C 
ATOM     22  O   UNL     1      11.595  41.612  21.423  1.00  0.00    -0.362 OA
ATOM     23  C   UNL     1      10.854  40.837  18.723  1.00  0.00     0.177 C 
ATOM     24  C   UNL     1      11.099  40.289  21.232  1.00  0.00     0.176 C 
ATOM     25  C   UNL     1      10.271  40.057  19.920  1.00  0.00     0.177 C 
BRANCH  21  26
ATOM     26  O   UNL     1      12.665  42.433  18.885  1.00  0.00    -0.387 OA
ATOM     27  H   UNL     1      12.895  43.367  19.131  1.00  0.00     0.211 HD
ENDBRANCH  21  26
BRANCH  23  28
ATOM     28  O   UNL     1       9.902  40.907  17.692  1.00  0.00    -0.387 OA
ATOM     29  H   UNL     1      10.390  40.811  16.836  1.00  0.00     0.211 HD
ENDBRANCH  23  28
BRANCH  24  30
ATOM     30  C   UNL     1      12.286  39.318  21.369  1.00  0.00     0.191 C 
BRANCH  30  31
ATOM     31  O   UNL     1      13.410  39.813  20.689  1.00  0.00    -0.394 OA
ATOM     32  H   UNL     1      13.487  40.778  20.908  1.00  0.00     0.210 HD
ENDBRANCH  30  31
ENDBRANCH  24  30
BRANCH  25  33
ATOM     33  O   UNL     1      10.188  38.692  19.597  1.00  0.00    -0.388 OA
ATOM     34  H   UNL     1      10.766  38.550  18.802  1.00  0.00     0.211 HD
ENDBRANCH  25  33
ENDBRANCH  11  20
BRANCH  10  35
ATOM     35  O   UNL     1       9.186  44.821  20.532  1.00  0.00    -0.507 OA
ATOM     36  H   UNL     1       8.954  44.480  19.609  1.00  0.00     0.293 HD
ENDBRANCH  10  35
TORSDOF 9
ENDMDL
MODEL 4
REMARK VINA RESULT:    -5.519      5.517      8.850
REMARK INTER + INTRA:          -8.009
REMARK INTER:                  -7.476
REMARK INTRA:                  -0.532
REMARK UNBOUND:                -0.554
REMARK SMILES O=c1c(-c2ccc(O)cc2)coc2c([C@@H]3O[C@H](CO)[C@H](O)[C@@H](O)[C@@H]3O)c(O)ccc12
REMARK SMILES IDX 3 1 11 2 12 3 13 4 30 5 2 6 1 7 29 8 28 9 26 10 14 11 4 12
REMARK SMILES IDX 5 13 6 14 7 15 10 16 9 17 8 18 15 20 24 21 16 22 22 23 17 24
REMARK SMILES IDX 20 25 25 26 23 28 18 30 19 31 21 33 27 35
REMARK H PARENT 8 19 25 27 23 29 19 32 21 34 27 36
REMARK Flexibility Score: inf
ROOT
ATOM      1  C   UNL     1      11.069  37.945  25.515  1.00  0.00     0.065 A 
ATOM      2  C   UNL     1      11.775  39.137  25.299  1.00  0.00     0.208 A 
ATOM      3  O   UNL     1      11.584  39.852  24.198  1.00  0.00    -0.463 OA
ATOM      4  C   UNL     1      10.727  39.502  23.240  1.00  0.00     0.147 A 
ATOM      5  C   UNL     1       9.961  38.321  23.384  1.00  0.00     0.066 A 
ATOM      6  C   UNL     1      10.139  37.539  24.539  1.00  0.00     0.200 A 
ATOM      7  O   UNL     1       9.455  36.491  24.710  1.00  0.00    -0.288 OA
ATOM      8  C   UNL     1       9.041  37.966  22.387  1.00  0.00     0.020 A 
ATOM      9  C   UNL     1       8.875  38.773  21.264  1.00  0.00     0.047 A 
ATOM     10  C   UNL     1       9.626  39.944  21.109  1.00  0.00     0.125 A 
ATOM     11  C   UNL     1      10.580  40.311  22.083  1.00  0.00     0.069 A 
ENDROOT
BRANCH   1  12
ATOM     12  C   UNL     1      11.312  37.153  26.748  1.00  0.00    -0.011 A 
ATOM     13  C   UNL     1      10.293  36.990  27.698  1.00  0.00     0.013 A 
ATOM     14  C   UNL     1      10.523  36.252  28.863  1.00  0.00     0.047 A 
ATOM     15  C   UNL     1      11.778  35.675  29.094  1.00  0.00     0.115 A 
ATOM     16  C   UNL     1      12.570  36.574  26.990  1.00  0.00     0.013 A 
ATOM     17  C   UNL     1      12.796  35.837  28.156  1.00  0.00     0.047 A 
BRANCH  15  18
ATOM     18  O   UNL     1      12.021  34.942  30.253  1.00  0.00    -0.508 OA
ATOM     19  H   UNL     1      11.266  34.662  30.869  1.00  0.00     0.293 HD
ENDBRANCH  15  18
ENDBRANCH   1  12
BRANCH  11  20
ATOM     20  C   UNL     1      11.385  41.592  21.901  1.00  0.00     0.188 C 
ATOM     21  C   UNL     1      12.509  41.396  20.859  1.00  0.00     0.179 C 
ATOM     22  O   UNL     1      10.542  42.657  21.507  1.00  0.00    -0.362 OA
ATOM     23  C   UNL     1      13.316  42.705  20.646  1.00  0.00     0.177 C 
ATOM     24  C   UNL     1      11.197  43.922  21.473  1.00  0.00     0.176 C 
ATOM     25  C   UNL     1      12.765  43.876  21.485  1.00  0.00     0.177 C 
BRANCH  21  26
ATOM     26  O   UNL     1      11.945  40.984  19.639  1.00  0.00    -0.387 OA
ATOM     27  H   UNL     1      11.009  40.715  19.827  1.00  0.00     0.211 HD
ENDBRANCH  21  26
BRANCH  23  28
ATOM     28  O   UNL     1      14.661  42.473  20.977  1.00  0.00    -0.387 OA
ATOM     29  H   UNL     1      15.063  41.962  20.230  1.00  0.00     0.211 HD
ENDBRANCH  23  28
BRANCH  24  30
ATOM     30  C   UNL     1      10.633  44.710  20.277  1.00  0.00     0.191 C 
BRANCH  30  31
ATOM     31  O   UNL     1      10.705  46.091  20.517  1.00  0.00    -0.394 OA
ATOM     32  H   UNL     1      10.474  46.238  21.471  1.00  0.00     0.210 HD
ENDBRANCH  30  31
ENDBRANCH  24  30
BRANCH  25  33
ATOM     33  O   UNL     1      13.321  45.084  21.031  1.00  0.00    -0.388 OA
ATOM     34  H   UNL     1      13.799  45.487  21.802  1.00  0.00     0.211 HD
ENDBRANCH  25  33
ENDBRANCH  11  20
BRANCH  10  35
ATOM     35  O   UNL     1       9.423  40.745  19.984  1.00  0.00    -0.507 OA
ATOM     36  H   UNL     1       8.799  40.470  19.238  1.00  0.00     0.293 HD
ENDBRANCH  10  35
TORSDOF 9
ENDMDL
MODEL 5
REMARK VINA RESULT:    -5.394      5.663      9.232
REMARK INTER + INTRA:          -7.840
REMARK INTER:                  -7.670
REMARK INTRA:                  -0.170
REMARK UNBOUND:                -0.554
REMARK SMILES O=c1c(-c2ccc(O)cc2)coc2c([C@@H]3O[C@H](CO)[C@H](O)[C@@H](O)[C@@H]3O)c(O)ccc12
REMARK SMILES IDX 3 1 11 2 12 3 13 4 30 5 2 6 1 7 29 8 28 9 26 10 14 11 4 12
REMARK SMILES IDX 5 13 6 14 7 15 10 16 9 17 8 18 15 20 24 21 16 22 22 23 17 24
REMARK SMILES IDX 20 25 25 26 23 28 18 30 19 31 21 33 27 35
REMARK H PARENT 8 19 25 27 23 29 19 32 21 34 27 36
REMARK Flexibility Score: inf
ROOT
ATOM      1  C   UNL     1      12.914  38.106  25.341  1.00  0.00     0.065 A 
ATOM      2  C   UNL     1      11.978  38.147  24.300  1.00  0.00     0.208 A 
ATOM      3  O   UNL     1      12.141  38.966  23.269  1.00  0.00    -0.463 OA
ATOM      4  C   UNL     1      13.183  39.786  23.146  1.00  0.00     0.147 A 
ATOM      5  C   UNL     1      14.185  39.797  24.145  1.00  0.00     0.066 A 
ATOM      6  C   UNL     1      14.043  38.943  25.252  1.00  0.00     0.200 A 
ATOM      7  O   UNL     1      14.930  38.910  26.151  1.00  0.00    -0.288 OA
ATOM      8  C   UNL     1      15.295  40.644  24.004  1.00  0.00     0.020 A 
ATOM      9  C   UNL     1      15.415  41.464  22.885  1.00  0.00     0.047 A 
ATOM     10  C   UNL     1      14.431  41.463  21.890  1.00  0.00     0.125 A 
ATOM     11  C   UNL     1      13.290  40.642  22.020  1.00  0.00     0.069 A 
ENDROOT
BRANCH   1  12
ATOM     12  C   UNL     1      12.702  37.193  26.494  1.00  0.00    -0.011 A 
ATOM     13  C   UNL     1      11.440  37.097  27.100  1.00  0.00     0.013 A 
ATOM     14  C   UNL     1      11.241  36.245  28.190  1.00  0.00     0.047 A 
ATOM     15  C   UNL     1      12.304  35.482  28.691  1.00  0.00     0.115 A 
ATOM     16  C   UNL     1      13.764  36.427  27.005  1.00  0.00     0.013 A 
ATOM     17  C   UNL     1      13.562  35.575  28.095  1.00  0.00     0.047 A 
BRANCH  15  18
ATOM     18  O   UNL     1      12.121  34.633  29.779  1.00  0.00    -0.508 OA
ATOM     19  H   UNL     1      11.406  34.815  30.475  1.00  0.00     0.293 HD
ENDBRANCH  15  18
ENDBRANCH   1  12
BRANCH  11  20
ATOM     20  C   UNL     1      12.231  40.649  20.924  1.00  0.00     0.188 C 
ATOM     21  C   UNL     1      12.587  39.644  19.805  1.00  0.00     0.179 C 
ATOM     22  O   UNL     1      10.959  40.342  21.460  1.00  0.00    -0.362 OA
ATOM     23  C   UNL     1      11.499  39.623  18.697  1.00  0.00     0.177 C 
ATOM     24  C   UNL     1       9.893  40.485  20.524  1.00  0.00     0.176 C 
ATOM     25  C   UNL     1      10.320  40.566  19.017  1.00  0.00     0.177 C 
BRANCH  21  26
ATOM     26  O   UNL     1      12.724  38.359  20.358  1.00  0.00    -0.387 OA
ATOM     27  H   UNL     1      12.171  38.337  21.182  1.00  0.00     0.211 HD
ENDBRANCH  21  26
BRANCH  23  28
ATOM     28  O   UNL     1      12.082  39.989  17.473  1.00  0.00    -0.387 OA
ATOM     29  H   UNL     1      12.306  39.151  16.994  1.00  0.00     0.211 HD
ENDBRANCH  23  28
BRANCH  24  30
ATOM     30  C   UNL     1       8.875  39.363  20.797  1.00  0.00     0.191 C 
BRANCH  30  31
ATOM     31  O   UNL     1       9.139  38.745  22.029  1.00  0.00    -0.394 OA
ATOM     32  H   UNL     1       9.309  37.784  21.847  1.00  0.00     0.210 HD
ENDBRANCH  30  31
ENDBRANCH  24  30
BRANCH  25  33
ATOM     33  O   UNL     1       9.244  40.281  18.159  1.00  0.00    -0.388 OA
ATOM     34  H   UNL     1       9.610  40.260  17.237  1.00  0.00     0.211 HD
ENDBRANCH  25  33
ENDBRANCH  11  20
BRANCH  10  35
ATOM     35  O   UNL     1      14.589  42.279  20.768  1.00  0.00    -0.507 OA
ATOM     36  H   UNL     1      13.811  42.774  20.354  1.00  0.00     0.293 HD
ENDBRANCH  10  35
TORSDOF 9
ENDMDL
MODEL 6
REMARK VINA RESULT:    -4.936     13.868     16.579
REMARK INTER + INTRA:          -7.222
REMARK INTER:                  -7.298
REMARK INTRA:                   0.076
REMARK UNBOUND:                -0.554
REMARK SMILES O=c1c(-c2ccc(O)cc2)coc2c([C@@H]3O[C@H](CO)[C@H](O)[C@@H](O)[C@@H]3O)c(O)ccc12
REMARK SMILES IDX 3 1 11 2 12 3 13 4 30 5 2 6 1 7 29 8 28 9 26 10 14 11 4 12
REMARK SMILES IDX 5 13 6 14 7 15 10 16 9 17 8 18 15 20 24 21 16 22 22 23 17 24
REMARK SMILES IDX 20 25 25 26 23 28 18 30 19 31 21 33 27 35
REMARK H PARENT 8 19 25 27 23 29 19 32 21 34 27 36
REMARK Flexibility Score: inf
ROOT
ATOM      1  C   UNL     1      14.326  30.601  31.420  1.00  0.00     0.065 A 
ATOM      2  C   UNL     1      13.820  31.905  31.340  1.00  0.00     0.208 A 
ATOM      3  O   UNL     1      13.170  32.319  30.260  1.00  0.00    -0.463 OA
ATOM      4  C   UNL     1      12.951  31.545  29.198  1.00  0.00     0.147 A 
ATOM      5  C   UNL     1      13.414  30.208  29.202  1.00  0.00     0.066 A 
ATOM      6  C   UNL     1      14.107  29.736  30.330  1.00  0.00     0.200 A 
ATOM      7  O   UNL     1      14.514  28.542  30.375  1.00  0.00    -0.288 OA
ATOM      8  C   UNL     1      13.162  29.385  28.093  1.00  0.00     0.020 A 
ATOM      9  C   UNL     1      12.455  29.877  26.999  1.00  0.00     0.047 A 
ATOM     10  C   UNL     1      11.992  31.198  26.984  1.00  0.00     0.125 A 
ATOM     11  C   UNL     1      12.255  32.056  28.073  1.00  0.00     0.069 A 
ENDROOT
BRANCH   1  12
ATOM     12  C   UNL     1      15.064  30.165  32.633  1.00  0.00    -0.011 A 
ATOM     13  C   UNL     1      15.129  28.806  32.975  1.00  0.00     0.013 A 
ATOM     14  C   UNL     1      15.816  28.397  34.121  1.00  0.00     0.047 A 
ATOM     15  C   UNL     1      16.442  29.343  34.943  1.00  0.00     0.115 A 
ATOM     16  C   UNL     1      15.692  31.109  33.466  1.00  0.00     0.013 A 
ATOM     17  C   UNL     1      16.379  30.696  34.611  1.00  0.00     0.047 A 
BRANCH  15  18
ATOM     18  O   UNL     1      17.125  28.948  36.090  1.00  0.00    -0.508 OA
ATOM     19  H   UNL     1      16.701  29.022  37.008  1.00  0.00     0.293 HD
ENDBRANCH  15  18
ENDBRANCH   1  12
BRANCH  11  20
ATOM     20  C   UNL     1      11.739  33.490  28.042  1.00  0.00     0.188 C 
ATOM     21  C   UNL     1      12.898  34.491  27.837  1.00  0.00     0.179 C 
ATOM     22  O   UNL     1      10.777  33.649  27.017  1.00  0.00    -0.362 OA
ATOM     23  C   UNL     1      12.377  35.953  27.775  1.00  0.00     0.177 C 
ATOM     24  C   UNL     1      10.133  34.921  27.030  1.00  0.00     0.176 C 
ATOM     25  C   UNL     1      10.840  36.032  27.883  1.00  0.00     0.177 C 
BRANCH  21  26
ATOM     26  O   UNL     1      13.577  34.181  26.646  1.00  0.00    -0.387 OA
ATOM     27  H   UNL     1      14.521  34.460  26.769  1.00  0.00     0.211 HD
ENDBRANCH  21  26
BRANCH  23  28
ATOM     28  O   UNL     1      12.965  36.694  28.814  1.00  0.00    -0.387 OA
ATOM     29  H   UNL     1      13.620  37.310  28.399  1.00  0.00     0.211 HD
ENDBRANCH  23  28
BRANCH  24  30
ATOM     30  C   UNL     1       9.903  35.346  25.569  1.00  0.00     0.191 C 
BRANCH  30  31
ATOM     31  O   UNL     1       8.875  36.298  25.486  1.00  0.00    -0.394 OA
ATOM     32  H   UNL     1       9.297  37.171  25.276  1.00  0.00     0.210 HD
ENDBRANCH  30  31
ENDBRANCH  24  30
BRANCH  25  33
ATOM     33  O   UNL     1      10.408  37.317  27.516  1.00  0.00    -0.388 OA
ATOM     34  H   UNL     1      11.223  37.843  27.301  1.00  0.00     0.211 HD
ENDBRANCH  25  33
ENDBRANCH  11  20
BRANCH  10  35
ATOM     35  O   UNL     1      11.266  31.657  25.883  1.00  0.00    -0.507 OA
ATOM     36  H   UNL     1      11.551  32.474  25.359  1.00  0.00     0.293 HD
ENDBRANCH  10  35
TORSDOF 9
ENDMDL
MODEL 7
REMARK VINA RESULT:    -4.918      1.660      8.574
REMARK INTER + INTRA:          -7.197
REMARK INTER:                  -6.493
REMARK INTRA:                  -0.705
REMARK UNBOUND:                -0.554
REMARK SMILES O=c1c(-c2ccc(O)cc2)coc2c([C@@H]3O[C@H](CO)[C@H](O)[C@@H](O)[C@@H]3O)c(O)ccc12
REMARK SMILES IDX 3 1 11 2 12 3 13 4 30 5 2 6 1 7 29 8 28 9 26 10 14 11 4 12
REMARK SMILES IDX 5 13 6 14 7 15 10 16 9 17 8 18 15 20 24 21 16 22 22 23 17 24
REMARK SMILES IDX 20 25 25 26 23 28 18 30 19 31 21 33 27 35
REMARK H PARENT 8 19 25 27 23 29 19 32 21 34 27 36
REMARK Flexibility Score: inf
ROOT
ATOM      1  C   UNL     1      16.004  44.669  22.524  1.00  0.00     0.065 A 
ATOM      2  C   UNL     1      15.699  43.426  21.953  1.00  0.00     0.208 A 
ATOM      3  O   UNL     1      14.502  43.190  21.433  1.00  0.00    -0.463 OA
ATOM      4  C   UNL     1      13.524  44.094  21.411  1.00  0.00     0.147 A 
ATOM      5  C   UNL     1      13.751  45.382  21.952  1.00  0.00     0.066 A 
ATOM      6  C   UNL     1      15.009  45.666  22.512  1.00  0.00     0.200 A 
ATOM      7  O   UNL     1      15.253  46.812  22.982  1.00  0.00    -0.288 OA
ATOM      8  C   UNL     1      12.729  46.342  21.908  1.00  0.00     0.020 A 
ATOM      9  C   UNL     1      11.501  46.035  21.329  1.00  0.00     0.047 A 
ATOM     10  C   UNL     1      11.263  44.764  20.790  1.00  0.00     0.125 A 
ATOM     11  C   UNL     1      12.263  43.770  20.847  1.00  0.00     0.069 A 
ENDROOT
BRANCH   1  12
ATOM     12  C   UNL     1      17.346  44.905  23.114  1.00  0.00    -0.011 A 
ATOM     13  C   UNL     1      18.504  44.523  22.419  1.00  0.00     0.013 A 
ATOM     14  C   UNL     1      19.767  44.736  22.978  1.00  0.00     0.047 A 
ATOM     15  C   UNL     1      19.888  45.329  24.242  1.00  0.00     0.115 A 
ATOM     16  C   UNL     1      17.476  45.494  24.384  1.00  0.00     0.013 A 
ATOM     17  C   UNL     1      18.741  45.707  24.940  1.00  0.00     0.047 A 
BRANCH  15  18
ATOM     18  O   UNL     1      21.139  45.542  24.812  1.00  0.00    -0.508 OA
ATOM     19  H   UNL     1      21.943  45.786  24.244  1.00  0.00     0.293 HD
ENDBRANCH  15  18
ENDBRANCH   1  12
BRANCH  11  20
ATOM     20  C   UNL     1      11.990  42.394  20.250  1.00  0.00     0.188 C 
ATOM     21  C   UNL     1      11.226  41.499  21.252  1.00  0.00     0.179 C 
ATOM     22  O   UNL     1      11.253  42.511  19.049  1.00  0.00    -0.362 OA
ATOM     23  C   UNL     1      10.918  40.105  20.642  1.00  0.00     0.177 C 
ATOM     24  C   UNL     1      11.097  41.278  18.351  1.00  0.00     0.176 C 
ATOM     25  C   UNL     1      11.404  39.983  19.183  1.00  0.00     0.177 C 
BRANCH  21  26
ATOM     26  O   UNL     1      10.026  42.130  21.620  1.00  0.00    -0.387 OA
ATOM     27  H   UNL     1      10.208  43.106  21.651  1.00  0.00     0.211 HD
ENDBRANCH  21  26
BRANCH  23  28
ATOM     28  O   UNL     1      11.527  39.114  21.430  1.00  0.00    -0.387 OA
ATOM     29  H   UNL     1      11.901  38.438  20.811  1.00  0.00     0.211 HD
ENDBRANCH  23  28
BRANCH  24  30
ATOM     30  C   UNL     1       9.690  41.266  17.727  1.00  0.00     0.191 C 
BRANCH  30  31
ATOM     31  O   UNL     1       8.899  42.289  18.273  1.00  0.00    -0.394 OA
ATOM     32  H   UNL     1       9.375  42.636  19.072  1.00  0.00     0.210 HD
ENDBRANCH  30  31
ENDBRANCH  24  30
BRANCH  25  33
ATOM     33  O   UNL     1      10.836  38.843  18.591  1.00  0.00    -0.388 OA
ATOM     34  H   UNL     1      10.962  38.094  19.231  1.00  0.00     0.211 HD
ENDBRANCH  25  33
ENDBRANCH  11  20
BRANCH  10  35
ATOM     35  O   UNL     1      10.030  44.491  20.195  1.00  0.00    -0.507 OA
ATOM     36  H   UNL     1       9.158  44.622  20.690  1.00  0.00     0.293 HD
ENDBRANCH  10  35
TORSDOF 9
ENDMDL
MODEL 8
REMARK VINA RESULT:    -4.583      5.922      8.748
REMARK INTER + INTRA:          -6.745
REMARK INTER:                  -8.500
REMARK INTRA:                   1.754
REMARK UNBOUND:                -0.554
REMARK SMILES O=c1c(-c2ccc(O)cc2)coc2c([C@@H]3O[C@H](CO)[C@H](O)[C@@H](O)[C@@H]3O)c(O)ccc12
REMARK SMILES IDX 3 1 11 2 12 3 13 4 30 5 2 6 1 7 29 8 28 9 26 10 14 11 4 12
REMARK SMILES IDX 5 13 6 14 7 15 10 16 9 17 8 18 15 20 24 21 16 22 22 23 17 24
REMARK SMILES IDX 20 25 25 26 23 28 18 30 19 31 21 33 27 35
REMARK H PARENT 8 19 25 27 23 29 19 32 21 34 27 36
REMARK Flexibility Score: inf
ROOT
ATOM      1  C   UNL     1      11.496  37.516  25.623  1.00  0.00     0.065 A 
ATOM      2  C   UNL     1      12.604  38.078  24.975  1.00  0.00     0.208 A 
ATOM      3  O   UNL     1      12.483  38.630  23.774  1.00  0.00    -0.463 OA
ATOM      4  C   UNL     1      11.329  38.694  23.113  1.00  0.00     0.147 A 
ATOM      5  C   UNL     1      10.156  38.165  23.702  1.00  0.00     0.066 A 
ATOM      6  C   UNL     1      10.248  37.572  24.973  1.00  0.00     0.200 A 
ATOM      7  O   UNL     1       9.216  37.111  25.537  1.00  0.00    -0.288 OA
ATOM      8  C   UNL     1       8.936  38.254  23.015  1.00  0.00     0.020 A 
ATOM      9  C   UNL     1       8.875  38.865  21.765  1.00  0.00     0.047 A 
ATOM     10  C   UNL     1      10.028  39.393  21.172  1.00  0.00     0.125 A 
ATOM     11  C   UNL     1      11.275  39.292  21.827  1.00  0.00     0.069 A 
ENDROOT
BRANCH   1  12
ATOM     12  C   UNL     1      11.658  36.889  26.960  1.00  0.00    -0.011 A 
ATOM     13  C   UNL     1      12.867  36.269  27.311  1.00  0.00     0.013 A 
ATOM     14  C   UNL     1      13.017  35.671  28.565  1.00  0.00     0.047 A 
ATOM     15  C   UNL     1      11.958  35.681  29.482  1.00  0.00     0.115 A 
ATOM     16  C   UNL     1      10.598  36.890  27.884  1.00  0.00     0.013 A 
ATOM     17  C   UNL     1      10.753  36.292  29.138  1.00  0.00     0.047 A 
BRANCH  15  18
ATOM     18  O   UNL     1      12.093  35.085  30.732  1.00  0.00    -0.508 OA
ATOM     19  H   UNL     1      12.121  34.076  30.836  1.00  0.00     0.293 HD
ENDBRANCH  15  18
ENDBRANCH   1  12
BRANCH  11  20
ATOM     20  C   UNL     1      12.519  39.876  21.169  1.00  0.00     0.188 C 
ATOM     21  C   UNL     1      12.142  40.985  20.161  1.00  0.00     0.179 C 
ATOM     22  O   UNL     1      13.401  40.393  22.147  1.00  0.00    -0.362 OA
ATOM     23  C   UNL     1      13.406  41.607  19.507  1.00  0.00     0.177 C 
ATOM     24  C   UNL     1      14.657  40.813  21.619  1.00  0.00     0.176 C 
ATOM     25  C   UNL     1      14.712  41.000  20.063  1.00  0.00     0.177 C 
BRANCH  21  26
ATOM     26  O   UNL     1      11.410  41.987  20.821  1.00  0.00    -0.387 OA
ATOM     27  H   UNL     1      11.407  42.783  20.229  1.00  0.00     0.211 HD
ENDBRANCH  21  26
BRANCH  23  28
ATOM     28  O   UNL     1      13.346  41.414  18.117  1.00  0.00    -0.387 OA
ATOM     29  H   UNL     1      12.472  41.767  17.810  1.00  0.00     0.211 HD
ENDBRANCH  23  28
BRANCH  24  30
ATOM     30  C   UNL     1      15.092  42.074  22.388  1.00  0.00     0.191 C 
BRANCH  30  31
ATOM     31  O   UNL     1      15.379  41.762  23.726  1.00  0.00    -0.394 OA
ATOM     32  H   UNL     1      15.979  42.473  24.073  1.00  0.00     0.210 HD
ENDBRANCH  30  31
ENDBRANCH  24  30
BRANCH  25  33
ATOM     33  O   UNL     1      15.802  41.797  19.676  1.00  0.00    -0.388 OA
ATOM     34  H   UNL     1      16.365  41.925  20.485  1.00  0.00     0.211 HD
ENDBRANCH  25  33
ENDBRANCH  11  20
BRANCH  10  35
ATOM     35  O   UNL     1       9.934  40.020  19.928  1.00  0.00    -0.507 OA
ATOM     36  H   UNL     1       9.073  40.439  19.606  1.00  0.00     0.293 HD
ENDBRANCH  10  35
TORSDOF 9
ENDMDL
MODEL 9
REMARK VINA RESULT:    -4.506     14.053     15.711
REMARK INTER + INTRA:          -6.642
REMARK INTER:                  -6.523
REMARK INTRA:                  -0.119
REMARK UNBOUND:                -0.554
REMARK SMILES O=c1c(-c2ccc(O)cc2)coc2c([C@@H]3O[C@H](CO)[C@H](O)[C@@H](O)[C@@H]3O)c(O)ccc12
REMARK SMILES IDX 3 1 11 2 12 3 13 4 30 5 2 6 1 7 29 8 28 9 26 10 14 11 4 12
REMARK SMILES IDX 5 13 6 14 7 15 10 16 9 17 8 18 15 20 24 21 16 22 22 23 17 24
REMARK SMILES IDX 20 25 25 26 23 28 18 30 19 31 21 33 27 35
REMARK H PARENT 8 19 25 27 23 29 19 32 21 34 27 36
REMARK Flexibility Score: inf
ROOT
ATOM      1  C   UNL     1      12.431  33.410  28.496  1.00  0.00     0.065 A 
ATOM      2  C   UNL     1      13.020  33.487  29.766  1.00  0.00     0.208 A 
ATOM      3  O   UNL     1      13.632  32.437  30.298  1.00  0.00    -0.463 OA
ATOM      4  C   UNL     1      13.734  31.261  29.681  1.00  0.00     0.147 A 
ATOM      5  C   UNL     1      13.181  31.100  28.389  1.00  0.00     0.066 A 
ATOM      6  C   UNL     1      12.524  32.192  27.795  1.00  0.00     0.200 A 
ATOM      7  O   UNL     1      12.039  32.090  26.633  1.00  0.00    -0.288 OA
ATOM      8  C   UNL     1      13.308  29.869  27.729  1.00  0.00     0.020 A 
ATOM      9  C   UNL     1      13.982  28.812  28.337  1.00  0.00     0.047 A 
ATOM     10  C   UNL     1      14.534  28.959  29.615  1.00  0.00     0.125 A 
ATOM     11  C   UNL     1      14.395  30.178  30.314  1.00  0.00     0.069 A 
ENDROOT
BRANCH   1  12
ATOM     12  C   UNL     1      11.737  34.594  27.928  1.00  0.00    -0.011 A 
ATOM     13  C   UNL     1      12.420  35.809  27.772  1.00  0.00     0.013 A 
ATOM     14  C   UNL     1      11.765  36.927  27.245  1.00  0.00     0.047 A 
ATOM     15  C   UNL     1      10.417  36.843  26.874  1.00  0.00     0.115 A 
ATOM     16  C   UNL     1      10.383  34.520  27.557  1.00  0.00     0.013 A 
ATOM     17  C   UNL     1       9.731  35.639  27.030  1.00  0.00     0.047 A 
BRANCH  15  18
ATOM     18  O   UNL     1       9.752  37.949  26.353  1.00  0.00    -0.508 OA
ATOM     19  H   UNL     1       8.852  38.243  26.716  1.00  0.00     0.293 HD
ENDBRANCH  15  18
ENDBRANCH   1  12
BRANCH  11  20
ATOM     20  C   UNL     1      15.007  30.322  31.703  1.00  0.00     0.188 C 
ATOM     21  C   UNL     1      16.506  30.687  31.611  1.00  0.00     0.179 C 
ATOM     22  O   UNL     1      14.317  31.304  32.450  1.00  0.00    -0.362 OA
ATOM     23  C   UNL     1      17.132  30.864  33.020  1.00  0.00     0.177 C 
ATOM     24  C   UNL     1      14.731  31.382  33.812  1.00  0.00     0.176 C 
ATOM     25  C   UNL     1      16.094  30.683  34.148  1.00  0.00     0.177 C 
BRANCH  21  26
ATOM     26  O   UNL     1      16.652  31.876  30.875  1.00  0.00    -0.387 OA
ATOM     27  H   UNL     1      15.792  32.035  30.407  1.00  0.00     0.211 HD
ENDBRANCH  21  26
BRANCH  23  28
ATOM     28  O   UNL     1      18.175  29.937  33.180  1.00  0.00    -0.387 OA
ATOM     29  H   UNL     1      18.587  30.110  34.064  1.00  0.00     0.211 HD
ENDBRANCH  23  28
BRANCH  24  30
ATOM     30  C   UNL     1      14.702  32.864  34.227  1.00  0.00     0.191 C 
BRANCH  30  31
ATOM     31  O   UNL     1      13.491  33.175  34.864  1.00  0.00    -0.394 OA
ATOM     32  H   UNL     1      12.764  32.736  34.349  1.00  0.00     0.210 HD
ENDBRANCH  30  31
ENDBRANCH  24  30
BRANCH  25  33
ATOM     33  O   UNL     1      16.630  31.151  35.360  1.00  0.00    -0.388 OA
ATOM     34  H   UNL     1      16.233  30.597  36.082  1.00  0.00     0.211 HD
ENDBRANCH  25  33
ENDBRANCH  11  20
BRANCH  10  35
ATOM     35  O   UNL     1      15.223  27.890  30.191  1.00  0.00    -0.507 OA
ATOM     36  H   UNL     1      14.763  27.020  30.421  1.00  0.00     0.293 HD
ENDBRANCH  10  35
TORSDOF 9
ENDMDL
