MODEL 1
REMARK VINA RESULT:    -5.284      0.000      0.000
REMARK INTER + INTRA:          -5.930
REMARK INTER:                  -5.747
REMARK INTRA:                  -0.182
REMARK UNBOUND:                -0.182
REMARK SMILES O=C([O-])c1ccccc1O
REMARK SMILES IDX 4 1 9 2 5 3 8 4 6 5 7 6 2 7 1 8 3 9 10 10
REMARK H PARENT 10 11
REMARK Flexibility Score: inf
ROOT
ATOM      1  C   UNL     1      10.808  17.238  -3.160  1.00  0.00     0.039 A 
ATOM      2  C   UNL     1      11.958  17.211  -3.989  1.00  0.00     0.124 A 
ATOM      3  C   UNL     1       9.818  16.253  -3.337  1.00  0.00     0.014 A 
ATOM      4  C   UNL     1      12.059  16.249  -5.003  1.00  0.00     0.047 A 
ATOM      5  C   UNL     1       9.944  15.289  -4.339  1.00  0.00     0.001 A 
ATOM      6  C   UNL     1      11.058  15.293  -5.177  1.00  0.00     0.004 A 
ENDROOT
BRANCH   1   7
ATOM      7  C   UNL     1      10.590  18.287  -2.140  1.00  0.00     0.075 C 
ATOM      8  O   UNL     1      10.434  19.487  -2.491  1.00  0.00    -0.545 OA
ATOM      9  O   UNL     1      10.620  17.980  -0.785  1.00  0.00    -0.545 OA
ENDBRANCH   1   7
BRANCH   2  10
ATOM     10  O   UNL     1      13.030  18.089  -3.818  1.00  0.00    -0.507 OA
ATOM     11  H   UNL     1      13.117  18.712  -3.026  1.00  0.00     0.293 HD
ENDBRANCH   2  10
TORSDOF 2
ENDMDL
MODEL 2
REMARK VINA RESULT:    -5.178     12.305     14.138
REMARK INTER + INTRA:          -5.814
REMARK INTER:                  -5.575
REMARK INTRA:                  -0.240
REMARK UNBOUND:                -0.182
REMARK SMILES O=C([O-])c1ccccc1O
REMARK SMILES IDX 4 1 9 2 5 3 8 4 6 5 7 6 2 7 1 8 3 9 10 10
REMARK H PARENT 10 11
REMARK Flexibility Score: inf
ROOT
ATOM      1  C   UNL     1      11.318  16.774   9.937  1.00  0.00     0.039 A 
ATOM      2  C   UNL     1      10.717  15.671  10.595  1.00  0.00     0.124 A 
ATOM      3  C   UNL     1      11.812  17.841  10.710  1.00  0.00     0.014 A 
ATOM      4  C   UNL     1      10.571  15.691  11.989  1.00  0.00     0.047 A 
ATOM      5  C   UNL     1      11.678  17.836  12.100  1.00  0.00     0.001 A 
ATOM      6  C   UNL     1      11.049  16.767  12.738  1.00  0.00     0.004 A 
ENDROOT
BRANCH   1   7
ATOM      7  C   UNL     1      11.410  16.864   8.463  1.00  0.00     0.075 C 
ATOM      8  O   UNL     1      11.341  17.986   7.893  1.00  0.00    -0.545 OA
ATOM      9  O   UNL     1      11.505  15.717   7.684  1.00  0.00    -0.545 OA
ENDBRANCH   1   7
BRANCH   2  10
ATOM     10  O   UNL     1      10.289  14.531   9.914  1.00  0.00    -0.507 OA
ATOM     11  H   UNL     1      10.583  14.301   8.974  1.00  0.00     0.293 HD
ENDBRANCH   2  10
TORSDOF 2
ENDMDL
MODEL 3
REMARK VINA RESULT:    -5.177     13.173     14.666
REMARK INTER + INTRA:          -5.813
REMARK INTER:                  -5.564
REMARK INTRA:                  -0.249
REMARK UNBOUND:                -0.182
REMARK SMILES O=C([O-])c1ccccc1O
REMARK SMILES IDX 4 1 9 2 5 3 8 4 6 5 7 6 2 7 1 8 3 9 10 10
REMARK H PARENT 10 11
REMARK Flexibility Score: inf
ROOT
ATOM      1  C   UNL     1      11.561  17.397  10.999  1.00  0.00     0.039 A 
ATOM      2  C   UNL     1      10.875  16.399  11.737  1.00  0.00     0.124 A 
ATOM      3  C   UNL     1      11.570  17.318   9.593  1.00  0.00     0.014 A 
ATOM      4  C   UNL     1      10.275  15.328  11.061  1.00  0.00     0.047 A 
ATOM      5  C   UNL     1      10.950  16.255   8.936  1.00  0.00     0.001 A 
ATOM      6  C   UNL     1      10.312  15.256   9.668  1.00  0.00     0.004 A 
ENDROOT
BRANCH   1   7
ATOM      7  C   UNL     1      12.303  18.497  11.653  1.00  0.00     0.075 C 
ATOM      8  O   UNL     1      12.259  19.661  11.172  1.00  0.00    -0.545 OA
ATOM      9  O   UNL     1      13.109  18.255  12.759  1.00  0.00    -0.545 OA
ENDBRANCH   1   7
BRANCH   2  10
ATOM     10  O   UNL     1      10.734  16.453  13.124  1.00  0.00    -0.507 OA
ATOM     11  H   UNL     1       9.975  16.010  13.624  1.00  0.00     0.293 HD
ENDBRANCH   2  10
TORSDOF 2
ENDMDL
MODEL 4
REMARK VINA RESULT:    -5.151     11.268     12.298
REMARK INTER + INTRA:          -5.786
REMARK INTER:                  -5.539
REMARK INTRA:                  -0.247
REMARK UNBOUND:                -0.182
REMARK SMILES O=C([O-])c1ccccc1O
REMARK SMILES IDX 4 1 9 2 5 3 8 4 6 5 7 6 2 7 1 8 3 9 10 10
REMARK H PARENT 10 11
REMARK Flexibility Score: inf
ROOT
ATOM      1  C   UNL     1      11.092  12.705   7.855  1.00  0.00     0.039 A 
ATOM      2  C   UNL     1      11.411  11.326   7.936  1.00  0.00     0.124 A 
ATOM      3  C   UNL     1      10.459  13.190   6.694  1.00  0.00     0.014 A 
ATOM      4  C   UNL     1      11.149  10.489   6.843  1.00  0.00     0.047 A 
ATOM      5  C   UNL     1      10.186  12.338   5.623  1.00  0.00     0.001 A 
ATOM      6  C   UNL     1      10.539  10.991   5.693  1.00  0.00     0.004 A 
ENDROOT
BRANCH   1   7
ATOM      7  C   UNL     1      11.435  13.663   8.928  1.00  0.00     0.075 C 
ATOM      8  O   UNL     1      12.591  13.663   9.431  1.00  0.00    -0.545 OA
ATOM      9  O   UNL     1      10.477  14.527   9.444  1.00  0.00    -0.545 OA
ENDBRANCH   1   7
BRANCH   2  10
ATOM     10  O   UNL     1      11.950  10.745   9.085  1.00  0.00    -0.507 OA
ATOM     11  H   UNL     1      12.067  11.242   9.957  1.00  0.00     0.293 HD
ENDBRANCH   2  10
TORSDOF 2
ENDMDL
MODEL 5
REMARK VINA RESULT:    -5.127      2.020      3.631
REMARK INTER + INTRA:          -5.759
REMARK INTER:                  -5.517
REMARK INTRA:                  -0.242
REMARK UNBOUND:                -0.182
REMARK SMILES O=C([O-])c1ccccc1O
REMARK SMILES IDX 4 1 9 2 5 3 8 4 6 5 7 6 2 7 1 8 3 9 10 10
REMARK H PARENT 10 11
REMARK Flexibility Score: inf
ROOT
ATOM      1  C   UNL     1      10.797  16.991  -3.081  1.00  0.00     0.039 A 
ATOM      2  C   UNL     1      10.730  18.407  -3.095  1.00  0.00     0.124 A 
ATOM      3  C   UNL     1      10.878  16.325  -1.842  1.00  0.00     0.014 A 
ATOM      4  C   UNL     1      10.806  19.116  -1.889  1.00  0.00     0.047 A 
ATOM      5  C   UNL     1      10.932  17.047  -0.649  1.00  0.00     0.001 A 
ATOM      6  C   UNL     1      10.906  18.440  -0.672  1.00  0.00     0.004 A 
ENDROOT
BRANCH   1   7
ATOM      7  C   UNL     1      10.826  16.185  -4.321  1.00  0.00     0.075 C 
ATOM      8  O   UNL     1      11.643  16.466  -5.239  1.00  0.00    -0.545 OA
ATOM      9  O   UNL     1       9.915  15.155  -4.522  1.00  0.00    -0.545 OA
ENDBRANCH   1   7
BRANCH   2  10
ATOM     10  O   UNL     1      10.551  19.139  -4.269  1.00  0.00    -0.507 OA
ATOM     11  H   UNL     1       9.984  19.975  -4.323  1.00  0.00     0.293 HD
ENDBRANCH   2  10
TORSDOF 2
ENDMDL
MODEL 6
REMARK VINA RESULT:    -5.120      2.641      3.466
REMARK INTER + INTRA:          -5.752
REMARK INTER:                  -5.529
REMARK INTRA:                  -0.223
REMARK UNBOUND:                -0.182
REMARK SMILES O=C([O-])c1ccccc1O
REMARK SMILES IDX 4 1 9 2 5 3 8 4 6 5 7 6 2 7 1 8 3 9 10 10
REMARK H PARENT 10 11
REMARK Flexibility Score: inf
ROOT
ATOM      1  C   UNL     1      10.843  17.565  -0.945  1.00  0.00     0.039 A 
ATOM      2  C   UNL     1      10.486  16.644  -1.962  1.00  0.00     0.124 A 
ATOM      3  C   UNL     1      10.662  18.942  -1.179  1.00  0.00     0.014 A 
ATOM      4  C   UNL     1      10.021  17.120  -3.196  1.00  0.00     0.047 A 
ATOM      5  C   UNL     1      10.178  19.398  -2.407  1.00  0.00     0.001 A 
ATOM      6  C   UNL     1       9.867  18.489  -3.417  1.00  0.00     0.004 A 
ENDROOT
BRANCH   1   7
ATOM      7  C   UNL     1      11.437  17.137   0.340  1.00  0.00     0.075 C 
ATOM      8  O   UNL     1      11.555  17.959   1.287  1.00  0.00    -0.545 OA
ATOM      9  O   UNL     1      11.932  15.848   0.501  1.00  0.00    -0.545 OA
ENDBRANCH   1   7
BRANCH   2  10
ATOM     10  O   UNL     1      10.541  15.262  -1.778  1.00  0.00    -0.507 OA
ATOM     11  H   UNL     1      11.226  14.668  -2.227  1.00  0.00     0.293 HD
ENDBRANCH   2  10
TORSDOF 2
ENDMDL
MODEL 7
REMARK VINA RESULT:    -5.086     12.255     13.988
REMARK INTER + INTRA:          -5.715
REMARK INTER:                  -5.471
REMARK INTRA:                  -0.244
REMARK UNBOUND:                -0.182
REMARK SMILES O=C([O-])c1ccccc1O
REMARK SMILES IDX 4 1 9 2 5 3 8 4 6 5 7 6 2 7 1 8 3 9 10 10
REMARK H PARENT 10 11
REMARK Flexibility Score: inf
ROOT
ATOM      1  C   UNL     1      11.187  16.687   9.895  1.00  0.00     0.039 A 
ATOM      2  C   UNL     1      11.763  17.765  10.612  1.00  0.00     0.124 A 
ATOM      3  C   UNL     1      10.576  15.640  10.613  1.00  0.00     0.014 A 
ATOM      4  C   UNL     1      11.770  17.741  12.013  1.00  0.00     0.047 A 
ATOM      5  C   UNL     1      10.574  15.642  12.009  1.00  0.00     0.001 A 
ATOM      6  C   UNL     1      11.178  16.686  12.708  1.00  0.00     0.004 A 
ENDROOT
BRANCH   1   7
ATOM      7  C   UNL     1      11.236  16.598   8.419  1.00  0.00     0.075 C 
ATOM      8  O   UNL     1      11.098  17.637   7.718  1.00  0.00    -0.545 OA
ATOM      9  O   UNL     1      11.366  15.369   7.783  1.00  0.00    -0.545 OA
ENDBRANCH   1   7
BRANCH   2  10
ATOM     10  O   UNL     1      12.301  18.887   9.979  1.00  0.00    -0.507 OA
ATOM     11  H   UNL     1      12.650  18.876   9.030  1.00  0.00     0.293 HD
ENDBRANCH   2  10
TORSDOF 2
ENDMDL
MODEL 8
REMARK VINA RESULT:    -5.000     12.150     12.932
REMARK INTER + INTRA:          -5.621
REMARK INTER:                  -5.393
REMARK INTRA:                  -0.227
REMARK UNBOUND:                -0.182
REMARK SMILES O=C([O-])c1ccccc1O
REMARK SMILES IDX 4 1 9 2 5 3 8 4 6 5 7 6 2 7 1 8 3 9 10 10
REMARK H PARENT 10 11
REMARK Flexibility Score: inf
ROOT
ATOM      1  C   UNL     1      11.468  12.146   7.846  1.00  0.00     0.039 A 
ATOM      2  C   UNL     1      12.781  12.351   8.338  1.00  0.00     0.124 A 
ATOM      3  C   UNL     1      10.477  13.107   8.128  1.00  0.00     0.014 A 
ATOM      4  C   UNL     1      13.053  13.466   9.143  1.00  0.00     0.047 A 
ATOM      5  C   UNL     1      10.771  14.222   8.915  1.00  0.00     0.001 A 
ATOM      6  C   UNL     1      12.054  14.396   9.430  1.00  0.00     0.004 A 
ENDROOT
BRANCH   1   7
ATOM      7  C   UNL     1      11.087  10.940   7.078  1.00  0.00     0.075 C 
ATOM      8  O   UNL     1      11.657  10.682   5.984  1.00  0.00    -0.545 OA
ATOM      9  O   UNL     1      10.056  10.116   7.512  1.00  0.00    -0.545 OA
ENDBRANCH   1   7
BRANCH   2  10
ATOM     10  O   UNL     1      13.843  11.501   8.024  1.00  0.00    -0.507 OA
ATOM     11  H   UNL     1      13.720  10.585   7.615  1.00  0.00     0.293 HD
ENDBRANCH   2  10
TORSDOF 2
ENDMDL
MODEL 9
REMARK VINA RESULT:    -4.960     13.257     14.827
REMARK INTER + INTRA:          -5.577
REMARK INTER:                  -5.325
REMARK INTRA:                  -0.252
REMARK UNBOUND:                -0.182
REMARK SMILES O=C([O-])c1ccccc1O
REMARK SMILES IDX 4 1 9 2 5 3 8 4 6 5 7 6 2 7 1 8 3 9 10 10
REMARK H PARENT 10 11
REMARK Flexibility Score: inf
ROOT
ATOM      1  C   UNL     1      11.923  17.797  11.506  1.00  0.00     0.039 A 
ATOM      2  C   UNL     1      11.583  17.456  10.173  1.00  0.00     0.124 A 
ATOM      3  C   UNL     1      11.533  16.937  12.550  1.00  0.00     0.014 A 
ATOM      4  C   UNL     1      10.816  16.309   9.926  1.00  0.00     0.047 A 
ATOM      5  C   UNL     1      10.786  15.788  12.284  1.00  0.00     0.001 A 
ATOM      6  C   UNL     1      10.420  15.479  10.975  1.00  0.00     0.004 A 
ENDROOT
BRANCH   1   7
ATOM      7  C   UNL     1      12.641  19.045  11.847  1.00  0.00     0.075 C 
ATOM      8  O   UNL     1      13.499  19.049  12.770  1.00  0.00    -0.545 OA
ATOM      9  O   UNL     1      12.336  20.240  11.206  1.00  0.00    -0.545 OA
ENDBRANCH   1   7
BRANCH   2  10
ATOM     10  O   UNL     1      12.013  18.199   9.073  1.00  0.00    -0.507 OA
ATOM     11  H   UNL     1      12.214  17.791   8.170  1.00  0.00     0.293 HD
ENDBRANCH   2  10
TORSDOF 2
ENDMDL
