MODEL 1
REMARK VINA RESULT:    -5.126      0.000      0.000
REMARK INTER + INTRA:          -5.126
REMARK INTER:                  -5.126
REMARK INTRA:                   0.000
REMARK UNBOUND:                 0.000
REMARK SMILES O=c1ccc2ccccc2o1
REMARK SMILES IDX 7 1 8 2 9 3 10 4 5 5 6 6 4 7 3 8 2 9 1 10 11 11
REMARK H PARENT
REMARK Flexibility Score: inf
ROOT
ATOM      1  C   UNL     1      20.097  -1.504 -18.367  1.00  0.00     0.001 A 
ATOM      2  C   UNL     1      20.761  -0.357 -17.919  1.00  0.00     0.004 A 
ATOM      3  C   UNL     1      21.439   0.464 -18.827  1.00  0.00     0.048 A 
ATOM      4  C   UNL     1      21.455   0.139 -20.188  1.00  0.00     0.138 A 
ATOM      5  C   UNL     1      20.783  -1.019 -20.640  1.00  0.00     0.018 A 
ATOM      6  C   UNL     1      20.106  -1.838 -19.725  1.00  0.00     0.012 A 
ATOM      7  C   UNL     1      20.817  -1.318 -22.006  1.00  0.00     0.019 A 
ATOM      8  C   UNL     1      21.504  -0.472 -22.875  1.00  0.00     0.094 A 
ATOM      9  C   UNL     1      22.146   0.659 -22.356  1.00  0.00     0.336 A 
ATOM     10  O   UNL     1      22.772   1.435 -23.124  1.00  0.00    -0.246 OA
ATOM     11  O   UNL     1      22.100   0.920 -21.052  1.00  0.00    -0.423 OA
ENDROOT
TORSDOF 0
ENDMDL
MODEL 2
REMARK VINA RESULT:    -4.922      1.973      4.292
REMARK INTER + INTRA:          -4.922
REMARK INTER:                  -4.922
REMARK INTRA:                   0.000
REMARK UNBOUND:                 0.000
REMARK SMILES O=c1ccc2ccccc2o1
REMARK SMILES IDX 7 1 8 2 9 3 10 4 5 5 6 6 4 7 3 8 2 9 1 10 11 11
REMARK H PARENT
REMARK Flexibility Score: inf
ROOT
ATOM      1  C   UNL     1      22.294   1.403 -22.288  1.00  0.00     0.001 A 
ATOM      2  C   UNL     1      22.109   0.250 -23.058  1.00  0.00     0.004 A 
ATOM      3  C   UNL     1      21.523  -0.888 -22.493  1.00  0.00     0.048 A 
ATOM      4  C   UNL     1      21.120  -0.875 -21.153  1.00  0.00     0.138 A 
ATOM      5  C   UNL     1      21.306   0.290 -20.375  1.00  0.00     0.018 A 
ATOM      6  C   UNL     1      21.895   1.426 -20.948  1.00  0.00     0.012 A 
ATOM      7  C   UNL     1      20.893   0.272 -19.039  1.00  0.00     0.019 A 
ATOM      8  C   UNL     1      20.313  -0.884 -18.518  1.00  0.00     0.094 A 
ATOM      9  C   UNL     1      20.159  -2.001 -19.347  1.00  0.00     0.336 A 
ATOM     10  O   UNL     1      19.638  -3.053 -18.895  1.00  0.00    -0.246 OA
ATOM     11  O   UNL     1      20.562  -1.958 -20.615  1.00  0.00    -0.423 OA
ENDROOT
TORSDOF 0
ENDMDL
MODEL 3
REMARK VINA RESULT:    -4.732     19.630     20.769
REMARK INTER + INTRA:          -4.732
REMARK INTER:                  -4.732
REMARK INTRA:                   0.000
REMARK UNBOUND:                 0.000
REMARK SMILES O=c1ccc2ccccc2o1
REMARK SMILES IDX 7 1 8 2 9 3 10 4 5 5 6 6 4 7 3 8 2 9 1 10 11 11
REMARK H PARENT
REMARK Flexibility Score: inf
ROOT
ATOM      1  C   UNL     1       5.719   3.451  -7.708  1.00  0.00     0.001 A 
ATOM      2  C   UNL     1       4.564   4.015  -7.156  1.00  0.00     0.004 A 
ATOM      3  C   UNL     1       3.970   5.131  -7.755  1.00  0.00     0.048 A 
ATOM      4  C   UNL     1       4.530   5.686  -8.912  1.00  0.00     0.138 A 
ATOM      5  C   UNL     1       5.696   5.115  -9.470  1.00  0.00     0.018 A 
ATOM      6  C   UNL     1       6.287   3.997  -8.863  1.00  0.00     0.012 A 
ATOM      7  C   UNL     1       6.233   5.692 -10.625  1.00  0.00     0.019 A 
ATOM      8  C   UNL     1       5.607   6.803 -11.189  1.00  0.00     0.094 A 
ATOM      9  C   UNL     1       4.454   7.315 -10.582  1.00  0.00     0.336 A 
ATOM     10  O   UNL     1       3.875   8.316 -11.076  1.00  0.00    -0.246 OA
ATOM     11  O   UNL     1       3.964   6.747  -9.482  1.00  0.00    -0.423 OA
ENDROOT
TORSDOF 0
ENDMDL
MODEL 4
REMARK VINA RESULT:    -4.726     16.790     18.732
REMARK INTER + INTRA:          -4.726
REMARK INTER:                  -4.726
REMARK INTRA:                   0.000
REMARK UNBOUND:                 0.000
REMARK SMILES O=c1ccc2ccccc2o1
REMARK SMILES IDX 7 1 8 2 9 3 10 4 5 5 6 6 4 7 3 8 2 9 1 10 11 11
REMARK H PARENT
REMARK Flexibility Score: inf
ROOT
ATOM      1  C   UNL     1       7.584  -7.322  -5.635  1.00  0.00     0.001 A 
ATOM      2  C   UNL     1       7.904  -5.974  -5.442  1.00  0.00     0.004 A 
ATOM      3  C   UNL     1       8.923  -5.378  -6.194  1.00  0.00     0.048 A 
ATOM      4  C   UNL     1       9.625  -6.130  -7.142  1.00  0.00     0.138 A 
ATOM      5  C   UNL     1       9.302  -7.492  -7.336  1.00  0.00     0.018 A 
ATOM      6  C   UNL     1       8.280  -8.083  -6.579  1.00  0.00     0.012 A 
ATOM      7  C   UNL     1      10.022  -8.218  -8.291  1.00  0.00     0.019 A 
ATOM      8  C   UNL     1      11.029  -7.583  -9.017  1.00  0.00     0.094 A 
ATOM      9  C   UNL     1      11.294  -6.230  -8.772  1.00  0.00     0.336 A 
ATOM     10  O   UNL     1      12.198  -5.640  -9.417  1.00  0.00    -0.246 OA
ATOM     11  O   UNL     1      10.594  -5.562  -7.857  1.00  0.00    -0.423 OA
ENDROOT
TORSDOF 0
ENDMDL
MODEL 5
REMARK VINA RESULT:    -4.717     16.714     18.898
REMARK INTER + INTRA:          -4.717
REMARK INTER:                  -4.717
REMARK INTRA:                   0.000
REMARK UNBOUND:                 0.000
REMARK SMILES O=c1ccc2ccccc2o1
REMARK SMILES IDX 7 1 8 2 9 3 10 4 5 5 6 6 4 7 3 8 2 9 1 10 11 11
REMARK H PARENT
REMARK Flexibility Score: inf
ROOT
ATOM      1  C   UNL     1      14.713   4.432  -6.598  1.00  0.00     0.001 A 
ATOM      2  C   UNL     1      13.881   3.596  -7.351  1.00  0.00     0.004 A 
ATOM      3  C   UNL     1      12.709   3.078  -6.789  1.00  0.00     0.048 A 
ATOM      4  C   UNL     1      12.366   3.395  -5.470  1.00  0.00     0.138 A 
ATOM      5  C   UNL     1      13.207   4.239  -4.710  1.00  0.00     0.018 A 
ATOM      6  C   UNL     1      14.380   4.754  -5.280  1.00  0.00     0.012 A 
ATOM      7  C   UNL     1      12.837   4.537  -3.394  1.00  0.00     0.019 A 
ATOM      8  C   UNL     1      11.661   3.999  -2.875  1.00  0.00     0.094 A 
ATOM      9  C   UNL     1      10.876   3.170  -3.687  1.00  0.00     0.336 A 
ATOM     10  O   UNL     1       9.812   2.675  -3.236  1.00  0.00    -0.246 OA
ATOM     11  O   UNL     1      11.251   2.901  -4.935  1.00  0.00    -0.423 OA
ENDROOT
TORSDOF 0
ENDMDL
MODEL 6
REMARK VINA RESULT:    -4.631     16.010     17.989
REMARK INTER + INTRA:          -4.631
REMARK INTER:                  -4.631
REMARK INTRA:                   0.000
REMARK UNBOUND:                 0.000
REMARK SMILES O=c1ccc2ccccc2o1
REMARK SMILES IDX 7 1 8 2 9 3 10 4 5 5 6 6 4 7 3 8 2 9 1 10 11 11
REMARK H PARENT
REMARK Flexibility Score: inf
ROOT
ATOM      1  C   UNL     1      11.709   4.324  -2.875  1.00  0.00     0.001 A 
ATOM      2  C   UNL     1      10.916   3.367  -3.517  1.00  0.00     0.004 A 
ATOM      3  C   UNL     1      11.284   2.876  -4.775  1.00  0.00     0.048 A 
ATOM      4  C   UNL     1      12.449   3.343  -5.395  1.00  0.00     0.138 A 
ATOM      5  C   UNL     1      13.250   4.309  -4.746  1.00  0.00     0.018 A 
ATOM      6  C   UNL     1      12.875   4.797  -3.486  1.00  0.00     0.012 A 
ATOM      7  C   UNL     1      14.408   4.756  -5.391  1.00  0.00     0.019 A 
ATOM      8  C   UNL     1      14.736   4.240  -6.643  1.00  0.00     0.094 A 
ATOM      9  C   UNL     1      13.895   3.284  -7.226  1.00  0.00     0.336 A 
ATOM     10  O   UNL     1      14.175   2.806  -8.356  1.00  0.00    -0.246 OA
ATOM     11  O   UNL     1      12.799   2.876  -6.592  1.00  0.00    -0.423 OA
ENDROOT
TORSDOF 0
ENDMDL
MODEL 7
REMARK VINA RESULT:    -4.590     16.247     18.331
REMARK INTER + INTRA:          -4.590
REMARK INTER:                  -4.590
REMARK INTRA:                   0.000
REMARK UNBOUND:                 0.000
REMARK SMILES O=c1ccc2ccccc2o1
REMARK SMILES IDX 7 1 8 2 9 3 10 4 5 5 6 6 4 7 3 8 2 9 1 10 11 11
REMARK H PARENT
REMARK Flexibility Score: inf
ROOT
ATOM      1  C   UNL     1      10.849  -5.370 -10.778  1.00  0.00     0.001 A 
ATOM      2  C   UNL     1      11.663  -5.870  -9.756  1.00  0.00     0.004 A 
ATOM      3  C   UNL     1      11.151  -6.033  -8.464  1.00  0.00     0.048 A 
ATOM      4  C   UNL     1       9.821  -5.695  -8.190  1.00  0.00     0.138 A 
ATOM      5  C   UNL     1       8.999  -5.190  -9.223  1.00  0.00     0.018 A 
ATOM      6  C   UNL     1       9.519  -5.029 -10.515  1.00  0.00     0.012 A 
ATOM      7  C   UNL     1       7.674  -4.861  -8.918  1.00  0.00     0.019 A 
ATOM      8  C   UNL     1       7.206  -5.040  -7.617  1.00  0.00     0.094 A 
ATOM      9  C   UNL     1       8.078  -5.546  -6.645  1.00  0.00     0.336 A 
ATOM     10  O   UNL     1       7.674  -5.715  -5.466  1.00  0.00    -0.246 OA
ATOM     11  O   UNL     1       9.334  -5.851  -6.961  1.00  0.00    -0.423 OA
ENDROOT
TORSDOF 0
ENDMDL
