MODEL 1
REMARK VINA RESULT:    -7.811      0.000      0.000
REMARK INTER + INTRA:         -15.788
REMARK INTER:                 -12.835
REMARK INTRA:                  -2.954
REMARK UNBOUND:                -2.954
REMARK SMILES C[C@@H]1O[C@H](OC[C@H]2O[C@@H](Oc3c(-c4ccc(O)c(O)c4)oc4cc(O)cc(O)c4c3=O)[C@H](O)[C@H](O)[C@@H]2O)[C@H](O)[C@@H](O)[C@@H]1O
REMARK SMILES IDX 7 1 36 2 34 3 32 4 9 5 8 6 6 7 5 8 4 9 1 10 2 11 42 12 3 13
REMARK SMILES IDX 40 14 38 15 43 16 41 18 39 20 37 22 35 24 10 26 11 27 12 28
REMARK SMILES IDX 30 29 21 30 29 31 31 32 22 33 27 34 23 35 26 36 24 37 13 38
REMARK SMILES IDX 20 39 14 40 18 41 15 42 16 43 19 44 17 46 28 48 25 50 33 52
REMARK H PARENT 43 17 41 19 39 21 37 23 35 25 19 45 17 47 28 49 25 51 33 53
REMARK Flexibility Score: inf
ROOT
ATOM      1  C   UNL     1     118.928 119.383 136.597  1.00  0.00     0.180 C 
ATOM      2  C   UNL     1     119.589 118.421 137.612  1.00  0.00     0.177 C 
ATOM      3  C   UNL     1     120.778 119.143 138.302  1.00  0.00     0.180 C 
ATOM      4  C   UNL     1     120.514 120.672 138.444  1.00  0.00     0.214 C 
ATOM      5  C   UNL     1     118.981 120.920 138.479  1.00  0.00     0.339 C 
ATOM      6  O   UNL     1     118.284 120.478 137.307  1.00  0.00    -0.332 OA
ENDROOT
BRANCH   1   7
ATOM      7  C   UNL     1     117.893 118.733 135.619  1.00  0.00     0.198 C 
BRANCH   7   8
ATOM      8  O   UNL     1     118.476 117.679 134.858  1.00  0.00    -0.347 OA
BRANCH   8   9
ATOM      9  C   UNL     1     117.803 116.424 134.640  1.00  0.00     0.281 C 
ATOM     10  C   UNL     1     118.883 113.597 132.622  1.00  0.00     0.041 C 
ATOM     11  C   UNL     1     117.895 114.661 133.107  1.00  0.00     0.150 C 
ATOM     12  C   UNL     1     116.600 114.103 133.777  1.00  0.00     0.174 C 
ATOM     13  O   UNL     1     118.633 115.541 133.926  1.00  0.00    -0.344 OA
ATOM     14  C   UNL     1     116.554 114.263 135.308  1.00  0.00     0.179 C 
ATOM     15  C   UNL     1     117.109 115.642 135.800  1.00  0.00     0.202 C 
BRANCH  12  16
ATOM     16  O   UNL     1     116.377 112.753 133.438  1.00  0.00    -0.388 OA
ATOM     17  H   UNL     1     115.959 112.330 134.221  1.00  0.00     0.211 HD
ENDBRANCH  12  16
BRANCH  14  18
ATOM     18  O   UNL     1     115.221 114.139 135.745  1.00  0.00    -0.387 OA
ATOM     19  H   UNL     1     114.777 113.453 135.208  1.00  0.00     0.211 HD
ENDBRANCH  14  18
BRANCH  15  20
ATOM     20  O   UNL     1     117.945 115.368 136.875  1.00  0.00    -0.385 OA
ATOM     21  H   UNL     1     117.733 116.022 137.588  1.00  0.00     0.211 HD
ENDBRANCH  15  20
ENDBRANCH   8   9
ENDBRANCH   7   8
ENDBRANCH   1   7
BRANCH   2  22
ATOM     22  O   UNL     1     120.081 117.244 137.027  1.00  0.00    -0.387 OA
ATOM     23  H   UNL     1     119.701 117.249 136.101  1.00  0.00     0.211 HD
ENDBRANCH   2  22
BRANCH   3  24
ATOM     24  O   UNL     1     121.961 118.947 137.581  1.00  0.00    -0.387 OA
ATOM     25  H   UNL     1     121.972 119.601 136.827  1.00  0.00     0.211 HD
ENDBRANCH   3  24
BRANCH   5  26
ATOM     26  O   UNL     1     118.460 120.266 139.658  1.00  0.00    -0.454 OA
BRANCH  26  27
ATOM     27  C   UNL     1     117.374 120.764 140.388  1.00  0.00     0.214 A 
ATOM     28  C   UNL     1     116.053 120.432 140.014  1.00  0.00     0.180 A 
ATOM     29  C   UNL     1     117.571 121.530 141.537  1.00  0.00     0.239 A 
ATOM     30  O   UNL     1     115.026 121.054 140.581  1.00  0.00    -0.452 OA
ATOM     31  C   UNL     1     116.448 122.088 142.188  1.00  0.00     0.111 A 
ATOM     32  O   UNL     1     118.742 121.687 141.972  1.00  0.00    -0.285 OA
ATOM     33  C   UNL     1     115.172 121.887 141.604  1.00  0.00     0.146 A 
ATOM     34  C   UNL     1     116.526 122.773 143.430  1.00  0.00     0.134 A 
ATOM     35  C   UNL     1     114.052 122.525 142.131  1.00  0.00     0.094 A 
ATOM     36  C   UNL     1     115.369 123.387 143.951  1.00  0.00     0.093 A 
ATOM     37  C   UNL     1     114.151 123.302 143.273  1.00  0.00     0.123 A 
BRANCH  28  38
ATOM     38  C   UNL     1     115.776 119.233 139.214  1.00  0.00     0.025 A 
ATOM     39  C   UNL     1     115.033 119.317 138.039  1.00  0.00     0.062 A 
ATOM     40  C   UNL     1     116.004 117.969 139.792  1.00  0.00     0.016 A 
ATOM     41  C   UNL     1     114.451 118.166 137.482  1.00  0.00     0.158 A 
ATOM     42  C   UNL     1     115.405 116.828 139.262  1.00  0.00     0.051 A 
ATOM     43  C   UNL     1     114.626 116.930 138.096  1.00  0.00     0.157 A 
BRANCH  41  44
ATOM     44  O   UNL     1     113.659 118.289 136.346  1.00  0.00    -0.504 OA
ATOM     45  H   UNL     1     112.691 118.003 136.325  1.00  0.00     0.293 HD
ENDBRANCH  41  44
BRANCH  43  46
ATOM     46  O   UNL     1     114.052 115.776 137.556  1.00  0.00    -0.504 OA
ATOM     47  H   UNL     1     114.455 114.864 137.770  1.00  0.00     0.293 HD
ENDBRANCH  43  46
ENDBRANCH  28  38
BRANCH  34  48
ATOM     48  O   UNL     1     117.722 122.837 144.142  1.00  0.00    -0.507 OA
ATOM     49  H   UNL     1     117.814 122.535 145.099  1.00  0.00     0.293 HD
ENDBRANCH  34  48
BRANCH  37  50
ATOM     50  O   UNL     1     113.052 124.062 143.690  1.00  0.00    -0.508 OA
ATOM     51  H   UNL     1     112.929 124.297 144.673  1.00  0.00     0.293 HD
ENDBRANCH  37  50
ENDBRANCH  26  27
ENDBRANCH   5  26
BRANCH   4  52
ATOM     52  O   UNL     1     121.023 121.361 137.321  1.00  0.00    -0.384 OA
ATOM     53  H   UNL     1     120.876 122.338 137.471  1.00  0.00     0.211 HD
ENDBRANCH   4  52
TORSDOF 16
ENDMDL
MODEL 2
REMARK VINA RESULT:    -7.694      3.411      9.350
REMARK INTER + INTRA:         -15.595
REMARK INTER:                 -12.782
REMARK INTRA:                  -2.813
REMARK UNBOUND:                -2.954
REMARK SMILES C[C@@H]1O[C@H](OC[C@H]2O[C@@H](Oc3c(-c4ccc(O)c(O)c4)oc4cc(O)cc(O)c4c3=O)[C@H](O)[C@H](O)[C@@H]2O)[C@H](O)[C@@H](O)[C@@H]1O
REMARK SMILES IDX 7 1 36 2 34 3 32 4 9 5 8 6 6 7 5 8 4 9 1 10 2 11 42 12 3 13
REMARK SMILES IDX 40 14 38 15 43 16 41 18 39 20 37 22 35 24 10 26 11 27 12 28
REMARK SMILES IDX 30 29 21 30 29 31 31 32 22 33 27 34 23 35 26 36 24 37 13 38
REMARK SMILES IDX 20 39 14 40 18 41 15 42 16 43 19 44 17 46 28 48 25 50 33 52
REMARK H PARENT 43 17 41 19 39 21 37 23 35 25 19 45 17 47 28 49 25 51 33 53
REMARK Flexibility Score: inf
ROOT
ATOM      1  C   UNL     1     113.599 124.534 143.707  1.00  0.00     0.180 C 
ATOM      2  C   UNL     1     114.764 125.361 143.112  1.00  0.00     0.177 C 
ATOM      3  C   UNL     1     116.102 124.881 143.735  1.00  0.00     0.180 C 
ATOM      4  C   UNL     1     116.064 123.361 144.072  1.00  0.00     0.214 C 
ATOM      5  C   UNL     1     115.038 122.661 143.139  1.00  0.00     0.339 C 
ATOM      6  O   UNL     1     113.697 123.154 143.259  1.00  0.00    -0.332 OA
ENDROOT
BRANCH   1   7
ATOM      7  C   UNL     1     112.160 125.068 143.398  1.00  0.00     0.198 C 
BRANCH   7   8
ATOM      8  O   UNL     1     111.804 124.868 142.033  1.00  0.00    -0.347 OA
BRANCH   8   9
ATOM      9  C   UNL     1     112.184 125.792 140.995  1.00  0.00     0.281 C 
ATOM     10  C   UNL     1     114.933 125.531 138.628  1.00  0.00     0.041 C 
ATOM     11  C   UNL     1     114.066 126.228 139.679  1.00  0.00     0.150 C 
ATOM     12  C   UNL     1     113.334 127.516 139.184  1.00  0.00     0.174 C 
ATOM     13  O   UNL     1     113.203 125.241 140.199  1.00  0.00    -0.344 OA
ATOM     14  C   UNL     1     111.820 127.343 138.961  1.00  0.00     0.179 C 
ATOM     15  C   UNL     1     111.130 126.477 140.068  1.00  0.00     0.202 C 
BRANCH  12  16
ATOM     16  O   UNL     1     113.925 128.034 138.013  1.00  0.00    -0.388 OA
ATOM     17  H   UNL     1     113.193 128.382 137.457  1.00  0.00     0.211 HD
ENDBRANCH  12  16
BRANCH  14  18
ATOM     18  O   UNL     1     111.208 128.611 138.944  1.00  0.00    -0.387 OA
ATOM     19  H   UNL     1     111.906 129.297 138.929  1.00  0.00     0.211 HD
ENDBRANCH  14  18
BRANCH  15  20
ATOM     20  O   UNL     1     110.296 125.585 139.406  1.00  0.00    -0.385 OA
ATOM     21  H   UNL     1     110.303 124.738 139.920  1.00  0.00     0.211 HD
ENDBRANCH  15  20
ENDBRANCH   8   9
ENDBRANCH   7   8
ENDBRANCH   1   7
BRANCH   2  22
ATOM     22  O   UNL     1     114.648 126.739 143.348  1.00  0.00    -0.387 OA
ATOM     23  H   UNL     1     115.522 127.118 143.038  1.00  0.00     0.211 HD
ENDBRANCH   2  22
BRANCH   3  24
ATOM     24  O   UNL     1     116.391 125.601 144.899  1.00  0.00    -0.387 OA
ATOM     25  H   UNL     1     117.226 126.124 144.737  1.00  0.00     0.211 HD
ENDBRANCH   3  24
BRANCH   5  26
ATOM     26  O   UNL     1     115.514 122.805 141.782  1.00  0.00    -0.454 OA
BRANCH  26  27
ATOM     27  C   UNL     1     115.874 121.714 140.981  1.00  0.00     0.214 A 
ATOM     28  C   UNL     1     114.912 121.089 140.158  1.00  0.00     0.180 A 
ATOM     29  C   UNL     1     117.196 121.272 140.918  1.00  0.00     0.239 A 
ATOM     30  O   UNL     1     115.201 119.944 139.551  1.00  0.00    -0.452 OA
ATOM     31  C   UNL     1     117.494 120.113 140.170  1.00  0.00     0.111 A 
ATOM     32  O   UNL     1     118.087 121.930 141.516  1.00  0.00    -0.285 OA
ATOM     33  C   UNL     1     116.419 119.417 139.562  1.00  0.00     0.146 A 
ATOM     34  C   UNL     1     118.818 119.652 139.937  1.00  0.00     0.134 A 
ATOM     35  C   UNL     1     116.643 118.198 138.925  1.00  0.00     0.094 A 
ATOM     36  C   UNL     1     119.013 118.427 139.268  1.00  0.00     0.093 A 
ATOM     37  C   UNL     1     117.923 117.684 138.811  1.00  0.00     0.123 A 
BRANCH  28  38
ATOM     38  C   UNL     1     113.699 121.803 139.740  1.00  0.00     0.025 A 
ATOM     39  C   UNL     1     112.588 121.870 140.579  1.00  0.00     0.062 A 
ATOM     40  C   UNL     1     113.557 122.156 138.384  1.00  0.00     0.016 A 
ATOM     41  C   UNL     1     111.327 122.207 140.060  1.00  0.00     0.158 A 
ATOM     42  C   UNL     1     112.304 122.462 137.859  1.00  0.00     0.051 A 
ATOM     43  C   UNL     1     111.183 122.490 138.706  1.00  0.00     0.157 A 
BRANCH  41  44
ATOM     44  O   UNL     1     110.223 122.202 140.906  1.00  0.00    -0.504 OA
ATOM     45  H   UNL     1     109.834 123.047 141.298  1.00  0.00     0.293 HD
ENDBRANCH  41  44
BRANCH  43  46
ATOM     46  O   UNL     1     109.934 122.825 138.175  1.00  0.00    -0.504 OA
ATOM     47  H   UNL     1     109.864 123.134 137.206  1.00  0.00     0.293 HD
ENDBRANCH  43  46
ENDBRANCH  28  38
BRANCH  34  48
ATOM     48  O   UNL     1     119.921 120.397 140.351  1.00  0.00    -0.507 OA
ATOM     49  H   UNL     1     119.875 121.101 141.069  1.00  0.00     0.293 HD
ENDBRANCH  34  48
BRANCH  37  50
ATOM     50  O   UNL     1     118.106 116.388 138.316  1.00  0.00    -0.508 OA
ATOM     51  H   UNL     1     117.597 116.072 137.492  1.00  0.00     0.293 HD
ENDBRANCH  37  50
ENDBRANCH  26  27
ENDBRANCH   5  26
BRANCH   4  52
ATOM     52  O   UNL     1     115.621 123.166 145.399  1.00  0.00    -0.384 OA
ATOM     53  H   UNL     1     114.706 123.557 145.476  1.00  0.00     0.211 HD
ENDBRANCH   4  52
TORSDOF 16
ENDMDL
MODEL 3
REMARK VINA RESULT:    -7.634      1.547      4.427
REMARK INTER + INTRA:         -15.497
REMARK INTER:                 -13.663
REMARK INTRA:                  -1.833
REMARK UNBOUND:                -2.954
REMARK SMILES C[C@@H]1O[C@H](OC[C@H]2O[C@@H](Oc3c(-c4ccc(O)c(O)c4)oc4cc(O)cc(O)c4c3=O)[C@H](O)[C@H](O)[C@@H]2O)[C@H](O)[C@@H](O)[C@@H]1O
REMARK SMILES IDX 7 1 36 2 34 3 32 4 9 5 8 6 6 7 5 8 4 9 1 10 2 11 42 12 3 13
REMARK SMILES IDX 40 14 38 15 43 16 41 18 39 20 37 22 35 24 10 26 11 27 12 28
REMARK SMILES IDX 30 29 21 30 29 31 31 32 22 33 27 34 23 35 26 36 24 37 13 38
REMARK SMILES IDX 20 39 14 40 18 41 15 42 16 43 19 44 17 46 28 48 25 50 33 52
REMARK H PARENT 43 17 41 19 39 21 37 23 35 25 19 45 17 47 28 49 25 51 33 53
REMARK Flexibility Score: inf
ROOT
ATOM      1  C   UNL     1     116.567 117.657 136.858  1.00  0.00     0.180 C 
ATOM      2  C   UNL     1     115.210 118.393 136.962  1.00  0.00     0.177 C 
ATOM      3  C   UNL     1     114.538 118.038 138.315  1.00  0.00     0.180 C 
ATOM      4  C   UNL     1     115.596 117.790 139.431  1.00  0.00     0.214 C 
ATOM      5  C   UNL     1     116.892 118.573 139.084  1.00  0.00     0.339 C 
ATOM      6  O   UNL     1     117.495 118.196 137.840  1.00  0.00    -0.332 OA
ENDROOT
BRANCH   1   7
ATOM      7  C   UNL     1     117.247 117.681 135.448  1.00  0.00     0.198 C 
BRANCH   7   8
ATOM      8  O   UNL     1     116.549 116.867 134.510  1.00  0.00    -0.347 OA
BRANCH   8   9
ATOM      9  C   UNL     1     117.200 115.818 133.767  1.00  0.00     0.281 C 
ATOM     10  C   UNL     1     120.533 114.442 134.241  1.00  0.00     0.041 C 
ATOM     11  C   UNL     1     119.378 115.038 133.432  1.00  0.00     0.150 C 
ATOM     12  C   UNL     1     118.798 114.106 132.322  1.00  0.00     0.174 C 
ATOM     13  O   UNL     1     118.421 115.476 134.373  1.00  0.00    -0.344 OA
ATOM     14  C   UNL     1     117.423 113.498 132.654  1.00  0.00     0.179 C 
ATOM     15  C   UNL     1     116.454 114.510 133.353  1.00  0.00     0.202 C 
BRANCH  12  16
ATOM     16  O   UNL     1     119.699 113.075 131.984  1.00  0.00    -0.388 OA
ATOM     17  H   UNL     1     119.246 112.510 131.319  1.00  0.00     0.211 HD
ENDBRANCH  12  16
BRANCH  14  18
ATOM     18  O   UNL     1     116.816 113.051 131.464  1.00  0.00    -0.387 OA
ATOM     19  H   UNL     1     117.323 112.288 131.120  1.00  0.00     0.211 HD
ENDBRANCH  14  18
BRANCH  15  20
ATOM     20  O   UNL     1     115.875 113.830 134.416  1.00  0.00    -0.385 OA
ATOM     21  H   UNL     1     115.660 114.500 135.113  1.00  0.00     0.211 HD
ENDBRANCH  15  20
ENDBRANCH   8   9
ENDBRANCH   7   8
ENDBRANCH   1   7
BRANCH   2  22
ATOM     22  O   UNL     1     114.314 118.060 135.935  1.00  0.00    -0.387 OA
ATOM     23  H   UNL     1     113.410 118.236 136.328  1.00  0.00     0.211 HD
ENDBRANCH   2  22
BRANCH   3  24
ATOM     24  O   UNL     1     113.734 116.901 138.185  1.00  0.00    -0.387 OA
ATOM     25  H   UNL     1     112.971 117.132 137.585  1.00  0.00     0.211 HD
ENDBRANCH   3  24
BRANCH   5  26
ATOM     26  O   UNL     1     116.564 119.981 139.085  1.00  0.00    -0.454 OA
BRANCH  26  27
ATOM     27  C   UNL     1     116.502 120.747 140.256  1.00  0.00     0.214 A 
ATOM     28  C   UNL     1     117.684 121.072 140.957  1.00  0.00     0.180 A 
ATOM     29  C   UNL     1     115.290 121.268 140.711  1.00  0.00     0.239 A 
ATOM     30  O   UNL     1     117.611 121.628 142.160  1.00  0.00    -0.452 OA
ATOM     31  C   UNL     1     115.262 121.956 141.943  1.00  0.00     0.111 A 
ATOM     32  O   UNL     1     114.261 121.126 140.000  1.00  0.00    -0.285 OA
ATOM     33  C   UNL     1     116.464 122.034 142.691  1.00  0.00     0.146 A 
ATOM     34  C   UNL     1     114.113 122.633 142.434  1.00  0.00     0.134 A 
ATOM     35  C   UNL     1     116.460 122.584 143.971  1.00  0.00     0.094 A 
ATOM     36  C   UNL     1     114.148 123.202 143.723  1.00  0.00     0.093 A 
ATOM     37  C   UNL     1     115.304 123.130 144.502  1.00  0.00     0.123 A 
BRANCH  28  38
ATOM     38  C   UNL     1     118.987 121.060 140.282  1.00  0.00     0.025 A 
ATOM     39  C   UNL     1     119.337 122.072 139.390  1.00  0.00     0.062 A 
ATOM     40  C   UNL     1     119.750 119.875 140.309  1.00  0.00     0.016 A 
ATOM     41  C   UNL     1     120.386 121.880 138.475  1.00  0.00     0.158 A 
ATOM     42  C   UNL     1     120.771 119.669 139.384  1.00  0.00     0.051 A 
ATOM     43  C   UNL     1     121.091 120.682 138.464  1.00  0.00     0.157 A 
BRANCH  41  44
ATOM     44  O   UNL     1     120.671 122.881 137.552  1.00  0.00    -0.504 OA
ATOM     45  H   UNL     1     121.395 122.787 136.855  1.00  0.00     0.293 HD
ENDBRANCH  41  44
BRANCH  43  46
ATOM     46  O   UNL     1     122.136 120.476 137.559  1.00  0.00    -0.504 OA
ATOM     47  H   UNL     1     122.509 119.537 137.424  1.00  0.00     0.293 HD
ENDBRANCH  43  46
ENDBRANCH  28  38
BRANCH  34  48
ATOM     48  O   UNL     1     112.962 122.750 141.658  1.00  0.00    -0.507 OA
ATOM     49  H   UNL     1     112.830 122.263 140.786  1.00  0.00     0.293 HD
ENDBRANCH  34  48
BRANCH  37  50
ATOM     50  O   UNL     1     115.281 123.528 145.844  1.00  0.00    -0.508 OA
ATOM     51  H   UNL     1     115.605 122.898 146.576  1.00  0.00     0.293 HD
ENDBRANCH  37  50
ENDBRANCH  26  27
ENDBRANCH   5  26
BRANCH   4  52
ATOM     52  O   UNL     1     115.938 116.421 139.485  1.00  0.00    -0.384 OA
ATOM     53  H   UNL     1     115.678 116.007 138.614  1.00  0.00     0.211 HD
ENDBRANCH   4  52
TORSDOF 16
ENDMDL
MODEL 4
REMARK VINA RESULT:    -7.631      2.475      3.959
REMARK INTER + INTRA:         -15.492
REMARK INTER:                 -13.281
REMARK INTRA:                  -2.211
REMARK UNBOUND:                -2.954
REMARK SMILES C[C@@H]1O[C@H](OC[C@H]2O[C@@H](Oc3c(-c4ccc(O)c(O)c4)oc4cc(O)cc(O)c4c3=O)[C@H](O)[C@H](O)[C@@H]2O)[C@H](O)[C@@H](O)[C@@H]1O
REMARK SMILES IDX 7 1 36 2 34 3 32 4 9 5 8 6 6 7 5 8 4 9 1 10 2 11 42 12 3 13
REMARK SMILES IDX 40 14 38 15 43 16 41 18 39 20 37 22 35 24 10 26 11 27 12 28
REMARK SMILES IDX 30 29 21 30 29 31 31 32 22 33 27 34 23 35 26 36 24 37 13 38
REMARK SMILES IDX 20 39 14 40 18 41 15 42 16 43 19 44 17 46 28 48 25 50 33 52
REMARK H PARENT 43 17 41 19 39 21 37 23 35 25 19 45 17 47 28 49 25 51 33 53
REMARK Flexibility Score: inf
ROOT
ATOM      1  C   UNL     1     115.393 118.673 137.961  1.00  0.00     0.180 C 
ATOM      2  C   UNL     1     115.632 118.070 139.365  1.00  0.00     0.177 C 
ATOM      3  C   UNL     1     116.933 118.670 139.964  1.00  0.00     0.180 C 
ATOM      4  C   UNL     1     117.163 120.134 139.483  1.00  0.00     0.214 C 
ATOM      5  C   UNL     1     115.792 120.769 139.122  1.00  0.00     0.339 C 
ATOM      6  O   UNL     1     115.082 120.089 138.079  1.00  0.00    -0.332 OA
ENDROOT
BRANCH   1   7
ATOM      7  C   UNL     1     114.282 117.978 137.104  1.00  0.00     0.198 C 
BRANCH   7   8
ATOM      8  O   UNL     1     114.562 116.596 136.897  1.00  0.00    -0.347 OA
BRANCH   8   9
ATOM      9  C   UNL     1     115.626 116.147 136.035  1.00  0.00     0.281 C 
ATOM     10  C   UNL     1     119.104 115.502 136.881  1.00  0.00     0.041 C 
ATOM     11  C   UNL     1     117.963 116.106 136.058  1.00  0.00     0.150 C 
ATOM     12  C   UNL     1     117.900 115.635 134.571  1.00  0.00     0.174 C 
ATOM     13  O   UNL     1     116.780 115.867 136.789  1.00  0.00    -0.344 OA
ATOM     14  C   UNL     1     116.759 114.646 134.264  1.00  0.00     0.179 C 
ATOM     15  C   UNL     1     115.418 115.010 134.985  1.00  0.00     0.202 C 
BRANCH  12  16
ATOM     16  O   UNL     1     119.126 115.084 134.145  1.00  0.00    -0.388 OA
ATOM     17  H   UNL     1     119.183 115.237 133.176  1.00  0.00     0.211 HD
ENDBRANCH  12  16
BRANCH  14  18
ATOM     18  O   UNL     1     116.527 114.627 132.875  1.00  0.00    -0.387 OA
ATOM     19  H   UNL     1     116.880 113.792 132.508  1.00  0.00     0.211 HD
ENDBRANCH  14  18
BRANCH  15  20
ATOM     20  O   UNL     1     114.927 113.827 135.522  1.00  0.00    -0.385 OA
ATOM     21  H   UNL     1     115.489 113.090 135.173  1.00  0.00     0.211 HD
ENDBRANCH  15  20
ENDBRANCH   8   9
ENDBRANCH   7   8
ENDBRANCH   1   7
BRANCH   2  22
ATOM     22  O   UNL     1     115.764 116.674 139.360  1.00  0.00    -0.387 OA
ATOM     23  H   UNL     1     116.664 116.511 138.951  1.00  0.00     0.211 HD
ENDBRANCH   2  22
BRANCH   3  24
ATOM     24  O   UNL     1     118.043 117.893 139.613  1.00  0.00    -0.387 OA
ATOM     25  H   UNL     1     118.036 117.074 140.182  1.00  0.00     0.211 HD
ENDBRANCH   3  24
BRANCH   5  26
ATOM     26  O   UNL     1     115.001 120.815 140.331  1.00  0.00    -0.454 OA
BRANCH  26  27
ATOM     27  C   UNL     1     114.761 122.000 141.039  1.00  0.00     0.214 A 
ATOM     28  C   UNL     1     113.671 122.828 140.691  1.00  0.00     0.180 A 
ATOM     29  C   UNL     1     115.538 122.347 142.144  1.00  0.00     0.239 A 
ATOM     30  O   UNL     1     113.557 124.036 141.229  1.00  0.00    -0.452 OA
ATOM     31  C   UNL     1     115.319 123.594 142.770  1.00  0.00     0.111 A 
ATOM     32  O   UNL     1     116.401 121.531 142.564  1.00  0.00    -0.285 OA
ATOM     33  C   UNL     1     114.351 124.462 142.204  1.00  0.00     0.146 A 
ATOM     34  C   UNL     1     115.963 123.989 143.973  1.00  0.00     0.134 A 
ATOM     35  C   UNL     1     114.190 125.753 142.702  1.00  0.00     0.094 A 
ATOM     36  C   UNL     1     115.761 125.294 144.465  1.00  0.00     0.093 A 
ATOM     37  C   UNL     1     114.916 126.183 143.800  1.00  0.00     0.123 A 
BRANCH  28  38
ATOM     38  C   UNL     1     112.519 122.288 139.958  1.00  0.00     0.025 A 
ATOM     39  C   UNL     1     112.491 122.302 138.565  1.00  0.00     0.062 A 
ATOM     40  C   UNL     1     111.327 122.036 140.666  1.00  0.00     0.016 A 
ATOM     41  C   UNL     1     111.275 122.148 137.878  1.00  0.00     0.158 A 
ATOM     42  C   UNL     1     110.115 121.913 139.991  1.00  0.00     0.051 A 
ATOM     43  C   UNL     1     110.093 121.966 138.587  1.00  0.00     0.157 A 
BRANCH  41  44
ATOM     44  O   UNL     1     111.266 122.232 136.490  1.00  0.00    -0.504 OA
ATOM     45  H   UNL     1     110.453 122.003 135.937  1.00  0.00     0.293 HD
ENDBRANCH  41  44
BRANCH  43  46
ATOM     46  O   UNL     1     108.875 121.813 137.917  1.00  0.00    -0.504 OA
ATOM     47  H   UNL     1     108.015 121.700 138.453  1.00  0.00     0.293 HD
ENDBRANCH  43  46
ENDBRANCH  28  38
BRANCH  34  48
ATOM     48  O   UNL     1     116.780 123.105 144.673  1.00  0.00    -0.507 OA
ATOM     49  H   UNL     1     116.818 123.063 145.679  1.00  0.00     0.293 HD
ENDBRANCH  34  48
BRANCH  37  50
ATOM     50  O   UNL     1     114.860 127.529 144.181  1.00  0.00    -0.508 OA
ATOM     51  H   UNL     1     114.377 127.806 145.034  1.00  0.00     0.293 HD
ENDBRANCH  37  50
ENDBRANCH  26  27
ENDBRANCH   5  26
BRANCH   4  52
ATOM     52  O   UNL     1     117.950 120.145 138.311  1.00  0.00    -0.384 OA
ATOM     53  H   UNL     1     117.334 120.059 137.529  1.00  0.00     0.211 HD
ENDBRANCH   4  52
TORSDOF 16
ENDMDL
MODEL 5
REMARK VINA RESULT:    -7.585      2.341      9.383
REMARK INTER + INTRA:         -15.417
REMARK INTER:                 -13.678
REMARK INTRA:                  -1.739
REMARK UNBOUND:                -2.954
REMARK SMILES C[C@@H]1O[C@H](OC[C@H]2O[C@@H](Oc3c(-c4ccc(O)c(O)c4)oc4cc(O)cc(O)c4c3=O)[C@H](O)[C@H](O)[C@@H]2O)[C@H](O)[C@@H](O)[C@@H]1O
REMARK SMILES IDX 7 1 36 2 34 3 32 4 9 5 8 6 6 7 5 8 4 9 1 10 2 11 42 12 3 13
REMARK SMILES IDX 40 14 38 15 43 16 41 18 39 20 37 22 35 24 10 26 11 27 12 28
REMARK SMILES IDX 30 29 21 30 29 31 31 32 22 33 27 34 23 35 26 36 24 37 13 38
REMARK SMILES IDX 20 39 14 40 18 41 15 42 16 43 19 44 17 46 28 48 25 50 33 52
REMARK H PARENT 43 17 41 19 39 21 37 23 35 25 19 45 17 47 28 49 25 51 33 53
REMARK Flexibility Score: inf
ROOT
ATOM      1  C   UNL     1     115.351 119.548 139.077  1.00  0.00     0.180 C 
ATOM      2  C   UNL     1     116.767 119.631 138.461  1.00  0.00     0.177 C 
ATOM      3  C   UNL     1     117.446 118.238 138.550  1.00  0.00     0.180 C 
ATOM      4  C   UNL     1     116.403 117.085 138.436  1.00  0.00     0.214 C 
ATOM      5  C   UNL     1     115.168 117.595 137.643  1.00  0.00     0.339 C 
ATOM      6  O   UNL     1     114.500 118.712 138.245  1.00  0.00    -0.332 OA
ENDROOT
BRANCH   1   7
ATOM      7  C   UNL     1     114.635 120.919 139.321  1.00  0.00     0.198 C 
BRANCH   7   8
ATOM      8  O   UNL     1     115.533 121.901 139.829  1.00  0.00    -0.347 OA
BRANCH   8   9
ATOM      9  C   UNL     1     115.463 122.379 141.187  1.00  0.00     0.281 C 
ATOM     10  C   UNL     1     112.512 123.195 143.150  1.00  0.00     0.041 C 
ATOM     11  C   UNL     1     113.902 123.447 142.561  1.00  0.00     0.150 C 
ATOM     12  C   UNL     1     115.046 123.612 143.612  1.00  0.00     0.174 C 
ATOM     13  O   UNL     1     114.127 122.417 141.623  1.00  0.00    -0.344 OA
ATOM     14  C   UNL     1     115.997 122.405 143.714  1.00  0.00     0.179 C 
ATOM     15  C   UNL     1     116.352 121.781 142.322  1.00  0.00     0.202 C 
BRANCH  12  16
ATOM     16  O   UNL     1     114.538 123.920 144.891  1.00  0.00    -0.388 OA
ATOM     17  H   UNL     1     113.615 124.232 144.761  1.00  0.00     0.211 HD
ENDBRANCH  12  16
BRANCH  14  18
ATOM     18  O   UNL     1     117.192 122.811 144.338  1.00  0.00    -0.387 OA
ATOM     19  H   UNL     1     117.729 122.018 144.535  1.00  0.00     0.211 HD
ENDBRANCH  14  18
BRANCH  15  20
ATOM     20  O   UNL     1     116.234 120.405 142.467  1.00  0.00    -0.385 OA
ATOM     21  H   UNL     1     115.308 120.219 142.768  1.00  0.00     0.211 HD
ENDBRANCH  15  20
ENDBRANCH   8   9
ENDBRANCH   7   8
ENDBRANCH   1   7
BRANCH   2  22
ATOM     22  O   UNL     1     117.602 120.558 139.102  1.00  0.00    -0.387 OA
ATOM     23  H   UNL     1     117.043 121.385 139.178  1.00  0.00     0.211 HD
ENDBRANCH   2  22
BRANCH   3  24
ATOM     24  O   UNL     1     118.146 118.104 139.753  1.00  0.00    -0.387 OA
ATOM     25  H   UNL     1     117.666 118.636 140.448  1.00  0.00     0.211 HD
ENDBRANCH   3  24
BRANCH   5  26
ATOM     26  O   UNL     1     115.614 117.927 136.309  1.00  0.00    -0.454 OA
BRANCH  26  27
ATOM     27  C   UNL     1     116.166 116.982 135.434  1.00  0.00     0.214 A 
ATOM     28  C   UNL     1     115.394 115.885 134.993  1.00  0.00     0.180 A 
ATOM     29  C   UNL     1     117.453 117.143 134.920  1.00  0.00     0.239 A 
ATOM     30  O   UNL     1     115.970 114.894 134.325  1.00  0.00    -0.452 OA
ATOM     31  C   UNL     1     118.001 116.120 134.116  1.00  0.00     0.111 A 
ATOM     32  O   UNL     1     118.082 118.204 135.174  1.00  0.00    -0.285 OA
ATOM     33  C   UNL     1     117.232 114.947 133.916  1.00  0.00     0.146 A 
ATOM     34  C   UNL     1     119.246 116.239 133.441  1.00  0.00     0.134 A 
ATOM     35  C   UNL     1     117.778 113.856 133.242  1.00  0.00     0.094 A 
ATOM     36  C   UNL     1     119.761 115.126 132.747  1.00  0.00     0.093 A 
ATOM     37  C   UNL     1     119.048 113.927 132.694  1.00  0.00     0.123 A 
BRANCH  28  38
ATOM     38  C   UNL     1     113.927 115.938 135.019  1.00  0.00     0.025 A 
ATOM     39  C   UNL     1     113.195 115.024 135.774  1.00  0.00     0.062 A 
ATOM     40  C   UNL     1     113.263 116.716 134.050  1.00  0.00     0.016 A 
ATOM     41  C   UNL     1     111.828 114.824 135.516  1.00  0.00     0.158 A 
ATOM     42  C   UNL     1     111.915 116.499 133.770  1.00  0.00     0.051 A 
ATOM     43  C   UNL     1     111.195 115.548 134.512  1.00  0.00     0.157 A 
BRANCH  41  44
ATOM     44  O   UNL     1     111.137 113.858 136.240  1.00  0.00    -0.504 OA
ATOM     45  H   UNL     1     111.316 113.679 137.217  1.00  0.00     0.293 HD
ENDBRANCH  41  44
BRANCH  43  46
ATOM     46  O   UNL     1     109.836 115.358 134.243  1.00  0.00    -0.504 OA
ATOM     47  H   UNL     1     109.438 115.721 133.377  1.00  0.00     0.293 HD
ENDBRANCH  43  46
ENDBRANCH  28  38
BRANCH  34  48
ATOM     48  O   UNL     1     119.955 117.438 133.449  1.00  0.00    -0.507 OA
ATOM     49  H   UNL     1     120.934 117.501 133.680  1.00  0.00     0.293 HD
ENDBRANCH  34  48
BRANCH  37  50
ATOM     50  O   UNL     1     119.639 112.773 132.167  1.00  0.00    -0.508 OA
ATOM     51  H   UNL     1     120.459 112.363 132.610  1.00  0.00     0.293 HD
ENDBRANCH  37  50
ENDBRANCH  26  27
ENDBRANCH   5  26
BRANCH   4  52
ATOM     52  O   UNL     1     115.949 116.710 139.719  1.00  0.00    -0.384 OA
ATOM     53  H   UNL     1     115.006 117.027 139.815  1.00  0.00     0.211 HD
ENDBRANCH   4  52
TORSDOF 16
ENDMDL
MODEL 6
REMARK VINA RESULT:    -7.450      2.436      9.751
REMARK INTER + INTRA:         -15.194
REMARK INTER:                 -12.697
REMARK INTRA:                  -2.497
REMARK UNBOUND:                -2.954
REMARK SMILES C[C@@H]1O[C@H](OC[C@H]2O[C@@H](Oc3c(-c4ccc(O)c(O)c4)oc4cc(O)cc(O)c4c3=O)[C@H](O)[C@H](O)[C@@H]2O)[C@H](O)[C@@H](O)[C@@H]1O
REMARK SMILES IDX 7 1 36 2 34 3 32 4 9 5 8 6 6 7 5 8 4 9 1 10 2 11 42 12 3 13
REMARK SMILES IDX 40 14 38 15 43 16 41 18 39 20 37 22 35 24 10 26 11 27 12 28
REMARK SMILES IDX 30 29 21 30 29 31 31 32 22 33 27 34 23 35 26 36 24 37 13 38
REMARK SMILES IDX 20 39 14 40 18 41 15 42 16 43 19 44 17 46 28 48 25 50 33 52
REMARK H PARENT 43 17 41 19 39 21 37 23 35 25 19 45 17 47 28 49 25 51 33 53
REMARK Flexibility Score: inf
ROOT
ATOM      1  C   UNL     1     112.834 123.128 138.515  1.00  0.00     0.180 C 
ATOM      2  C   UNL     1     111.784 122.043 138.851  1.00  0.00     0.177 C 
ATOM      3  C   UNL     1     111.317 121.359 137.538  1.00  0.00     0.180 C 
ATOM      4  C   UNL     1     112.461 121.309 136.481  1.00  0.00     0.214 C 
ATOM      5  C   UNL     1     113.830 121.334 137.215  1.00  0.00     0.339 C 
ATOM      6  O   UNL     1     114.049 122.500 138.019  1.00  0.00    -0.332 OA
ENDROOT
BRANCH   1   7
ATOM      7  C   UNL     1     113.205 124.099 139.686  1.00  0.00     0.198 C 
BRANCH   7   8
ATOM      8  O   UNL     1     113.261 123.421 140.938  1.00  0.00    -0.347 OA
BRANCH   8   9
ATOM      9  C   UNL     1     114.152 123.829 141.994  1.00  0.00     0.281 C 
ATOM     10  C   UNL     1     115.101 127.199 142.981  1.00  0.00     0.041 C 
ATOM     11  C   UNL     1     115.357 125.741 142.593  1.00  0.00     0.150 C 
ATOM     12  C   UNL     1     116.049 124.875 143.693  1.00  0.00     0.174 C 
ATOM     13  O   UNL     1     114.121 125.226 142.148  1.00  0.00    -0.344 OA
ATOM     14  C   UNL     1     115.115 123.867 144.391  1.00  0.00     0.179 C 
ATOM     15  C   UNL     1     114.124 123.162 143.406  1.00  0.00     0.202 C 
BRANCH  12  16
ATOM     16  O   UNL     1     116.685 125.675 144.663  1.00  0.00    -0.388 OA
ATOM     17  H   UNL     1     116.962 125.074 145.390  1.00  0.00     0.211 HD
ENDBRANCH  12  16
BRANCH  14  18
ATOM     18  O   UNL     1     115.894 122.878 145.023  1.00  0.00    -0.387 OA
ATOM     19  H   UNL     1     115.758 122.941 145.989  1.00  0.00     0.211 HD
ENDBRANCH  14  18
BRANCH  15  20
ATOM     20  O   UNL     1     112.877 123.188 144.018  1.00  0.00    -0.385 OA
ATOM     21  H   UNL     1     112.878 122.486 144.718  1.00  0.00     0.211 HD
ENDBRANCH  15  20
ENDBRANCH   8   9
ENDBRANCH   7   8
ENDBRANCH   1   7
BRANCH   2  22
ATOM     22  O   UNL     1     110.648 122.546 139.501  1.00  0.00    -0.387 OA
ATOM     23  H   UNL     1     110.821 122.375 140.473  1.00  0.00     0.211 HD
ENDBRANCH   2  22
BRANCH   3  24
ATOM     24  O   UNL     1     110.219 122.032 136.993  1.00  0.00    -0.387 OA
ATOM     25  H   UNL     1     110.222 121.876 136.008  1.00  0.00     0.211 HD
ENDBRANCH   3  24
BRANCH   5  26
ATOM     26  O   UNL     1     113.914 120.136 138.020  1.00  0.00    -0.454 OA
BRANCH  26  27
ATOM     27  C   UNL     1     114.890 119.151 137.819  1.00  0.00     0.214 A 
ATOM     28  C   UNL     1     116.207 119.348 138.289  1.00  0.00     0.180 A 
ATOM     29  C   UNL     1     114.568 117.930 137.225  1.00  0.00     0.239 A 
ATOM     30  O   UNL     1     117.171 118.509 137.933  1.00  0.00    -0.452 OA
ATOM     31  C   UNL     1     115.601 117.005 136.960  1.00  0.00     0.111 A 
ATOM     32  O   UNL     1     113.363 117.681 136.960  1.00  0.00    -0.285 OA
ATOM     33  C   UNL     1     116.932 117.389 137.261  1.00  0.00     0.146 A 
ATOM     34  C   UNL     1     115.367 115.689 136.478  1.00  0.00     0.134 A 
ATOM     35  C   UNL     1     117.998 116.569 136.897  1.00  0.00     0.094 A 
ATOM     36  C   UNL     1     116.466 114.874 136.143  1.00  0.00     0.093 A 
ATOM     37  C   UNL     1     117.772 115.337 136.307  1.00  0.00     0.123 A 
BRANCH  28  38
ATOM     38  C   UNL     1     116.485 120.298 139.373  1.00  0.00     0.025 A 
ATOM     39  C   UNL     1     117.636 121.083 139.354  1.00  0.00     0.062 A 
ATOM     40  C   UNL     1     115.746 120.193 140.568  1.00  0.00     0.016 A 
ATOM     41  C   UNL     1     118.097 121.697 140.531  1.00  0.00     0.158 A 
ATOM     42  C   UNL     1     116.215 120.775 141.744  1.00  0.00     0.051 A 
ATOM     43  C   UNL     1     117.397 121.534 141.722  1.00  0.00     0.157 A 
BRANCH  41  44
ATOM     44  O   UNL     1     119.284 122.420 140.498  1.00  0.00    -0.504 OA
ATOM     45  H   UNL     1     120.109 122.090 140.019  1.00  0.00     0.293 HD
ENDBRANCH  41  44
BRANCH  43  46
ATOM     46  O   UNL     1     117.844 122.137 142.901  1.00  0.00    -0.504 OA
ATOM     47  H   UNL     1     118.719 122.660 142.900  1.00  0.00     0.293 HD
ENDBRANCH  43  46
ENDBRANCH  28  38
BRANCH  34  48
ATOM     48  O   UNL     1     114.072 115.194 136.344  1.00  0.00    -0.507 OA
ATOM     49  H   UNL     1     113.285 115.549 136.863  1.00  0.00     0.293 HD
ENDBRANCH  34  48
BRANCH  37  50
ATOM     50  O   UNL     1     118.854 114.604 135.803  1.00  0.00    -0.508 OA
ATOM     51  H   UNL     1     118.788 113.593 135.694  1.00  0.00     0.293 HD
ENDBRANCH  37  50
ENDBRANCH  26  27
ENDBRANCH   5  26
BRANCH   4  52
ATOM     52  O   UNL     1     112.411 122.452 135.654  1.00  0.00    -0.384 OA
ATOM     53  H   UNL     1     111.803 123.116 136.086  1.00  0.00     0.211 HD
ENDBRANCH   4  52
TORSDOF 16
ENDMDL
MODEL 7
REMARK VINA RESULT:    -7.436      2.349      9.686
REMARK INTER + INTRA:         -15.171
REMARK INTER:                 -11.891
REMARK INTRA:                  -3.280
REMARK UNBOUND:                -2.954
REMARK SMILES C[C@@H]1O[C@H](OC[C@H]2O[C@@H](Oc3c(-c4ccc(O)c(O)c4)oc4cc(O)cc(O)c4c3=O)[C@H](O)[C@H](O)[C@@H]2O)[C@H](O)[C@@H](O)[C@@H]1O
REMARK SMILES IDX 7 1 36 2 34 3 32 4 9 5 8 6 6 7 5 8 4 9 1 10 2 11 42 12 3 13
REMARK SMILES IDX 40 14 38 15 43 16 41 18 39 20 37 22 35 24 10 26 11 27 12 28
REMARK SMILES IDX 30 29 21 30 29 31 31 32 22 33 27 34 23 35 26 36 24 37 13 38
REMARK SMILES IDX 20 39 14 40 18 41 15 42 16 43 19 44 17 46 28 48 25 50 33 52
REMARK H PARENT 43 17 41 19 39 21 37 23 35 25 19 45 17 47 28 49 25 51 33 53
REMARK Flexibility Score: inf
ROOT
ATOM      1  C   UNL     1     114.691 123.155 138.270  1.00  0.00     0.180 C 
ATOM      2  C   UNL     1     113.330 122.578 138.727  1.00  0.00     0.177 C 
ATOM      3  C   UNL     1     112.474 122.236 137.479  1.00  0.00     0.180 C 
ATOM      4  C   UNL     1     113.362 121.792 136.279  1.00  0.00     0.214 C 
ATOM      5  C   UNL     1     114.692 121.202 136.824  1.00  0.00     0.339 C 
ATOM      6  O   UNL     1     115.467 122.118 137.608  1.00  0.00    -0.332 OA
ENDROOT
BRANCH   1   7
ATOM      7  C   UNL     1     115.565 123.807 139.393  1.00  0.00     0.198 C 
BRANCH   7   8
ATOM      8  O   UNL     1     115.388 123.152 140.646  1.00  0.00    -0.347 OA
BRANCH   8   9
ATOM      9  C   UNL     1     115.008 123.864 141.840  1.00  0.00     0.281 C 
ATOM     10  C   UNL     1     111.860 123.715 143.657  1.00  0.00     0.041 C 
ATOM     11  C   UNL     1     113.033 124.414 142.964  1.00  0.00     0.150 C 
ATOM     12  C   UNL     1     113.897 125.329 143.888  1.00  0.00     0.174 C 
ATOM     13  O   UNL     1     113.766 123.401 142.310  1.00  0.00    -0.344 OA
ATOM     14  C   UNL     1     115.276 124.747 144.252  1.00  0.00     0.179 C 
ATOM     15  C   UNL     1     115.979 124.031 143.051  1.00  0.00     0.202 C 
BRANCH  12  16
ATOM     16  O   UNL     1     113.208 125.679 145.068  1.00  0.00    -0.388 OA
ATOM     17  H   UNL     1     112.714 124.879 145.354  1.00  0.00     0.211 HD
ENDBRANCH  12  16
BRANCH  14  18
ATOM     18  O   UNL     1     116.112 125.788 144.701  1.00  0.00    -0.387 OA
ATOM     19  H   UNL     1     116.776 125.979 144.009  1.00  0.00     0.211 HD
ENDBRANCH  14  18
BRANCH  15  20
ATOM     20  O   UNL     1     116.477 122.832 143.545  1.00  0.00    -0.385 OA
ATOM     21  H   UNL     1     116.560 122.209 142.779  1.00  0.00     0.211 HD
ENDBRANCH  15  20
ENDBRANCH   8   9
ENDBRANCH   7   8
ENDBRANCH   1   7
BRANCH   2  22
ATOM     22  O   UNL     1     112.591 123.458 139.530  1.00  0.00    -0.387 OA
ATOM     23  H   UNL     1     112.594 123.032 140.436  1.00  0.00     0.211 HD
ENDBRANCH   2  22
BRANCH   3  24
ATOM     24  O   UNL     1     111.700 123.337 137.094  1.00  0.00    -0.387 OA
ATOM     25  H   UNL     1     112.034 123.651 136.208  1.00  0.00     0.211 HD
ENDBRANCH   3  24
BRANCH   5  26
ATOM     26  O   UNL     1     114.362 120.025 137.595  1.00  0.00    -0.454 OA
BRANCH  26  27
ATOM     27  C   UNL     1     114.846 118.748 137.280  1.00  0.00     0.214 A 
ATOM     28  C   UNL     1     116.139 118.357 137.692  1.00  0.00     0.180 A 
ATOM     29  C   UNL     1     114.042 117.816 136.624  1.00  0.00     0.239 A 
ATOM     30  O   UNL     1     116.670 117.230 137.232  1.00  0.00    -0.452 OA
ATOM     31  C   UNL     1     114.602 116.576 136.246  1.00  0.00     0.111 A 
ATOM     32  O   UNL     1     112.835 118.098 136.406  1.00  0.00    -0.285 OA
ATOM     33  C   UNL     1     115.980 116.362 136.502  1.00  0.00     0.146 A 
ATOM     34  C   UNL     1     113.842 115.511 135.692  1.00  0.00     0.134 A 
ATOM     35  C   UNL     1     116.611 115.212 136.030  1.00  0.00     0.094 A 
ATOM     36  C   UNL     1     114.506 114.351 135.247  1.00  0.00     0.093 A 
ATOM     37  C   UNL     1     115.890 114.229 135.374  1.00  0.00     0.123 A 
BRANCH  28  38
ATOM     38  C   UNL     1     116.803 119.020 138.821  1.00  0.00     0.025 A 
ATOM     39  C   UNL     1     116.120 119.253 140.013  1.00  0.00     0.062 A 
ATOM     40  C   UNL     1     118.024 119.683 138.589  1.00  0.00     0.016 A 
ATOM     41  C   UNL     1     116.601 120.198 140.934  1.00  0.00     0.158 A 
ATOM     42  C   UNL     1     118.491 120.642 139.486  1.00  0.00     0.051 A 
ATOM     43  C   UNL     1     117.774 120.897 140.667  1.00  0.00     0.157 A 
BRANCH  41  44
ATOM     44  O   UNL     1     115.865 120.459 142.084  1.00  0.00    -0.504 OA
ATOM     45  H   UNL     1     115.444 119.727 142.639  1.00  0.00     0.293 HD
ENDBRANCH  41  44
BRANCH  43  46
ATOM     46  O   UNL     1     118.265 121.841 141.574  1.00  0.00    -0.504 OA
ATOM     47  H   UNL     1     119.114 122.359 141.352  1.00  0.00     0.293 HD
ENDBRANCH  43  46
ENDBRANCH  28  38
BRANCH  34  48
ATOM     48  O   UNL     1     112.455 115.596 135.592  1.00  0.00    -0.507 OA
ATOM     49  H   UNL     1     111.930 115.206 134.826  1.00  0.00     0.293 HD
ENDBRANCH  34  48
BRANCH  37  50
ATOM     50  O   UNL     1     116.568 113.165 134.767  1.00  0.00    -0.508 OA
ATOM     51  H   UNL     1     116.757 112.309 135.286  1.00  0.00     0.293 HD
ENDBRANCH  37  50
ENDBRANCH  26  27
ENDBRANCH   5  26
BRANCH   4  52
ATOM     52  O   UNL     1     113.697 122.908 135.481  1.00  0.00    -0.384 OA
ATOM     53  H   UNL     1     112.858 123.244 135.057  1.00  0.00     0.211 HD
ENDBRANCH   4  52
TORSDOF 16
ENDMDL
MODEL 8
REMARK VINA RESULT:    -7.371      1.603      4.567
REMARK INTER + INTRA:         -15.064
REMARK INTER:                 -12.836
REMARK INTRA:                  -2.228
REMARK UNBOUND:                -2.954
REMARK SMILES C[C@@H]1O[C@H](OC[C@H]2O[C@@H](Oc3c(-c4ccc(O)c(O)c4)oc4cc(O)cc(O)c4c3=O)[C@H](O)[C@H](O)[C@@H]2O)[C@H](O)[C@@H](O)[C@@H]1O
REMARK SMILES IDX 7 1 36 2 34 3 32 4 9 5 8 6 6 7 5 8 4 9 1 10 2 11 42 12 3 13
REMARK SMILES IDX 40 14 38 15 43 16 41 18 39 20 37 22 35 24 10 26 11 27 12 28
REMARK SMILES IDX 30 29 21 30 29 31 31 32 22 33 27 34 23 35 26 36 24 37 13 38
REMARK SMILES IDX 20 39 14 40 18 41 15 42 16 43 19 44 17 46 28 48 25 50 33 52
REMARK H PARENT 43 17 41 19 39 21 37 23 35 25 19 45 17 47 28 49 25 51 33 53
REMARK Flexibility Score: inf
ROOT
ATOM      1  C   UNL     1     117.166 117.118 137.574  1.00  0.00     0.180 C 
ATOM      2  C   UNL     1     116.684 118.130 136.508  1.00  0.00     0.177 C 
ATOM      3  C   UNL     1     115.133 118.119 136.457  1.00  0.00     0.180 C 
ATOM      4  C   UNL     1     114.516 117.812 137.854  1.00  0.00     0.214 C 
ATOM      5  C   UNL     1     115.519 118.248 138.957  1.00  0.00     0.339 C 
ATOM      6  O   UNL     1     116.787 117.582 138.900  1.00  0.00    -0.332 OA
ENDROOT
BRANCH   1   7
ATOM      7  C   UNL     1     118.699 116.801 137.565  1.00  0.00     0.198 C 
BRANCH   7   8
ATOM      8  O   UNL     1     118.961 115.474 137.119  1.00  0.00    -0.347 OA
BRANCH   8   9
ATOM      9  C   UNL     1     119.089 115.143 135.722  1.00  0.00     0.281 C 
ATOM     10  C   UNL     1     116.454 114.444 133.314  1.00  0.00     0.041 C 
ATOM     11  C   UNL     1     117.768 114.177 134.052  1.00  0.00     0.150 C 
ATOM     12  C   UNL     1     119.043 114.164 133.150  1.00  0.00     0.174 C 
ATOM     13  O   UNL     1     117.823 115.107 135.112  1.00  0.00    -0.344 OA
ATOM     14  C   UNL     1     119.941 115.407 133.298  1.00  0.00     0.179 C 
ATOM     15  C   UNL     1     120.086 115.889 134.781  1.00  0.00     0.202 C 
BRANCH  12  16
ATOM     16  O   UNL     1     118.718 113.979 131.791  1.00  0.00    -0.388 OA
ATOM     17  H   UNL     1     118.456 114.859 131.440  1.00  0.00     0.211 HD
ENDBRANCH  12  16
BRANCH  14  18
ATOM     18  O   UNL     1     121.224 115.111 132.799  1.00  0.00    -0.387 OA
ATOM     19  H   UNL     1     121.141 114.827 131.867  1.00  0.00     0.211 HD
ENDBRANCH  14  18
BRANCH  15  20
ATOM     20  O   UNL     1     119.922 117.268 134.763  1.00  0.00    -0.385 OA
ATOM     21  H   UNL     1     120.805 117.667 134.552  1.00  0.00     0.211 HD
ENDBRANCH  15  20
ENDBRANCH   8   9
ENDBRANCH   7   8
ENDBRANCH   1   7
BRANCH   2  22
ATOM     22  O   UNL     1     117.160 117.853 135.219  1.00  0.00    -0.387 OA
ATOM     23  H   UNL     1     117.911 117.208 135.364  1.00  0.00     0.211 HD
ENDBRANCH   2  22
BRANCH   3  24
ATOM     24  O   UNL     1     114.675 117.169 135.536  1.00  0.00    -0.387 OA
ATOM     25  H   UNL     1     114.390 116.361 136.047  1.00  0.00     0.211 HD
ENDBRANCH   3  24
BRANCH   5  26
ATOM     26  O   UNL     1     115.691 119.680 138.849  1.00  0.00    -0.454 OA
BRANCH  26  27
ATOM     27  C   UNL     1     115.859 120.513 139.963  1.00  0.00     0.214 A 
ATOM     28  C   UNL     1     117.145 120.719 140.508  1.00  0.00     0.180 A 
ATOM     29  C   UNL     1     114.782 121.212 140.507  1.00  0.00     0.239 A 
ATOM     30  O   UNL     1     117.281 121.347 141.670  1.00  0.00    -0.452 OA
ATOM     31  C   UNL     1     114.981 121.967 141.684  1.00  0.00     0.111 A 
ATOM     32  O   UNL     1     113.667 121.166 139.923  1.00  0.00    -0.285 OA
ATOM     33  C   UNL     1     116.261 121.929 142.290  1.00  0.00     0.146 A 
ATOM     34  C   UNL     1     113.989 122.814 142.246  1.00  0.00     0.134 A 
ATOM     35  C   UNL     1     116.473 122.547 143.521  1.00  0.00     0.094 A 
ATOM     36  C   UNL     1     114.242 123.446 143.480  1.00  0.00     0.093 A 
ATOM     37  C   UNL     1     115.463 123.268 144.133  1.00  0.00     0.123 A 
BRANCH  28  38
ATOM     38  C   UNL     1     118.350 120.499 139.699  1.00  0.00     0.025 A 
ATOM     39  C   UNL     1     119.429 119.779 140.210  1.00  0.00     0.062 A 
ATOM     40  C   UNL     1     118.529 121.267 138.532  1.00  0.00     0.016 A 
ATOM     41  C   UNL     1     120.697 119.882 139.615  1.00  0.00     0.158 A 
ATOM     42  C   UNL     1     119.791 121.396 137.956  1.00  0.00     0.051 A 
ATOM     43  C   UNL     1     120.880 120.695 138.501  1.00  0.00     0.157 A 
BRANCH  41  44
ATOM     44  O   UNL     1     121.770 119.206 140.185  1.00  0.00    -0.504 OA
ATOM     45  H   UNL     1     122.704 119.588 140.207  1.00  0.00     0.293 HD
ENDBRANCH  41  44
BRANCH  43  46
ATOM     46  O   UNL     1     122.136 120.810 137.899  1.00  0.00    -0.504 OA
ATOM     47  H   UNL     1     122.271 120.477 136.945  1.00  0.00     0.293 HD
ENDBRANCH  43  46
ENDBRANCH  28  38
BRANCH  34  48
ATOM     48  O   UNL     1     112.779 123.036 141.591  1.00  0.00    -0.507 OA
ATOM     49  H   UNL     1     112.454 122.473 140.822  1.00  0.00     0.293 HD
ENDBRANCH  34  48
BRANCH  37  50
ATOM     50  O   UNL     1     115.644 123.740 145.439  1.00  0.00    -0.508 OA
ATOM     51  H   UNL     1     114.892 123.675 146.122  1.00  0.00     0.293 HD
ENDBRANCH  37  50
ENDBRANCH  26  27
ENDBRANCH   5  26
BRANCH   4  52
ATOM     52  O   UNL     1     114.310 116.423 138.003  1.00  0.00    -0.384 OA
ATOM     53  H   UNL     1     114.263 116.225 138.981  1.00  0.00     0.211 HD
ENDBRANCH   4  52
TORSDOF 16
ENDMDL
MODEL 9
REMARK VINA RESULT:    -7.327      3.318      5.022
REMARK INTER + INTRA:         -14.993
REMARK INTER:                 -11.877
REMARK INTRA:                  -3.117
REMARK UNBOUND:                -2.954
REMARK SMILES C[C@@H]1O[C@H](OC[C@H]2O[C@@H](Oc3c(-c4ccc(O)c(O)c4)oc4cc(O)cc(O)c4c3=O)[C@H](O)[C@H](O)[C@@H]2O)[C@H](O)[C@@H](O)[C@@H]1O
REMARK SMILES IDX 7 1 36 2 34 3 32 4 9 5 8 6 6 7 5 8 4 9 1 10 2 11 42 12 3 13
REMARK SMILES IDX 40 14 38 15 43 16 41 18 39 20 37 22 35 24 10 26 11 27 12 28
REMARK SMILES IDX 30 29 21 30 29 31 31 32 22 33 27 34 23 35 26 36 24 37 13 38
REMARK SMILES IDX 20 39 14 40 18 41 15 42 16 43 19 44 17 46 28 48 25 50 33 52
REMARK H PARENT 43 17 41 19 39 21 37 23 35 25 19 45 17 47 28 49 25 51 33 53
REMARK Flexibility Score: inf
ROOT
ATOM      1  C   UNL     1     115.449 119.458 137.506  1.00  0.00     0.180 C 
ATOM      2  C   UNL     1     114.896 118.471 138.561  1.00  0.00     0.177 C 
ATOM      3  C   UNL     1     115.985 118.207 139.635  1.00  0.00     0.180 C 
ATOM      4  C   UNL     1     116.888 119.458 139.855  1.00  0.00     0.214 C 
ATOM      5  C   UNL     1     116.087 120.734 139.473  1.00  0.00     0.339 C 
ATOM      6  O   UNL     1     115.643 120.767 138.111  1.00  0.00    -0.332 OA
ENDROOT
BRANCH   1   7
ATOM      7  C   UNL     1     114.588 119.619 136.209  1.00  0.00     0.198 C 
BRANCH   7   8
ATOM      8  O   UNL     1     113.220 119.295 136.439  1.00  0.00    -0.347 OA
BRANCH   8   9
ATOM      9  C   UNL     1     112.463 118.467 135.535  1.00  0.00     0.281 C 
ATOM     10  C   UNL     1     112.051 114.853 135.582  1.00  0.00     0.041 C 
ATOM     11  C   UNL     1     112.360 116.208 134.941  1.00  0.00     0.150 C 
ATOM     12  C   UNL     1     111.397 116.628 133.786  1.00  0.00     0.174 C 
ATOM     13  O   UNL     1     112.431 117.140 135.998  1.00  0.00    -0.344 OA
ATOM     14  C   UNL     1     110.399 117.741 134.161  1.00  0.00     0.179 C 
ATOM     15  C   UNL     1     111.036 118.867 135.043  1.00  0.00     0.202 C 
BRANCH  12  16
ATOM     16  O   UNL     1     110.694 115.523 133.265  1.00  0.00    -0.388 OA
ATOM     17  H   UNL     1     111.261 114.733 133.408  1.00  0.00     0.211 HD
ENDBRANCH  12  16
BRANCH  14  18
ATOM     18  O   UNL     1     109.899 118.328 132.983  1.00  0.00    -0.387 OA
ATOM     19  H   UNL     1     109.662 119.258 133.171  1.00  0.00     0.211 HD
ENDBRANCH  14  18
BRANCH  15  20
ATOM     20  O   UNL     1     110.134 119.119 136.069  1.00  0.00    -0.385 OA
ATOM     21  H   UNL     1     109.422 119.701 135.700  1.00  0.00     0.211 HD
ENDBRANCH  15  20
ENDBRANCH   8   9
ENDBRANCH   7   8
ENDBRANCH   1   7
BRANCH   2  22
ATOM     22  O   UNL     1     114.513 117.234 138.023  1.00  0.00    -0.387 OA
ATOM     23  H   UNL     1     113.712 117.445 137.461  1.00  0.00     0.211 HD
ENDBRANCH   2  22
BRANCH   3  24
ATOM     24  O   UNL     1     116.788 117.122 139.269  1.00  0.00    -0.387 OA
ATOM     25  H   UNL     1     116.253 116.289 139.394  1.00  0.00     0.211 HD
ENDBRANCH   3  24
BRANCH   5  26
ATOM     26  O   UNL     1     114.963 120.829 140.378  1.00  0.00    -0.454 OA
BRANCH  26  27
ATOM     27  C   UNL     1     114.653 121.998 141.086  1.00  0.00     0.214 A 
ATOM     28  C   UNL     1     113.550 122.791 140.700  1.00  0.00     0.180 A 
ATOM     29  C   UNL     1     115.372 122.361 142.225  1.00  0.00     0.239 A 
ATOM     30  O   UNL     1     113.372 123.990 141.242  1.00  0.00    -0.452 OA
ATOM     31  C   UNL     1     115.084 123.593 142.851  1.00  0.00     0.111 A 
ATOM     32  O   UNL     1     116.245 121.571 142.672  1.00  0.00    -0.285 OA
ATOM     33  C   UNL     1     114.110 124.432 142.254  1.00  0.00     0.146 A 
ATOM     34  C   UNL     1     115.664 123.998 144.083  1.00  0.00     0.134 A 
ATOM     35  C   UNL     1     113.884 125.712 142.755  1.00  0.00     0.094 A 
ATOM     36  C   UNL     1     115.397 125.290 144.578  1.00  0.00     0.093 A 
ATOM     37  C   UNL     1     114.549 126.156 143.886  1.00  0.00     0.123 A 
BRANCH  28  38
ATOM     38  C   UNL     1     112.449 122.220 139.916  1.00  0.00     0.025 A 
ATOM     39  C   UNL     1     112.542 122.111 138.530  1.00  0.00     0.062 A 
ATOM     40  C   UNL     1     111.192 122.063 140.533  1.00  0.00     0.016 A 
ATOM     41  C   UNL     1     111.387 121.929 137.752  1.00  0.00     0.158 A 
ATOM     42  C   UNL     1     110.039 121.912 139.765  1.00  0.00     0.051 A 
ATOM     43  C   UNL     1     110.141 121.841 138.365  1.00  0.00     0.157 A 
BRANCH  41  44
ATOM     44  O   UNL     1     111.501 121.891 136.367  1.00  0.00    -0.504 OA
ATOM     45  H   UNL     1     111.701 122.712 135.815  1.00  0.00     0.293 HD
ENDBRANCH  41  44
BRANCH  43  46
ATOM     46  O   UNL     1     108.982 121.662 137.605  1.00  0.00    -0.504 OA
ATOM     47  H   UNL     1     108.078 121.597 138.071  1.00  0.00     0.293 HD
ENDBRANCH  43  46
ENDBRANCH  28  38
BRANCH  34  48
ATOM     48  O   UNL     1     116.483 123.136 144.809  1.00  0.00    -0.507 OA
ATOM     49  H   UNL     1     116.368 122.135 144.813  1.00  0.00     0.293 HD
ENDBRANCH  34  48
BRANCH  37  50
ATOM     50  O   UNL     1     114.430 127.496 144.276  1.00  0.00    -0.508 OA
ATOM     51  H   UNL     1     114.502 128.243 143.588  1.00  0.00     0.293 HD
ENDBRANCH  37  50
ENDBRANCH  26  27
ENDBRANCH   5  26
BRANCH   4  52
ATOM     52  O   UNL     1     118.014 119.403 139.005  1.00  0.00    -0.384 OA
ATOM     53  H   UNL     1     118.789 119.080 139.546  1.00  0.00     0.211 HD
ENDBRANCH   4  52
TORSDOF 16
ENDMDL
