MODEL 1
REMARK VINA RESULT:    -4.378      0.000      0.000
REMARK INTER + INTRA:          -4.506
REMARK INTER:                  -4.506
REMARK INTRA:                   0.000
REMARK UNBOUND:                 0.000
REMARK SMILES O=c1ccc2ccc(O)cc2o1
REMARK SMILES IDX 6 1 7 2 8 3 10 4 11 5 5 6 4 7 3 8 2 9 1 10 12 11 9 12
REMARK H PARENT 9 13
REMARK Flexibility Score: inf
ROOT
ATOM      1  C   UNL     1      -0.114  26.375  32.807  1.00  0.00     0.016 A 
ATOM      2  C   UNL     1      -0.114  27.145  33.975  1.00  0.00     0.047 A 
ATOM      3  C   UNL     1      -0.116  28.543  33.900  1.00  0.00     0.119 A 
ATOM      4  C   UNL     1      -0.119  29.177  32.649  1.00  0.00     0.094 A 
ATOM      5  C   UNL     1      -0.118  28.415  31.476  1.00  0.00     0.142 A 
ATOM      6  C   UNL     1      -0.116  27.004  31.555  1.00  0.00     0.018 A 
ATOM      7  C   UNL     1      -0.116  26.271  30.365  1.00  0.00     0.019 A 
ATOM      8  C   UNL     1      -0.119  26.946  29.144  1.00  0.00     0.094 A 
ATOM      9  C   UNL     1      -0.121  28.345  29.143  1.00  0.00     0.336 A 
ATOM     10  O   UNL     1      -0.123  28.972  28.052  1.00  0.00    -0.246 OA
ATOM     11  O   UNL     1      -0.121  29.020  30.290  1.00  0.00    -0.423 OA
ENDROOT
BRANCH   3  12
ATOM     12  O   UNL     1      -0.117  29.292  35.075  1.00  0.00    -0.508 OA
ATOM     13  H   UNL     1      -0.899  29.886  35.324  1.00  0.00     0.293 HD
ENDBRANCH   3  12
TORSDOF 1
ENDMDL
MODEL 2
REMARK VINA RESULT:    -4.095      1.566      2.263
REMARK INTER + INTRA:          -4.215
REMARK INTER:                  -4.215
REMARK INTRA:                   0.000
REMARK UNBOUND:                 0.000
REMARK SMILES O=c1ccc2ccc(O)cc2o1
REMARK SMILES IDX 6 1 7 2 8 3 10 4 11 5 5 6 4 7 3 8 2 9 1 10 12 11 9 12
REMARK H PARENT 9 13
REMARK Flexibility Score: inf
ROOT
ATOM      1  C   UNL     1       0.520  28.913  32.792  1.00  0.00     0.016 A 
ATOM      2  C   UNL     1       0.356  28.241  34.008  1.00  0.00     0.047 A 
ATOM      3  C   UNL     1       0.034  26.878  34.026  1.00  0.00     0.119 A 
ATOM      4  C   UNL     1      -0.123  26.180  32.820  1.00  0.00     0.094 A 
ATOM      5  C   UNL     1       0.038  26.844  31.599  1.00  0.00     0.142 A 
ATOM      6  C   UNL     1       0.363  28.219  31.584  1.00  0.00     0.018 A 
ATOM      7  C   UNL     1       0.519  28.853  30.349  1.00  0.00     0.019 A 
ATOM      8  C   UNL     1       0.352  28.118  29.175  1.00  0.00     0.094 A 
ATOM      9  C   UNL     1       0.031  26.759  29.267  1.00  0.00     0.336 A 
ATOM     10  O   UNL     1      -0.124  26.078  28.219  1.00  0.00    -0.246 OA
ATOM     11  O   UNL     1      -0.111  26.179  30.456  1.00  0.00    -0.423 OA
ENDROOT
BRANCH   3  12
ATOM     12  O   UNL     1      -0.125  26.228  35.248  1.00  0.00    -0.508 OA
ATOM     13  H   UNL     1       0.124  25.252  35.365  1.00  0.00     0.293 HD
ENDBRANCH   3  12
TORSDOF 1
ENDMDL
MODEL 3
REMARK VINA RESULT:    -3.889      1.643      4.803
REMARK INTER + INTRA:          -4.002
REMARK INTER:                  -4.002
REMARK INTRA:                   0.000
REMARK UNBOUND:                 0.000
REMARK SMILES O=c1ccc2ccc(O)cc2o1
REMARK SMILES IDX 6 1 7 2 8 3 10 4 11 5 5 6 4 7 3 8 2 9 1 10 12 11 9 12
REMARK H PARENT 9 13
REMARK Flexibility Score: inf
ROOT
ATOM      1  C   UNL     1      -0.112  29.194  29.828  1.00  0.00     0.016 A 
ATOM      2  C   UNL     1      -0.116  28.570  28.575  1.00  0.00     0.047 A 
ATOM      3  C   UNL     1      -0.122  27.173  28.481  1.00  0.00     0.119 A 
ATOM      4  C   UNL     1      -0.125  26.393  29.647  1.00  0.00     0.094 A 
ATOM      5  C   UNL     1      -0.121  27.008  30.903  1.00  0.00     0.142 A 
ATOM      6  C   UNL     1      -0.115  28.418  30.995  1.00  0.00     0.018 A 
ATOM      7  C   UNL     1      -0.112  29.003  32.264  1.00  0.00     0.019 A 
ATOM      8  C   UNL     1      -0.116  28.187  33.395  1.00  0.00     0.094 A 
ATOM      9  C   UNL     1      -0.122  26.797  33.228  1.00  0.00     0.336 A 
ATOM     10  O   UNL     1      -0.124  26.043  34.236  1.00  0.00    -0.246 OA
ATOM     11  O   UNL     1      -0.125  26.265  32.008  1.00  0.00    -0.423 OA
ENDROOT
BRANCH   3  12
ATOM     12  O   UNL     1      -0.125  26.571  27.225  1.00  0.00    -0.508 OA
ATOM     13  H   UNL     1      -0.881  25.962  26.931  1.00  0.00     0.293 HD
ENDBRANCH   3  12
TORSDOF 1
ENDMDL
MODEL 4
REMARK VINA RESULT:    -2.015      1.691      4.657
REMARK INTER + INTRA:          -2.074
REMARK INTER:                  -2.074
REMARK INTRA:                   0.000
REMARK UNBOUND:                 0.000
REMARK SMILES O=c1ccc2ccc(O)cc2o1
REMARK SMILES IDX 6 1 7 2 8 3 10 4 11 5 5 6 4 7 3 8 2 9 1 10 12 11 9 12
REMARK H PARENT 9 13
REMARK Flexibility Score: inf
ROOT
ATOM      1  C   UNL     1      -0.116  28.889  30.060  1.00  0.00     0.016 A 
ATOM      2  C   UNL     1      -0.118  27.721  29.290  1.00  0.00     0.047 A 
ATOM      3  C   UNL     1      -0.121  26.465  29.910  1.00  0.00     0.119 A 
ATOM      4  C   UNL     1      -0.122  26.375  31.310  1.00  0.00     0.094 A 
ATOM      5  C   UNL     1      -0.120  27.538  32.088  1.00  0.00     0.142 A 
ATOM      6  C   UNL     1      -0.118  28.804  31.459  1.00  0.00     0.018 A 
ATOM      7  C   UNL     1      -0.116  29.946  32.263  1.00  0.00     0.019 A 
ATOM      8  C   UNL     1      -0.118  29.808  33.651  1.00  0.00     0.094 A 
ATOM      9  C   UNL     1      -0.121  28.522  34.204  1.00  0.00     0.336 A 
ATOM     10  O   UNL     1      -0.122  28.376  35.454  1.00  0.00    -0.246 OA
ATOM     11  O   UNL     1      -0.122  27.450  33.416  1.00  0.00    -0.423 OA
ENDROOT
BRANCH   3  12
ATOM     12  O   UNL     1      -0.122  25.314  29.126  1.00  0.00    -0.508 OA
ATOM     13  H   UNL     1       0.545  25.185  28.374  1.00  0.00     0.293 HD
ENDBRANCH   3  12
TORSDOF 1
ENDMDL
MODEL 5
REMARK VINA RESULT:    -1.900      1.830      2.655
REMARK INTER + INTRA:          -1.955
REMARK INTER:                  -1.955
REMARK INTRA:                   0.000
REMARK UNBOUND:                 0.000
REMARK SMILES O=c1ccc2ccc(O)cc2o1
REMARK SMILES IDX 6 1 7 2 8 3 10 4 11 5 5 6 4 7 3 8 2 9 1 10 12 11 9 12
REMARK H PARENT 9 13
REMARK Flexibility Score: inf
ROOT
ATOM      1  C   UNL     1      -0.124  30.412  32.054  1.00  0.00     0.016 A 
ATOM      2  C   UNL     1      -0.125  30.727  33.417  1.00  0.00     0.047 A 
ATOM      3  C   UNL     1      -0.125  29.707  34.378  1.00  0.00     0.119 A 
ATOM      4  C   UNL     1      -0.124  28.364  33.973  1.00  0.00     0.094 A 
ATOM      5  C   UNL     1      -0.124  28.041  32.613  1.00  0.00     0.142 A 
ATOM      6  C   UNL     1      -0.124  29.072  31.646  1.00  0.00     0.018 A 
ATOM      7  C   UNL     1      -0.124  28.717  30.294  1.00  0.00     0.019 A 
ATOM      8  C   UNL     1      -0.123  27.368  29.940  1.00  0.00     0.094 A 
ATOM      9  C   UNL     1      -0.123  26.401  30.952  1.00  0.00     0.336 A 
ATOM     10  O   UNL     1      -0.123  25.178  30.653  1.00  0.00    -0.246 OA
ATOM     11  O   UNL     1      -0.123  26.766  32.232  1.00  0.00    -0.423 OA
ENDROOT
BRANCH   3  12
ATOM     12  O   UNL     1      -0.125  30.042  35.730  1.00  0.00    -0.508 OA
ATOM     13  H   UNL     1       0.740  30.170  36.244  1.00  0.00     0.293 HD
ENDBRANCH   3  12
TORSDOF 1
ENDMDL
