MODEL 1
REMARK VINA RESULT:     7.538      0.000      0.000
REMARK INTER + INTRA:          11.103
REMARK INTER:                  10.843
REMARK INTRA:                   0.259
REMARK UNBOUND:                 0.259
REMARK SMILES O=c1c(O[C@@H]2O[C@@H](CO)[C@H](O)[C@@H](O)[C@@H]2O)c(-c2ccc(O)cc2)oc2cc(O)cc(O)c12
REMARK SMILES IDX 4 1 3 2 16 3 24 4 2 5 25 6 1 7 32 8 26 9 30 10 27 11 29 12
REMARK SMILES IDX 17 13 18 14 19 15 20 16 23 17 22 18 21 19 31 21 28 23 5 25
REMARK SMILES IDX 14 26 6 27 12 28 7 29 10 30 15 31 13 33 8 35 9 36 11 38
REMARK H PARENT 21 20 31 22 28 24 15 32 13 34 9 37 11 39
REMARK Flexibility Score: inf
ROOT
ATOM      1  O   UNL     1      12.727   9.724  30.227  1.00  0.00    -0.454 OA
ENDROOT
BRANCH   1   2
ATOM      2  C   UNL     1      13.171   8.776  29.298  1.00  0.00     0.214 A 
ATOM      3  C   UNL     1      13.312   9.127  27.945  1.00  0.00     0.180 A 
ATOM      4  O   UNL     1      13.658   8.200  27.056  1.00  0.00    -0.452 OA
ATOM      5  C   UNL     1      13.495   7.469  29.701  1.00  0.00     0.239 A 
ATOM      6  C   UNL     1      13.916   6.936  27.379  1.00  0.00     0.146 A 
ATOM      7  O   UNL     1      13.507   7.202  30.931  1.00  0.00    -0.285 OA
ATOM      8  C   UNL     1      13.829   6.497  28.729  1.00  0.00     0.111 A 
ATOM      9  C   UNL     1      14.298   6.049  26.362  1.00  0.00     0.094 A 
ATOM     10  C   UNL     1      14.111   5.128  29.014  1.00  0.00     0.134 A 
ATOM     11  C   UNL     1      14.629   4.731  26.661  1.00  0.00     0.123 A 
ATOM     12  C   UNL     1      14.539   4.280  27.981  1.00  0.00     0.093 A 
BRANCH   3  13
ATOM     13  C   UNL     1      13.083  10.512  27.471  1.00  0.00     0.021 A 
ATOM     14  C   UNL     1      12.013  11.261  27.995  1.00  0.00     0.016 A 
ATOM     15  C   UNL     1      11.789  12.571  27.559  1.00  0.00     0.047 A 
ATOM     16  C   UNL     1      12.617  13.140  26.579  1.00  0.00     0.115 A 
ATOM     17  C   UNL     1      13.895  11.080  26.472  1.00  0.00     0.016 A 
ATOM     18  C   UNL     1      13.662  12.387  26.031  1.00  0.00     0.047 A 
BRANCH  16  19
ATOM     19  O   UNL     1      12.409  14.453  26.144  1.00  0.00    -0.508 OA
ATOM     20  H   UNL     1      11.480  14.802  25.929  1.00  0.00     0.293 HD
ENDBRANCH  16  19
ENDBRANCH   3  13
BRANCH  10  21
ATOM     21  O   UNL     1      13.964   4.549  30.279  1.00  0.00    -0.507 OA
ATOM     22  H   UNL     1      13.400   4.927  31.026  1.00  0.00     0.293 HD
ENDBRANCH  10  21
BRANCH  11  23
ATOM     23  O   UNL     1      15.042   3.875  25.636  1.00  0.00    -0.508 OA
ATOM     24  H   UNL     1      14.645   2.953  25.525  1.00  0.00     0.293 HD
ENDBRANCH  11  23
ENDBRANCH   1   2
BRANCH   1  25
ATOM     25  C   UNL     1      11.522   9.640  31.009  1.00  0.00     0.339 C 
ATOM     26  C   UNL     1      10.956  11.042  31.359  1.00  0.00     0.214 C 
ATOM     27  O   UNL     1      10.554   8.723  30.490  1.00  0.00    -0.332 OA
ATOM     28  C   UNL     1      10.074  11.591  30.232  1.00  0.00     0.180 C 
ATOM     29  C   UNL     1       9.731   9.249  29.451  1.00  0.00     0.179 C 
ATOM     30  C   UNL     1       9.017  10.544  29.882  1.00  0.00     0.177 C 
BRANCH  26  31
ATOM     31  O   UNL     1      12.000  11.947  31.626  1.00  0.00    -0.384 OA
ATOM     32  H   UNL     1      11.575  12.818  31.838  1.00  0.00     0.211 HD
ENDBRANCH  26  31
BRANCH  28  33
ATOM     33  O   UNL     1       9.439  12.774  30.645  1.00  0.00    -0.387 OA
ATOM     34  H   UNL     1       8.585  12.515  31.088  1.00  0.00     0.211 HD
ENDBRANCH  28  33
BRANCH  29  35
ATOM     35  C   UNL     1       8.706   8.176  29.048  1.00  0.00     0.191 C 
BRANCH  35  36
ATOM     36  O   UNL     1       8.687   8.031  27.655  1.00  0.00    -0.394 OA
ATOM     37  H   UNL     1       9.026   8.889  27.284  1.00  0.00     0.210 HD
ENDBRANCH  35  36
ENDBRANCH  29  35
BRANCH  30  38
ATOM     38  O   UNL     1       8.214  11.029  28.830  1.00  0.00    -0.387 OA
ATOM     39  H   UNL     1       8.725  10.923  27.988  1.00  0.00     0.211 HD
ENDBRANCH  30  38
ENDBRANCH   1  25
TORSDOF 11
ENDMDL
MODEL 2
REMARK VINA RESULT:     9.704      1.452      5.525
REMARK INTER + INTRA:          14.218
REMARK INTER:                  13.500
REMARK INTRA:                   0.719
REMARK UNBOUND:                 0.259
REMARK SMILES O=c1c(O[C@@H]2O[C@@H](CO)[C@H](O)[C@@H](O)[C@@H]2O)c(-c2ccc(O)cc2)oc2cc(O)cc(O)c12
REMARK SMILES IDX 4 1 3 2 16 3 24 4 2 5 25 6 1 7 32 8 26 9 30 10 27 11 29 12
REMARK SMILES IDX 17 13 18 14 19 15 20 16 23 17 22 18 21 19 31 21 28 23 5 25
REMARK SMILES IDX 14 26 6 27 12 28 7 29 10 30 15 31 13 33 8 35 9 36 11 38
REMARK H PARENT 21 20 31 22 28 24 15 32 13 34 9 37 11 39
REMARK Flexibility Score: inf
ROOT
ATOM      1  O   UNL     1      12.505   9.940  29.806  1.00  0.00    -0.454 OA
ENDROOT
BRANCH   1   2
ATOM      2  C   UNL     1      12.819  10.414  28.527  1.00  0.00     0.214 A 
ATOM      3  C   UNL     1      13.469   9.577  27.605  1.00  0.00     0.180 A 
ATOM      4  O   UNL     1      13.835  10.061  26.420  1.00  0.00    -0.452 OA
ATOM      5  C   UNL     1      12.480  11.722  28.142  1.00  0.00     0.239 A 
ATOM      6  C   UNL     1      13.590  11.309  26.032  1.00  0.00     0.146 A 
ATOM      7  O   UNL     1      11.771  12.416  28.916  1.00  0.00    -0.285 OA
ATOM      8  C   UNL     1      12.910  12.218  26.888  1.00  0.00     0.111 A 
ATOM      9  C   UNL     1      13.997  11.703  24.749  1.00  0.00     0.094 A 
ATOM     10  C   UNL     1      12.681  13.546  26.419  1.00  0.00     0.134 A 
ATOM     11  C   UNL     1      13.717  12.982  24.280  1.00  0.00     0.123 A 
ATOM     12  C   UNL     1      13.058  13.892  25.112  1.00  0.00     0.093 A 
BRANCH   3  13
ATOM     13  C   UNL     1      13.766   8.158  27.913  1.00  0.00     0.021 A 
ATOM     14  C   UNL     1      14.038   7.260  26.864  1.00  0.00     0.016 A 
ATOM     15  C   UNL     1      14.325   5.919  27.142  1.00  0.00     0.047 A 
ATOM     16  C   UNL     1      14.319   5.455  28.466  1.00  0.00     0.115 A 
ATOM     17  C   UNL     1      13.739   7.682  29.237  1.00  0.00     0.016 A 
ATOM     18  C   UNL     1      14.015   6.339  29.509  1.00  0.00     0.047 A 
BRANCH  16  19
ATOM     19  O   UNL     1      14.615   4.120  28.756  1.00  0.00    -0.508 OA
ATOM     20  H   UNL     1      14.150   3.356  28.275  1.00  0.00     0.293 HD
ENDBRANCH  16  19
ENDBRANCH   3  13
BRANCH  10  21
ATOM     21  O   UNL     1      12.116  14.561  27.198  1.00  0.00    -0.507 OA
ATOM     22  H   UNL     1      11.936  15.502  26.879  1.00  0.00     0.293 HD
ENDBRANCH  10  21
BRANCH  11  23
ATOM     23  O   UNL     1      14.100  13.341  22.985  1.00  0.00    -0.508 OA
ATOM     24  H   UNL     1      15.068  13.324  22.696  1.00  0.00     0.293 HD
ENDBRANCH  11  23
ENDBRANCH   1   2
BRANCH   1  25
ATOM     25  C   UNL     1      11.280   9.290  30.190  1.00  0.00     0.339 C 
ATOM     26  C   UNL     1      10.253  10.288  30.788  1.00  0.00     0.214 C 
ATOM     27  O   UNL     1      10.745   8.419  29.189  1.00  0.00    -0.332 OA
ATOM     28  C   UNL     1       9.434  10.978  29.692  1.00  0.00     0.180 C 
ATOM     29  C   UNL     1       9.974   9.070  28.182  1.00  0.00     0.179 C 
ATOM     30  C   UNL     1       8.830   9.907  28.784  1.00  0.00     0.177 C 
BRANCH  26  31
ATOM     31  O   UNL     1      10.903  11.259  31.574  1.00  0.00    -0.384 OA
ATOM     32  H   UNL     1      10.668  12.142  31.187  1.00  0.00     0.211 HD
ENDBRANCH  26  31
BRANCH  28  33
ATOM     33  O   UNL     1       8.401  11.739  30.264  1.00  0.00    -0.387 OA
ATOM     34  H   UNL     1       8.202  11.347  31.158  1.00  0.00     0.211 HD
ENDBRANCH  28  33
BRANCH  29  35
ATOM     35  C   UNL     1       9.416   8.002  27.227  1.00  0.00     0.191 C 
BRANCH  35  36
ATOM     36  O   UNL     1      10.467   7.262  26.670  1.00  0.00    -0.394 OA
ATOM     37  H   UNL     1      10.474   7.479  25.700  1.00  0.00     0.210 HD
ENDBRANCH  35  36
ENDBRANCH  29  35
BRANCH  30  38
ATOM     38  O   UNL     1       8.092  10.530  27.758  1.00  0.00    -0.387 OA
ATOM     39  H   UNL     1       7.830   9.830  27.109  1.00  0.00     0.211 HD
ENDBRANCH  30  38
ENDBRANCH   1  25
TORSDOF 11
ENDMDL
