MODEL 1
REMARK VINA RESULT:    -4.327      0.000      0.000
REMARK INTER + INTRA:          -6.775
REMARK INTER:                  -6.603
REMARK INTRA:                  -0.171
REMARK UNBOUND:                -0.171
REMARK SMILES CC1=CCC[C@@H](C)C(=O)C[C@@H](C(C)C)C(=O)C1
REMARK SMILES IDX 8 1 9 2 6 3 7 4 5 5 4 6 3 7 2 8 1 9 10 11 11 12 15 13 16 14
REMARK SMILES IDX 17 15 12 17 13 18 14 19
REMARK H PARENT
REMARK Flexibility Score: 70.00
ROOT
ATOM      1  C   UNL     1     252.492 259.619 246.885  1.00  0.00     0.136 C 
ATOM      2  O   UNL     1     251.314 259.888 247.084  1.00  0.00    -0.299 OA
ENDROOT
BRANCH   1   3
ATOM      3  C   UNL     1     253.499 260.764 246.843  1.00  0.00     0.053 C 
ATOM      4  C   UNL     1     254.506 260.552 245.701  1.00  0.00     0.016 C 
BRANCH   3   5
ATOM      5  C   UNL     1     254.248 260.918 248.187  1.00  0.00     0.015 C 
BRANCH   5   6
ATOM      6  C   UNL     1     255.508 260.046 248.312  1.00  0.00     0.028 C 
BRANCH   6   7
ATOM      7  C   UNL     1     255.475 259.167 249.540  1.00  0.00    -0.028 C 
ATOM      8  C   UNL     1     255.208 257.838 249.566  1.00  0.00    -0.070 CG0
ATOM      9  C   UNL     1     255.200 257.152 250.909  1.00  0.00     0.039 C 
ATOM     10  G   UNL     1     254.874 257.013 248.334  1.00  0.00     0.000 G0
ENDBRANCH   6   7
ENDBRANCH   5   6
ENDBRANCH   3   5
ENDBRANCH   1   3
BRANCH   1  11
ATOM     11  C   UNL     1     252.833 258.168 246.574  1.00  0.00     0.087 C 
BRANCH  11  12
ATOM     12  C   UNL     1     252.326 257.119 247.603  1.00  0.00     0.066 C 
BRANCH  12  13
ATOM     13  C   UNL     1     253.474 256.467 248.361  1.00  0.00     0.140 C 
ATOM     14  O   UNL     1     253.264 255.409 248.938  1.00  0.00    -0.299 OA
BRANCH  13  15
ATOM     15  C   UNL     1     254.885 257.010 248.327  1.00  0.00     0.106 CG0
ATOM     16  G   UNL     1     255.189 257.840 249.563  1.00  0.00     0.000 G0
ENDBRANCH  13  15
ENDBRANCH  12  13
BRANCH  12  17
ATOM     17  C   UNL     1     251.431 256.014 246.944  1.00  0.00    -0.006 C 
ATOM     18  C   UNL     1     250.068 256.583 246.502  1.00  0.00     0.008 C 
ATOM     19  C   UNL     1     252.103 255.354 245.724  1.00  0.00     0.008 C 
ENDBRANCH  12  17
ENDBRANCH  11  12
ENDBRANCH   1  11
TORSDOF 1
ENDMDL
MODEL 2
REMARK VINA RESULT:    -4.209      2.012      3.851
REMARK INTER + INTRA:          -6.594
REMARK INTER:                  -6.494
REMARK INTRA:                  -0.100
REMARK UNBOUND:                -0.171
REMARK SMILES CC1=CCC[C@@H](C)C(=O)C[C@@H](C(C)C)C(=O)C1
REMARK SMILES IDX 8 1 9 2 6 3 7 4 5 5 4 6 3 7 2 8 1 9 10 11 11 12 15 13 16 14
REMARK SMILES IDX 17 15 12 17 13 18 14 19
REMARK H PARENT
REMARK Flexibility Score: 70.00
ROOT
ATOM      1  C   UNL     1     255.314 259.260 249.563  1.00  0.00     0.136 C 
ATOM      2  O   UNL     1     255.635 259.818 250.604  1.00  0.00    -0.299 OA
ENDROOT
BRANCH   1   3
ATOM      3  C   UNL     1     255.654 259.942 248.242  1.00  0.00     0.053 C 
ATOM      4  C   UNL     1     256.930 260.787 248.386  1.00  0.00     0.016 C 
BRANCH   3   5
ATOM      5  C   UNL     1     254.489 260.825 247.737  1.00  0.00     0.015 C 
BRANCH   5   6
ATOM      6  C   UNL     1     253.738 260.250 246.525  1.00  0.00     0.028 C 
BRANCH   6   7
ATOM      7  C   UNL     1     252.285 259.973 246.833  1.00  0.00    -0.028 C 
ATOM      8  C   UNL     1     251.702 258.752 246.912  1.00  0.00    -0.070 CG0
ATOM      9  C   UNL     1     250.224 258.700 247.208  1.00  0.00     0.039 C 
ATOM     10  G   UNL     1     252.435 257.441 246.678  1.00  0.00     0.000 G0
ENDBRANCH   6   7
ENDBRANCH   5   6
ENDBRANCH   3   5
ENDBRANCH   1   3
BRANCH   1  11
ATOM     11  C   UNL     1     254.492 257.983 249.680  1.00  0.00     0.087 C 
BRANCH  11  12
ATOM     12  C   UNL     1     254.440 257.095 248.405  1.00  0.00     0.066 C 
BRANCH  12  13
ATOM     13  C   UNL     1     253.010 256.838 247.951  1.00  0.00     0.140 C 
ATOM     14  O   UNL     1     252.265 256.218 248.698  1.00  0.00    -0.299 OA
BRANCH  13  15
ATOM     15  C   UNL     1     252.442 257.422 246.676  1.00  0.00     0.106 CG0
ATOM     16  G   UNL     1     251.720 258.733 246.940  1.00  0.00     0.000 G0
ENDBRANCH  13  15
ENDBRANCH  12  13
BRANCH  12  17
ATOM     17  C   UNL     1     255.189 255.731 248.592  1.00  0.00    -0.006 C 
ATOM     18  C   UNL     1     254.690 254.671 247.589  1.00  0.00     0.008 C 
ATOM     19  C   UNL     1     256.717 255.865 248.439  1.00  0.00     0.008 C 
ENDBRANCH  12  17
ENDBRANCH  11  12
ENDBRANCH   1  11
TORSDOF 1
ENDMDL
MODEL 3
REMARK VINA RESULT:    -4.057      2.124      4.350
REMARK INTER + INTRA:          -6.363
REMARK INTER:                  -6.455
REMARK INTRA:                   0.092
REMARK UNBOUND:                -0.171
REMARK SMILES CC1=CCC[C@@H](C)C(=O)C[C@@H](C(C)C)C(=O)C1
REMARK SMILES IDX 8 1 9 2 6 3 7 4 5 5 4 6 3 7 2 8 1 9 10 11 11 12 15 13 16 14
REMARK SMILES IDX 17 15 12 17 13 18 14 19
REMARK H PARENT
REMARK Flexibility Score: 70.00
ROOT
ATOM      1  C   UNL     1     254.318 258.452 247.792  1.00  0.00     0.136 C 
ATOM      2  O   UNL     1     254.991 259.398 248.180  1.00  0.00    -0.299 OA
ENDROOT
BRANCH   1   3
ATOM      3  C   UNL     1     253.482 258.628 246.528  1.00  0.00     0.053 C 
ATOM      4  C   UNL     1     254.209 259.539 245.525  1.00  0.00     0.016 C 
BRANCH   3   5
ATOM      5  C   UNL     1     252.080 259.201 246.844  1.00  0.00     0.015 C 
BRANCH   5   6
ATOM      6  C   UNL     1     251.128 258.203 247.523  1.00  0.00     0.028 C 
BRANCH   6   7
ATOM      7  C   UNL     1     250.780 257.042 246.621  1.00  0.00    -0.028 C 
ATOM      8  C   UNL     1     251.218 255.767 246.753  1.00  0.00    -0.070 CG0
ATOM      9  C   UNL     1     250.768 254.762 245.723  1.00  0.00     0.039 C 
ATOM     10  G   UNL     1     252.168 255.301 247.845  1.00  0.00     0.000 G0
ENDBRANCH   6   7
ENDBRANCH   5   6
ENDBRANCH   3   5
ENDBRANCH   1   3
BRANCH   1  11
ATOM     11  C   UNL     1     254.280 257.213 248.676  1.00  0.00     0.087 C 
BRANCH  11  12
ATOM     12  C   UNL     1     254.744 255.889 248.005  1.00  0.00     0.066 C 
BRANCH  12  13
ATOM     13  C   UNL     1     253.584 255.142 247.363  1.00  0.00     0.140 C 
ATOM     14  O   UNL     1     253.830 254.329 246.483  1.00  0.00    -0.299 OA
BRANCH  13  15
ATOM     15  C   UNL     1     252.159 255.276 247.853  1.00  0.00     0.106 CG0
ATOM     16  G   UNL     1     251.238 255.769 246.749  1.00  0.00     0.000 G0
ENDBRANCH  13  15
ENDBRANCH  12  13
BRANCH  12  17
ATOM     17  C   UNL     1     255.499 254.943 249.000  1.00  0.00    -0.006 C 
ATOM     18  C   UNL     1     256.842 254.464 248.414  1.00  0.00     0.008 C 
ATOM     19  C   UNL     1     255.770 255.608 250.363  1.00  0.00     0.008 C 
ENDBRANCH  12  17
ENDBRANCH  11  12
ENDBRANCH   1  11
TORSDOF 1
ENDMDL
MODEL 4
REMARK VINA RESULT:    -4.007      2.182      4.912
REMARK INTER + INTRA:          -6.286
REMARK INTER:                  -6.311
REMARK INTRA:                   0.025
REMARK UNBOUND:                -0.171
REMARK SMILES CC1=CCC[C@@H](C)C(=O)C[C@@H](C(C)C)C(=O)C1
REMARK SMILES IDX 8 1 9 2 6 3 7 4 5 5 4 6 3 7 2 8 1 9 10 11 11 12 15 13 16 14
REMARK SMILES IDX 17 15 12 17 13 18 14 19
REMARK H PARENT
REMARK Flexibility Score: 70.00
ROOT
ATOM      1  C   UNL     1     250.587 257.966 246.955  1.00  0.00     0.136 C 
ATOM      2  O   UNL     1     250.422 259.177 247.030  1.00  0.00    -0.299 OA
ENDROOT
BRANCH   1   3
ATOM      3  C   UNL     1     249.597 257.150 246.130  1.00  0.00     0.053 C 
ATOM      4  C   UNL     1     248.239 257.070 246.847  1.00  0.00     0.016 C 
BRANCH   3   5
ATOM      5  C   UNL     1     250.128 255.726 245.842  1.00  0.00     0.015 C 
BRANCH   5   6
ATOM      6  C   UNL     1     249.823 254.702 246.948  1.00  0.00     0.028 C 
BRANCH   6   7
ATOM      7  C   UNL     1     250.778 253.531 246.919  1.00  0.00    -0.028 C 
ATOM      8  C   UNL     1     251.989 253.471 247.524  1.00  0.00    -0.070 CG0
ATOM      9  C   UNL     1     252.798 252.210 247.347  1.00  0.00     0.039 C 
ATOM     10  G   UNL     1     252.597 254.609 248.327  1.00  0.00     0.000 G0
ENDBRANCH   6   7
ENDBRANCH   5   6
ENDBRANCH   3   5
ENDBRANCH   1   3
BRANCH   1  11
ATOM     11  C   UNL     1     251.704 257.361 247.795  1.00  0.00     0.087 C 
BRANCH  11  12
ATOM     12  C   UNL     1     252.951 256.870 247.008  1.00  0.00     0.066 C 
BRANCH  12  13
ATOM     13  C   UNL     1     253.456 255.530 247.524  1.00  0.00     0.140 C 
ATOM     14  O   UNL     1     254.631 255.240 247.341  1.00  0.00    -0.299 OA
BRANCH  13  15
ATOM     15  C   UNL     1     252.599 254.602 248.355  1.00  0.00     0.106 CG0
ATOM     16  G   UNL     1     252.011 253.483 247.510  1.00  0.00     0.000 G0
ENDBRANCH  13  15
ENDBRANCH  12  13
BRANCH  12  17
ATOM     17  C   UNL     1     254.119 257.915 247.019  1.00  0.00    -0.006 C 
ATOM     18  C   UNL     1     253.945 258.965 245.903  1.00  0.00     0.008 C 
ATOM     19  C   UNL     1     254.245 258.652 248.367  1.00  0.00     0.008 C 
ENDBRANCH  12  17
ENDBRANCH  11  12
ENDBRANCH   1  11
TORSDOF 1
ENDMDL
MODEL 5
REMARK VINA RESULT:    -3.996      1.715      4.118
REMARK INTER + INTRA:          -6.270
REMARK INTER:                  -6.497
REMARK INTRA:                   0.227
REMARK UNBOUND:                -0.171
REMARK SMILES CC1=CCC[C@@H](C)C(=O)C[C@@H](C(C)C)C(=O)C1
REMARK SMILES IDX 8 1 9 2 6 3 7 4 5 5 4 6 3 7 2 8 1 9 10 11 11 12 15 13 16 14
REMARK SMILES IDX 17 15 12 17 13 18 14 19
REMARK H PARENT
REMARK Flexibility Score: 70.00
ROOT
ATOM      1  C   UNL     1     251.271 257.667 246.884  1.00  0.00     0.136 C 
ATOM      2  O   UNL     1     250.347 258.456 246.735  1.00  0.00    -0.299 OA
ENDROOT
BRANCH   1   3
ATOM      3  C   UNL     1     251.211 256.333 246.147  1.00  0.00     0.053 C 
ATOM      4  C   UNL     1     250.219 255.383 246.837  1.00  0.00     0.016 C 
BRANCH   3   5
ATOM      5  C   UNL     1     252.604 255.667 246.052  1.00  0.00     0.015 C 
BRANCH   5   6
ATOM      6  C   UNL     1     252.855 254.576 247.106  1.00  0.00     0.028 C 
BRANCH   6   7
ATOM      7  C   UNL     1     254.329 254.358 247.360  1.00  0.00    -0.028 C 
ATOM      8  C   UNL     1     255.109 255.071 248.208  1.00  0.00    -0.070 CG0
ATOM      9  C   UNL     1     256.569 254.702 248.293  1.00  0.00     0.039 C 
ATOM     10  G   UNL     1     254.613 256.242 249.040  1.00  0.00     0.000 G0
ENDBRANCH   6   7
ENDBRANCH   5   6
ENDBRANCH   3   5
ENDBRANCH   1   3
BRANCH   1  11
ATOM     11  C   UNL     1     252.349 258.038 247.894  1.00  0.00     0.087 C 
BRANCH  11  12
ATOM     12  C   UNL     1     253.801 258.096 247.341  1.00  0.00     0.066 C 
BRANCH  12  13
ATOM     13  C   UNL     1     254.810 257.549 248.341  1.00  0.00     0.140 C 
ATOM     14  O   UNL     1     255.764 258.251 248.649  1.00  0.00    -0.299 OA
BRANCH  13  15
ATOM     15  C   UNL     1     254.616 256.231 249.056  1.00  0.00     0.106 CG0
ATOM     16  G   UNL     1     255.119 255.067 248.219  1.00  0.00     0.000 G0
ENDBRANCH  13  15
ENDBRANCH  12  13
BRANCH  12  17
ATOM     17  C   UNL     1     254.220 259.541 246.902  1.00  0.00    -0.006 C 
ATOM     18  C   UNL     1     254.310 259.660 245.367  1.00  0.00     0.008 C 
ATOM     19  C   UNL     1     253.253 260.624 247.419  1.00  0.00     0.008 C 
ENDBRANCH  12  17
ENDBRANCH  11  12
ENDBRANCH   1  11
TORSDOF 1
ENDMDL
MODEL 6
REMARK VINA RESULT:    -3.880      2.274      5.401
REMARK INTER + INTRA:          -6.093
REMARK INTER:                  -5.927
REMARK INTRA:                  -0.166
REMARK UNBOUND:                -0.171
REMARK SMILES CC1=CCC[C@@H](C)C(=O)C[C@@H](C(C)C)C(=O)C1
REMARK SMILES IDX 8 1 9 2 6 3 7 4 5 5 4 6 3 7 2 8 1 9 10 11 11 12 15 13 16 14
REMARK SMILES IDX 17 15 12 17 13 18 14 19
REMARK H PARENT
REMARK Flexibility Score: 70.00
ROOT
ATOM      1  C   UNL     1     254.076 256.040 247.847  1.00  0.00     0.136 C 
ATOM      2  O   UNL     1     255.205 255.600 247.676  1.00  0.00    -0.299 OA
ENDROOT
BRANCH   1   3
ATOM      3  C   UNL     1     253.270 255.525 249.036  1.00  0.00     0.053 C 
ATOM      4  C   UNL     1     254.154 255.455 250.293  1.00  0.00     0.016 C 
BRANCH   3   5
ATOM      5  C   UNL     1     252.647 254.140 248.749  1.00  0.00     0.015 C 
BRANCH   5   6
ATOM      6  C   UNL     1     251.715 254.107 247.527  1.00  0.00     0.028 C 
BRANCH   6   7
ATOM      7  C   UNL     1     250.363 254.714 247.824  1.00  0.00    -0.028 C 
ATOM      8  C   UNL     1     249.871 255.866 247.306  1.00  0.00    -0.070 CG0
ATOM      9  C   UNL     1     248.502 256.308 247.758  1.00  0.00     0.039 C 
ATOM     10  G   UNL     1     250.632 256.757 246.338  1.00  0.00     0.000 G0
ENDBRANCH   6   7
ENDBRANCH   5   6
ENDBRANCH   3   5
ENDBRANCH   1   3
BRANCH   1  11
ATOM     11  C   UNL     1     253.524 256.979 246.783  1.00  0.00     0.087 C 
BRANCH  11  12
ATOM     12  C   UNL     1     252.676 258.172 247.309  1.00  0.00     0.066 C 
BRANCH  12  13
ATOM     13  C   UNL     1     251.196 257.991 247.009  1.00  0.00     0.140 C 
ATOM     14  O   UNL     1     250.437 258.923 247.238  1.00  0.00    -0.299 OA
BRANCH  13  15
ATOM     15  C   UNL     1     250.647 256.756 246.329  1.00  0.00     0.106 CG0
ATOM     16  G   UNL     1     249.895 255.872 247.309  1.00  0.00     0.000 G0
ENDBRANCH  13  15
ENDBRANCH  12  13
BRANCH  12  17
ATOM     17  C   UNL     1     253.166 259.551 246.747  1.00  0.00    -0.006 C 
ATOM     18  C   UNL     1     253.805 260.415 247.853  1.00  0.00     0.008 C 
ATOM     19  C   UNL     1     254.183 259.398 245.599  1.00  0.00     0.008 C 
ENDBRANCH  12  17
ENDBRANCH  11  12
ENDBRANCH   1  11
TORSDOF 1
ENDMDL
MODEL 7
REMARK VINA RESULT:    -3.861      2.132      3.428
REMARK INTER + INTRA:          -6.064
REMARK INTER:                  -5.857
REMARK INTRA:                  -0.206
REMARK UNBOUND:                -0.171
REMARK SMILES CC1=CCC[C@@H](C)C(=O)C[C@@H](C(C)C)C(=O)C1
REMARK SMILES IDX 8 1 9 2 6 3 7 4 5 5 4 6 3 7 2 8 1 9 10 11 11 12 15 13 16 14
REMARK SMILES IDX 17 15 12 17 13 18 14 19
REMARK H PARENT
REMARK Flexibility Score: 70.00
ROOT
ATOM      1  C   UNL     1     254.162 258.823 247.202  1.00  0.00     0.136 C 
ATOM      2  O   UNL     1     254.969 259.523 246.604  1.00  0.00    -0.299 OA
ENDROOT
BRANCH   1   3
ATOM      3  C   UNL     1     254.360 258.609 248.700  1.00  0.00     0.053 C 
ATOM      4  C   UNL     1     254.983 259.859 249.343  1.00  0.00     0.016 C 
BRANCH   3   5
ATOM      5  C   UNL     1     255.239 257.370 248.990  1.00  0.00     0.015 C 
BRANCH   5   6
ATOM      6  C   UNL     1     254.498 256.218 249.687  1.00  0.00     0.028 C 
BRANCH   6   7
ATOM      7  C   UNL     1     254.564 254.934 248.893  1.00  0.00    -0.028 C 
ATOM      8  C   UNL     1     253.547 254.370 248.197  1.00  0.00    -0.070 CG0
ATOM      9  C   UNL     1     253.821 253.065 247.492  1.00  0.00     0.039 C 
ATOM     10  G   UNL     1     252.143 254.947 248.123  1.00  0.00     0.000 G0
ENDBRANCH   6   7
ENDBRANCH   5   6
ENDBRANCH   3   5
ENDBRANCH   1   3
BRANCH   1  11
ATOM     11  C   UNL     1     253.092 258.126 246.373  1.00  0.00     0.087 C 
BRANCH  11  12
ATOM     12  C   UNL     1     251.966 257.420 247.179  1.00  0.00     0.066 C 
BRANCH  12  13
ATOM     13  C   UNL     1     251.981 255.912 246.974  1.00  0.00     0.140 C 
ATOM     14  O   UNL     1     251.979 255.480 245.829  1.00  0.00    -0.299 OA
BRANCH  13  15
ATOM     15  C   UNL     1     252.122 254.935 248.120  1.00  0.00     0.106 CG0
ATOM     16  G   UNL     1     253.535 254.380 248.205  1.00  0.00     0.000 G0
ENDBRANCH  13  15
ENDBRANCH  12  13
BRANCH  12  17
ATOM     17  C   UNL     1     250.543 257.985 246.844  1.00  0.00    -0.006 C 
ATOM     18  C   UNL     1     249.443 257.248 247.636  1.00  0.00     0.008 C 
ATOM     19  C   UNL     1     250.420 259.495 247.130  1.00  0.00     0.008 C 
ENDBRANCH  12  17
ENDBRANCH  11  12
ENDBRANCH   1  11
TORSDOF 1
ENDMDL
MODEL 8
REMARK VINA RESULT:    -3.851      1.961      4.598
REMARK INTER + INTRA:          -6.048
REMARK INTER:                  -6.008
REMARK INTRA:                  -0.039
REMARK UNBOUND:                -0.171
REMARK SMILES CC1=CCC[C@@H](C)C(=O)C[C@@H](C(C)C)C(=O)C1
REMARK SMILES IDX 8 1 9 2 6 3 7 4 5 5 4 6 3 7 2 8 1 9 10 11 11 12 15 13 16 14
REMARK SMILES IDX 17 15 12 17 13 18 14 19
REMARK H PARENT
REMARK Flexibility Score: 70.00
ROOT
ATOM      1  C   UNL     1     254.969 257.588 249.601  1.00  0.00     0.136 C 
ATOM      2  O   UNL     1     255.228 258.533 250.334  1.00  0.00    -0.299 OA
ENDROOT
BRANCH   1   3
ATOM      3  C   UNL     1     255.009 256.182 250.192  1.00  0.00     0.053 C 
ATOM      4  C   UNL     1     255.357 256.238 251.689  1.00  0.00     0.016 C 
BRANCH   3   5
ATOM      5  C   UNL     1     256.018 255.276 249.448  1.00  0.00     0.015 C 
BRANCH   5   6
ATOM      6  C   UNL     1     255.389 254.386 248.364  1.00  0.00     0.028 C 
BRANCH   6   7
ATOM      7  C   UNL     1     253.901 254.213 248.561  1.00  0.00    -0.028 C 
ATOM      8  C   UNL     1     252.923 254.837 247.860  1.00  0.00    -0.070 CG0
ATOM      9  C   UNL     1     251.493 254.540 248.237  1.00  0.00     0.039 C 
ATOM     10  G   UNL     1     253.181 255.847 246.754  1.00  0.00     0.000 G0
ENDBRANCH   6   7
ENDBRANCH   5   6
ENDBRANCH   3   5
ENDBRANCH   1   3
BRANCH   1  11
ATOM     11  C   UNL     1     254.744 257.889 248.126  1.00  0.00     0.087 C 
BRANCH  11  12
ATOM     12  C   UNL     1     253.301 258.316 247.735  1.00  0.00     0.066 C 
BRANCH  12  13
ATOM     13  C   UNL     1     252.546 257.191 247.042  1.00  0.00     0.140 C 
ATOM     14  O   UNL     1     251.417 257.418 246.627  1.00  0.00    -0.299 OA
BRANCH  13  15
ATOM     15  C   UNL     1     253.177 255.851 246.740  1.00  0.00     0.106 CG0
ATOM     16  G   UNL     1     252.933 254.857 247.865  1.00  0.00     0.000 G0
ENDBRANCH  13  15
ENDBRANCH  12  13
BRANCH  12  17
ATOM     17  C   UNL     1     253.276 259.602 246.839  1.00  0.00    -0.006 C 
ATOM     18  C   UNL     1     253.660 260.858 247.647  1.00  0.00     0.008 C 
ATOM     19  C   UNL     1     254.217 259.498 245.623  1.00  0.00     0.008 C 
ENDBRANCH  12  17
ENDBRANCH  11  12
ENDBRANCH   1  11
TORSDOF 1
ENDMDL
MODEL 9
REMARK VINA RESULT:    -3.798      1.885      5.291
REMARK INTER + INTRA:          -5.967
REMARK INTER:                  -5.791
REMARK INTRA:                  -0.176
REMARK UNBOUND:                -0.171
REMARK SMILES CC1=CCC[C@@H](C)C(=O)C[C@@H](C(C)C)C(=O)C1
REMARK SMILES IDX 8 1 9 2 6 3 7 4 5 5 4 6 3 7 2 8 1 9 10 11 11 12 15 13 16 14
REMARK SMILES IDX 17 15 12 17 13 18 14 19
REMARK H PARENT
REMARK Flexibility Score: 70.00
ROOT
ATOM      1  C   UNL     1     255.506 256.395 249.879  1.00  0.00     0.136 C 
ATOM      2  O   UNL     1     255.345 256.657 251.064  1.00  0.00    -0.299 OA
ENDROOT
BRANCH   1   3
ATOM      3  C   UNL     1     255.695 254.934 249.480  1.00  0.00     0.053 C 
ATOM      4  C   UNL     1     256.749 254.815 248.367  1.00  0.00     0.016 C 
BRANCH   3   5
ATOM      5  C   UNL     1     254.366 254.289 249.022  1.00  0.00     0.015 C 
BRANCH   5   6
ATOM      6  C   UNL     1     254.113 254.370 247.508  1.00  0.00     0.028 C 
BRANCH   6   7
ATOM      7  C   UNL     1     252.797 255.038 247.185  1.00  0.00    -0.028 C 
ATOM      8  C   UNL     1     252.624 256.329 246.813  1.00  0.00    -0.070 CG0
ATOM      9  C   UNL     1     251.215 256.803 246.560  1.00  0.00     0.039 C 
ATOM     10  G   UNL     1     253.756 257.335 246.679  1.00  0.00     0.000 G0
ENDBRANCH   6   7
ENDBRANCH   5   6
ENDBRANCH   3   5
ENDBRANCH   1   3
BRANCH   1  11
ATOM     11  C   UNL     1     255.625 257.567 248.915  1.00  0.00     0.087 C 
BRANCH  11  12
ATOM     12  C   UNL     1     254.441 258.575 248.927  1.00  0.00     0.066 C 
BRANCH  12  13
ATOM     13  C   UNL     1     253.606 258.484 247.658  1.00  0.00     0.140 C 
ATOM     14  O   UNL     1     252.858 259.413 247.386  1.00  0.00    -0.299 OA
BRANCH  13  15
ATOM     15  C   UNL     1     253.755 257.354 246.664  1.00  0.00     0.106 CG0
ATOM     16  G   UNL     1     252.637 256.334 246.813  1.00  0.00     0.000 G0
ENDBRANCH  13  15
ENDBRANCH  12  13
BRANCH  12  17
ATOM     17  C   UNL     1     254.913 260.053 249.147  1.00  0.00    -0.006 C 
ATOM     18  C   UNL     1     255.207 260.336 250.634  1.00  0.00     0.008 C 
ATOM     19  C   UNL     1     256.168 260.405 248.325  1.00  0.00     0.008 C 
ENDBRANCH  12  17
ENDBRANCH  11  12
ENDBRANCH   1  11
TORSDOF 1
ENDMDL
