MODEL 1
REMARK VINA RESULT:    -6.606      0.000      0.000
REMARK INTER + INTRA:         -11.864
REMARK INTER:                 -10.082
REMARK INTRA:                  -1.782
REMARK UNBOUND:                -1.782
REMARK SMILES CC(=O)CCC=C(C)CCC=C(C)CCC=C(C)C
REMARK SMILES IDX 10 1 11 2 12 3 13 4 14 5 15 6 16 7 18 8 17 9 19 10 9 11 7 12
REMARK SMILES IDX 6 13 8 14 5 15 4 16 2 17 3 18 1 19
REMARK H PARENT
REMARK Flexibility Score: inf
ROOT
ATOM      1  C   UNL     1      -9.046  33.108  26.862  1.00  0.00     0.032 C 
ENDROOT
BRANCH   1   2
ATOM      2  C   UNL     1      -8.208  33.342  25.629  1.00  0.00    -0.028 C 
ATOM      3  C   UNL     1      -8.119  34.516  24.963  1.00  0.00    -0.077 C 
ATOM      4  C   UNL     1      -8.937  35.722  25.355  1.00  0.00     0.039 C 
BRANCH   3   5
ATOM      5  C   UNL     1      -7.168  34.624  23.792  1.00  0.00     0.034 C 
BRANCH   5   6
ATOM      6  C   UNL     1      -7.925  34.951  22.501  1.00  0.00     0.032 C 
BRANCH   6   7
ATOM      7  C   UNL     1      -8.822  33.805  22.103  1.00  0.00    -0.028 C 
ATOM      8  C   UNL     1      -9.506  31.788  20.875  1.00  0.00     0.039 C 
ATOM      9  C   UNL     1      -8.530  32.907  21.136  1.00  0.00    -0.080 C 
ATOM     10  C   UNL     1      -7.270  33.004  20.308  1.00  0.00     0.039 C 
ENDBRANCH   6   7
ENDBRANCH   5   6
ENDBRANCH   3   5
ENDBRANCH   1   2
BRANCH   1  11
ATOM     11  C   UNL     1     -10.084  32.001  26.636  1.00  0.00     0.034 C 
BRANCH  11  12
ATOM     12  C   UNL     1      -9.567  30.640  27.067  1.00  0.00    -0.077 C 
ATOM     13  C   UNL     1      -9.214  29.660  26.202  1.00  0.00    -0.028 C 
ATOM     14  C   UNL     1      -9.405  30.374  28.542  1.00  0.00     0.039 C 
BRANCH  13  15
ATOM     15  C   UNL     1      -9.355  29.709  24.699  1.00  0.00     0.035 C 
BRANCH  15  16
ATOM     16  C   UNL     1      -8.113  30.329  24.048  1.00  0.00     0.079 C 
BRANCH  16  17
ATOM     17  C   UNL     1      -7.607  29.494  22.902  1.00  0.00     0.130 C 
ATOM     18  O   UNL     1      -6.524  29.750  22.398  1.00  0.00    -0.300 OA
ATOM     19  C   UNL     1      -8.409  28.335  22.395  1.00  0.00     0.087 C 
ENDBRANCH  16  17
ENDBRANCH  15  16
ENDBRANCH  13  15
ENDBRANCH  11  12
ENDBRANCH   1  11
TORSDOF 9
ENDMDL
MODEL 2
REMARK VINA RESULT:    -6.273      0.917      4.908
REMARK INTER + INTRA:         -11.355
REMARK INTER:                 -10.117
REMARK INTRA:                  -1.238
REMARK UNBOUND:                -1.782
REMARK SMILES CC(=O)CCC=C(C)CCC=C(C)CCC=C(C)C
REMARK SMILES IDX 10 1 11 2 12 3 13 4 14 5 15 6 16 7 18 8 17 9 19 10 9 11 7 12
REMARK SMILES IDX 6 13 8 14 5 15 4 16 2 17 3 18 1 19
REMARK H PARENT
REMARK Flexibility Score: inf
ROOT
ATOM      1  C   UNL     1      -7.347  34.897  22.915  1.00  0.00     0.032 C 
ENDROOT
BRANCH   1   2
ATOM      2  C   UNL     1      -7.477  34.377  24.326  1.00  0.00    -0.028 C 
ATOM      3  C   UNL     1      -8.284  34.904  25.275  1.00  0.00    -0.077 C 
ATOM      4  C   UNL     1      -9.100  36.150  25.031  1.00  0.00     0.039 C 
BRANCH   3   5
ATOM      5  C   UNL     1      -8.374  34.220  26.621  1.00  0.00     0.034 C 
BRANCH   5   6
ATOM      6  C   UNL     1      -8.407  32.697  26.460  1.00  0.00     0.032 C 
BRANCH   6   7
ATOM      7  C   UNL     1      -9.171  32.056  27.591  1.00  0.00    -0.028 C 
ATOM      8  C   UNL     1      -9.863  30.263  29.123  1.00  0.00     0.039 C 
ATOM      9  C   UNL     1      -9.067  30.754  27.942  1.00  0.00    -0.080 C 
ATOM     10  C   UNL     1      -8.193  29.787  27.178  1.00  0.00     0.039 C 
ENDBRANCH   6   7
ENDBRANCH   5   6
ENDBRANCH   3   5
ENDBRANCH   1   2
BRANCH   1  11
ATOM     11  C   UNL     1      -8.464  34.358  22.010  1.00  0.00     0.034 C 
BRANCH  11  12
ATOM     12  C   UNL     1      -8.058  33.075  21.309  1.00  0.00    -0.077 C 
ATOM     13  C   UNL     1      -8.486  31.845  21.680  1.00  0.00    -0.028 C 
ATOM     14  C   UNL     1      -7.150  33.176  20.109  1.00  0.00     0.039 C 
BRANCH  13  15
ATOM     15  C   UNL     1      -9.346  31.530  22.881  1.00  0.00     0.035 C 
BRANCH  15  16
ATOM     16  C   UNL     1      -8.723  30.415  23.729  1.00  0.00     0.079 C 
BRANCH  16  17
ATOM     17  C   UNL     1      -7.923  29.455  22.888  1.00  0.00     0.130 C 
ATOM     18  O   UNL     1      -6.734  29.660  22.699  1.00  0.00    -0.300 OA
ATOM     19  C   UNL     1      -8.571  28.236  22.304  1.00  0.00     0.087 C 
ENDBRANCH  16  17
ENDBRANCH  15  16
ENDBRANCH  13  15
ENDBRANCH  11  12
ENDBRANCH   1  11
TORSDOF 9
ENDMDL
MODEL 3
REMARK VINA RESULT:    -5.549      1.919      4.153
REMARK INTER + INTRA:         -10.250
REMARK INTER:                  -8.738
REMARK INTRA:                  -1.512
REMARK UNBOUND:                -1.782
REMARK SMILES CC(=O)CCC=C(C)CCC=C(C)CCC=C(C)C
REMARK SMILES IDX 10 1 11 2 12 3 13 4 14 5 15 6 16 7 18 8 17 9 19 10 9 11 7 12
REMARK SMILES IDX 6 13 8 14 5 15 4 16 2 17 3 18 1 19
REMARK H PARENT
REMARK Flexibility Score: inf
ROOT
ATOM      1  C   UNL     1      -8.862  29.342  25.254  1.00  0.00     0.032 C 
ENDROOT
BRANCH   1   2
ATOM      2  C   UNL     1      -9.147  29.813  23.849  1.00  0.00    -0.028 C 
ATOM      3  C   UNL     1      -8.219  30.293  22.989  1.00  0.00    -0.077 C 
ATOM      4  C   UNL     1      -6.777  30.483  23.391  1.00  0.00     0.039 C 
BRANCH   3   5
ATOM      5  C   UNL     1      -8.640  30.646  21.579  1.00  0.00     0.034 C 
BRANCH   5   6
ATOM      6  C   UNL     1      -9.647  31.801  21.583  1.00  0.00     0.032 C 
BRANCH   6   7
ATOM      7  C   UNL     1      -8.998  33.074  22.065  1.00  0.00    -0.028 C 
ATOM      8  C   UNL     1      -7.489  35.013  21.992  1.00  0.00     0.039 C 
ATOM      9  C   UNL     1      -8.013  33.727  21.408  1.00  0.00    -0.080 C 
ATOM     10  C   UNL     1      -7.420  33.195  20.124  1.00  0.00     0.039 C 
ENDBRANCH   6   7
ENDBRANCH   5   6
ENDBRANCH   3   5
ENDBRANCH   1   2
BRANCH   1  11
ATOM     11  C   UNL     1     -10.108  29.439  26.144  1.00  0.00     0.034 C 
BRANCH  11  12
ATOM     12  C   UNL     1      -9.897  30.383  27.315  1.00  0.00    -0.077 C 
ATOM     13  C   UNL     1      -9.875  31.732  27.201  1.00  0.00    -0.028 C 
ATOM     14  C   UNL     1      -9.734  29.787  28.690  1.00  0.00     0.039 C 
BRANCH  13  15
ATOM     15  C   UNL     1      -9.961  32.515  25.911  1.00  0.00     0.035 C 
BRANCH  15  16
ATOM     16  C   UNL     1      -8.606  33.134  25.551  1.00  0.00     0.079 C 
BRANCH  16  17
ATOM     17  C   UNL     1      -8.480  34.543  26.066  1.00  0.00     0.130 C 
ATOM     18  O   UNL     1      -8.214  34.736  27.243  1.00  0.00    -0.300 OA
ATOM     19  C   UNL     1      -8.654  35.709  25.141  1.00  0.00     0.087 C 
ENDBRANCH  16  17
ENDBRANCH  15  16
ENDBRANCH  13  15
ENDBRANCH  11  12
ENDBRANCH   1  11
TORSDOF 9
ENDMDL
MODEL 4
REMARK VINA RESULT:    -4.845     17.189     19.200
REMARK INTER + INTRA:          -9.176
REMARK INTER:                  -8.346
REMARK INTRA:                  -0.829
REMARK UNBOUND:                -1.782
REMARK SMILES CC(=O)CCC=C(C)CCC=C(C)CCC=C(C)C
REMARK SMILES IDX 10 1 11 2 12 3 13 4 14 5 15 6 16 7 18 8 17 9 19 10 9 11 7 12
REMARK SMILES IDX 6 13 8 14 5 15 4 16 2 17 3 18 1 19
REMARK H PARENT
REMARK Flexibility Score: inf
ROOT
ATOM      1  C   UNL     1      -1.262  48.007  16.761  1.00  0.00     0.032 C 
ENDROOT
BRANCH   1   2
ATOM      2  C   UNL     1      -0.787  47.772  15.348  1.00  0.00    -0.028 C 
ATOM      3  C   UNL     1      -1.580  47.411  14.313  1.00  0.00    -0.077 C 
ATOM      4  C   UNL     1      -3.050  47.122  14.494  1.00  0.00     0.039 C 
BRANCH   3   5
ATOM      5  C   UNL     1      -0.974  47.297  12.932  1.00  0.00     0.034 C 
BRANCH   5   6
ATOM      6  C   UNL     1      -1.962  47.773  11.861  1.00  0.00     0.032 C 
BRANCH   6   7
ATOM      7  C   UNL     1      -2.043  46.779  10.730  1.00  0.00    -0.028 C 
ATOM      8  C   UNL     1      -3.124  45.308   9.083  1.00  0.00     0.039 C 
ATOM      9  C   UNL     1      -3.195  46.262  10.248  1.00  0.00    -0.080 C 
ATOM     10  C   UNL     1      -4.538  46.599  10.853  1.00  0.00     0.039 C 
ENDBRANCH   6   7
ENDBRANCH   5   6
ENDBRANCH   3   5
ENDBRANCH   1   2
BRANCH   1  11
ATOM     11  C   UNL     1      -0.086  48.125  17.740  1.00  0.00     0.034 C 
BRANCH  11  12
ATOM     12  C   UNL     1      -0.444  47.615  19.124  1.00  0.00    -0.077 C 
ATOM     13  C   UNL     1       0.469  47.318  20.078  1.00  0.00    -0.028 C 
ATOM     14  C   UNL     1      -1.904  47.460  19.469  1.00  0.00     0.039 C 
BRANCH  13  15
ATOM     15  C   UNL     1       1.971  47.352  19.910  1.00  0.00     0.035 C 
BRANCH  15  16
ATOM     16  C   UNL     1       2.654  46.359  20.856  1.00  0.00     0.079 C 
BRANCH  16  17
ATOM     17  C   UNL     1       3.255  45.198  20.109  1.00  0.00     0.130 C 
ATOM     18  O   UNL     1       4.154  45.395  19.305  1.00  0.00    -0.300 OA
ATOM     19  C   UNL     1       2.777  43.801  20.364  1.00  0.00     0.087 C 
ENDBRANCH  16  17
ENDBRANCH  15  16
ENDBRANCH  13  15
ENDBRANCH  11  12
ENDBRANCH   1  11
TORSDOF 9
ENDMDL
MODEL 5
REMARK VINA RESULT:    -4.647     16.274     18.414
REMARK INTER + INTRA:          -8.874
REMARK INTER:                  -7.715
REMARK INTRA:                  -1.159
REMARK UNBOUND:                -1.782
REMARK SMILES CC(=O)CCC=C(C)CCC=C(C)CCC=C(C)C
REMARK SMILES IDX 10 1 11 2 12 3 13 4 14 5 15 6 16 7 18 8 17 9 19 10 9 11 7 12
REMARK SMILES IDX 6 13 8 14 5 15 4 16 2 17 3 18 1 19
REMARK H PARENT
REMARK Flexibility Score: inf
ROOT
ATOM      1  C   UNL     1       0.682  47.394  20.669  1.00  0.00     0.032 C 
ENDROOT
BRANCH   1   2
ATOM      2  C   UNL     1      -0.244  47.419  19.478  1.00  0.00    -0.028 C 
ATOM      3  C   UNL     1      -1.576  47.650  19.535  1.00  0.00    -0.077 C 
ATOM      4  C   UNL     1      -2.300  47.834  20.846  1.00  0.00     0.039 C 
BRANCH   3   5
ATOM      5  C   UNL     1      -2.361  47.730  18.244  1.00  0.00     0.034 C 
BRANCH   5   6
ATOM      6  C   UNL     1      -1.478  47.372  17.045  1.00  0.00     0.032 C 
BRANCH   6   7
ATOM      7  C   UNL     1      -2.297  47.300  15.781  1.00  0.00    -0.028 C 
ATOM      8  C   UNL     1      -2.753  47.439  13.369  1.00  0.00     0.039 C 
ATOM      9  C   UNL     1      -1.827  47.596  14.548  1.00  0.00    -0.080 C 
ATOM     10  C   UNL     1      -0.417  48.091  14.327  1.00  0.00     0.039 C 
ENDBRANCH   6   7
ENDBRANCH   5   6
ENDBRANCH   3   5
ENDBRANCH   1   2
BRANCH   1  11
ATOM     11  C   UNL     1       2.049  48.006  20.334  1.00  0.00     0.034 C 
BRANCH  11  12
ATOM     12  C   UNL     1       3.163  47.395  21.164  1.00  0.00    -0.077 C 
ATOM     13  C   UNL     1       3.991  46.422  20.715  1.00  0.00    -0.028 C 
ATOM     14  C   UNL     1       3.384  47.921  22.559  1.00  0.00     0.039 C 
BRANCH  13  15
ATOM     15  C   UNL     1       3.898  45.725  19.377  1.00  0.00     0.035 C 
BRANCH  15  16
ATOM     16  C   UNL     1       3.999  44.205  19.539  1.00  0.00     0.079 C 
BRANCH  16  17
ATOM     17  C   UNL     1       2.985  43.678  20.519  1.00  0.00     0.130 C 
ATOM     18  O   UNL     1       3.355  43.241  21.598  1.00  0.00    -0.300 OA
ATOM     19  C   UNL     1       1.523  43.712  20.192  1.00  0.00     0.087 C 
ENDBRANCH  16  17
ENDBRANCH  15  16
ENDBRANCH  13  15
ENDBRANCH  11  12
ENDBRANCH   1  11
TORSDOF 9
ENDMDL
MODEL 6
REMARK VINA RESULT:    -4.388     17.752     19.490
REMARK INTER + INTRA:          -8.479
REMARK INTER:                  -7.309
REMARK INTRA:                  -1.170
REMARK UNBOUND:                -1.782
REMARK SMILES CC(=O)CCC=C(C)CCC=C(C)CCC=C(C)C
REMARK SMILES IDX 10 1 11 2 12 3 13 4 14 5 15 6 16 7 18 8 17 9 19 10 9 11 7 12
REMARK SMILES IDX 6 13 8 14 5 15 4 16 2 17 3 18 1 19
REMARK H PARENT
REMARK Flexibility Score: inf
ROOT
ATOM      1  C   UNL     1      -2.315  46.559  15.467  1.00  0.00     0.032 C 
ENDROOT
BRANCH   1   2
ATOM      2  C   UNL     1      -3.540  46.794  14.618  1.00  0.00    -0.028 C 
ATOM      3  C   UNL     1      -3.548  47.448  13.433  1.00  0.00    -0.077 C 
ATOM      4  C   UNL     1      -2.308  48.094  12.867  1.00  0.00     0.039 C 
BRANCH   3   5
ATOM      5  C   UNL     1      -4.841  47.530  12.652  1.00  0.00     0.034 C 
BRANCH   5   6
ATOM      6  C   UNL     1      -4.566  47.601  11.146  1.00  0.00     0.032 C 
BRANCH   6   7
ATOM      7  C   UNL     1      -4.288  46.228  10.588  1.00  0.00    -0.028 C 
ATOM      8  C   UNL     1      -3.095  44.509   9.298  1.00  0.00     0.039 C 
ATOM      9  C   UNL     1      -3.275  45.938   9.741  1.00  0.00    -0.080 C 
ATOM     10  C   UNL     1      -2.338  47.003   9.221  1.00  0.00     0.039 C 
ENDBRANCH   6   7
ENDBRANCH   5   6
ENDBRANCH   3   5
ENDBRANCH   1   2
BRANCH   1  11
ATOM     11  C   UNL     1      -2.107  47.691  16.482  1.00  0.00     0.034 C 
BRANCH  11  12
ATOM     12  C   UNL     1      -0.635  47.950  16.751  1.00  0.00    -0.077 C 
ATOM     13  C   UNL     1      -0.108  48.088  17.990  1.00  0.00    -0.028 C 
ATOM     14  C   UNL     1       0.301  48.027  15.571  1.00  0.00     0.039 C 
BRANCH  13  15
ATOM     15  C   UNL     1      -0.882  48.100  19.288  1.00  0.00     0.035 C 
BRANCH  15  16
ATOM     16  C   UNL     1      -0.470  46.930  20.187  1.00  0.00     0.079 C 
BRANCH  16  17
ATOM     17  C   UNL     1       0.995  46.980  20.533  1.00  0.00     0.130 C 
ATOM     18  O   UNL     1       1.398  47.796  21.347  1.00  0.00    -0.300 OA
ATOM     19  C   UNL     1       1.957  46.019  19.903  1.00  0.00     0.087 C 
ENDBRANCH  16  17
ENDBRANCH  15  16
ENDBRANCH  13  15
ENDBRANCH  11  12
ENDBRANCH   1  11
TORSDOF 9
ENDMDL
MODEL 7
REMARK VINA RESULT:    -4.381     17.209     19.082
REMARK INTER + INTRA:          -8.468
REMARK INTER:                  -7.637
REMARK INTRA:                  -0.831
REMARK UNBOUND:                -1.782
REMARK SMILES CC(=O)CCC=C(C)CCC=C(C)CCC=C(C)C
REMARK SMILES IDX 10 1 11 2 12 3 13 4 14 5 15 6 16 7 18 8 17 9 19 10 9 11 7 12
REMARK SMILES IDX 6 13 8 14 5 15 4 16 2 17 3 18 1 19
REMARK H PARENT
REMARK Flexibility Score: inf
ROOT
ATOM      1  C   UNL     1      -0.039  46.731  20.204  1.00  0.00     0.032 C 
ENDROOT
BRANCH   1   2
ATOM      2  C   UNL     1       1.397  46.898  20.639  1.00  0.00    -0.028 C 
ATOM      3  C   UNL     1       2.325  45.913  20.645  1.00  0.00    -0.077 C 
ATOM      4  C   UNL     1       1.983  44.489  20.281  1.00  0.00     0.039 C 
BRANCH   3   5
ATOM      5  C   UNL     1       3.749  46.252  21.026  1.00  0.00     0.034 C 
BRANCH   5   6
ATOM      6  C   UNL     1       3.863  47.714  21.470  1.00  0.00     0.032 C 
BRANCH   6   7
ATOM      7  C   UNL     1       4.158  47.803  22.946  1.00  0.00    -0.028 C 
ATOM      8  C   UNL     1       3.661  47.994  25.346  1.00  0.00     0.039 C 
ATOM      9  C   UNL     1       3.219  47.963  23.905  1.00  0.00    -0.080 C 
ATOM     10  C   UNL     1       1.755  48.125  23.572  1.00  0.00     0.039 C 
ENDBRANCH   6   7
ENDBRANCH   5   6
ENDBRANCH   3   5
ENDBRANCH   1   2
BRANCH   1  11
ATOM     11  C   UNL     1      -0.572  47.997  19.522  1.00  0.00     0.034 C 
BRANCH  11  12
ATOM     12  C   UNL     1      -2.069  47.925  19.281  1.00  0.00    -0.077 C 
ATOM     13  C   UNL     1      -2.627  47.680  18.072  1.00  0.00    -0.028 C 
ATOM     14  C   UNL     1      -2.990  48.105  20.461  1.00  0.00     0.039 C 
BRANCH  13  15
ATOM     15  C   UNL     1      -1.883  47.531  16.765  1.00  0.00     0.035 C 
BRANCH  15  16
ATOM     16  C   UNL     1      -2.616  46.573  15.820  1.00  0.00     0.079 C 
BRANCH  16  17
ATOM     17  C   UNL     1      -2.616  47.079  14.401  1.00  0.00     0.130 C 
ATOM     18  O   UNL     1      -3.670  47.389  13.868  1.00  0.00    -0.300 OA
ATOM     19  C   UNL     1      -1.329  47.228  13.649  1.00  0.00     0.087 C 
ENDBRANCH  16  17
ENDBRANCH  15  16
ENDBRANCH  13  15
ENDBRANCH  11  12
ENDBRANCH   1  11
TORSDOF 9
ENDMDL
MODEL 8
REMARK VINA RESULT:    -4.133     18.009     19.327
REMARK INTER + INTRA:          -8.090
REMARK INTER:                  -7.328
REMARK INTRA:                  -0.763
REMARK UNBOUND:                -1.782
REMARK SMILES CC(=O)CCC=C(C)CCC=C(C)CCC=C(C)C
REMARK SMILES IDX 10 1 11 2 12 3 13 4 14 5 15 6 16 7 18 8 17 9 19 10 9 11 7 12
REMARK SMILES IDX 6 13 8 14 5 15 4 16 2 17 3 18 1 19
REMARK H PARENT
REMARK Flexibility Score: inf
ROOT
ATOM      1  C   UNL     1      -1.901  46.782  16.442  1.00  0.00     0.032 C 
ENDROOT
BRANCH   1   2
ATOM      2  C   UNL     1      -2.789  47.415  15.399  1.00  0.00    -0.028 C 
ATOM      3  C   UNL     1      -2.499  47.496  14.080  1.00  0.00    -0.077 C 
ATOM      4  C   UNL     1      -1.182  47.018  13.519  1.00  0.00     0.039 C 
BRANCH   3   5
ATOM      5  C   UNL     1      -3.528  48.082  13.139  1.00  0.00     0.034 C 
BRANCH   5   6
ATOM      6  C   UNL     1      -4.103  47.003  12.217  1.00  0.00     0.032 C 
BRANCH   6   7
ATOM      7  C   UNL     1      -5.148  47.585  11.298  1.00  0.00    -0.028 C 
ATOM      8  C   UNL     1      -6.400  47.898   9.206  1.00  0.00     0.039 C 
ATOM      9  C   UNL     1      -5.280  47.265   9.991  1.00  0.00    -0.080 C 
ATOM     10  C   UNL     1      -4.333  46.311   9.301  1.00  0.00     0.039 C 
ENDBRANCH   6   7
ENDBRANCH   5   6
ENDBRANCH   3   5
ENDBRANCH   1   2
BRANCH   1  11
ATOM     11  C   UNL     1      -0.996  47.821  17.118  1.00  0.00     0.034 C 
BRANCH  11  12
ATOM     12  C   UNL     1      -1.234  47.893  18.616  1.00  0.00    -0.077 C 
ATOM     13  C   UNL     1      -0.251  47.790  19.541  1.00  0.00    -0.028 C 
ATOM     14  C   UNL     1      -2.642  48.125  19.103  1.00  0.00     0.039 C 
BRANCH  13  15
ATOM     15  C   UNL     1       1.205  47.500  19.260  1.00  0.00     0.035 C 
BRANCH  15  16
ATOM     16  C   UNL     1       1.594  46.102  19.754  1.00  0.00     0.079 C 
BRANCH  16  17
ATOM     17  C   UNL     1       3.054  46.023  20.112  1.00  0.00     0.130 C 
ATOM     18  O   UNL     1       3.781  45.236  19.524  1.00  0.00    -0.300 OA
ATOM     19  C   UNL     1       3.628  46.920  21.166  1.00  0.00     0.087 C 
ENDBRANCH  16  17
ENDBRANCH  15  16
ENDBRANCH  13  15
ENDBRANCH  11  12
ENDBRANCH   1  11
TORSDOF 9
ENDMDL
