MODEL 1
REMARK VINA RESULT:    -4.973      0.000      0.000
REMARK INTER + INTRA:          -6.718
REMARK INTER:                  -7.008
REMARK INTRA:                   0.290
REMARK UNBOUND:                 0.290
REMARK SMILES CC1=CCC(=C(C)C)C(=O)CC(C)=CCC1
REMARK SMILES IDX 12 1 14 2 13 3 15 4 16 5 2 6 1 7 3 8 11 10 9 11 10 12 5 13
REMARK SMILES IDX 6 14 7 15 8 16 4 17
REMARK H PARENT
REMARK Flexibility Score: 60.00
ROOT
ATOM      1  C   UNL     1      17.386 -31.807  21.607  1.00  0.00    -0.070 C 
ATOM      2  C   UNL     1      17.868 -32.219  20.406  1.00  0.00    -0.027 C 
ATOM      3  C   UNL     1      17.113 -30.331  21.772  1.00  0.00     0.039 C 
ENDROOT
BRANCH   2   4
ATOM      4  C   UNL     1      18.305 -33.621  20.055  1.00  0.00     0.032 C 
BRANCH   4   5
ATOM      5  C   UNL     1      17.333 -34.340  19.109  1.00  0.00     0.034 C 
BRANCH   5   6
ATOM      6  C   UNL     1      16.470 -35.314  19.887  1.00  0.00    -0.077 C 
ATOM      7  C   UNL     1      16.982 -36.717  20.092  1.00  0.00     0.039 C 
ATOM      8  C   UNL     1      15.299 -34.969  20.474  1.00  0.00    -0.023 CG0
ATOM      9  G   UNL     1      14.624 -33.622  20.369  1.00  0.00     0.000 G0
ENDBRANCH   5   6
ENDBRANCH   4   5
ENDBRANCH   2   4
BRANCH   1  10
ATOM     10  C   UNL     1      17.031 -32.740  22.761  1.00  0.00     0.111 C 
BRANCH  10  11
ATOM     11  C   UNL     1      15.609 -33.239  22.729  1.00  0.00     0.163 C 
ATOM     12  O   UNL     1      15.232 -33.989  23.671  1.00  0.00    -0.294 OA
BRANCH  11  13
ATOM     13  C   UNL     1      14.630 -32.833  21.667  1.00  0.00    -0.002 C 
ATOM     14  C   UNL     1      13.742 -31.813  21.886  1.00  0.00    -0.069 C 
ATOM     15  C   UNL     1      13.803 -30.960  23.135  1.00  0.00     0.039 C 
ATOM     16  C   UNL     1      12.681 -31.448  20.871  1.00  0.00     0.039 C 
BRANCH  13  17
ATOM     17  C   UNL     1      14.602 -33.615  20.355  1.00  0.00     0.066 CG0
ATOM     18  G   UNL     1      15.274 -34.962  20.479  1.00  0.00     0.000 G0
ENDBRANCH  13  17
ENDBRANCH  11  13
ENDBRANCH  10  11
ENDBRANCH   1  10
TORSDOF 0
ENDMDL
MODEL 2
REMARK VINA RESULT:    -4.578      1.297      4.017
REMARK INTER + INTRA:          -6.161
REMARK INTER:                  -6.334
REMARK INTRA:                   0.174
REMARK UNBOUND:                 0.290
REMARK SMILES CC1=CCC(=C(C)C)C(=O)CC(C)=CCC1
REMARK SMILES IDX 12 1 14 2 13 3 15 4 16 5 2 6 1 7 3 8 11 10 9 11 10 12 5 13
REMARK SMILES IDX 6 14 7 15 8 16 4 17
REMARK H PARENT
REMARK Flexibility Score: 60.00
ROOT
ATOM      1  C   UNL     1      17.606 -31.484  21.958  1.00  0.00    -0.070 C 
ATOM      2  C   UNL     1      17.119 -30.290  21.533  1.00  0.00    -0.027 C 
ATOM      3  C   UNL     1      18.636 -32.160  21.086  1.00  0.00     0.039 C 
ENDROOT
BRANCH   2   4
ATOM      4  C   UNL     1      16.018 -29.492  22.189  1.00  0.00     0.032 C 
BRANCH   4   5
ATOM      5  C   UNL     1      14.644 -29.704  21.538  1.00  0.00     0.034 C 
BRANCH   5   6
ATOM      6  C   UNL     1      13.773 -30.574  22.424  1.00  0.00    -0.077 C 
ATOM      7  C   UNL     1      12.947 -29.904  23.491  1.00  0.00     0.039 C 
ATOM      8  C   UNL     1      13.638 -31.910  22.255  1.00  0.00    -0.023 CG0
ATOM      9  G   UNL     1      14.391 -32.754  21.253  1.00  0.00     0.000 G0
ENDBRANCH   5   6
ENDBRANCH   4   5
ENDBRANCH   2   4
BRANCH   1  10
ATOM     10  C   UNL     1      17.242 -32.141  23.286  1.00  0.00     0.111 C 
BRANCH  10  11
ATOM     11  C   UNL     1      16.098 -33.119  23.193  1.00  0.00     0.163 C 
ATOM     12  O   UNL     1      15.583 -33.521  24.272  1.00  0.00    -0.294 OA
BRANCH  11  13
ATOM     13  C   UNL     1      15.525 -33.574  21.883  1.00  0.00    -0.002 C 
ATOM     14  C   UNL     1      16.043 -34.663  21.233  1.00  0.00    -0.069 C 
ATOM     15  C   UNL     1      17.104 -35.537  21.865  1.00  0.00     0.039 C 
ATOM     16  C   UNL     1      15.548 -35.084  19.866  1.00  0.00     0.039 C 
BRANCH  13  17
ATOM     17  C   UNL     1      14.389 -32.767  21.258  1.00  0.00     0.066 CG0
ATOM     18  G   UNL     1      13.672 -31.908  22.273  1.00  0.00     0.000 G0
ENDBRANCH  13  17
ENDBRANCH  11  13
ENDBRANCH  10  11
ENDBRANCH   1  10
TORSDOF 0
ENDMDL
MODEL 3
REMARK VINA RESULT:    -4.482      2.173      3.942
REMARK INTER + INTRA:          -6.026
REMARK INTER:                  -6.293
REMARK INTRA:                   0.268
REMARK UNBOUND:                 0.290
REMARK SMILES CC1=CCC(=C(C)C)C(=O)CC(C)=CCC1
REMARK SMILES IDX 12 1 14 2 13 3 15 4 16 5 2 6 1 7 3 8 11 10 9 11 10 12 5 13
REMARK SMILES IDX 6 14 7 15 8 16 4 17
REMARK H PARENT
REMARK Flexibility Score: 60.00
ROOT
ATOM      1  C   UNL     1      16.087 -34.879  21.376  1.00  0.00    -0.070 C 
ATOM      2  C   UNL     1      17.307 -35.077  21.938  1.00  0.00    -0.027 C 
ATOM      3  C   UNL     1      15.797 -35.602  20.082  1.00  0.00     0.039 C 
ENDROOT
BRANCH   2   4
ATOM      4  C   UNL     1      17.846 -34.383  23.166  1.00  0.00     0.032 C 
BRANCH   4   5
ATOM      5  C   UNL     1      18.522 -33.040  22.856  1.00  0.00     0.034 C 
BRANCH   5   6
ATOM      6  C   UNL     1      17.903 -31.936  23.691  1.00  0.00    -0.077 C 
ATOM      7  C   UNL     1      18.344 -31.792  25.125  1.00  0.00     0.039 C 
ATOM      8  C   UNL     1      17.034 -31.024  23.195  1.00  0.00    -0.023 CG0
ATOM      9  G   UNL     1      16.469 -31.015  21.794  1.00  0.00     0.000 G0
ENDBRANCH   5   6
ENDBRANCH   4   5
ENDBRANCH   2   4
BRANCH   1  10
ATOM     10  C   UNL     1      14.974 -34.044  22.001  1.00  0.00     0.111 C 
BRANCH  10  11
ATOM     11  C   UNL     1      14.640 -32.791  21.231  1.00  0.00     0.163 C 
ATOM     12  O   UNL     1      14.004 -32.922  20.150  1.00  0.00    -0.294 OA
BRANCH  11  13
ATOM     13  C   UNL     1      14.981 -31.418  21.729  1.00  0.00    -0.002 C 
ATOM     14  C   UNL     1      13.994 -30.535  22.079  1.00  0.00    -0.069 C 
ATOM     15  C   UNL     1      12.538 -30.945  22.123  1.00  0.00     0.039 C 
ATOM     16  C   UNL     1      14.307 -29.113  22.492  1.00  0.00     0.039 C 
BRANCH  13  17
ATOM     17  C   UNL     1      16.450 -31.000  21.785  1.00  0.00     0.066 CG0
ATOM     18  G   UNL     1      17.000 -31.039  23.191  1.00  0.00     0.000 G0
ENDBRANCH  13  17
ENDBRANCH  11  13
ENDBRANCH  10  11
ENDBRANCH   1  10
TORSDOF 0
ENDMDL
MODEL 4
REMARK VINA RESULT:    -4.433      2.291      5.043
REMARK INTER + INTRA:          -5.957
REMARK INTER:                  -6.100
REMARK INTRA:                   0.143
REMARK UNBOUND:                 0.290
REMARK SMILES CC1=CCC(=C(C)C)C(=O)CC(C)=CCC1
REMARK SMILES IDX 12 1 14 2 13 3 15 4 16 5 2 6 1 7 3 8 11 10 9 11 10 12 5 13
REMARK SMILES IDX 6 14 7 15 8 16 4 17
REMARK H PARENT
REMARK Flexibility Score: 60.00
ROOT
ATOM      1  C   UNL     1      15.071 -34.139  20.914  1.00  0.00    -0.070 C 
ATOM      2  C   UNL     1      14.172 -33.247  20.423  1.00  0.00    -0.027 C 
ATOM      3  C   UNL     1      15.429 -35.313  20.035  1.00  0.00     0.039 C 
ENDROOT
BRANCH   2   4
ATOM      4  C   UNL     1      13.595 -32.063  21.162  1.00  0.00     0.032 C 
BRANCH   4   5
ATOM      5  C   UNL     1      14.552 -30.865  21.229  1.00  0.00     0.034 C 
BRANCH   5   6
ATOM      6  C   UNL     1      14.620 -30.326  22.645  1.00  0.00    -0.077 C 
ATOM      7  C   UNL     1      13.342 -29.869  23.298  1.00  0.00     0.039 C 
ATOM      8  C   UNL     1      15.756 -30.308  23.381  1.00  0.00    -0.023 CG0
ATOM      9  G   UNL     1      17.129 -30.711  22.896  1.00  0.00     0.000 G0
ENDBRANCH   5   6
ENDBRANCH   4   5
ENDBRANCH   2   4
BRANCH   1  10
ATOM     10  C   UNL     1      15.793 -33.989  22.249  1.00  0.00     0.111 C 
BRANCH  10  11
ATOM     11  C   UNL     1      17.081 -33.209  22.165  1.00  0.00     0.163 C 
ATOM     12  O   UNL     1      17.825 -33.415  21.168  1.00  0.00    -0.294 OA
BRANCH  11  13
ATOM     13  C   UNL     1      17.468 -32.171  23.177  1.00  0.00    -0.002 C 
ATOM     14  C   UNL     1      18.063 -32.532  24.357  1.00  0.00    -0.069 C 
ATOM     15  C   UNL     1      18.489 -33.958  24.630  1.00  0.00     0.039 C 
ATOM     16  C   UNL     1      18.375 -31.517  25.435  1.00  0.00     0.039 C 
BRANCH  13  17
ATOM     17  C   UNL     1      17.135 -30.707  22.894  1.00  0.00     0.066 CG0
ATOM     18  G   UNL     1      15.760 -30.328  23.391  1.00  0.00     0.000 G0
ENDBRANCH  13  17
ENDBRANCH  11  13
ENDBRANCH  10  11
ENDBRANCH   1  10
TORSDOF 0
ENDMDL
MODEL 5
REMARK VINA RESULT:    -4.408      2.266      4.295
REMARK INTER + INTRA:          -5.921
REMARK INTER:                  -6.037
REMARK INTRA:                   0.116
REMARK UNBOUND:                 0.290
REMARK SMILES CC1=CCC(=C(C)C)C(=O)CC(C)=CCC1
REMARK SMILES IDX 12 1 14 2 13 3 15 4 16 5 2 6 1 7 3 8 11 10 9 11 10 12 5 13
REMARK SMILES IDX 6 14 7 15 8 16 4 17
REMARK H PARENT
REMARK Flexibility Score: 60.00
ROOT
ATOM      1  C   UNL     1      15.407 -31.197  23.166  1.00  0.00    -0.070 C 
ATOM      2  C   UNL     1      15.985 -30.404  22.227  1.00  0.00    -0.027 C 
ATOM      3  C   UNL     1      13.945 -30.962  23.463  1.00  0.00     0.039 C 
ENDROOT
BRANCH   2   4
ATOM      4  C   UNL     1      17.446 -30.393  21.847  1.00  0.00     0.032 C 
BRANCH   4   5
ATOM      5  C   UNL     1      17.803 -31.438  20.780  1.00  0.00     0.034 C 
BRANCH   5   6
ATOM      6  C   UNL     1      19.088 -32.151  21.153  1.00  0.00    -0.077 C 
ATOM      7  C   UNL     1      20.362 -31.348  21.200  1.00  0.00     0.039 C 
ATOM      8  C   UNL     1      19.138 -33.452  21.522  1.00  0.00    -0.023 CG0
ATOM      9  G   UNL     1      17.974 -34.415  21.523  1.00  0.00     0.000 G0
ENDBRANCH   5   6
ENDBRANCH   4   5
ENDBRANCH   2   4
BRANCH   1  10
ATOM     10  C   UNL     1      16.111 -32.349  23.875  1.00  0.00     0.111 C 
BRANCH  10  11
ATOM     11  C   UNL     1      16.064 -33.654  23.120  1.00  0.00     0.163 C 
ATOM     12  O   UNL     1      14.958 -33.999  22.620  1.00  0.00    -0.294 OA
BRANCH  11  13
ATOM     13  C   UNL     1      17.277 -34.507  22.897  1.00  0.00    -0.002 C 
ATOM     14  C   UNL     1      17.778 -35.288  23.904  1.00  0.00    -0.069 C 
ATOM     15  C   UNL     1      17.057 -35.443  25.225  1.00  0.00     0.039 C 
ATOM     16  C   UNL     1      19.056 -36.082  23.736  1.00  0.00     0.039 C 
BRANCH  13  17
ATOM     17  C   UNL     1      17.981 -34.445  21.542  1.00  0.00     0.066 CG0
ATOM     18  G   UNL     1      19.117 -33.450  21.533  1.00  0.00     0.000 G0
ENDBRANCH  13  17
ENDBRANCH  11  13
ENDBRANCH  10  11
ENDBRANCH   1  10
TORSDOF 0
ENDMDL
MODEL 6
REMARK VINA RESULT:    -4.394      1.988      4.457
REMARK INTER + INTRA:          -5.902
REMARK INTER:                  -6.231
REMARK INTRA:                   0.329
REMARK UNBOUND:                 0.290
REMARK SMILES CC1=CCC(=C(C)C)C(=O)CC(C)=CCC1
REMARK SMILES IDX 12 1 14 2 13 3 15 4 16 5 2 6 1 7 3 8 11 10 9 11 10 12 5 13
REMARK SMILES IDX 6 14 7 15 8 16 4 17
REMARK H PARENT
REMARK Flexibility Score: 60.00
ROOT
ATOM      1  C   UNL     1      17.643 -32.101  20.972  1.00  0.00    -0.070 C 
ATOM      2  C   UNL     1      17.288 -30.948  21.596  1.00  0.00    -0.027 C 
ATOM      3  C   UNL     1      19.108 -32.469  20.984  1.00  0.00     0.039 C 
ENDROOT
BRANCH   2   4
ATOM      4  C   UNL     1      15.907 -30.337  21.622  1.00  0.00     0.032 C 
BRANCH   4   5
ATOM      5  C   UNL     1      15.265 -30.347  23.016  1.00  0.00     0.034 C 
BRANCH   5   6
ATOM      6  C   UNL     1      14.207 -31.430  23.098  1.00  0.00    -0.077 C 
ATOM      7  C   UNL     1      12.793 -31.077  22.718  1.00  0.00     0.039 C 
ATOM      8  C   UNL     1      14.481 -32.717  23.420  1.00  0.00    -0.023 CG0
ATOM      9  G   UNL     1      15.829 -33.253  23.841  1.00  0.00     0.000 G0
ENDBRANCH   5   6
ENDBRANCH   4   5
ENDBRANCH   2   4
BRANCH   1  10
ATOM     10  C   UNL     1      16.658 -33.078  20.338  1.00  0.00     0.111 C 
BRANCH  10  11
ATOM     11  C   UNL     1      15.970 -33.983  21.328  1.00  0.00     0.163 C 
ATOM     12  O   UNL     1      14.987 -34.659  20.917  1.00  0.00    -0.294 OA
BRANCH  11  13
ATOM     13  C   UNL     1      16.445 -34.149  22.742  1.00  0.00    -0.002 C 
ATOM     14  C   UNL     1      17.373 -35.105  23.061  1.00  0.00    -0.069 C 
ATOM     15  C   UNL     1      18.066 -35.929  21.997  1.00  0.00     0.039 C 
ATOM     16  C   UNL     1      17.796 -35.358  24.492  1.00  0.00     0.039 C 
BRANCH  13  17
ATOM     17  C   UNL     1      15.833 -33.270  23.831  1.00  0.00     0.066 CG0
ATOM     18  G   UNL     1      14.494 -32.704  23.421  1.00  0.00     0.000 G0
ENDBRANCH  13  17
ENDBRANCH  11  13
ENDBRANCH  10  11
ENDBRANCH   1  10
TORSDOF 0
ENDMDL
MODEL 7
REMARK VINA RESULT:    -4.363      2.431      4.083
REMARK INTER + INTRA:          -5.858
REMARK INTER:                  -6.063
REMARK INTRA:                   0.205
REMARK UNBOUND:                 0.290
REMARK SMILES CC1=CCC(=C(C)C)C(=O)CC(C)=CCC1
REMARK SMILES IDX 12 1 14 2 13 3 15 4 16 5 2 6 1 7 3 8 11 10 9 11 10 12 5 13
REMARK SMILES IDX 6 14 7 15 8 16 4 17
REMARK H PARENT
REMARK Flexibility Score: 60.00
ROOT
ATOM      1  C   UNL     1      14.585 -32.707  22.737  1.00  0.00    -0.070 C 
ATOM      2  C   UNL     1      14.395 -32.783  21.395  1.00  0.00    -0.027 C 
ATOM      3  C   UNL     1      14.083 -31.466  23.436  1.00  0.00     0.039 C 
ENDROOT
BRANCH   2   4
ATOM      4  C   UNL     1      14.902 -33.876  20.484  1.00  0.00     0.032 C 
BRANCH   4   5
ATOM      5  C   UNL     1      16.428 -33.868  20.318  1.00  0.00     0.034 C 
BRANCH   5   6
ATOM      6  C   UNL     1      16.971 -35.282  20.400  1.00  0.00    -0.077 C 
ATOM      7  C   UNL     1      16.500 -36.288  19.381  1.00  0.00     0.039 C 
ATOM      8  C   UNL     1      17.915 -35.667  21.290  1.00  0.00    -0.023 CG0
ATOM      9  G   UNL     1      18.494 -34.808  22.389  1.00  0.00     0.000 G0
ENDBRANCH   5   6
ENDBRANCH   4   5
ENDBRANCH   2   4
BRANCH   1  10
ATOM     10  C   UNL     1      15.194 -33.818  23.587  1.00  0.00     0.111 C 
BRANCH  10  11
ATOM     11  C   UNL     1      16.674 -33.662  23.830  1.00  0.00     0.163 C 
ATOM     12  O   UNL     1      17.084 -32.543  24.243  1.00  0.00    -0.294 OA
BRANCH  11  13
ATOM     13  C   UNL     1      17.647 -34.790  23.657  1.00  0.00    -0.002 C 
ATOM     14  C   UNL     1      17.794 -35.743  24.629  1.00  0.00    -0.069 C 
ATOM     15  C   UNL     1      16.890 -35.790  25.842  1.00  0.00     0.039 C 
ATOM     16  C   UNL     1      18.836 -36.836  24.523  1.00  0.00     0.039 C 
BRANCH  13  17
ATOM     17  C   UNL     1      18.515 -34.826  22.399  1.00  0.00     0.066 CG0
ATOM     18  G   UNL     1      17.895 -35.660  21.303  1.00  0.00     0.000 G0
ENDBRANCH  13  17
ENDBRANCH  11  13
ENDBRANCH  10  11
ENDBRANCH   1  10
TORSDOF 0
ENDMDL
MODEL 8
REMARK VINA RESULT:    -4.360      2.217      3.821
REMARK INTER + INTRA:          -5.853
REMARK INTER:                  -6.368
REMARK INTRA:                   0.515
REMARK UNBOUND:                 0.290
REMARK SMILES CC1=CCC(=C(C)C)C(=O)CC(C)=CCC1
REMARK SMILES IDX 12 1 14 2 13 3 15 4 16 5 2 6 1 7 3 8 11 10 9 11 10 12 5 13
REMARK SMILES IDX 6 14 7 15 8 16 4 17
REMARK H PARENT
REMARK Flexibility Score: 60.00
ROOT
ATOM      1  C   UNL     1      16.863 -35.231  20.692  1.00  0.00    -0.070 C 
ATOM      2  C   UNL     1      17.570 -35.931  21.616  1.00  0.00    -0.027 C 
ATOM      3  C   UNL     1      16.296 -36.005  19.525  1.00  0.00     0.039 C 
ENDROOT
BRANCH   2   4
ATOM      4  C   UNL     1      18.307 -35.352  22.800  1.00  0.00     0.032 C 
BRANCH   4   5
ATOM      5  C   UNL     1      17.472 -35.343  24.088  1.00  0.00     0.034 C 
BRANCH   5   6
ATOM      6  C   UNL     1      17.275 -33.921  24.576  1.00  0.00    -0.077 C 
ATOM      7  C   UNL     1      18.420 -33.244  25.286  1.00  0.00     0.039 C 
ATOM      8  C   UNL     1      16.155 -33.200  24.338  1.00  0.00    -0.023 CG0
ATOM      9  G   UNL     1      14.906 -33.709  23.658  1.00  0.00     0.000 G0
ENDBRANCH   5   6
ENDBRANCH   4   5
ENDBRANCH   2   4
BRANCH   1  10
ATOM     10  C   UNL     1      16.539 -33.744  20.797  1.00  0.00     0.111 C 
BRANCH  10  11
ATOM     11  C   UNL     1      15.084 -33.452  21.063  1.00  0.00     0.163 C 
ATOM     12  O   UNL     1      14.256 -33.727  20.152  1.00  0.00    -0.294 OA
BRANCH  11  13
ATOM     13  C   UNL     1      14.591 -32.910  22.373  1.00  0.00    -0.002 C 
ATOM     14  C   UNL     1      13.931 -31.712  22.432  1.00  0.00    -0.069 C 
ATOM     15  C   UNL     1      13.540 -30.956  21.180  1.00  0.00     0.039 C 
ATOM     16  C   UNL     1      13.511 -31.097  23.749  1.00  0.00     0.039 C 
BRANCH  13  17
ATOM     17  C   UNL     1      14.889 -33.693  23.651  1.00  0.00     0.066 CG0
ATOM     18  G   UNL     1      16.155 -33.222  24.327  1.00  0.00     0.000 G0
ENDBRANCH  13  17
ENDBRANCH  11  13
ENDBRANCH  10  11
ENDBRANCH   1  10
TORSDOF 0
ENDMDL
MODEL 9
REMARK VINA RESULT:    -4.272      2.398      4.837
REMARK INTER + INTRA:          -5.730
REMARK INTER:                  -6.043
REMARK INTRA:                   0.314
REMARK UNBOUND:                 0.290
REMARK SMILES CC1=CCC(=C(C)C)C(=O)CC(C)=CCC1
REMARK SMILES IDX 12 1 14 2 13 3 15 4 16 5 2 6 1 7 3 8 11 10 9 11 10 12 5 13
REMARK SMILES IDX 6 14 7 15 8 16 4 17
REMARK H PARENT
REMARK Flexibility Score: 60.00
ROOT
ATOM      1  C   UNL     1      14.508 -32.720  21.867  1.00  0.00    -0.070 C 
ATOM      2  C   UNL     1      14.664 -32.399  23.177  1.00  0.00    -0.027 C 
ATOM      3  C   UNL     1      13.878 -31.679  20.972  1.00  0.00     0.039 C 
ENDROOT
BRANCH   2   4
ATOM      4  C   UNL     1      15.172 -33.315  24.264  1.00  0.00     0.032 C 
BRANCH   4   5
ATOM      5  C   UNL     1      16.704 -33.395  24.323  1.00  0.00     0.034 C 
BRANCH   5   6
ATOM      6  C   UNL     1      17.146 -34.826  24.561  1.00  0.00    -0.077 C 
ATOM      7  C   UNL     1      16.708 -35.507  25.832  1.00  0.00     0.039 C 
ATOM      8  C   UNL     1      17.846 -35.550  23.656  1.00  0.00    -0.023 CG0
ATOM      9  G   UNL     1      18.381 -35.038  22.340  1.00  0.00     0.000 G0
ENDBRANCH   5   6
ENDBRANCH   4   5
ENDBRANCH   2   4
BRANCH   1  10
ATOM     10  C   UNL     1      14.997 -34.018  21.232  1.00  0.00     0.111 C 
BRANCH  10  11
ATOM     11  C   UNL     1      16.468 -34.023  20.904  1.00  0.00     0.163 C 
ATOM     12  O   UNL     1      16.957 -32.977  20.395  1.00  0.00    -0.294 OA
BRANCH  11  13
ATOM     13  C   UNL     1      17.364 -35.187  21.211  1.00  0.00    -0.002 C 
ATOM     14  C   UNL     1      17.236 -36.368  20.530  1.00  0.00    -0.069 C 
ATOM     15  C   UNL     1      16.300 -36.508  19.349  1.00  0.00     0.039 C 
ATOM     16  C   UNL     1      18.060 -37.587  20.886  1.00  0.00     0.039 C 
BRANCH  13  17
ATOM     17  C   UNL     1      18.385 -35.050  22.339  1.00  0.00     0.066 CG0
ATOM     18  G   UNL     1      17.851 -35.559  23.657  1.00  0.00     0.000 G0
ENDBRANCH  13  17
ENDBRANCH  11  13
ENDBRANCH  10  11
ENDBRANCH   1  10
TORSDOF 0
ENDMDL
