MODEL 1
REMARK VINA RESULT:    -4.994      0.000      0.000
REMARK INTER + INTRA:          -9.103
REMARK INTER:                  -7.767
REMARK INTRA:                  -1.335
REMARK UNBOUND:                -1.335
REMARK SMILES C[C@@]12C[C@@]3(O)O[C@@H](O1)[C@]1(COC(=O)c4ccccc4)[C@H]3C[C@@]12O[C@H]1O[C@H](CO)[C@H](O)[C@@H](O)[C@@H]1O
REMARK SMILES IDX 1 1 2 2 3 3 4 4 20 5 21 6 22 7 9 8 7 9 8 10 6 11 23 12 24 13
REMARK SMILES IDX 33 14 25 15 31 16 26 17 29 18 34 19 32 21 27 23 28 24 30 26
REMARK SMILES IDX 5 28 10 30 11 31 12 32 13 33 14 34 15 35 19 36 16 37 18 38
REMARK SMILES IDX 17 39
REMARK H PARENT 34 20 32 22 28 25 30 27 5 29
REMARK Flexibility Score: inf
ROOT
ATOM      1  C   UNL     1      42.044  14.097  -3.379  1.00  0.00     0.046 C 
ATOM      2  C   UNL     1      43.495  14.190  -3.843  1.00  0.00     0.104 C 
ATOM      3  C   UNL     1      44.375  13.023  -3.259  1.00  0.00     0.104 C 
ATOM      4  C   UNL     1      45.817  13.361  -3.769  1.00  0.00     0.175 C 
ATOM      5  C   UNL     1      46.169  14.858  -3.467  1.00  0.00     0.070 C 
ATOM      6  C   UNL     1      45.252  15.497  -2.412  1.00  0.00     0.050 C 
ATOM      7  C   UNL     1      44.179  15.567  -3.526  1.00  0.00     0.115 C 
ATOM      8  C   UNL     1      45.308  15.494  -4.551  1.00  0.00     0.096 C 
ATOM      9  C   UNL     1      44.937  14.390  -5.527  1.00  0.00     0.267 C 
ATOM     10  O   UNL     1      43.582  14.072  -5.251  1.00  0.00    -0.342 OA
ATOM     11  O   UNL     1      45.754  13.282  -5.182  1.00  0.00    -0.320 OA
ENDROOT
BRANCH   7  12
ATOM     12  O   UNL     1      43.368  16.721  -3.694  1.00  0.00    -0.339 OA
BRANCH  12  13
ATOM     13  C   UNL     1      43.311  17.531  -2.528  1.00  0.00     0.282 C 
ATOM     14  C   UNL     1      41.935  17.379  -1.833  1.00  0.00     0.202 C 
ATOM     15  O   UNL     1      43.572  18.890  -2.850  1.00  0.00    -0.341 OA
ATOM     16  C   UNL     1      40.790  18.073  -2.607  1.00  0.00     0.179 C 
ATOM     17  C   UNL     1      42.620  19.395  -3.776  1.00  0.00     0.178 C 
ATOM     18  C   UNL     1      41.209  19.461  -3.147  1.00  0.00     0.177 C 
BRANCH  14  19
ATOM     19  O   UNL     1      41.988  17.845  -0.504  1.00  0.00    -0.385 OA
ATOM     20  H   UNL     1      42.647  18.585  -0.459  1.00  0.00     0.211 HD
ENDBRANCH  14  19
BRANCH  16  21
ATOM     21  O   UNL     1      40.303  17.232  -3.626  1.00  0.00    -0.387 OA
ATOM     22  H   UNL     1      40.836  17.396  -4.444  1.00  0.00     0.211 HD
ENDBRANCH  16  21
BRANCH  17  23
ATOM     23  C   UNL     1      43.090  20.760  -4.305  1.00  0.00     0.191 C 
BRANCH  23  24
ATOM     24  O   UNL     1      42.010  21.569  -4.691  1.00  0.00    -0.394 OA
ATOM     25  H   UNL     1      42.066  22.405  -4.156  1.00  0.00     0.210 HD
ENDBRANCH  23  24
ENDBRANCH  17  23
BRANCH  18  26
ATOM     26  O   UNL     1      41.192  20.395  -2.093  1.00  0.00    -0.387 OA
ATOM     27  H   UNL     1      42.079  20.838  -2.074  1.00  0.00     0.211 HD
ENDBRANCH  18  26
ENDBRANCH  12  13
ENDBRANCH   7  12
BRANCH   4  28
ATOM     28  O   UNL     1      46.769  12.475  -3.243  1.00  0.00    -0.365 OA
ATOM     29  H   UNL     1      46.268  11.716  -2.845  1.00  0.00     0.214 HD
ENDBRANCH   4  28
BRANCH   8  30
ATOM     30  C   UNL     1      45.837  16.825  -5.127  1.00  0.00     0.249 C 
BRANCH  30  31
ATOM     31  O   UNL     1      46.822  16.573  -6.125  1.00  0.00    -0.461 OA
BRANCH  31  32
ATOM     32  C   UNL     1      48.192  16.788  -5.951  1.00  0.00     0.338 C 
ATOM     33  O   UNL     1      48.674  17.947  -6.071  1.00  0.00    -0.246 OA
BRANCH  32  34
ATOM     34  C   UNL     1      49.068  15.647  -5.609  1.00  0.00     0.060 A 
ATOM     35  C   UNL     1      48.760  14.356  -6.080  1.00  0.00     0.015 A 
ATOM     36  C   UNL     1      50.215  15.827  -4.811  1.00  0.00     0.015 A 
ATOM     37  C   UNL     1      49.579  13.269  -5.759  1.00  0.00     0.001 A 
ATOM     38  C   UNL     1      51.033  14.738  -4.494  1.00  0.00     0.001 A 
ATOM     39  C   UNL     1      50.715  13.461  -4.968  1.00  0.00     0.000 A 
ENDBRANCH  32  34
ENDBRANCH  31  32
ENDBRANCH  30  31
ENDBRANCH   8  30
TORSDOF 12
ENDMDL
MODEL 2
REMARK VINA RESULT:    -4.835      1.648      2.155
REMARK INTER + INTRA:          -8.855
REMARK INTER:                  -7.697
REMARK INTRA:                  -1.158
REMARK UNBOUND:                -1.335
REMARK SMILES C[C@@]12C[C@@]3(O)O[C@@H](O1)[C@]1(COC(=O)c4ccccc4)[C@H]3C[C@@]12O[C@H]1O[C@H](CO)[C@H](O)[C@@H](O)[C@@H]1O
REMARK SMILES IDX 1 1 2 2 3 3 4 4 20 5 21 6 22 7 9 8 7 9 8 10 6 11 23 12 24 13
REMARK SMILES IDX 33 14 25 15 31 16 26 17 29 18 34 19 32 21 27 23 28 24 30 26
REMARK SMILES IDX 5 28 10 30 11 31 12 32 13 33 14 34 15 35 19 36 16 37 18 38
REMARK SMILES IDX 17 39
REMARK H PARENT 34 20 32 22 28 25 30 27 5 29
REMARK Flexibility Score: inf
ROOT
ATOM      1  C   UNL     1      43.830  12.500  -3.242  1.00  0.00     0.046 C 
ATOM      2  C   UNL     1      45.288  12.897  -3.463  1.00  0.00     0.104 C 
ATOM      3  C   UNL     1      46.270  12.050  -2.571  1.00  0.00     0.104 C 
ATOM      4  C   UNL     1      47.673  12.677  -2.874  1.00  0.00     0.175 C 
ATOM      5  C   UNL     1      47.617  14.238  -2.745  1.00  0.00     0.070 C 
ATOM      6  C   UNL     1      46.389  14.740  -1.967  1.00  0.00     0.050 C 
ATOM      7  C   UNL     1      45.572  14.425  -3.245  1.00  0.00     0.115 C 
ATOM      8  C   UNL     1      46.871  14.525  -4.041  1.00  0.00     0.096 C 
ATOM      9  C   UNL     1      46.956  13.267  -4.890  1.00  0.00     0.267 C 
ATOM     10  O   UNL     1      45.679  12.656  -4.803  1.00  0.00    -0.342 OA
ATOM     11  O   UNL     1      47.912  12.436  -4.249  1.00  0.00    -0.320 OA
ENDROOT
BRANCH   7  12
ATOM     12  O   UNL     1      44.576  15.320  -3.718  1.00  0.00    -0.339 OA
BRANCH  12  13
ATOM     13  C   UNL     1      43.988  16.092  -2.681  1.00  0.00     0.282 C 
ATOM     14  C   UNL     1      42.485  15.746  -2.537  1.00  0.00     0.202 C 
ATOM     15  O   UNL     1      44.170  17.480  -2.926  1.00  0.00    -0.341 OA
ATOM     16  C   UNL     1      41.626  16.296  -3.698  1.00  0.00     0.179 C 
ATOM     17  C   UNL     1      43.568  17.872  -4.152  1.00  0.00     0.178 C 
ATOM     18  C   UNL     1      42.029  17.738  -4.088  1.00  0.00     0.177 C 
BRANCH  14  19
ATOM     19  O   UNL     1      41.983  16.187  -1.296  1.00  0.00    -0.385 OA
ATOM     20  H   UNL     1      42.717  16.639  -0.806  1.00  0.00     0.211 HD
ENDBRANCH  14  19
BRANCH  16  21
ATOM     21  O   UNL     1      41.663  15.419  -4.799  1.00  0.00    -0.387 OA
ATOM     22  H   UNL     1      40.742  15.320  -5.147  1.00  0.00     0.211 HD
ENDBRANCH  16  21
BRANCH  17  23
ATOM     23  C   UNL     1      44.017  19.299  -4.512  1.00  0.00     0.191 C 
BRANCH  23  24
ATOM     24  O   UNL     1      43.675  20.220  -3.511  1.00  0.00    -0.394 OA
ATOM     25  H   UNL     1      44.380  20.168  -2.813  1.00  0.00     0.210 HD
ENDBRANCH  23  24
ENDBRANCH  17  23
BRANCH  18  26
ATOM     26  O   UNL     1      41.503  18.640  -3.144  1.00  0.00    -0.387 OA
ATOM     27  H   UNL     1      41.901  18.415  -2.263  1.00  0.00     0.211 HD
ENDBRANCH  18  26
ENDBRANCH  12  13
ENDBRANCH   7  12
BRANCH   4  28
ATOM     28  O   UNL     1      48.673  12.112  -2.068  1.00  0.00    -0.365 OA
ATOM     29  H   UNL     1      49.544  12.355  -2.476  1.00  0.00     0.214 HD
ENDBRANCH   4  28
BRANCH   8  30
ATOM     30  C   UNL     1      47.196  15.877  -4.712  1.00  0.00     0.249 C 
BRANCH  30  31
ATOM     31  O   UNL     1      48.124  15.688  -5.777  1.00  0.00    -0.461 OA
BRANCH  31  32
ATOM     32  C   UNL     1      49.377  16.303  -5.847  1.00  0.00     0.338 C 
ATOM     33  O   UNL     1      49.467  17.560  -5.866  1.00  0.00    -0.246 OA
BRANCH  32  34
ATOM     34  C   UNL     1      50.595  15.466  -5.882  1.00  0.00     0.060 A 
ATOM     35  C   UNL     1      51.864  16.070  -5.976  1.00  0.00     0.015 A 
ATOM     36  C   UNL     1      50.510  14.060  -5.824  1.00  0.00     0.015 A 
ATOM     37  C   UNL     1      53.022  15.288  -6.014  1.00  0.00     0.001 A 
ATOM     38  C   UNL     1      51.671  13.281  -5.860  1.00  0.00     0.001 A 
ATOM     39  C   UNL     1      52.925  13.895  -5.955  1.00  0.00     0.000 A 
ENDBRANCH  32  34
ENDBRANCH  31  32
ENDBRANCH  30  31
ENDBRANCH   8  30
TORSDOF 12
ENDMDL
MODEL 3
REMARK VINA RESULT:    -4.605      1.943      7.234
REMARK INTER + INTRA:          -8.497
REMARK INTER:                  -7.534
REMARK INTRA:                  -0.963
REMARK UNBOUND:                -1.335
REMARK SMILES C[C@@]12C[C@@]3(O)O[C@@H](O1)[C@]1(COC(=O)c4ccccc4)[C@H]3C[C@@]12O[C@H]1O[C@H](CO)[C@H](O)[C@@H](O)[C@@H]1O
REMARK SMILES IDX 1 1 2 2 3 3 4 4 20 5 21 6 22 7 9 8 7 9 8 10 6 11 23 12 24 13
REMARK SMILES IDX 33 14 25 15 31 16 26 17 29 18 34 19 32 21 27 23 28 24 30 26
REMARK SMILES IDX 5 28 10 30 11 31 12 32 13 33 14 34 15 35 19 36 16 37 18 38
REMARK SMILES IDX 17 39
REMARK H PARENT 34 20 32 22 28 25 30 27 5 29
REMARK Flexibility Score: inf
ROOT
ATOM      1  C   UNL     1      44.572  11.600  -3.940  1.00  0.00     0.046 C 
ATOM      2  C   UNL     1      44.027  13.021  -4.076  1.00  0.00     0.104 C 
ATOM      3  C   UNL     1      42.726  13.069  -4.960  1.00  0.00     0.104 C 
ATOM      4  C   UNL     1      42.400  14.599  -5.048  1.00  0.00     0.175 C 
ATOM      5  C   UNL     1      43.679  15.409  -5.457  1.00  0.00     0.070 C 
ATOM      6  C   UNL     1      44.782  14.533  -6.072  1.00  0.00     0.050 C 
ATOM      7  C   UNL     1      45.072  14.054  -4.628  1.00  0.00     0.115 C 
ATOM      8  C   UNL     1      44.407  15.332  -4.122  1.00  0.00     0.096 C 
ATOM      9  C   UNL     1      43.384  14.906  -3.082  1.00  0.00     0.267 C 
ATOM     10  O   UNL     1      43.656  13.540  -2.812  1.00  0.00    -0.342 OA
ATOM     11  O   UNL     1      42.121  15.010  -3.722  1.00  0.00    -0.320 OA
ENDROOT
BRANCH   7  12
ATOM     12  O   UNL     1      46.403  13.911  -4.155  1.00  0.00    -0.339 OA
BRANCH  12  13
ATOM     13  C   UNL     1      47.312  13.512  -5.172  1.00  0.00     0.282 C 
ATOM     14  C   UNL     1      48.096  12.253  -4.730  1.00  0.00     0.202 C 
ATOM     15  O   UNL     1      48.197  14.576  -5.496  1.00  0.00    -0.341 OA
ATOM     16  C   UNL     1      49.148  12.550  -3.636  1.00  0.00     0.179 C 
ATOM     17  C   UNL     1      48.959  14.978  -4.365  1.00  0.00     0.178 C 
ATOM     18  C   UNL     1      49.926  13.857  -3.916  1.00  0.00     0.177 C 
BRANCH  14  19
ATOM     19  O   UNL     1      48.698  11.620  -5.837  1.00  0.00    -0.385 OA
ATOM     20  H   UNL     1      49.547  12.090  -6.040  1.00  0.00     0.211 HD
ENDBRANCH  14  19
BRANCH  16  21
ATOM     21  O   UNL     1      48.549  12.552  -2.362  1.00  0.00    -0.387 OA
ATOM     22  H   UNL     1      48.452  13.492  -2.067  1.00  0.00     0.211 HD
ENDBRANCH  16  21
BRANCH  17  23
ATOM     23  C   UNL     1      49.693  16.292  -4.680  1.00  0.00     0.191 C 
BRANCH  23  24
ATOM     24  O   UNL     1      48.796  17.336  -4.956  1.00  0.00    -0.394 OA
ATOM     25  H   UNL     1      47.973  16.921  -5.329  1.00  0.00     0.210 HD
ENDBRANCH  23  24
ENDBRANCH  17  23
BRANCH  18  26
ATOM     26  O   UNL     1      50.890  13.621  -4.915  1.00  0.00    -0.387 OA
ATOM     27  H   UNL     1      51.119  12.656  -4.885  1.00  0.00     0.211 HD
ENDBRANCH  18  26
ENDBRANCH  12  13
ENDBRANCH   7  12
BRANCH   4  28
ATOM     28  O   UNL     1      41.318  14.845  -5.905  1.00  0.00    -0.365 OA
ATOM     29  H   UNL     1      41.157  15.824  -5.894  1.00  0.00     0.214 HD
ENDBRANCH   4  28
BRANCH   8  30
ATOM     30  C   UNL     1      45.322  16.530  -3.793  1.00  0.00     0.249 C 
BRANCH  30  31
ATOM     31  O   UNL     1      44.642  17.450  -2.943  1.00  0.00    -0.461 OA
BRANCH  31  32
ATOM     32  C   UNL     1      43.857  18.512  -3.402  1.00  0.00     0.338 C 
ATOM     33  O   UNL     1      44.007  18.954  -4.572  1.00  0.00    -0.246 OA
BRANCH  32  34
ATOM     34  C   UNL     1      42.838  19.100  -2.506  1.00  0.00     0.060 A 
ATOM     35  C   UNL     1      41.542  18.549  -2.454  1.00  0.00     0.015 A 
ATOM     36  C   UNL     1      43.140  20.212  -1.696  1.00  0.00     0.015 A 
ATOM     37  C   UNL     1      40.570  19.099  -1.614  1.00  0.00     0.001 A 
ATOM     38  C   UNL     1      42.166  20.759  -0.855  1.00  0.00     0.001 A 
ATOM     39  C   UNL     1      40.882  20.203  -0.814  1.00  0.00     0.000 A 
ENDBRANCH  32  34
ENDBRANCH  31  32
ENDBRANCH  30  31
ENDBRANCH   8  30
TORSDOF 12
ENDMDL
MODEL 4
REMARK VINA RESULT:    -4.444      2.049      7.435
REMARK INTER + INTRA:          -8.247
REMARK INTER:                  -7.230
REMARK INTRA:                  -1.017
REMARK UNBOUND:                -1.335
REMARK SMILES C[C@@]12C[C@@]3(O)O[C@@H](O1)[C@]1(COC(=O)c4ccccc4)[C@H]3C[C@@]12O[C@H]1O[C@H](CO)[C@H](O)[C@@H](O)[C@@H]1O
REMARK SMILES IDX 1 1 2 2 3 3 4 4 20 5 21 6 22 7 9 8 7 9 8 10 6 11 23 12 24 13
REMARK SMILES IDX 33 14 25 15 31 16 26 17 29 18 34 19 32 21 27 23 28 24 30 26
REMARK SMILES IDX 5 28 10 30 11 31 12 32 13 33 14 34 15 35 19 36 16 37 18 38
REMARK SMILES IDX 17 39
REMARK H PARENT 34 20 32 22 28 25 30 27 5 29
REMARK Flexibility Score: inf
ROOT
ATOM      1  C   UNL     1      46.018  12.393  -2.579  1.00  0.00     0.046 C 
ATOM      2  C   UNL     1      45.200  13.528  -3.193  1.00  0.00     0.104 C 
ATOM      3  C   UNL     1      43.744  13.065  -3.570  1.00  0.00     0.104 C 
ATOM      4  C   UNL     1      43.125  14.329  -4.260  1.00  0.00     0.175 C 
ATOM      5  C   UNL     1      44.099  14.887  -5.355  1.00  0.00     0.070 C 
ATOM      6  C   UNL     1      45.174  13.876  -5.785  1.00  0.00     0.050 C 
ATOM      7  C   UNL     1      45.875  14.196  -4.442  1.00  0.00     0.115 C 
ATOM      8  C   UNL     1      45.118  15.522  -4.419  1.00  0.00     0.096 C 
ATOM      9  C   UNL     1      44.463  15.623  -3.051  1.00  0.00     0.267 C 
ATOM     10  O   UNL     1      45.041  14.590  -2.270  1.00  0.00    -0.342 OA
ATOM     11  O   UNL     1      43.090  15.333  -3.262  1.00  0.00    -0.320 OA
ENDROOT
BRANCH   7  12
ATOM     12  O   UNL     1      47.282  14.374  -4.372  1.00  0.00    -0.339 OA
BRANCH  12  13
ATOM     13  C   UNL     1      47.972  13.756  -5.450  1.00  0.00     0.282 C 
ATOM     14  C   UNL     1      48.552  12.391  -5.008  1.00  0.00     0.202 C 
ATOM     15  O   UNL     1      48.997  14.610  -5.942  1.00  0.00    -0.341 OA
ATOM     16  C   UNL     1      49.763  12.530  -4.057  1.00  0.00     0.179 C 
ATOM     17  C   UNL     1      49.950  14.909  -4.932  1.00  0.00     0.178 C 
ATOM     18  C   UNL     1      50.735  13.645  -4.511  1.00  0.00     0.177 C 
BRANCH  14  19
ATOM     19  O   UNL     1      48.887  11.600  -6.125  1.00  0.00    -0.385 OA
ATOM     20  H   UNL     1      49.862  11.423  -6.100  1.00  0.00     0.211 HD
ENDBRANCH  14  19
BRANCH  16  21
ATOM     21  O   UNL     1      49.332  12.711  -2.729  1.00  0.00    -0.387 OA
ATOM     22  H   UNL     1      50.116  12.616  -2.133  1.00  0.00     0.211 HD
ENDBRANCH  16  21
BRANCH  17  23
ATOM     23  C   UNL     1      50.875  16.038  -5.416  1.00  0.00     0.191 C 
BRANCH  23  24
ATOM     24  O   UNL     1      52.184  15.882  -4.934  1.00  0.00    -0.394 OA
ATOM     25  H   UNL     1      52.790  15.911  -5.722  1.00  0.00     0.210 HD
ENDBRANCH  23  24
ENDBRANCH  17  23
BRANCH  18  26
ATOM     26  O   UNL     1      51.511  13.176  -5.588  1.00  0.00    -0.387 OA
ATOM     27  H   UNL     1      51.432  13.838  -6.323  1.00  0.00     0.211 HD
ENDBRANCH  18  26
ENDBRANCH  12  13
ENDBRANCH   7  12
BRANCH   4  28
ATOM     28  O   UNL     1      41.848  14.061  -4.771  1.00  0.00    -0.365 OA
ATOM     29  H   UNL     1      41.695  14.698  -5.517  1.00  0.00     0.214 HD
ENDBRANCH   4  28
BRANCH   8  30
ATOM     30  C   UNL     1      45.844  16.768  -4.970  1.00  0.00     0.249 C 
BRANCH  30  31
ATOM     31  O   UNL     1      45.349  17.946  -4.339  1.00  0.00    -0.461 OA
BRANCH  31  32
ATOM     32  C   UNL     1      44.295  18.720  -4.832  1.00  0.00     0.338 C 
ATOM     33  O   UNL     1      44.198  18.948  -6.068  1.00  0.00    -0.246 OA
BRANCH  32  34
ATOM     34  C   UNL     1      43.286  19.254  -3.892  1.00  0.00     0.060 A 
ATOM     35  C   UNL     1      43.629  20.294  -3.007  1.00  0.00     0.015 A 
ATOM     36  C   UNL     1      41.976  18.736  -3.864  1.00  0.00     0.015 A 
ATOM     37  C   UNL     1      42.684  20.804  -2.111  1.00  0.00     0.001 A 
ATOM     38  C   UNL     1      41.033  19.251  -2.969  1.00  0.00     0.001 A 
ATOM     39  C   UNL     1      41.387  20.283  -2.093  1.00  0.00     0.000 A 
ENDBRANCH  32  34
ENDBRANCH  31  32
ENDBRANCH  30  31
ENDBRANCH   8  30
TORSDOF 12
ENDMDL
MODEL 5
REMARK VINA RESULT:    -4.394      1.700      2.575
REMARK INTER + INTRA:          -8.170
REMARK INTER:                  -7.463
REMARK INTRA:                  -0.707
REMARK UNBOUND:                -1.335
REMARK SMILES C[C@@]12C[C@@]3(O)O[C@@H](O1)[C@]1(COC(=O)c4ccccc4)[C@H]3C[C@@]12O[C@H]1O[C@H](CO)[C@H](O)[C@@H](O)[C@@H]1O
REMARK SMILES IDX 1 1 2 2 3 3 4 4 20 5 21 6 22 7 9 8 7 9 8 10 6 11 23 12 24 13
REMARK SMILES IDX 33 14 25 15 31 16 26 17 29 18 34 19 32 21 27 23 28 24 30 26
REMARK SMILES IDX 5 28 10 30 11 31 12 32 13 33 14 34 15 35 19 36 16 37 18 38
REMARK SMILES IDX 17 39
REMARK H PARENT 34 20 32 22 28 25 30 27 5 29
REMARK Flexibility Score: inf
ROOT
ATOM      1  C   UNL     1      42.161  15.569  -4.963  1.00  0.00     0.046 C 
ATOM      2  C   UNL     1      43.573  15.117  -4.597  1.00  0.00     0.104 C 
ATOM      3  C   UNL     1      43.561  13.842  -3.674  1.00  0.00     0.104 C 
ATOM      4  C   UNL     1      45.076  13.614  -3.345  1.00  0.00     0.175 C 
ATOM      5  C   UNL     1      45.739  14.949  -2.860  1.00  0.00     0.070 C 
ATOM      6  C   UNL     1      44.717  16.011  -2.421  1.00  0.00     0.050 C 
ATOM      7  C   UNL     1      44.447  16.236  -3.929  1.00  0.00     0.115 C 
ATOM      8  C   UNL     1      45.824  15.640  -4.215  1.00  0.00     0.096 C 
ATOM      9  C   UNL     1      45.622  14.569  -5.273  1.00  0.00     0.267 C 
ATOM     10  O   UNL     1      44.300  14.748  -5.755  1.00  0.00    -0.342 OA
ATOM     11  O   UNL     1      45.700  13.330  -4.585  1.00  0.00    -0.320 OA
ENDROOT
BRANCH   7  12
ATOM     12  O   UNL     1      44.302  17.544  -4.462  1.00  0.00    -0.339 OA
BRANCH  12  13
ATOM     13  C   UNL     1      42.953  17.992  -4.469  1.00  0.00     0.282 C 
ATOM     14  C   UNL     1      42.708  18.946  -5.664  1.00  0.00     0.202 C 
ATOM     15  O   UNL     1      42.630  18.623  -3.238  1.00  0.00    -0.341 OA
ATOM     16  C   UNL     1      43.370  20.330  -5.475  1.00  0.00     0.179 C 
ATOM     17  C   UNL     1      43.460  19.752  -3.001  1.00  0.00     0.178 C 
ATOM     18  C   UNL     1      43.193  20.870  -4.037  1.00  0.00     0.177 C 
BRANCH  14  19
ATOM     19  O   UNL     1      41.330  19.087  -5.921  1.00  0.00    -0.385 OA
ATOM     20  H   UNL     1      40.877  18.243  -5.663  1.00  0.00     0.211 HD
ENDBRANCH  14  19
BRANCH  16  21
ATOM     21  O   UNL     1      44.723  20.287  -5.862  1.00  0.00    -0.387 OA
ATOM     22  H   UNL     1      44.903  19.401  -6.264  1.00  0.00     0.211 HD
ENDBRANCH  16  21
BRANCH  17  23
ATOM     23  C   UNL     1      43.270  20.237  -1.554  1.00  0.00     0.191 C 
BRANCH  23  24
ATOM     24  O   UNL     1      42.482  19.348  -0.807  1.00  0.00    -0.394 OA
ATOM     25  H   UNL     1      43.099  18.685  -0.397  1.00  0.00     0.210 HD
ENDBRANCH  23  24
ENDBRANCH  17  23
BRANCH  18  26
ATOM     26  O   UNL     1      41.884  21.368  -3.884  1.00  0.00    -0.387 OA
ATOM     27  H   UNL     1      41.917  22.346  -4.047  1.00  0.00     0.211 HD
ENDBRANCH  18  26
ENDBRANCH  12  13
ENDBRANCH   7  12
BRANCH   4  28
ATOM     28  O   UNL     1      45.250  12.569  -2.426  1.00  0.00    -0.365 OA
ATOM     29  H   UNL     1      44.637  12.748  -1.666  1.00  0.00     0.214 HD
ENDBRANCH   4  28
BRANCH   8  30
ATOM     30  C   UNL     1      47.004  16.620  -4.389  1.00  0.00     0.249 C 
BRANCH  30  31
ATOM     31  O   UNL     1      48.007  16.040  -5.219  1.00  0.00    -0.461 OA
BRANCH  31  32
ATOM     32  C   UNL     1      49.184  15.457  -4.741  1.00  0.00     0.338 C 
ATOM     33  O   UNL     1      50.221  16.156  -4.584  1.00  0.00    -0.246 OA
BRANCH  32  34
ATOM     34  C   UNL     1      49.195  14.017  -4.406  1.00  0.00     0.060 A 
ATOM     35  C   UNL     1      49.558  13.069  -5.382  1.00  0.00     0.015 A 
ATOM     36  C   UNL     1      48.844  13.570  -3.116  1.00  0.00     0.015 A 
ATOM     37  C   UNL     1      49.568  11.704  -5.078  1.00  0.00     0.001 A 
ATOM     38  C   UNL     1      48.858  12.205  -2.815  1.00  0.00     0.001 A 
ATOM     39  C   UNL     1      49.219  11.273  -3.794  1.00  0.00     0.000 A 
ENDBRANCH  32  34
ENDBRANCH  31  32
ENDBRANCH  30  31
ENDBRANCH   8  30
TORSDOF 12
ENDMDL
MODEL 6
REMARK VINA RESULT:    -4.370      2.455      6.876
REMARK INTER + INTRA:          -8.132
REMARK INTER:                  -7.208
REMARK INTRA:                  -0.924
REMARK UNBOUND:                -1.335
REMARK SMILES C[C@@]12C[C@@]3(O)O[C@@H](O1)[C@]1(COC(=O)c4ccccc4)[C@H]3C[C@@]12O[C@H]1O[C@H](CO)[C@H](O)[C@@H](O)[C@@H]1O
REMARK SMILES IDX 1 1 2 2 3 3 4 4 20 5 21 6 22 7 9 8 7 9 8 10 6 11 23 12 24 13
REMARK SMILES IDX 33 14 25 15 31 16 26 17 29 18 34 19 32 21 27 23 28 24 30 26
REMARK SMILES IDX 5 28 10 30 11 31 12 32 13 33 14 34 15 35 19 36 16 37 18 38
REMARK SMILES IDX 17 39
REMARK H PARENT 34 20 32 22 28 25 30 27 5 29
REMARK Flexibility Score: inf
ROOT
ATOM      1  C   UNL     1      45.723  11.837  -2.383  1.00  0.00     0.046 C 
ATOM      2  C   UNL     1      44.774  12.435  -3.419  1.00  0.00     0.104 C 
ATOM      3  C   UNL     1      43.632  11.429  -3.820  1.00  0.00     0.104 C 
ATOM      4  C   UNL     1      42.850  12.191  -4.943  1.00  0.00     0.175 C 
ATOM      5  C   UNL     1      43.842  12.750  -6.021  1.00  0.00     0.070 C 
ATOM      6  C   UNL     1      45.228  12.087  -5.972  1.00  0.00     0.050 C 
ATOM      7  C   UNL     1      45.491  12.953  -4.715  1.00  0.00     0.115 C 
ATOM      8  C   UNL     1      44.403  13.906  -5.204  1.00  0.00     0.096 C 
ATOM      9  C   UNL     1      43.459  14.122  -4.033  1.00  0.00     0.267 C 
ATOM     10  O   UNL     1      44.117  13.577  -2.901  1.00  0.00    -0.342 OA
ATOM     11  O   UNL     1      42.308  13.342  -4.320  1.00  0.00    -0.320 OA
ENDROOT
BRANCH   7  12
ATOM     12  O   UNL     1      46.737  13.607  -4.521  1.00  0.00    -0.339 OA
BRANCH  12  13
ATOM     13  C   UNL     1      47.725  13.204  -5.460  1.00  0.00     0.282 C 
ATOM     14  C   UNL     1      48.654  12.132  -4.838  1.00  0.00     0.202 C 
ATOM     15  O   UNL     1      48.472  14.326  -5.912  1.00  0.00    -0.341 OA
ATOM     16  C   UNL     1      49.618  12.713  -3.778  1.00  0.00     0.179 C 
ATOM     17  C   UNL     1      49.135  14.974  -4.835  1.00  0.00     0.178 C 
ATOM     18  C   UNL     1      50.226  14.065  -4.221  1.00  0.00     0.177 C 
BRANCH  14  19
ATOM     19  O   UNL     1      49.371  11.446  -5.838  1.00  0.00    -0.385 OA
ATOM     20  H   UNL     1      50.332  11.672  -5.743  1.00  0.00     0.211 HD
ENDBRANCH  14  19
BRANCH  16  21
ATOM     21  O   UNL     1      48.981  12.803  -2.526  1.00  0.00    -0.387 OA
ATOM     22  H   UNL     1      48.429  11.991  -2.400  1.00  0.00     0.211 HD
ENDBRANCH  16  21
BRANCH  17  23
ATOM     23  C   UNL     1      49.699  16.322  -5.314  1.00  0.00     0.191 C 
BRANCH  23  24
ATOM     24  O   UNL     1      48.829  17.383  -5.021  1.00  0.00    -0.394 OA
ATOM     25  H   UNL     1      48.446  17.693  -5.884  1.00  0.00     0.210 HD
ENDBRANCH  23  24
ENDBRANCH  17  23
BRANCH  18  26
ATOM     26  O   UNL     1      51.247  13.830  -5.163  1.00  0.00    -0.387 OA
ATOM     27  H   UNL     1      52.006  13.412  -4.680  1.00  0.00     0.211 HD
ENDBRANCH  18  26
ENDBRANCH  12  13
ENDBRANCH   7  12
BRANCH   4  28
ATOM     28  O   UNL     1      41.849  11.388  -5.508  1.00  0.00    -0.365 OA
ATOM     29  H   UNL     1      41.158  11.252  -4.808  1.00  0.00     0.214 HD
ENDBRANCH   4  28
BRANCH   8  30
ATOM     30  C   UNL     1      44.847  15.141  -6.016  1.00  0.00     0.249 C 
BRANCH  30  31
ATOM     31  O   UNL     1      44.281  16.325  -5.461  1.00  0.00    -0.461 OA
BRANCH  31  32
ATOM     32  C   UNL     1      44.962  17.198  -4.608  1.00  0.00     0.338 C 
ATOM     33  O   UNL     1      46.133  16.928  -4.226  1.00  0.00    -0.246 OA
BRANCH  32  34
ATOM     34  C   UNL     1      44.303  18.447  -4.171  1.00  0.00     0.060 A 
ATOM     35  C   UNL     1      43.631  18.495  -2.934  1.00  0.00     0.015 A 
ATOM     36  C   UNL     1      44.333  19.602  -4.978  1.00  0.00     0.015 A 
ATOM     37  C   UNL     1      43.001  19.670  -2.513  1.00  0.00     0.001 A 
ATOM     38  C   UNL     1      43.703  20.777  -4.552  1.00  0.00     0.001 A 
ATOM     39  C   UNL     1      43.038  20.810  -3.322  1.00  0.00     0.000 A 
ENDBRANCH  32  34
ENDBRANCH  31  32
ENDBRANCH  30  31
ENDBRANCH   8  30
TORSDOF 12
ENDMDL
MODEL 7
REMARK VINA RESULT:    -4.339      1.961      3.122
REMARK INTER + INTRA:          -8.084
REMARK INTER:                  -7.533
REMARK INTRA:                  -0.551
REMARK UNBOUND:                -1.335
REMARK SMILES C[C@@]12C[C@@]3(O)O[C@@H](O1)[C@]1(COC(=O)c4ccccc4)[C@H]3C[C@@]12O[C@H]1O[C@H](CO)[C@H](O)[C@@H](O)[C@@H]1O
REMARK SMILES IDX 1 1 2 2 3 3 4 4 20 5 21 6 22 7 9 8 7 9 8 10 6 11 23 12 24 13
REMARK SMILES IDX 33 14 25 15 31 16 26 17 29 18 34 19 32 21 27 23 28 24 30 26
REMARK SMILES IDX 5 28 10 30 11 31 12 32 13 33 14 34 15 35 19 36 16 37 18 38
REMARK SMILES IDX 17 39
REMARK H PARENT 34 20 32 22 28 25 30 27 5 29
REMARK Flexibility Score: inf
ROOT
ATOM      1  C   UNL     1      40.982  16.157  -5.457  1.00  0.00     0.046 C 
ATOM      2  C   UNL     1      42.191  15.434  -4.869  1.00  0.00     0.104 C 
ATOM      3  C   UNL     1      41.782  14.098  -4.143  1.00  0.00     0.104 C 
ATOM      4  C   UNL     1      43.133  13.581  -3.541  1.00  0.00     0.175 C 
ATOM      5  C   UNL     1      43.860  14.729  -2.759  1.00  0.00     0.070 C 
ATOM      6  C   UNL     1      42.935  15.905  -2.406  1.00  0.00     0.050 C 
ATOM      7  C   UNL     1      43.049  16.315  -3.895  1.00  0.00     0.115 C 
ATOM      8  C   UNL     1      44.351  15.519  -3.965  1.00  0.00     0.096 C 
ATOM      9  C   UNL     1      44.235  14.605  -5.173  1.00  0.00     0.267 C 
ATOM     10  O   UNL     1      43.097  15.056  -5.890  1.00  0.00    -0.342 OA
ATOM     11  O   UNL     1      43.971  13.312  -4.651  1.00  0.00    -0.320 OA
ENDROOT
BRANCH   7  12
ATOM     12  O   UNL     1      43.224  17.674  -4.271  1.00  0.00    -0.339 OA
BRANCH  12  13
ATOM     13  C   UNL     1      42.023  18.429  -4.188  1.00  0.00     0.282 C 
ATOM     14  C   UNL     1      42.090  19.653  -5.134  1.00  0.00     0.202 C 
ATOM     15  O   UNL     1      41.779  18.834  -2.847  1.00  0.00    -0.341 OA
ATOM     16  C   UNL     1      43.048  20.755  -4.626  1.00  0.00     0.179 C 
ATOM     17  C   UNL     1      42.837  19.643  -2.350  1.00  0.00     0.178 C 
ATOM     18  C   UNL     1      42.910  20.992  -3.104  1.00  0.00     0.177 C 
BRANCH  14  19
ATOM     19  O   UNL     1      40.805  20.182  -5.365  1.00  0.00    -0.385 OA
ATOM     20  H   UNL     1      40.442  20.509  -4.502  1.00  0.00     0.211 HD
ENDBRANCH  14  19
BRANCH  16  21
ATOM     21  O   UNL     1      44.375  20.468  -5.000  1.00  0.00    -0.387 OA
ATOM     22  H   UNL     1      44.646  19.625  -4.557  1.00  0.00     0.211 HD
ENDBRANCH  16  21
BRANCH  17  23
ATOM     23  C   UNL     1      42.673  19.829  -0.832  1.00  0.00     0.191 C 
BRANCH  23  24
ATOM     24  O   UNL     1      42.125  18.689  -0.225  1.00  0.00    -0.394 OA
ATOM     25  H   UNL     1      41.841  18.954   0.690  1.00  0.00     0.210 HD
ENDBRANCH  23  24
ENDBRANCH  17  23
BRANCH  18  26
ATOM     26  O   UNL     1      41.750  21.750  -2.854  1.00  0.00    -0.387 OA
ATOM     27  H   UNL     1      41.072  21.138  -2.467  1.00  0.00     0.211 HD
ENDBRANCH  18  26
ENDBRANCH  12  13
ENDBRANCH   7  12
BRANCH   4  28
ATOM     28  O   UNL     1      42.938  12.439  -2.750  1.00  0.00    -0.365 OA
ATOM     29  H   UNL     1      42.882  12.746  -1.808  1.00  0.00     0.214 HD
ENDBRANCH   4  28
BRANCH   8  30
ATOM     30  C   UNL     1      45.672  16.292  -3.762  1.00  0.00     0.249 C 
BRANCH  30  31
ATOM     31  O   UNL     1      46.729  15.652  -4.471  1.00  0.00    -0.461 OA
BRANCH  31  32
ATOM     32  C   UNL     1      47.973  15.339  -3.914  1.00  0.00     0.338 C 
ATOM     33  O   UNL     1      48.948  16.125  -4.055  1.00  0.00    -0.246 OA
BRANCH  32  34
ATOM     34  C   UNL     1      48.129  14.086  -3.145  1.00  0.00     0.060 A 
ATOM     35  C   UNL     1      49.039  13.102  -3.577  1.00  0.00     0.015 A 
ATOM     36  C   UNL     1      47.375  13.854  -1.977  1.00  0.00     0.015 A 
ATOM     37  C   UNL     1      49.191  11.911  -2.859  1.00  0.00     0.001 A 
ATOM     38  C   UNL     1      47.532  12.663  -1.261  1.00  0.00     0.001 A 
ATOM     39  C   UNL     1      48.439  11.693  -1.701  1.00  0.00     0.000 A 
ENDBRANCH  32  34
ENDBRANCH  31  32
ENDBRANCH  30  31
ENDBRANCH   8  30
TORSDOF 12
ENDMDL
MODEL 8
REMARK VINA RESULT:    -4.106      1.815      5.532
REMARK INTER + INTRA:          -7.721
REMARK INTER:                  -6.249
REMARK INTRA:                  -1.472
REMARK UNBOUND:                -1.335
REMARK SMILES C[C@@]12C[C@@]3(O)O[C@@H](O1)[C@]1(COC(=O)c4ccccc4)[C@H]3C[C@@]12O[C@H]1O[C@H](CO)[C@H](O)[C@@H](O)[C@@H]1O
REMARK SMILES IDX 1 1 2 2 3 3 4 4 20 5 21 6 22 7 9 8 7 9 8 10 6 11 23 12 24 13
REMARK SMILES IDX 33 14 25 15 31 16 26 17 29 18 34 19 32 21 27 23 28 24 30 26
REMARK SMILES IDX 5 28 10 30 11 31 12 32 13 33 14 34 15 35 19 36 16 37 18 38
REMARK SMILES IDX 17 39
REMARK H PARENT 34 20 32 22 28 25 30 27 5 29
REMARK Flexibility Score: inf
ROOT
ATOM      1  C   UNL     1      40.934  16.044  -2.129  1.00  0.00     0.046 C 
ATOM      2  C   UNL     1      41.767  17.145  -2.782  1.00  0.00     0.104 C 
ATOM      3  C   UNL     1      40.929  18.459  -3.010  1.00  0.00     0.104 C 
ATOM      4  C   UNL     1      41.926  19.402  -3.765  1.00  0.00     0.175 C 
ATOM      5  C   UNL     1      42.584  18.651  -4.973  1.00  0.00     0.070 C 
ATOM      6  C   UNL     1      41.823  17.381  -5.387  1.00  0.00     0.050 C 
ATOM      7  C   UNL     1      42.442  16.717  -4.133  1.00  0.00     0.115 C 
ATOM      8  C   UNL     1      43.542  17.776  -4.175  1.00  0.00     0.096 C 
ATOM      9  C   UNL     1      43.625  18.370  -2.779  1.00  0.00     0.267 C 
ATOM     10  O   UNL     1      42.850  17.518  -1.951  1.00  0.00    -0.342 OA
ATOM     11  O   UNL     1      42.992  19.637  -2.862  1.00  0.00    -0.320 OA
ENDROOT
BRANCH   7  12
ATOM     12  O   UNL     1      42.961  15.396  -4.181  1.00  0.00    -0.339 OA
BRANCH  12  13
ATOM     13  C   UNL     1      42.493  14.660  -5.303  1.00  0.00     0.282 C 
ATOM     14  C   UNL     1      41.604  13.479  -4.840  1.00  0.00     0.202 C 
ATOM     15  O   UNL     1      43.584  14.198  -6.088  1.00  0.00    -0.341 OA
ATOM     16  C   UNL     1      42.413  12.338  -4.182  1.00  0.00     0.179 C 
ATOM     17  C   UNL     1      44.440  13.348  -5.336  1.00  0.00     0.178 C 
ATOM     18  C   UNL     1      43.722  12.034  -4.948  1.00  0.00     0.177 C 
BRANCH  14  19
ATOM     19  O   UNL     1      40.827  12.985  -5.907  1.00  0.00    -0.385 OA
ATOM     20  H   UNL     1      41.284  12.189  -6.282  1.00  0.00     0.211 HD
ENDBRANCH  14  19
BRANCH  16  21
ATOM     21  O   UNL     1      42.648  12.618  -2.822  1.00  0.00    -0.387 OA
ATOM     22  H   UNL     1      42.068  13.375  -2.558  1.00  0.00     0.211 HD
ENDBRANCH  16  21
BRANCH  17  23
ATOM     23  C   UNL     1      45.736  13.096  -6.124  1.00  0.00     0.191 C 
BRANCH  23  24
ATOM     24  O   UNL     1      46.413  11.957  -5.663  1.00  0.00    -0.394 OA
ATOM     25  H   UNL     1      45.726  11.261  -5.489  1.00  0.00     0.210 HD
ENDBRANCH  23  24
ENDBRANCH  17  23
BRANCH  18  26
ATOM     26  O   UNL     1      43.423  11.287  -6.104  1.00  0.00    -0.387 OA
ATOM     27  H   UNL     1      42.678  11.746  -6.571  1.00  0.00     0.211 HD
ENDBRANCH  18  26
ENDBRANCH  12  13
ENDBRANCH   7  12
BRANCH   4  28
ATOM     28  O   UNL     1      41.305  20.597  -4.156  1.00  0.00    -0.365 OA
ATOM     29  H   UNL     1      41.979  21.319  -4.055  1.00  0.00     0.214 HD
ENDBRANCH   4  28
BRANCH   8  30
ATOM     30  C   UNL     1      44.860  17.409  -4.888  1.00  0.00     0.249 C 
BRANCH  30  31
ATOM     31  O   UNL     1      45.820  16.948  -3.942  1.00  0.00    -0.461 OA
BRANCH  31  32
ATOM     32  C   UNL     1      47.108  16.517  -4.273  1.00  0.00     0.338 C 
ATOM     33  O   UNL     1      47.856  17.239  -4.986  1.00  0.00    -0.246 OA
BRANCH  32  34
ATOM     34  C   UNL     1      47.589  15.214  -3.767  1.00  0.00     0.060 A 
ATOM     35  C   UNL     1      48.800  14.675  -4.244  1.00  0.00     0.015 A 
ATOM     36  C   UNL     1      46.851  14.492  -2.808  1.00  0.00     0.015 A 
ATOM     37  C   UNL     1      49.262  13.442  -3.775  1.00  0.00     0.001 A 
ATOM     38  C   UNL     1      47.317  13.259  -2.339  1.00  0.00     0.001 A 
ATOM     39  C   UNL     1      48.521  12.736  -2.822  1.00  0.00     0.000 A 
ENDBRANCH  32  34
ENDBRANCH  31  32
ENDBRANCH  30  31
ENDBRANCH   8  30
TORSDOF 12
ENDMDL
MODEL 9
REMARK VINA RESULT:    -3.894      1.669      5.406
REMARK INTER + INTRA:          -7.392
REMARK INTER:                  -6.397
REMARK INTRA:                  -0.995
REMARK UNBOUND:                -1.335
REMARK SMILES C[C@@]12C[C@@]3(O)O[C@@H](O1)[C@]1(COC(=O)c4ccccc4)[C@H]3C[C@@]12O[C@H]1O[C@H](CO)[C@H](O)[C@@H](O)[C@@H]1O
REMARK SMILES IDX 1 1 2 2 3 3 4 4 20 5 21 6 22 7 9 8 7 9 8 10 6 11 23 12 24 13
REMARK SMILES IDX 33 14 25 15 31 16 26 17 29 18 34 19 32 21 27 23 28 24 30 26
REMARK SMILES IDX 5 28 10 30 11 31 12 32 13 33 14 34 15 35 19 36 16 37 18 38
REMARK SMILES IDX 17 39
REMARK H PARENT 34 20 32 22 28 25 30 27 5 29
REMARK Flexibility Score: inf
ROOT
ATOM      1  C   UNL     1      41.163  18.318  -1.978  1.00  0.00     0.046 C 
ATOM      2  C   UNL     1      41.972  18.960  -3.102  1.00  0.00     0.104 C 
ATOM      3  C   UNL     1      41.310  20.293  -3.615  1.00  0.00     0.104 C 
ATOM      4  C   UNL     1      42.229  20.723  -4.809  1.00  0.00     0.175 C 
ATOM      5  C   UNL     1      42.463  19.516  -5.783  1.00  0.00     0.070 C 
ATOM      6  C   UNL     1      41.444  18.380  -5.598  1.00  0.00     0.050 C 
ATOM      7  C   UNL     1      42.237  18.007  -4.321  1.00  0.00     0.115 C 
ATOM      8  C   UNL     1      43.440  18.737  -4.914  1.00  0.00     0.096 C 
ATOM      9  C   UNL     1      43.940  19.691  -3.842  1.00  0.00     0.267 C 
ATOM     10  O   UNL     1      43.265  19.320  -2.651  1.00  0.00    -0.342 OA
ATOM     11  O   UNL     1      43.501  20.980  -4.241  1.00  0.00    -0.320 OA
ENDROOT
BRANCH   7  12
ATOM     12  O   UNL     1      42.526  16.653  -4.004  1.00  0.00    -0.339 OA
BRANCH  12  13
ATOM     13  C   UNL     1      41.960  15.736  -4.930  1.00  0.00     0.282 C 
ATOM     14  C   UNL     1      40.645  15.144  -4.366  1.00  0.00     0.202 C 
ATOM     15  O   UNL     1      42.888  14.707  -5.245  1.00  0.00    -0.341 OA
ATOM     16  C   UNL     1      40.882  14.138  -3.216  1.00  0.00     0.179 C 
ATOM     17  C   UNL     1      43.265  13.976  -4.086  1.00  0.00     0.178 C 
ATOM     18  C   UNL     1      42.067  13.187  -3.509  1.00  0.00     0.177 C 
BRANCH  14  19
ATOM     19  O   UNL     1      39.878  14.554  -5.391  1.00  0.00    -0.385 OA
ATOM     20  H   UNL     1      38.977  14.968  -5.382  1.00  0.00     0.211 HD
ENDBRANCH  14  19
BRANCH  16  21
ATOM     21  O   UNL     1      41.034  14.814  -1.991  1.00  0.00    -0.387 OA
ATOM     22  H   UNL     1      41.329  15.739  -2.182  1.00  0.00     0.211 HD
ENDBRANCH  16  21
BRANCH  17  23
ATOM     23  C   UNL     1      44.460  13.067  -4.417  1.00  0.00     0.191 C 
BRANCH  23  24
ATOM     24  O   UNL     1      45.537  13.285  -3.544  1.00  0.00    -0.394 OA
ATOM     25  H   UNL     1      45.151  13.518  -2.658  1.00  0.00     0.210 HD
ENDBRANCH  23  24
ENDBRANCH  17  23
BRANCH  18  26
ATOM     26  O   UNL     1      41.655  12.196  -4.420  1.00  0.00    -0.387 OA
ATOM     27  H   UNL     1      41.083  11.555  -3.925  1.00  0.00     0.211 HD
ENDBRANCH  18  26
ENDBRANCH  12  13
ENDBRANCH   7  12
BRANCH   4  28
ATOM     28  O   UNL     1      41.718  21.849  -5.470  1.00  0.00    -0.365 OA
ATOM     29  H   UNL     1      42.474  22.263  -5.962  1.00  0.00     0.214 HD
ENDBRANCH   4  28
BRANCH   8  30
ATOM     30  C   UNL     1      44.483  17.892  -5.677  1.00  0.00     0.249 C 
BRANCH  30  31
ATOM     31  O   UNL     1      45.750  17.971  -5.030  1.00  0.00    -0.461 OA
BRANCH  31  32
ATOM     32  C   UNL     1      46.346  16.915  -4.336  1.00  0.00     0.338 C 
ATOM     33  O   UNL     1      45.708  16.306  -3.435  1.00  0.00    -0.246 OA
BRANCH  32  34
ATOM     34  C   UNL     1      47.726  16.509  -4.679  1.00  0.00     0.060 A 
ATOM     35  C   UNL     1      48.491  17.291  -5.565  1.00  0.00     0.015 A 
ATOM     36  C   UNL     1      48.294  15.341  -4.132  1.00  0.00     0.015 A 
ATOM     37  C   UNL     1      49.796  16.914  -5.900  1.00  0.00     0.001 A 
ATOM     38  C   UNL     1      49.600  14.968  -4.468  1.00  0.00     0.001 A 
ATOM     39  C   UNL     1      50.350  15.754  -5.350  1.00  0.00     0.000 A 
ENDBRANCH  32  34
ENDBRANCH  31  32
ENDBRANCH  30  31
ENDBRANCH   8  30
TORSDOF 12
ENDMDL
