MODEL 1
REMARK VINA RESULT:    -4.681      0.000      0.000
REMARK INTER + INTRA:          -6.447
REMARK INTER:                  -6.596
REMARK INTRA:                   0.149
REMARK UNBOUND:                 0.149
REMARK SMILES CC1=CCC(=C(C)C)C(=O)CC(C)=CCC1
REMARK SMILES IDX 12 1 14 2 13 3 15 4 16 5 2 6 1 7 3 8 11 10 9 11 10 12 5 13
REMARK SMILES IDX 6 14 7 15 8 16 4 17
REMARK H PARENT
REMARK Flexibility Score: 60.00
ROOT
ATOM      1  C   UNL     1     251.543 259.114 246.942  1.00  0.00    -0.070 C 
ATOM      2  C   UNL     1     251.976 260.392 247.017  1.00  0.00    -0.027 C 
ATOM      3  C   UNL     1     250.065 258.859 247.099  1.00  0.00     0.039 C 
ENDROOT
BRANCH   2   4
ATOM      4  C   UNL     1     253.423 260.837 246.981  1.00  0.00     0.032 C 
BRANCH   4   5
ATOM      5  C   UNL     1     254.102 260.944 248.362  1.00  0.00     0.034 C 
BRANCH   5   6
ATOM      6  C   UNL     1     255.427 260.208 248.435  1.00  0.00    -0.077 C 
ATOM      7  C   UNL     1     256.633 260.875 247.825  1.00  0.00     0.039 C 
ATOM      8  C   UNL     1     255.583 258.964 248.950  1.00  0.00    -0.023 CG0
ATOM      9  G   UNL     1     254.526 258.115 249.628  1.00  0.00     0.000 G0
ENDBRANCH   5   6
ENDBRANCH   4   5
ENDBRANCH   2   4
BRANCH   1  10
ATOM     10  C   UNL     1     252.473 257.927 246.802  1.00  0.00     0.111 C 
BRANCH  10  11
ATOM     11  C   UNL     1     252.649 257.200 248.109  1.00  0.00     0.163 C 
ATOM     12  O   UNL     1     251.615 256.805 248.713  1.00  0.00    -0.294 OA
BRANCH  11  13
ATOM     13  C   UNL     1     253.989 256.990 248.736  1.00  0.00    -0.002 C 
ATOM     14  C   UNL     1     254.661 255.811 248.570  1.00  0.00    -0.069 C 
ATOM     15  C   UNL     1     254.151 254.744 247.627  1.00  0.00     0.039 C 
ATOM     16  C   UNL     1     255.941 255.508 249.317  1.00  0.00     0.039 C 
BRANCH  13  17
ATOM     17  C   UNL     1     254.518 258.098 249.632  1.00  0.00     0.066 CG0
ATOM     18  G   UNL     1     255.555 258.957 248.935  1.00  0.00     0.000 G0
ENDBRANCH  13  17
ENDBRANCH  11  13
ENDBRANCH  10  11
ENDBRANCH   1  10
TORSDOF 0
ENDMDL
MODEL 2
REMARK VINA RESULT:    -4.549      2.733      4.522
REMARK INTER + INTRA:          -6.261
REMARK INTER:                  -6.477
REMARK INTRA:                   0.216
REMARK UNBOUND:                 0.149
REMARK SMILES CC1=CCC(=C(C)C)C(=O)CC(C)=CCC1
REMARK SMILES IDX 12 1 14 2 13 3 15 4 16 5 2 6 1 7 3 8 11 10 9 11 10 12 5 13
REMARK SMILES IDX 6 14 7 15 8 16 4 17
REMARK H PARENT
REMARK Flexibility Score: 60.00
ROOT
ATOM      1  C   UNL     1     254.050 259.620 246.692  1.00  0.00    -0.070 C 
ATOM      2  C   UNL     1     254.499 259.787 245.428  1.00  0.00    -0.027 C 
ATOM      3  C   UNL     1     253.040 258.529 246.943  1.00  0.00     0.039 C 
ENDROOT
BRANCH   2   4
ATOM      4  C   UNL     1     255.434 260.882 244.960  1.00  0.00     0.032 C 
BRANCH   4   5
ATOM      5  C   UNL     1     256.905 260.705 245.391  1.00  0.00     0.034 C 
BRANCH   5   6
ATOM      6  C   UNL     1     257.476 261.928 246.085  1.00  0.00    -0.077 C 
ATOM      7  C   UNL     1     257.586 263.200 245.283  1.00  0.00     0.039 C 
ATOM      8  C   UNL     1     257.954 261.934 247.353  1.00  0.00    -0.023 CG0
ATOM      9  G   UNL     1     257.931 260.788 248.345  1.00  0.00     0.000 G0
ENDBRANCH   5   6
ENDBRANCH   4   5
ENDBRANCH   2   4
BRANCH   1  10
ATOM     10  C   UNL     1     254.439 260.528 247.840  1.00  0.00     0.111 C 
BRANCH  10  11
ATOM     11  C   UNL     1     255.542 259.930 248.673  1.00  0.00     0.163 C 
ATOM     12  O   UNL     1     255.460 258.711 248.981  1.00  0.00    -0.294 OA
BRANCH  11  13
ATOM     13  C   UNL     1     256.684 260.741 249.192  1.00  0.00    -0.002 C 
ATOM     14  C   UNL     1     256.553 261.480 250.335  1.00  0.00    -0.069 C 
ATOM     15  C   UNL     1     255.313 261.382 251.195  1.00  0.00     0.039 C 
ATOM     16  C   UNL     1     257.633 262.433 250.799  1.00  0.00     0.039 C 
BRANCH  13  17
ATOM     17  C   UNL     1     257.948 260.782 248.349  1.00  0.00     0.066 CG0
ATOM     18  G   UNL     1     257.942 261.926 247.355  1.00  0.00     0.000 G0
ENDBRANCH  13  17
ENDBRANCH  11  13
ENDBRANCH  10  11
ENDBRANCH   1  10
TORSDOF 0
ENDMDL
MODEL 3
REMARK VINA RESULT:    -4.463      3.377      4.953
REMARK INTER + INTRA:          -6.140
REMARK INTER:                  -6.395
REMARK INTRA:                   0.255
REMARK UNBOUND:                 0.149
REMARK SMILES CC1=CCC(=C(C)C)C(=O)CC(C)=CCC1
REMARK SMILES IDX 12 1 14 2 13 3 15 4 16 5 2 6 1 7 3 8 11 10 9 11 10 12 5 13
REMARK SMILES IDX 6 14 7 15 8 16 4 17
REMARK H PARENT
REMARK Flexibility Score: 60.00
ROOT
ATOM      1  C   UNL     1     250.046 258.861 246.988  1.00  0.00    -0.070 C 
ATOM      2  C   UNL     1     251.359 259.179 247.014  1.00  0.00    -0.027 C 
ATOM      3  C   UNL     1     249.068 259.934 246.580  1.00  0.00     0.039 C 
ENDROOT
BRANCH   2   4
ATOM      4  C   UNL     1     252.478 258.275 247.486  1.00  0.00     0.032 C 
BRANCH   4   5
ATOM      5  C   UNL     1     253.041 257.324 246.409  1.00  0.00     0.034 C 
BRANCH   5   6
ATOM      6  C   UNL     1     253.093 255.875 246.858  1.00  0.00    -0.077 C 
ATOM      7  C   UNL     1     254.180 255.481 247.825  1.00  0.00     0.039 C 
ATOM      8  C   UNL     1     252.270 254.902 246.396  1.00  0.00    -0.023 CG0
ATOM      9  G   UNL     1     251.103 255.066 245.443  1.00  0.00     0.000 G0
ENDBRANCH   5   6
ENDBRANCH   4   5
ENDBRANCH   2   4
BRANCH   1  10
ATOM     10  C   UNL     1     249.507 257.518 247.434  1.00  0.00     0.111 C 
BRANCH  10  11
ATOM     11  C   UNL     1     249.217 256.617 246.262  1.00  0.00     0.163 C 
ATOM     12  O   UNL     1     248.437 257.040 245.366  1.00  0.00    -0.294 OA
BRANCH  11  13
ATOM     13  C   UNL     1     249.769 255.233 246.160  1.00  0.00    -0.002 C 
ATOM     14  C   UNL     1     249.143 254.185 246.775  1.00  0.00    -0.069 C 
ATOM     15  C   UNL     1     247.798 254.357 247.444  1.00  0.00     0.039 C 
ATOM     16  C   UNL     1     249.758 252.803 246.824  1.00  0.00     0.039 C 
BRANCH  13  17
ATOM     17  C   UNL     1     251.091 255.063 245.429  1.00  0.00     0.066 CG0
ATOM     18  G   UNL     1     252.258 254.898 246.382  1.00  0.00     0.000 G0
ENDBRANCH  13  17
ENDBRANCH  11  13
ENDBRANCH  10  11
ENDBRANCH   1  10
TORSDOF 0
ENDMDL
MODEL 4
REMARK VINA RESULT:    -4.353      2.826      5.267
REMARK INTER + INTRA:          -5.986
REMARK INTER:                  -6.553
REMARK INTRA:                   0.567
REMARK UNBOUND:                 0.149
REMARK SMILES CC1=CCC(=C(C)C)C(=O)CC(C)=CCC1
REMARK SMILES IDX 12 1 14 2 13 3 15 4 16 5 2 6 1 7 3 8 11 10 9 11 10 12 5 13
REMARK SMILES IDX 6 14 7 15 8 16 4 17
REMARK H PARENT
REMARK Flexibility Score: 60.00
ROOT
ATOM      1  C   UNL     1     250.853 254.731 246.062  1.00  0.00    -0.070 C 
ATOM      2  C   UNL     1     252.182 254.820 246.291  1.00  0.00    -0.027 C 
ATOM      3  C   UNL     1     250.145 253.472 246.494  1.00  0.00     0.039 C 
ENDROOT
BRANCH   2   4
ATOM      4  C   UNL     1     253.081 255.954 245.846  1.00  0.00     0.032 C 
BRANCH   4   5
ATOM      5  C   UNL     1     253.417 256.983 246.946  1.00  0.00     0.034 C 
BRANCH   5   6
ATOM      6  C   UNL     1     252.941 258.386 246.617  1.00  0.00    -0.077 C 
ATOM      7  C   UNL     1     253.919 259.318 245.947  1.00  0.00     0.039 C 
ATOM      8  C   UNL     1     251.721 258.877 246.946  1.00  0.00    -0.023 CG0
ATOM      9  G   UNL     1     250.579 258.125 247.601  1.00  0.00     0.000 G0
ENDBRANCH   5   6
ENDBRANCH   4   5
ENDBRANCH   2   4
BRANCH   1  10
ATOM     10  C   UNL     1     250.065 255.787 245.315  1.00  0.00     0.111 C 
BRANCH  10  11
ATOM     11  C   UNL     1     249.122 256.527 246.227  1.00  0.00     0.163 C 
ATOM     12  O   UNL     1     248.049 255.957 246.561  1.00  0.00    -0.294 OA
BRANCH  11  13
ATOM     13  C   UNL     1     249.386 257.922 246.692  1.00  0.00    -0.002 C 
ATOM     14  C   UNL     1     248.641 258.967 246.223  1.00  0.00    -0.069 C 
ATOM     15  C   UNL     1     247.430 258.737 245.346  1.00  0.00     0.039 C 
ATOM     16  C   UNL     1     248.983 260.404 246.551  1.00  0.00     0.039 C 
BRANCH  13  17
ATOM     17  C   UNL     1     250.568 258.132 247.625  1.00  0.00     0.066 CG0
ATOM     18  G   UNL     1     251.702 258.884 246.958  1.00  0.00     0.000 G0
ENDBRANCH  13  17
ENDBRANCH  11  13
ENDBRANCH  10  11
ENDBRANCH   1  10
TORSDOF 0
ENDMDL
MODEL 5
REMARK VINA RESULT:    -4.345      2.862      4.935
REMARK INTER + INTRA:          -5.974
REMARK INTER:                  -6.103
REMARK INTRA:                   0.129
REMARK UNBOUND:                 0.149
REMARK SMILES CC1=CCC(=C(C)C)C(=O)CC(C)=CCC1
REMARK SMILES IDX 12 1 14 2 13 3 15 4 16 5 2 6 1 7 3 8 11 10 9 11 10 12 5 13
REMARK SMILES IDX 6 14 7 15 8 16 4 17
REMARK H PARENT
REMARK Flexibility Score: 60.00
ROOT
ATOM      1  C   UNL     1     250.000 258.913 247.043  1.00  0.00    -0.070 C 
ATOM      2  C   UNL     1     248.974 258.273 246.438  1.00  0.00    -0.027 C 
ATOM      3  C   UNL     1     250.102 260.407 246.867  1.00  0.00     0.039 C 
ENDROOT
BRANCH   2   4
ATOM      4  C   UNL     1     248.757 256.775 246.417  1.00  0.00     0.032 C 
BRANCH   4   5
ATOM      5  C   UNL     1     249.629 256.009 245.401  1.00  0.00     0.034 C 
BRANCH   5   6
ATOM      6  C   UNL     1     250.344 254.815 246.008  1.00  0.00    -0.077 C 
ATOM      7  C   UNL     1     249.498 253.660 246.482  1.00  0.00     0.039 C 
ATOM      8  C   UNL     1     251.682 254.748 246.213  1.00  0.00    -0.023 CG0
ATOM      9  G   UNL     1     252.722 255.772 245.805  1.00  0.00     0.000 G0
ENDBRANCH   5   6
ENDBRANCH   4   5
ENDBRANCH   2   4
BRANCH   1  10
ATOM     10  C   UNL     1     251.094 258.195 247.805  1.00  0.00     0.111 C 
BRANCH  10  11
ATOM     11  C   UNL     1     252.337 258.030 246.971  1.00  0.00     0.163 C 
ATOM     12  O   UNL     1     252.710 259.003 246.261  1.00  0.00    -0.294 OA
BRANCH  11  13
ATOM     13  C   UNL     1     253.098 256.746 246.911  1.00  0.00    -0.002 C 
ATOM     14  C   UNL     1     254.126 256.501 247.778  1.00  0.00    -0.069 C 
ATOM     15  C   UNL     1     254.429 257.444 248.921  1.00  0.00     0.039 C 
ATOM     16  C   UNL     1     255.015 255.285 247.642  1.00  0.00     0.039 C 
BRANCH  13  17
ATOM     17  C   UNL     1     252.740 255.778 245.795  1.00  0.00     0.066 CG0
ATOM     18  G   UNL     1     251.694 254.767 246.221  1.00  0.00     0.000 G0
ENDBRANCH  13  17
ENDBRANCH  11  13
ENDBRANCH  10  11
ENDBRANCH   1  10
TORSDOF 0
ENDMDL
MODEL 6
REMARK VINA RESULT:    -4.212      2.701      5.612
REMARK INTER + INTRA:          -5.786
REMARK INTER:                  -6.095
REMARK INTRA:                   0.309
REMARK UNBOUND:                 0.149
REMARK SMILES CC1=CCC(=C(C)C)C(=O)CC(C)=CCC1
REMARK SMILES IDX 12 1 14 2 13 3 15 4 16 5 2 6 1 7 3 8 11 10 9 11 10 12 5 13
REMARK SMILES IDX 6 14 7 15 8 16 4 17
REMARK H PARENT
REMARK Flexibility Score: 60.00
ROOT
ATOM      1  C   UNL     1     252.102 254.574 246.477  1.00  0.00    -0.070 C 
ATOM      2  C   UNL     1     250.799 254.222 246.523  1.00  0.00    -0.027 C 
ATOM      3  C   UNL     1     253.091 253.723 247.233  1.00  0.00     0.039 C 
ENDROOT
BRANCH   2   4
ATOM      4  C   UNL     1     249.651 254.999 245.914  1.00  0.00     0.032 C 
BRANCH   4   5
ATOM      5  C   UNL     1     248.921 255.946 246.889  1.00  0.00     0.034 C 
BRANCH   5   6
ATOM      6  C   UNL     1     248.902 257.389 246.419  1.00  0.00    -0.077 C 
ATOM      7  C   UNL     1     247.800 257.803 245.477  1.00  0.00     0.039 C 
ATOM      8  C   UNL     1     249.846 258.309 246.735  1.00  0.00    -0.023 CG0
ATOM      9  G   UNL     1     251.024 258.126 247.671  1.00  0.00     0.000 G0
ENDBRANCH   5   6
ENDBRANCH   4   5
ENDBRANCH   2   4
BRANCH   1  10
ATOM     10  C   UNL     1     252.601 255.826 245.786  1.00  0.00     0.111 C 
BRANCH  10  11
ATOM     11  C   UNL     1     253.072 256.859 246.776  1.00  0.00     0.163 C 
ATOM     12  O   UNL     1     254.067 256.581 247.497  1.00  0.00    -0.294 OA
BRANCH  11  13
ATOM     13  C   UNL     1     252.366 258.161 246.972  1.00  0.00    -0.002 C 
ATOM     14  C   UNL     1     252.950 259.336 246.590  1.00  0.00    -0.069 C 
ATOM     15  C   UNL     1     254.251 259.352 245.818  1.00  0.00     0.039 C 
ATOM     16  C   UNL     1     252.334 260.679 246.917  1.00  0.00     0.039 C 
BRANCH  13  17
ATOM     17  C   UNL     1     251.029 258.125 247.694  1.00  0.00     0.066 CG0
ATOM     18  G   UNL     1     249.858 258.302 246.747  1.00  0.00     0.000 G0
ENDBRANCH  13  17
ENDBRANCH  11  13
ENDBRANCH  10  11
ENDBRANCH   1  10
TORSDOF 0
ENDMDL
MODEL 7
REMARK VINA RESULT:    -4.206      3.232      5.456
REMARK INTER + INTRA:          -5.778
REMARK INTER:                  -5.970
REMARK INTRA:                   0.193
REMARK UNBOUND:                 0.149
REMARK SMILES CC1=CCC(=C(C)C)C(=O)CC(C)=CCC1
REMARK SMILES IDX 12 1 14 2 13 3 15 4 16 5 2 6 1 7 3 8 11 10 9 11 10 12 5 13
REMARK SMILES IDX 6 14 7 15 8 16 4 17
REMARK H PARENT
REMARK Flexibility Score: 60.00
ROOT
ATOM      1  C   UNL     1     251.418 258.513 247.255  1.00  0.00    -0.070 C 
ATOM      2  C   UNL     1     250.135 258.759 246.912  1.00  0.00    -0.027 C 
ATOM      3  C   UNL     1     252.466 259.511 246.832  1.00  0.00     0.039 C 
ENDROOT
BRANCH   2   4
ATOM      4  C   UNL     1     248.961 257.835 247.158  1.00  0.00     0.032 C 
BRANCH   4   5
ATOM      5  C   UNL     1     248.802 256.701 246.124  1.00  0.00     0.034 C 
BRANCH   5   6
ATOM      6  C   UNL     1     248.726 255.323 246.756  1.00  0.00    -0.077 C 
ATOM      7  C   UNL     1     247.483 254.977 247.536  1.00  0.00     0.039 C 
ATOM      8  C   UNL     1     249.729 254.411 246.722  1.00  0.00    -0.023 CG0
ATOM      9  G   UNL     1     251.050 254.530 245.990  1.00  0.00     0.000 G0
ENDBRANCH   5   6
ENDBRANCH   4   5
ENDBRANCH   2   4
BRANCH   1  10
ATOM     10  C   UNL     1     251.863 257.245 247.955  1.00  0.00     0.111 C 
BRANCH  10  11
ATOM     11  C   UNL     1     252.581 256.313 247.016  1.00  0.00     0.163 C 
ATOM     12  O   UNL     1     253.481 256.793 246.274  1.00  0.00    -0.294 OA
BRANCH  11  13
ATOM     13  C   UNL     1     252.223 254.868 246.892  1.00  0.00    -0.002 C 
ATOM     14  C   UNL     1     252.965 253.908 247.521  1.00  0.00    -0.069 C 
ATOM     15  C   UNL     1     254.070 254.277 248.486  1.00  0.00     0.039 C 
ATOM     16  C   UNL     1     252.725 252.432 247.289  1.00  0.00     0.039 C 
BRANCH  13  17
ATOM     17  C   UNL     1     251.068 254.515 245.968  1.00  0.00     0.066 CG0
ATOM     18  G   UNL     1     249.750 254.405 246.709  1.00  0.00     0.000 G0
ENDBRANCH  13  17
ENDBRANCH  11  13
ENDBRANCH  10  11
ENDBRANCH   1  10
TORSDOF 0
ENDMDL
MODEL 8
REMARK VINA RESULT:    -4.101      1.777      3.439
REMARK INTER + INTRA:          -5.629
REMARK INTER:                  -5.802
REMARK INTRA:                   0.173
REMARK UNBOUND:                 0.149
REMARK SMILES CC1=CCC(=C(C)C)C(=O)CC(C)=CCC1
REMARK SMILES IDX 12 1 14 2 13 3 15 4 16 5 2 6 1 7 3 8 11 10 9 11 10 12 5 13
REMARK SMILES IDX 6 14 7 15 8 16 4 17
REMARK H PARENT
REMARK Flexibility Score: 60.00
ROOT
ATOM      1  C   UNL     1     253.729 259.635 247.426  1.00  0.00    -0.070 C 
ATOM      2  C   UNL     1     254.636 259.631 248.427  1.00  0.00    -0.027 C 
ATOM      3  C   UNL     1     252.873 260.864 247.254  1.00  0.00     0.039 C 
ENDROOT
BRANCH   2   4
ATOM      4  C   UNL     1     255.515 258.462 248.819  1.00  0.00     0.032 C 
BRANCH   4   5
ATOM      5  C   UNL     1     255.003 257.640 250.020  1.00  0.00     0.034 C 
BRANCH   5   6
ATOM      6  C   UNL     1     255.025 256.143 249.773  1.00  0.00    -0.077 C 
ATOM      7  C   UNL     1     256.310 255.406 250.053  1.00  0.00     0.039 C 
ATOM      8  C   UNL     1     253.990 255.439 249.254  1.00  0.00    -0.023 CG0
ATOM      9  G   UNL     1     252.607 255.959 248.915  1.00  0.00     0.000 G0
ENDBRANCH   5   6
ENDBRANCH   4   5
ENDBRANCH   2   4
BRANCH   1  10
ATOM     10  C   UNL     1     253.469 258.438 246.534  1.00  0.00     0.111 C 
BRANCH  10  11
ATOM     11  C   UNL     1     252.281 257.641 247.005  1.00  0.00     0.163 C 
ATOM     12  O   UNL     1     251.167 258.226 247.083  1.00  0.00    -0.294 OA
BRANCH  11  13
ATOM     13  C   UNL     1     252.392 256.215 247.435  1.00  0.00    -0.002 C 
ATOM     14  C   UNL     1     252.235 255.199 246.534  1.00  0.00    -0.069 C 
ATOM     15  C   UNL     1     252.101 255.477 245.053  1.00  0.00     0.039 C 
ATOM     16  C   UNL     1     252.184 253.749 246.964  1.00  0.00     0.039 C 
BRANCH  13  17
ATOM     17  C   UNL     1     252.590 255.950 248.919  1.00  0.00     0.066 CG0
ATOM     18  G   UNL     1     253.986 255.449 249.233  1.00  0.00     0.000 G0
ENDBRANCH  13  17
ENDBRANCH  11  13
ENDBRANCH  10  11
ENDBRANCH   1  10
TORSDOF 0
ENDMDL
MODEL 9
REMARK VINA RESULT:    -3.914      2.777      4.130
REMARK INTER + INTRA:          -5.366
REMARK INTER:                  -5.613
REMARK INTRA:                   0.247
REMARK UNBOUND:                 0.149
REMARK SMILES CC1=CCC(=C(C)C)C(=O)CC(C)=CCC1
REMARK SMILES IDX 12 1 14 2 13 3 15 4 16 5 2 6 1 7 3 8 11 10 9 11 10 12 5 13
REMARK SMILES IDX 6 14 7 15 8 16 4 17
REMARK H PARENT
REMARK Flexibility Score: 60.00
ROOT
ATOM      1  C   UNL     1     251.343 257.836 247.004  1.00  0.00    -0.070 C 
ATOM      2  C   UNL     1     252.610 258.248 247.225  1.00  0.00    -0.027 C 
ATOM      3  C   UNL     1     250.228 258.825 247.239  1.00  0.00     0.039 C 
ENDROOT
BRANCH   2   4
ATOM      4  C   UNL     1     253.849 257.381 247.140  1.00  0.00     0.032 C 
BRANCH   4   5
ATOM      5  C   UNL     1     254.305 256.770 248.481  1.00  0.00     0.034 C 
BRANCH   5   6
ATOM      6  C   UNL     1     254.452 255.260 248.430  1.00  0.00    -0.077 C 
ATOM      7  C   UNL     1     255.739 254.701 247.879  1.00  0.00     0.039 C 
ATOM      8  C   UNL     1     253.480 254.385 248.782  1.00  0.00    -0.023 CG0
ATOM      9  G   UNL     1     252.123 254.713 249.374  1.00  0.00     0.000 G0
ENDBRANCH   5   6
ENDBRANCH   4   5
ENDBRANCH   2   4
BRANCH   1  10
ATOM     10  C   UNL     1     250.984 256.414 246.626  1.00  0.00     0.111 C 
BRANCH  10  11
ATOM     11  C   UNL     1     250.357 255.673 247.778  1.00  0.00     0.163 C 
ATOM     12  O   UNL     1     249.288 256.130 248.266  1.00  0.00    -0.294 OA
BRANCH  11  13
ATOM     13  C   UNL     1     250.986 254.467 248.392  1.00  0.00    -0.002 C 
ATOM     14  C   UNL     1     250.499 253.216 248.134  1.00  0.00    -0.069 C 
ATOM     15  C   UNL     1     249.415 252.994 247.102  1.00  0.00     0.039 C 
ATOM     16  C   UNL     1     251.011 251.991 248.860  1.00  0.00     0.039 C 
BRANCH  13  17
ATOM     17  C   UNL     1     252.118 254.699 249.380  1.00  0.00     0.066 CG0
ATOM     18  G   UNL     1     253.475 254.373 248.789  1.00  0.00     0.000 G0
ENDBRANCH  13  17
ENDBRANCH  11  13
ENDBRANCH  10  11
ENDBRANCH   1  10
TORSDOF 0
ENDMDL
