MODEL 1
REMARK VINA RESULT:    -5.297      0.000      0.000
REMARK INTER + INTRA:          -5.762
REMARK INTER:                  -5.762
REMARK INTRA:                   0.000
REMARK UNBOUND:                 0.000
REMARK SMILES Oc1cccc(O)c1O
REMARK SMILES IDX 4 1 5 2 6 3 8 4 2 5 3 6 7 7 1 9 9 11
REMARK H PARENT 7 8 1 10 9 12
REMARK Flexibility Score: inf
ROOT
ATOM      1  C   UNL     1      33.921  24.895  17.244  1.00  0.00     0.008 A 
ATOM      2  C   UNL     1      33.582  25.260  15.939  1.00  0.00     0.050 A 
ATOM      3  C   UNL     1      33.131  26.560  15.667  1.00  0.00     0.161 A 
ATOM      4  C   UNL     1      33.020  27.496  16.705  1.00  0.00     0.200 A 
ATOM      5  C   UNL     1      33.364  27.126  18.019  1.00  0.00     0.161 A 
ATOM      6  C   UNL     1      33.813  25.824  18.282  1.00  0.00     0.050 A 
ENDROOT
BRANCH   3   7
ATOM      7  O   UNL     1      32.792  26.929  14.366  1.00  0.00    -0.504 OA
ATOM      8  H   UNL     1      32.815  27.896  14.065  1.00  0.00     0.293 HD
ENDBRANCH   3   7
BRANCH   5   9
ATOM      9  O   UNL     1      33.255  28.051  19.056  1.00  0.00    -0.504 OA
ATOM     10  H   UNL     1      33.847  27.999  19.878  1.00  0.00     0.293 HD
ENDBRANCH   5   9
BRANCH   4  11
ATOM     11  O   UNL     1      32.571  28.785  16.418  1.00  0.00    -0.502 OA
ATOM     12  H   UNL     1      31.637  28.965  16.070  1.00  0.00     0.293 HD
ENDBRANCH   4  11
TORSDOF 3
ENDMDL
MODEL 2
REMARK VINA RESULT:    -5.297      0.098      2.799
REMARK INTER + INTRA:          -5.762
REMARK INTER:                  -5.762
REMARK INTRA:                   0.000
REMARK UNBOUND:                 0.000
REMARK SMILES Oc1cccc(O)c1O
REMARK SMILES IDX 4 1 5 2 6 3 8 4 2 5 3 6 7 7 1 9 9 11
REMARK H PARENT 7 8 1 10 9 12
REMARK Flexibility Score: inf
ROOT
ATOM      1  C   UNL     1      33.937  24.902  17.258  1.00  0.00     0.008 A 
ATOM      2  C   UNL     1      33.809  25.796  18.324  1.00  0.00     0.050 A 
ATOM      3  C   UNL     1      33.353  27.102  18.097  1.00  0.00     0.161 A 
ATOM      4  C   UNL     1      33.025  27.514  16.797  1.00  0.00     0.200 A 
ATOM      5  C   UNL     1      33.153  26.612  15.724  1.00  0.00     0.161 A 
ATOM      6  C   UNL     1      33.611  25.308  15.962  1.00  0.00     0.050 A 
ENDROOT
BRANCH   3   7
ATOM      7  O   UNL     1      33.224  27.997  19.158  1.00  0.00    -0.504 OA
ATOM      8  H   UNL     1      33.069  27.676  20.106  1.00  0.00     0.293 HD
ENDBRANCH   3   7
BRANCH   5   9
ATOM      9  O   UNL     1      32.829  27.015  14.430  1.00  0.00    -0.504 OA
ATOM     10  H   UNL     1      32.074  27.668  14.251  1.00  0.00     0.293 HD
ENDBRANCH   5   9
BRANCH   4  11
ATOM     11  O   UNL     1      32.572  28.816  16.588  1.00  0.00    -0.502 OA
ATOM     12  H   UNL     1      32.085  29.340  17.305  1.00  0.00     0.293 HD
ENDBRANCH   4  11
TORSDOF 3
ENDMDL
MODEL 3
REMARK VINA RESULT:    -5.249      1.420      2.836
REMARK INTER + INTRA:          -5.709
REMARK INTER:                  -5.709
REMARK INTRA:                   0.000
REMARK UNBOUND:                 0.000
REMARK SMILES Oc1cccc(O)c1O
REMARK SMILES IDX 4 1 5 2 6 3 8 4 2 5 3 6 7 7 1 9 9 11
REMARK H PARENT 7 8 1 10 9 12
REMARK Flexibility Score: inf
ROOT
ATOM      1  C   UNL     1      33.726  26.002  19.513  1.00  0.00     0.008 A 
ATOM      2  C   UNL     1      33.146  27.261  19.341  1.00  0.00     0.050 A 
ATOM      3  C   UNL     1      32.889  27.748  18.051  1.00  0.00     0.161 A 
ATOM      4  C   UNL     1      33.214  26.969  16.931  1.00  0.00     0.200 A 
ATOM      5  C   UNL     1      33.798  25.700  17.106  1.00  0.00     0.161 A 
ATOM      6  C   UNL     1      34.051  25.223  18.400  1.00  0.00     0.050 A 
ENDROOT
BRANCH   3   7
ATOM      7  O   UNL     1      32.310  29.003  17.875  1.00  0.00    -0.504 OA
ATOM      8  H   UNL     1      32.414  29.519  17.009  1.00  0.00     0.293 HD
ENDBRANCH   3   7
BRANCH   5   9
ATOM      9  O   UNL     1      34.124  24.922  15.997  1.00  0.00    -0.504 OA
ATOM     10  H   UNL     1      34.556  25.327  15.173  1.00  0.00     0.293 HD
ENDBRANCH   5   9
BRANCH   4  11
ATOM     11  O   UNL     1      32.952  27.467  15.654  1.00  0.00    -0.502 OA
ATOM     12  H   UNL     1      33.486  27.180  14.843  1.00  0.00     0.293 HD
ENDBRANCH   4  11
TORSDOF 3
ENDMDL
MODEL 4
REMARK VINA RESULT:    -5.142      1.584      2.412
REMARK INTER + INTRA:          -5.592
REMARK INTER:                  -5.592
REMARK INTRA:                   0.000
REMARK UNBOUND:                 0.000
REMARK SMILES Oc1cccc(O)c1O
REMARK SMILES IDX 4 1 5 2 6 3 8 4 2 5 3 6 7 7 1 9 9 11
REMARK H PARENT 7 8 1 10 9 12
REMARK Flexibility Score: inf
ROOT
ATOM      1  C   UNL     1      33.701  26.366  19.700  1.00  0.00     0.008 A 
ATOM      2  C   UNL     1      33.969  25.263  18.886  1.00  0.00     0.050 A 
ATOM      3  C   UNL     1      33.782  25.349  17.499  1.00  0.00     0.161 A 
ATOM      4  C   UNL     1      33.326  26.545  16.926  1.00  0.00     0.200 A 
ATOM      5  C   UNL     1      33.058  27.657  17.747  1.00  0.00     0.161 A 
ATOM      6  C   UNL     1      33.247  27.560  19.133  1.00  0.00     0.050 A 
ENDROOT
BRANCH   3   7
ATOM      7  O   UNL     1      34.048  24.251  16.683  1.00  0.00    -0.504 OA
ATOM      8  H   UNL     1      34.990  24.028  16.383  1.00  0.00     0.293 HD
ENDBRANCH   3   7
BRANCH   5   9
ATOM      9  O   UNL     1      32.604  28.848  17.184  1.00  0.00    -0.504 OA
ATOM     10  H   UNL     1      33.227  29.467  16.677  1.00  0.00     0.293 HD
ENDBRANCH   5   9
BRANCH   4  11
ATOM     11  O   UNL     1      33.146  26.616  15.545  1.00  0.00    -0.502 OA
ATOM     12  H   UNL     1      32.913  27.482  15.075  1.00  0.00     0.293 HD
ENDBRANCH   4  11
TORSDOF 3
ENDMDL
MODEL 5
REMARK VINA RESULT:    -5.018      1.253      2.270
REMARK INTER + INTRA:          -5.458
REMARK INTER:                  -5.458
REMARK INTRA:                   0.000
REMARK UNBOUND:                 0.000
REMARK SMILES Oc1cccc(O)c1O
REMARK SMILES IDX 4 1 5 2 6 3 8 4 2 5 3 6 7 7 1 9 9 11
REMARK H PARENT 7 8 1 10 9 12
REMARK Flexibility Score: inf
ROOT
ATOM      1  C   UNL     1      33.241  26.013  15.234  1.00  0.00     0.008 A 
ATOM      2  C   UNL     1      32.856  27.354  15.290  1.00  0.00     0.050 A 
ATOM      3  C   UNL     1      32.852  28.034  16.517  1.00  0.00     0.161 A 
ATOM      4  C   UNL     1      33.235  27.368  17.689  1.00  0.00     0.200 A 
ATOM      5  C   UNL     1      33.624  26.016  17.630  1.00  0.00     0.161 A 
ATOM      6  C   UNL     1      33.624  25.345  16.399  1.00  0.00     0.050 A 
ENDROOT
BRANCH   3   7
ATOM      7  O   UNL     1      32.468  29.373  16.577  1.00  0.00    -0.504 OA
ATOM      8  H   UNL     1      31.532  29.645  16.850  1.00  0.00     0.293 HD
ENDBRANCH   3   7
BRANCH   5   9
ATOM      9  O   UNL     1      34.006  25.348  18.792  1.00  0.00    -0.504 OA
ATOM     10  H   UNL     1      33.835  25.741  19.711  1.00  0.00     0.293 HD
ENDBRANCH   5   9
BRANCH   4  11
ATOM     11  O   UNL     1      33.227  28.058  18.901  1.00  0.00    -0.502 OA
ATOM     12  H   UNL     1      33.588  27.652  19.756  1.00  0.00     0.293 HD
ENDBRANCH   4  11
TORSDOF 3
ENDMDL
MODEL 6
REMARK VINA RESULT:    -5.015      1.310      2.713
REMARK INTER + INTRA:          -5.455
REMARK INTER:                  -5.455
REMARK INTRA:                   0.000
REMARK UNBOUND:                 0.000
REMARK SMILES Oc1cccc(O)c1O
REMARK SMILES IDX 4 1 5 2 6 3 8 4 2 5 3 6 7 7 1 9 9 11
REMARK H PARENT 7 8 1 10 9 12
REMARK Flexibility Score: inf
ROOT
ATOM      1  C   UNL     1      33.293  25.990  15.356  1.00  0.00     0.008 A 
ATOM      2  C   UNL     1      33.732  25.200  16.421  1.00  0.00     0.050 A 
ATOM      3  C   UNL     1      33.776  25.730  17.719  1.00  0.00     0.161 A 
ATOM      4  C   UNL     1      33.379  27.055  17.948  1.00  0.00     0.200 A 
ATOM      5  C   UNL     1      32.936  27.849  16.874  1.00  0.00     0.161 A 
ATOM      6  C   UNL     1      32.896  27.310  15.580  1.00  0.00     0.050 A 
ENDROOT
BRANCH   3   7
ATOM      7  O   UNL     1      34.213  24.945  18.784  1.00  0.00    -0.504 OA
ATOM      8  H   UNL     1      34.138  23.935  18.765  1.00  0.00     0.293 HD
ENDBRANCH   3   7
BRANCH   5   9
ATOM      9  O   UNL     1      32.541  29.167  17.096  1.00  0.00    -0.504 OA
ATOM     10  H   UNL     1      33.185  29.859  17.462  1.00  0.00     0.293 HD
ENDBRANCH   5   9
BRANCH   4  11
ATOM     11  O   UNL     1      33.428  27.567  19.245  1.00  0.00    -0.502 OA
ATOM     12  H   UNL     1      34.176  28.174  19.557  1.00  0.00     0.293 HD
ENDBRANCH   4  11
TORSDOF 3
ENDMDL
MODEL 7
REMARK VINA RESULT:    -4.962      2.034      2.872
REMARK INTER + INTRA:          -5.397
REMARK INTER:                  -5.397
REMARK INTRA:                   0.000
REMARK UNBOUND:                 0.000
REMARK SMILES Oc1cccc(O)c1O
REMARK SMILES IDX 4 1 5 2 6 3 8 4 2 5 3 6 7 7 1 9 9 11
REMARK H PARENT 7 8 1 10 9 12
REMARK Flexibility Score: inf
ROOT
ATOM      1  C   UNL     1      33.188  27.628  19.122  1.00  0.00     0.008 A 
ATOM      2  C   UNL     1      33.004  27.746  17.743  1.00  0.00     0.050 A 
ATOM      3  C   UNL     1      33.299  26.666  16.898  1.00  0.00     0.161 A 
ATOM      4  C   UNL     1      33.779  25.465  17.438  1.00  0.00     0.200 A 
ATOM      5  C   UNL     1      33.963  25.347  18.828  1.00  0.00     0.161 A 
ATOM      6  C   UNL     1      33.666  26.432  19.665  1.00  0.00     0.050 A 
ENDROOT
BRANCH   3   7
ATOM      7  O   UNL     1      33.116  26.780  15.521  1.00  0.00    -0.504 OA
ATOM      8  H   UNL     1      32.743  27.624  15.103  1.00  0.00     0.293 HD
ENDBRANCH   3   7
BRANCH   5   9
ATOM      9  O   UNL     1      34.441  24.155  19.371  1.00  0.00    -0.504 OA
ATOM     10  H   UNL     1      34.066  23.256  19.091  1.00  0.00     0.293 HD
ENDBRANCH   5   9
BRANCH   4  11
ATOM     11  O   UNL     1      34.068  24.400  16.584  1.00  0.00    -0.502 OA
ATOM     12  H   UNL     1      34.982  23.965  16.554  1.00  0.00     0.293 HD
ENDBRANCH   4  11
TORSDOF 3
ENDMDL
MODEL 8
REMARK VINA RESULT:    -4.914      2.686      4.382
REMARK INTER + INTRA:          -5.344
REMARK INTER:                  -5.344
REMARK INTRA:                   0.000
REMARK UNBOUND:                 0.000
REMARK SMILES Oc1cccc(O)c1O
REMARK SMILES IDX 4 1 5 2 6 3 8 4 2 5 3 6 7 7 1 9 9 11
REMARK H PARENT 7 8 1 10 9 12
REMARK Flexibility Score: inf
ROOT
ATOM      1  C   UNL     1      34.275  24.876  18.957  1.00  0.00     0.008 A 
ATOM      2  C   UNL     1      35.019  24.999  20.132  1.00  0.00     0.050 A 
ATOM      3  C   UNL     1      34.779  26.067  21.009  1.00  0.00     0.161 A 
ATOM      4  C   UNL     1      33.789  27.013  20.707  1.00  0.00     0.200 A 
ATOM      5  C   UNL     1      33.039  26.887  19.522  1.00  0.00     0.161 A 
ATOM      6  C   UNL     1      33.288  25.816  18.651  1.00  0.00     0.050 A 
ENDROOT
BRANCH   3   7
ATOM      7  O   UNL     1      35.519  26.193  22.184  1.00  0.00    -0.504 OA
ATOM      8  H   UNL     1      35.974  25.396  22.612  1.00  0.00     0.293 HD
ENDBRANCH   3   7
BRANCH   5   9
ATOM      9  O   UNL     1      32.055  27.824  19.216  1.00  0.00    -0.504 OA
ATOM     10  H   UNL     1      31.076  27.565  19.153  1.00  0.00     0.293 HD
ENDBRANCH   5   9
BRANCH   4  11
ATOM     11  O   UNL     1      33.561  28.069  21.590  1.00  0.00    -0.502 OA
ATOM     12  H   UNL     1      33.975  28.098  22.513  1.00  0.00     0.293 HD
ENDBRANCH   4  11
TORSDOF 3
ENDMDL
MODEL 9
REMARK VINA RESULT:    -4.879      2.792      3.920
REMARK INTER + INTRA:          -5.307
REMARK INTER:                  -5.307
REMARK INTRA:                   0.000
REMARK UNBOUND:                 0.000
REMARK SMILES Oc1cccc(O)c1O
REMARK SMILES IDX 4 1 5 2 6 3 8 4 2 5 3 6 7 7 1 9 9 11
REMARK H PARENT 7 8 1 10 9 12
REMARK Flexibility Score: inf
ROOT
ATOM      1  C   UNL     1      34.244  24.934  19.012  1.00  0.00     0.008 A 
ATOM      2  C   UNL     1      33.240  25.873  18.767  1.00  0.00     0.050 A 
ATOM      3  C   UNL     1      33.041  26.940  19.656  1.00  0.00     0.161 A 
ATOM      4  C   UNL     1      33.852  27.064  20.793  1.00  0.00     0.200 A 
ATOM      5  C   UNL     1      34.864  26.117  21.038  1.00  0.00     0.161 A 
ATOM      6  C   UNL     1      35.054  25.054  20.144  1.00  0.00     0.050 A 
ENDROOT
BRANCH   3   7
ATOM      7  O   UNL     1      32.041  27.880  19.415  1.00  0.00    -0.504 OA
ATOM      8  H   UNL     1      32.125  28.566  18.675  1.00  0.00     0.293 HD
ENDBRANCH   3   7
BRANCH   5   9
ATOM      9  O   UNL     1      35.672  26.235  22.168  1.00  0.00    -0.504 OA
ATOM     10  H   UNL     1      35.446  25.759  23.034  1.00  0.00     0.293 HD
ENDBRANCH   5   9
BRANCH   4  11
ATOM     11  O   UNL     1      33.642  28.131  21.667  1.00  0.00    -0.502 OA
ATOM     12  H   UNL     1      32.717  28.399  21.979  1.00  0.00     0.293 HD
ENDBRANCH   4  11
TORSDOF 3
ENDMDL
