MODEL 1
REMARK VINA RESULT:    -4.729      0.000      0.000
REMARK INTER + INTRA:         -11.448
REMARK INTER:                  -8.876
REMARK INTRA:                  -2.571
REMARK UNBOUND:                -2.571
REMARK SMILES O=C([O-])CCCCCCCCCCCCCCC(=O)[O-]
REMARK SMILES IDX 10 1 9 2 8 3 7 4 6 5 5 6 4 7 2 8 1 9 3 10 11 11 12 12 13 13
REMARK SMILES IDX 14 14 15 15 16 16 17 17 18 18 19 19 20 20
REMARK H PARENT
REMARK Flexibility Score: inf
ROOT
ATOM      1  C   UNL     1      20.939  18.470  49.022  1.00  0.00     0.000 C 
ENDROOT
BRANCH   1   2
ATOM      2  C   UNL     1      20.110  19.767  49.044  1.00  0.00     0.000 C 
BRANCH   2   3
ATOM      3  C   UNL     1      19.983  20.419  47.654  1.00  0.00     0.000 C 
BRANCH   3   4
ATOM      4  C   UNL     1      18.570  20.922  47.306  1.00  0.00     0.000 C 
BRANCH   4   5
ATOM      5  C   UNL     1      18.099  20.462  45.917  1.00  0.00     0.000 C 
BRANCH   5   6
ATOM      6  C   UNL     1      19.261  20.068  44.986  1.00  0.00     0.006 C 
BRANCH   6   7
ATOM      7  C   UNL     1      18.844  19.871  43.518  1.00  0.00     0.053 C 
BRANCH   7   8
ATOM      8  C   UNL     1      18.023  21.008  42.992  1.00  0.00     0.041 C 
ATOM      9  O   UNL     1      18.554  22.131  42.781  1.00  0.00    -0.550 OA
ATOM     10  O   UNL     1      16.674  20.824  42.715  1.00  0.00    -0.550 OA
ENDBRANCH   7   8
ENDBRANCH   6   7
ENDBRANCH   5   6
ENDBRANCH   4   5
ENDBRANCH   3   4
ENDBRANCH   2   3
ENDBRANCH   1   2
BRANCH   1  11
ATOM     11  C   UNL     1      21.212  17.970  47.595  1.00  0.00     0.000 C 
BRANCH  11  12
ATOM     12  C   UNL     1      20.500  16.640  47.292  1.00  0.00     0.000 C 
BRANCH  12  13
ATOM     13  C   UNL     1      19.186  16.839  46.519  1.00  0.00     0.000 C 
BRANCH  13  14
ATOM     14  C   UNL     1      17.989  17.091  47.449  1.00  0.00     0.000 C 
BRANCH  14  15
ATOM     15  C   UNL     1      16.646  17.123  46.698  1.00  0.00     0.000 C 
BRANCH  15  16
ATOM     16  C   UNL     1      16.793  17.019  45.165  1.00  0.00     0.006 C 
BRANCH  16  17
ATOM     17  C   UNL     1      15.745  17.857  44.423  1.00  0.00     0.053 C 
BRANCH  17  18
ATOM     18  C   UNL     1      14.365  17.380  44.751  1.00  0.00     0.041 C 
ATOM     19  O   UNL     1      13.575  18.119  45.395  1.00  0.00    -0.550 OA
ATOM     20  O   UNL     1      13.936  16.137  44.303  1.00  0.00    -0.550 OA
ENDBRANCH  17  18
ENDBRANCH  16  17
ENDBRANCH  15  16
ENDBRANCH  14  15
ENDBRANCH  13  14
ENDBRANCH  12  13
ENDBRANCH  11  12
ENDBRANCH   1  11
TORSDOF 15
ENDMDL
MODEL 2
REMARK VINA RESULT:    -4.708      1.388      4.381
REMARK INTER + INTRA:         -11.407
REMARK INTER:                  -8.934
REMARK INTRA:                  -2.473
REMARK UNBOUND:                -2.571
REMARK SMILES O=C([O-])CCCCCCCCCCCCCCC(=O)[O-]
REMARK SMILES IDX 10 1 9 2 8 3 7 4 6 5 5 6 4 7 2 8 1 9 3 10 11 11 12 12 13 13
REMARK SMILES IDX 14 14 15 15 16 16 17 17 18 18 19 19 20 20
REMARK H PARENT
REMARK Flexibility Score: inf
ROOT
ATOM      1  C   UNL     1      21.091  17.786  47.581  1.00  0.00     0.000 C 
ENDROOT
BRANCH   1   2
ATOM      2  C   UNL     1      20.311  16.525  47.165  1.00  0.00     0.000 C 
BRANCH   2   3
ATOM      3  C   UNL     1      19.003  16.850  46.421  1.00  0.00     0.000 C 
BRANCH   3   4
ATOM      4  C   UNL     1      17.755  16.931  47.317  1.00  0.00     0.000 C 
BRANCH   4   5
ATOM      5  C   UNL     1      16.559  17.598  46.617  1.00  0.00     0.000 C 
BRANCH   5   6
ATOM      6  C   UNL     1      16.688  17.605  45.082  1.00  0.00     0.006 C 
BRANCH   6   7
ATOM      7  C   UNL     1      15.825  16.540  44.380  1.00  0.00     0.053 C 
BRANCH   7   8
ATOM      8  C   UNL     1      16.386  16.123  43.056  1.00  0.00     0.041 C 
ATOM      9  O   UNL     1      16.858  16.983  42.265  1.00  0.00    -0.550 OA
ATOM     10  O   UNL     1      16.407  14.780  42.701  1.00  0.00    -0.550 OA
ENDBRANCH   7   8
ENDBRANCH   6   7
ENDBRANCH   5   6
ENDBRANCH   4   5
ENDBRANCH   3   4
ENDBRANCH   2   3
ENDBRANCH   1   2
BRANCH   1  11
ATOM     11  C   UNL     1      20.842  18.174  49.047  1.00  0.00     0.000 C 
BRANCH  11  12
ATOM     12  C   UNL     1      20.276  19.598  49.190  1.00  0.00     0.000 C 
BRANCH  12  13
ATOM     13  C   UNL     1      20.083  20.294  47.832  1.00  0.00     0.000 C 
BRANCH  13  14
ATOM     14  C   UNL     1      18.612  20.639  47.551  1.00  0.00     0.000 C 
BRANCH  14  15
ATOM     15  C   UNL     1      18.307  20.773  46.049  1.00  0.00     0.000 C 
BRANCH  15  16
ATOM     16  C   UNL     1      19.485  20.359  45.141  1.00  0.00     0.006 C 
BRANCH  16  17
ATOM     17  C   UNL     1      19.013  19.863  43.768  1.00  0.00     0.053 C 
BRANCH  17  18
ATOM     18  C   UNL     1      18.118  20.876  43.125  1.00  0.00     0.041 C 
ATOM     19  O   UNL     1      18.574  22.000  42.786  1.00  0.00    -0.550 OA
ATOM     20  O   UNL     1      16.792  20.561  42.856  1.00  0.00    -0.550 OA
ENDBRANCH  17  18
ENDBRANCH  16  17
ENDBRANCH  15  16
ENDBRANCH  14  15
ENDBRANCH  13  14
ENDBRANCH  12  13
ENDBRANCH  11  12
ENDBRANCH   1  11
TORSDOF 15
ENDMDL
MODEL 3
REMARK VINA RESULT:    -4.634      1.363      4.346
REMARK INTER + INTRA:         -11.270
REMARK INTER:                  -8.860
REMARK INTRA:                  -2.409
REMARK UNBOUND:                -2.571
REMARK SMILES O=C([O-])CCCCCCCCCCCCCCC(=O)[O-]
REMARK SMILES IDX 10 1 9 2 8 3 7 4 6 5 5 6 4 7 2 8 1 9 3 10 11 11 12 12 13 13
REMARK SMILES IDX 14 14 15 15 16 16 17 17 18 18 19 19 20 20
REMARK H PARENT
REMARK Flexibility Score: inf
ROOT
ATOM      1  C   UNL     1      20.974  18.176  49.117  1.00  0.00     0.000 C 
ENDROOT
BRANCH   1   2
ATOM      2  C   UNL     1      21.147  17.761  47.644  1.00  0.00     0.000 C 
BRANCH   2   3
ATOM      3  C   UNL     1      20.454  16.425  47.315  1.00  0.00     0.000 C 
BRANCH   3   4
ATOM      4  C   UNL     1      19.153  16.558  46.502  1.00  0.00     0.000 C 
BRANCH   4   5
ATOM      5  C   UNL     1      18.009  17.199  47.305  1.00  0.00     0.000 C 
BRANCH   5   6
ATOM      6  C   UNL     1      16.641  16.547  47.030  1.00  0.00     0.006 C 
BRANCH   6   7
ATOM      7  C   UNL     1      16.700  15.375  46.034  1.00  0.00     0.053 C 
BRANCH   7   8
ATOM      8  C   UNL     1      16.051  15.697  44.723  1.00  0.00     0.041 C 
ATOM      9  O   UNL     1      14.798  15.644  44.604  1.00  0.00    -0.550 OA
ATOM     10  O   UNL     1      16.828  16.077  43.636  1.00  0.00    -0.550 OA
ENDBRANCH   7   8
ENDBRANCH   6   7
ENDBRANCH   5   6
ENDBRANCH   4   5
ENDBRANCH   3   4
ENDBRANCH   2   3
ENDBRANCH   1   2
BRANCH   1  11
ATOM     11  C   UNL     1      20.271  19.534  49.266  1.00  0.00     0.000 C 
BRANCH  11  12
ATOM     12  C   UNL     1      20.169  20.293  47.931  1.00  0.00     0.000 C 
BRANCH  12  13
ATOM     13  C   UNL     1      18.736  20.764  47.630  1.00  0.00     0.000 C 
BRANCH  13  14
ATOM     14  C   UNL     1      18.529  21.108  46.146  1.00  0.00     0.000 C 
BRANCH  14  15
ATOM     15  C   UNL     1      19.404  20.257  45.208  1.00  0.00     0.000 C 
BRANCH  15  16
ATOM     16  C   UNL     1      18.594  19.461  44.163  1.00  0.00     0.006 C 
BRANCH  16  17
ATOM     17  C   UNL     1      17.098  19.419  44.497  1.00  0.00     0.053 C 
BRANCH  17  18
ATOM     18  C   UNL     1      16.295  20.004  43.378  1.00  0.00     0.041 C 
ATOM     19  O   UNL     1      15.860  19.265  42.456  1.00  0.00    -0.550 OA
ATOM     20  O   UNL     1      15.987  21.359  43.378  1.00  0.00    -0.550 OA
ENDBRANCH  17  18
ENDBRANCH  16  17
ENDBRANCH  15  16
ENDBRANCH  14  15
ENDBRANCH  13  14
ENDBRANCH  12  13
ENDBRANCH  11  12
ENDBRANCH   1  11
TORSDOF 15
ENDMDL
MODEL 4
REMARK VINA RESULT:    -4.620      1.692      4.198
REMARK INTER + INTRA:         -11.242
REMARK INTER:                  -8.754
REMARK INTRA:                  -2.488
REMARK UNBOUND:                -2.571
REMARK SMILES O=C([O-])CCCCCCCCCCCCCCC(=O)[O-]
REMARK SMILES IDX 10 1 9 2 8 3 7 4 6 5 5 6 4 7 2 8 1 9 3 10 11 11 12 12 13 13
REMARK SMILES IDX 14 14 15 15 16 16 17 17 18 18 19 19 20 20
REMARK H PARENT
REMARK Flexibility Score: inf
ROOT
ATOM      1  C   UNL     1      20.356  19.470  49.294  1.00  0.00     0.000 C 
ENDROOT
BRANCH   1   2
ATOM      2  C   UNL     1      20.988  18.072  49.167  1.00  0.00     0.000 C 
BRANCH   2   3
ATOM      3  C   UNL     1      21.210  17.646  47.704  1.00  0.00     0.000 C 
BRANCH   3   4
ATOM      4  C   UNL     1      20.367  16.441  47.249  1.00  0.00     0.000 C 
BRANCH   4   5
ATOM      5  C   UNL     1      19.127  16.853  46.437  1.00  0.00     0.000 C 
BRANCH   5   6
ATOM      6  C   UNL     1      17.877  17.059  47.313  1.00  0.00     0.006 C 
BRANCH   6   7
ATOM      7  C   UNL     1      16.656  17.589  46.539  1.00  0.00     0.053 C 
BRANCH   7   8
ATOM      8  C   UNL     1      15.682  16.509  46.185  1.00  0.00     0.041 C 
ATOM      9  O   UNL     1      15.868  15.329  46.584  1.00  0.00    -0.550 OA
ATOM     10  O   UNL     1      14.556  16.807  45.428  1.00  0.00    -0.550 OA
ENDBRANCH   7   8
ENDBRANCH   6   7
ENDBRANCH   5   6
ENDBRANCH   4   5
ENDBRANCH   3   4
ENDBRANCH   2   3
ENDBRANCH   1   2
BRANCH   1  11
ATOM     11  C   UNL     1      20.195  20.168  47.934  1.00  0.00     0.000 C 
BRANCH  11  12
ATOM     12  C   UNL     1      18.756  20.658  47.691  1.00  0.00     0.000 C 
BRANCH  12  13
ATOM     13  C   UNL     1      18.503  21.034  46.223  1.00  0.00     0.000 C 
BRANCH  13  14
ATOM     14  C   UNL     1      19.476  20.336  45.260  1.00  0.00     0.000 C 
BRANCH  14  15
ATOM     15  C   UNL     1      18.794  19.850  43.969  1.00  0.00     0.000 C 
BRANCH  15  16
ATOM     16  C   UNL     1      17.258  19.999  43.989  1.00  0.00     0.006 C 
BRANCH  16  17
ATOM     17  C   UNL     1      16.632  19.754  42.610  1.00  0.00     0.053 C 
BRANCH  17  18
ATOM     18  C   UNL     1      15.991  18.403  42.559  1.00  0.00     0.041 C 
ATOM     19  O   UNL     1      16.676  17.368  42.768  1.00  0.00    -0.550 OA
ATOM     20  O   UNL     1      14.625  18.291  42.329  1.00  0.00    -0.550 OA
ENDBRANCH  17  18
ENDBRANCH  16  17
ENDBRANCH  15  16
ENDBRANCH  14  15
ENDBRANCH  13  14
ENDBRANCH  12  13
ENDBRANCH  11  12
ENDBRANCH   1  11
TORSDOF 15
ENDMDL
MODEL 5
REMARK VINA RESULT:    -4.560      1.693      2.210
REMARK INTER + INTRA:         -11.129
REMARK INTER:                  -8.622
REMARK INTRA:                  -2.507
REMARK UNBOUND:                -2.571
REMARK SMILES O=C([O-])CCCCCCCCCCCCCCC(=O)[O-]
REMARK SMILES IDX 10 1 9 2 8 3 7 4 6 5 5 6 4 7 2 8 1 9 3 10 11 11 12 12 13 13
REMARK SMILES IDX 14 14 15 15 16 16 17 17 18 18 19 19 20 20
REMARK H PARENT
REMARK Flexibility Score: inf
ROOT
ATOM      1  C   UNL     1      20.310  17.101  47.986  1.00  0.00     0.000 C 
ENDROOT
BRANCH   1   2
ATOM      2  C   UNL     1      21.318  18.174  47.538  1.00  0.00     0.000 C 
BRANCH   2   3
ATOM      3  C   UNL     1      20.641  19.487  47.103  1.00  0.00     0.000 C 
BRANCH   3   4
ATOM      4  C   UNL     1      19.668  20.083  48.136  1.00  0.00     0.000 C 
BRANCH   4   5
ATOM      5  C   UNL     1      18.580  20.960  47.493  1.00  0.00     0.000 C 
BRANCH   5   6
ATOM      6  C   UNL     1      18.912  21.368  46.045  1.00  0.00     0.006 C 
BRANCH   6   7
ATOM      7  C   UNL     1      17.677  21.732  45.203  1.00  0.00     0.053 C 
BRANCH   7   8
ATOM      8  C   UNL     1      17.999  21.905  43.750  1.00  0.00     0.041 C 
ATOM      9  O   UNL     1      17.632  22.943  43.137  1.00  0.00    -0.550 OA
ATOM     10  O   UNL     1      18.721  20.928  43.076  1.00  0.00    -0.550 OA
ENDBRANCH   7   8
ENDBRANCH   6   7
ENDBRANCH   5   6
ENDBRANCH   4   5
ENDBRANCH   3   4
ENDBRANCH   2   3
ENDBRANCH   1   2
BRANCH   1  11
ATOM     11  C   UNL     1      20.108  16.006  46.928  1.00  0.00     0.000 C 
BRANCH  11  12
ATOM     12  C   UNL     1      18.639  15.881  46.483  1.00  0.00     0.000 C 
BRANCH  12  13
ATOM     13  C   UNL     1      17.727  16.913  47.167  1.00  0.00     0.000 C 
BRANCH  13  14
ATOM     14  C   UNL     1      17.177  17.956  46.182  1.00  0.00     0.000 C 
BRANCH  14  15
ATOM     15  C   UNL     1      17.988  18.031  44.876  1.00  0.00     0.000 C 
BRANCH  15  16
ATOM     16  C   UNL     1      17.128  17.866  43.605  1.00  0.00     0.006 C 
BRANCH  16  17
ATOM     17  C   UNL     1      15.650  18.188  43.858  1.00  0.00     0.053 C 
BRANCH  17  18
ATOM     18  C   UNL     1      15.272  19.471  43.189  1.00  0.00     0.041 C 
ATOM     19  O   UNL     1      14.798  20.423  43.863  1.00  0.00    -0.550 OA
ATOM     20  O   UNL     1      15.489  19.634  41.826  1.00  0.00    -0.550 OA
ENDBRANCH  17  18
ENDBRANCH  16  17
ENDBRANCH  15  16
ENDBRANCH  14  15
ENDBRANCH  13  14
ENDBRANCH  12  13
ENDBRANCH  11  12
ENDBRANCH   1  11
TORSDOF 15
ENDMDL
MODEL 6
REMARK VINA RESULT:    -4.520      1.654      3.084
REMARK INTER + INTRA:         -11.055
REMARK INTER:                  -8.870
REMARK INTRA:                  -2.185
REMARK UNBOUND:                -2.571
REMARK SMILES O=C([O-])CCCCCCCCCCCCCCC(=O)[O-]
REMARK SMILES IDX 10 1 9 2 8 3 7 4 6 5 5 6 4 7 2 8 1 9 3 10 11 11 12 12 13 13
REMARK SMILES IDX 14 14 15 15 16 16 17 17 18 18 19 19 20 20
REMARK H PARENT
REMARK Flexibility Score: inf
ROOT
ATOM      1  C   UNL     1      19.844  20.606  47.735  1.00  0.00     0.000 C 
ENDROOT
BRANCH   1   2
ATOM      2  C   UNL     1      18.403  21.045  47.415  1.00  0.00     0.000 C 
BRANCH   2   3
ATOM      3  C   UNL     1      18.003  20.763  45.955  1.00  0.00     0.000 C 
BRANCH   3   4
ATOM      4  C   UNL     1      19.185  20.540  44.995  1.00  0.00     0.000 C 
BRANCH   4   5
ATOM      5  C   UNL     1      18.772  19.826  43.696  1.00  0.00     0.000 C 
BRANCH   5   6
ATOM      6  C   UNL     1      17.440  19.064  43.825  1.00  0.00     0.006 C 
BRANCH   6   7
ATOM      7  C   UNL     1      16.479  19.285  42.644  1.00  0.00     0.053 C 
BRANCH   7   8
ATOM      8  C   UNL     1      15.347  20.205  42.984  1.00  0.00     0.041 C 
ATOM      9  O   UNL     1      14.155  19.842  42.796  1.00  0.00    -0.550 OA
ATOM     10  O   UNL     1      15.606  21.456  43.527  1.00  0.00    -0.550 OA
ENDBRANCH   7   8
ENDBRANCH   6   7
ENDBRANCH   5   6
ENDBRANCH   4   5
ENDBRANCH   3   4
ENDBRANCH   2   3
ENDBRANCH   1   2
BRANCH   1  11
ATOM     11  C   UNL     1      19.997  20.098  49.177  1.00  0.00     0.000 C 
BRANCH  11  12
ATOM     12  C   UNL     1      20.756  18.761  49.252  1.00  0.00     0.000 C 
BRANCH  12  13
ATOM     13  C   UNL     1      21.274  18.301  47.880  1.00  0.00     0.000 C 
BRANCH  13  14
ATOM     14  C   UNL     1      21.393  16.772  47.777  1.00  0.00     0.000 C 
BRANCH  14  15
ATOM     15  C   UNL     1      20.169  16.122  47.108  1.00  0.00     0.000 C 
BRANCH  15  16
ATOM     16  C   UNL     1      19.208  17.140  46.458  1.00  0.00     0.006 C 
BRANCH  16  17
ATOM     17  C   UNL     1      17.800  17.078  47.065  1.00  0.00     0.053 C 
BRANCH  17  18
ATOM     18  C   UNL     1      16.937  16.135  46.288  1.00  0.00     0.041 C 
ATOM     19  O   UNL     1      17.282  15.761  45.136  1.00  0.00    -0.550 OA
ATOM     20  O   UNL     1      15.773  15.632  46.855  1.00  0.00    -0.550 OA
ENDBRANCH  17  18
ENDBRANCH  16  17
ENDBRANCH  15  16
ENDBRANCH  14  15
ENDBRANCH  13  14
ENDBRANCH  12  13
ENDBRANCH  11  12
ENDBRANCH   1  11
TORSDOF 15
ENDMDL
MODEL 7
REMARK VINA RESULT:    -4.472      1.112      1.918
REMARK INTER + INTRA:         -10.965
REMARK INTER:                  -8.596
REMARK INTRA:                  -2.369
REMARK UNBOUND:                -2.571
REMARK SMILES O=C([O-])CCCCCCCCCCCCCCC(=O)[O-]
REMARK SMILES IDX 10 1 9 2 8 3 7 4 6 5 5 6 4 7 2 8 1 9 3 10 11 11 12 12 13 13
REMARK SMILES IDX 14 14 15 15 16 16 17 17 18 18 19 19 20 20
REMARK H PARENT
REMARK Flexibility Score: inf
ROOT
ATOM      1  C   UNL     1      20.215  19.744  49.154  1.00  0.00     0.000 C 
ENDROOT
BRANCH   1   2
ATOM      2  C   UNL     1      19.983  20.344  47.755  1.00  0.00     0.000 C 
BRANCH   2   3
ATOM      3  C   UNL     1      18.491  20.541  47.429  1.00  0.00     0.000 C 
BRANCH   3   4
ATOM      4  C   UNL     1      18.061  20.027  46.043  1.00  0.00     0.000 C 
BRANCH   4   5
ATOM      5  C   UNL     1      19.243  19.873  45.071  1.00  0.00     0.000 C 
BRANCH   5   6
ATOM      6  C   UNL     1      18.800  19.744  43.601  1.00  0.00     0.006 C 
BRANCH   6   7
ATOM      7  C   UNL     1      17.657  18.737  43.382  1.00  0.00     0.053 C 
BRANCH   7   8
ATOM      8  C   UNL     1      16.441  19.367  42.774  1.00  0.00     0.041 C 
ATOM      9  O   UNL     1      16.310  20.619  42.766  1.00  0.00    -0.550 OA
ATOM     10  O   UNL     1      15.458  18.570  42.199  1.00  0.00    -0.550 OA
ENDBRANCH   7   8
ENDBRANCH   6   7
ENDBRANCH   5   6
ENDBRANCH   4   5
ENDBRANCH   3   4
ENDBRANCH   2   3
ENDBRANCH   1   2
BRANCH   1  11
ATOM     11  C   UNL     1      20.978  18.411  49.103  1.00  0.00     0.000 C 
BRANCH  11  12
ATOM     12  C   UNL     1      21.330  17.989  47.665  1.00  0.00     0.000 C 
BRANCH  12  13
ATOM     13  C   UNL     1      20.685  16.651  47.270  1.00  0.00     0.000 C 
BRANCH  13  14
ATOM     14  C   UNL     1      19.149  16.702  47.312  1.00  0.00     0.000 C 
BRANCH  14  15
ATOM     15  C   UNL     1      18.501  16.266  45.986  1.00  0.00     0.000 C 
BRANCH  15  16
ATOM     16  C   UNL     1      17.158  15.529  46.169  1.00  0.00     0.006 C 
BRANCH  16  17
ATOM     17  C   UNL     1      16.016  16.485  46.535  1.00  0.00     0.053 C 
BRANCH  17  18
ATOM     18  C   UNL     1      15.170  16.775  45.335  1.00  0.00     0.041 C 
ATOM     19  O   UNL     1      15.211  16.014  44.333  1.00  0.00    -0.550 OA
ATOM     20  O   UNL     1      14.301  17.858  45.343  1.00  0.00    -0.550 OA
ENDBRANCH  17  18
ENDBRANCH  16  17
ENDBRANCH  15  16
ENDBRANCH  14  15
ENDBRANCH  13  14
ENDBRANCH  12  13
ENDBRANCH  11  12
ENDBRANCH   1  11
TORSDOF 15
ENDMDL
MODEL 8
REMARK VINA RESULT:    -4.444      1.714      4.862
REMARK INTER + INTRA:         -10.912
REMARK INTER:                  -8.922
REMARK INTRA:                  -1.991
REMARK UNBOUND:                -2.571
REMARK SMILES O=C([O-])CCCCCCCCCCCCCCC(=O)[O-]
REMARK SMILES IDX 10 1 9 2 8 3 7 4 6 5 5 6 4 7 2 8 1 9 3 10 11 11 12 12 13 13
REMARK SMILES IDX 14 14 15 15 16 16 17 17 18 18 19 19 20 20
REMARK H PARENT
REMARK Flexibility Score: inf
ROOT
ATOM      1  C   UNL     1      21.196  18.207  47.706  1.00  0.00     0.000 C 
ENDROOT
BRANCH   1   2
ATOM      2  C   UNL     1      21.225  16.673  47.574  1.00  0.00     0.000 C 
BRANCH   2   3
ATOM      3  C   UNL     1      19.925  16.100  46.979  1.00  0.00     0.000 C 
BRANCH   3   4
ATOM      4  C   UNL     1      18.968  17.152  46.390  1.00  0.00     0.000 C 
BRANCH   4   5
ATOM      5  C   UNL     1      17.691  17.333  47.229  1.00  0.00     0.000 C 
BRANCH   5   6
ATOM      6  C   UNL     1      16.686  16.180  47.050  1.00  0.00     0.006 C 
BRANCH   6   7
ATOM      7  C   UNL     1      16.533  15.707  45.593  1.00  0.00     0.053 C 
BRANCH   7   8
ATOM      8  C   UNL     1      16.615  14.218  45.457  1.00  0.00     0.041 C 
ATOM      9  O   UNL     1      16.947  13.697  44.359  1.00  0.00    -0.550 OA
ATOM     10  O   UNL     1      16.344  13.403  46.549  1.00  0.00    -0.550 OA
ENDBRANCH   7   8
ENDBRANCH   6   7
ENDBRANCH   5   6
ENDBRANCH   4   5
ENDBRANCH   3   4
ENDBRANCH   2   3
ENDBRANCH   1   2
BRANCH   1  11
ATOM     11  C   UNL     1      20.783  18.668  49.112  1.00  0.00     0.000 C 
BRANCH  11  12
ATOM     12  C   UNL     1      20.026  20.009  49.092  1.00  0.00     0.000 C 
BRANCH  12  13
ATOM     13  C   UNL     1      19.845  20.562  47.669  1.00  0.00     0.000 C 
BRANCH  13  14
ATOM     14  C   UNL     1      18.388  20.943  47.367  1.00  0.00     0.000 C 
BRANCH  14  15
ATOM     15  C   UNL     1      18.127  21.163  45.866  1.00  0.00     0.000 C 
BRANCH  15  16
ATOM     16  C   UNL     1      19.176  20.492  44.953  1.00  0.00     0.006 C 
BRANCH  16  17
ATOM     17  C   UNL     1      18.762  20.519  43.476  1.00  0.00     0.053 C 
BRANCH  17  18
ATOM     18  C   UNL     1      17.379  19.972  43.310  1.00  0.00     0.041 C 
ATOM     19  O   UNL     1      16.459  20.701  42.856  1.00  0.00    -0.550 OA
ATOM     20  O   UNL     1      17.118  18.642  43.612  1.00  0.00    -0.550 OA
ENDBRANCH  17  18
ENDBRANCH  16  17
ENDBRANCH  15  16
ENDBRANCH  14  15
ENDBRANCH  13  14
ENDBRANCH  12  13
ENDBRANCH  11  12
ENDBRANCH   1  11
TORSDOF 15
ENDMDL
MODEL 9
REMARK VINA RESULT:    -4.396      1.426      1.776
REMARK INTER + INTRA:         -10.822
REMARK INTER:                  -8.365
REMARK INTRA:                  -2.456
REMARK UNBOUND:                -2.571
REMARK SMILES O=C([O-])CCCCCCCCCCCCCCC(=O)[O-]
REMARK SMILES IDX 10 1 9 2 8 3 7 4 6 5 5 6 4 7 2 8 1 9 3 10 11 11 12 12 13 13
REMARK SMILES IDX 14 14 15 15 16 16 17 17 18 18 19 19 20 20
REMARK H PARENT
REMARK Flexibility Score: inf
ROOT
ATOM      1  C   UNL     1      20.558  19.053  48.449  1.00  0.00     0.000 C 
ENDROOT
BRANCH   1   2
ATOM      2  C   UNL     1      20.191  20.332  47.675  1.00  0.00     0.000 C 
BRANCH   2   3
ATOM      3  C   UNL     1      18.672  20.503  47.488  1.00  0.00     0.000 C 
BRANCH   3   4
ATOM      4  C   UNL     1      18.191  20.436  46.027  1.00  0.00     0.000 C 
BRANCH   4   5
ATOM      5  C   UNL     1      19.271  19.908  45.067  1.00  0.00     0.000 C 
BRANCH   5   6
ATOM      6  C   UNL     1      18.861  20.009  43.586  1.00  0.00     0.006 C 
BRANCH   6   7
ATOM      7  C   UNL     1      18.475  21.431  43.143  1.00  0.00     0.053 C 
BRANCH   7   8
ATOM      8  C   UNL     1      17.114  21.495  42.522  1.00  0.00     0.041 C 
ATOM      9  O   UNL     1      16.979  21.835  41.317  1.00  0.00    -0.550 OA
ATOM     10  O   UNL     1      15.992  21.159  43.270  1.00  0.00    -0.550 OA
ENDBRANCH   7   8
ENDBRANCH   6   7
ENDBRANCH   5   6
ENDBRANCH   4   5
ENDBRANCH   3   4
ENDBRANCH   2   3
ENDBRANCH   1   2
BRANCH   1  11
ATOM     11  C   UNL     1      21.414  18.087  47.617  1.00  0.00     0.000 C 
BRANCH  11  12
ATOM     12  C   UNL     1      20.646  16.813  47.220  1.00  0.00     0.000 C 
BRANCH  12  13
ATOM     13  C   UNL     1      19.172  16.856  47.653  1.00  0.00     0.000 C 
BRANCH  13  14
ATOM     14  C   UNL     1      18.205  16.672  46.473  1.00  0.00     0.000 C 
BRANCH  14  15
ATOM     15  C   UNL     1      16.764  17.091  46.811  1.00  0.00     0.000 C 
BRANCH  15  16
ATOM     16  C   UNL     1      15.765  16.848  45.660  1.00  0.00     0.006 C 
BRANCH  16  17
ATOM     17  C   UNL     1      15.897  17.895  44.546  1.00  0.00     0.053 C 
BRANCH  17  18
ATOM     18  C   UNL     1      16.306  17.245  43.263  1.00  0.00     0.041 C 
ATOM     19  O   UNL     1      16.558  16.012  43.229  1.00  0.00    -0.550 OA
ATOM     20  O   UNL     1      16.361  17.991  42.092  1.00  0.00    -0.550 OA
ENDBRANCH  17  18
ENDBRANCH  16  17
ENDBRANCH  15  16
ENDBRANCH  14  15
ENDBRANCH  13  14
ENDBRANCH  12  13
ENDBRANCH  11  12
ENDBRANCH   1  11
TORSDOF 15
ENDMDL
