MODEL 1
REMARK VINA RESULT:    -4.023      0.000      0.000
REMARK INTER + INTRA:          -4.737
REMARK INTER:                  -4.611
REMARK INTRA:                  -0.126
REMARK UNBOUND:                -0.126
REMARK SMILES CC=Cc1ccc(O)c(OC)c1
REMARK SMILES IDX 4 1 12 2 9 3 7 4 6 5 5 6 3 7 1 8 2 9 10 10 11 11 8 12
REMARK H PARENT 8 13
REMARK Flexibility Score: inf
ROOT
ATOM      1  C   UNL     1     115.675 118.756 120.054  1.00  0.00    -0.022 A 
ATOM      2  C   UNL     1     115.111 118.017 121.108  1.00  0.00     0.058 A 
ATOM      3  C   UNL     1     115.928 117.369 122.056  1.00  0.00     0.161 A 
ATOM      4  C   UNL     1     117.322 117.458 121.935  1.00  0.00     0.157 A 
ATOM      5  C   UNL     1     117.890 118.180 120.880  1.00  0.00     0.051 A 
ATOM      6  C   UNL     1     117.077 118.820 119.943  1.00  0.00     0.012 A 
ENDROOT
BRANCH   1   7
ATOM      7  C   UNL     1     114.767 119.409 119.079  1.00  0.00     0.003 C 
ATOM      8  C   UNL     1     113.807 121.308 117.836  1.00  0.00     0.035 C 
ATOM      9  C   UNL     1     114.765 120.723 118.824  1.00  0.00    -0.030 C 
ENDBRANCH   1   7
BRANCH   3  10
ATOM     10  O   UNL     1     115.395 116.632 123.125  1.00  0.00    -0.493 OA
ATOM     11  C   UNL     1     115.153 115.230 123.096  1.00  0.00     0.278 C 
ENDBRANCH   3  10
BRANCH   4  12
ATOM     12  O   UNL     1     118.136 116.821 122.870  1.00  0.00    -0.504 OA
ATOM     13  H   UNL     1     118.292 117.212 123.792  1.00  0.00     0.293 HD
ENDBRANCH   4  12
TORSDOF 3
ENDMDL
MODEL 2
REMARK VINA RESULT:    -3.972      1.138      2.783
REMARK INTER + INTRA:          -4.678
REMARK INTER:                  -4.523
REMARK INTRA:                  -0.155
REMARK UNBOUND:                -0.126
REMARK SMILES CC=Cc1ccc(O)c(OC)c1
REMARK SMILES IDX 4 1 12 2 9 3 7 4 6 5 5 6 3 7 1 8 2 9 10 10 11 11 8 12
REMARK H PARENT 8 13
REMARK Flexibility Score: inf
ROOT
ATOM      1  C   UNL     1     115.563 118.824 119.920  1.00  0.00    -0.022 A 
ATOM      2  C   UNL     1     116.958 118.877 119.761  1.00  0.00     0.058 A 
ATOM      3  C   UNL     1     117.816 118.275 120.703  1.00  0.00     0.161 A 
ATOM      4  C   UNL     1     117.266 117.625 121.816  1.00  0.00     0.157 A 
ATOM      5  C   UNL     1     115.877 117.582 121.988  1.00  0.00     0.051 A 
ATOM      6  C   UNL     1     115.031 118.180 121.053  1.00  0.00     0.012 A 
ENDROOT
BRANCH   1   7
ATOM      7  C   UNL     1     114.707 119.483 118.902  1.00  0.00     0.003 C 
ATOM      8  C   UNL     1     113.758 121.396 117.672  1.00  0.00     0.035 C 
ATOM      9  C   UNL     1     114.658 120.806 118.710  1.00  0.00    -0.030 C 
ENDBRANCH   1   7
BRANCH   3  10
ATOM     10  O   UNL     1     119.213 118.301 120.568  1.00  0.00    -0.493 OA
ATOM     11  C   UNL     1     119.908 118.130 119.338  1.00  0.00     0.278 C 
ENDBRANCH   3  10
BRANCH   4  12
ATOM     12  O   UNL     1     118.109 117.027 122.751  1.00  0.00    -0.504 OA
ATOM     13  H   UNL     1     118.807 117.562 123.254  1.00  0.00     0.293 HD
ENDBRANCH   4  12
TORSDOF 3
ENDMDL
MODEL 3
REMARK VINA RESULT:    -3.970      3.010      3.876
REMARK INTER + INTRA:          -4.677
REMARK INTER:                  -4.585
REMARK INTRA:                  -0.092
REMARK UNBOUND:                -0.126
REMARK SMILES CC=Cc1ccc(O)c(OC)c1
REMARK SMILES IDX 4 1 12 2 9 3 7 4 6 5 5 6 3 7 1 8 2 9 10 10 11 11 8 12
REMARK H PARENT 8 13
REMARK Flexibility Score: inf
ROOT
ATOM      1  C   UNL     1     114.402 115.708 119.963  1.00  0.00    -0.022 A 
ATOM      2  C   UNL     1     115.093 115.137 121.044  1.00  0.00     0.058 A 
ATOM      3  C   UNL     1     115.756 115.947 121.987  1.00  0.00     0.161 A 
ATOM      4  C   UNL     1     115.732 117.340 121.834  1.00  0.00     0.157 A 
ATOM      5  C   UNL     1     115.057 117.915 120.750  1.00  0.00     0.051 A 
ATOM      6  C   UNL     1     114.402 117.108 119.819  1.00  0.00     0.012 A 
ENDROOT
BRANCH   1   7
ATOM      7  C   UNL     1     113.729 114.807 118.994  1.00  0.00     0.003 C 
ATOM      8  C   UNL     1     111.801 113.817 117.821  1.00  0.00     0.035 C 
ATOM      9  C   UNL     1     112.405 114.765 118.808  1.00  0.00    -0.030 C 
ENDBRANCH   1   7
BRANCH   3  10
ATOM     10  O   UNL     1     116.448 115.408 123.084  1.00  0.00    -0.493 OA
ATOM     11  C   UNL     1     117.854 115.194 123.125  1.00  0.00     0.278 C 
ENDBRANCH   3  10
BRANCH   4  12
ATOM     12  O   UNL     1     116.385 118.147 122.763  1.00  0.00    -0.504 OA
ATOM     13  H   UNL     1     116.620 117.807 123.689  1.00  0.00     0.293 HD
ENDBRANCH   4  12
TORSDOF 3
ENDMDL
MODEL 4
REMARK VINA RESULT:    -3.967      3.100      4.424
REMARK INTER + INTRA:          -4.673
REMARK INTER:                  -4.517
REMARK INTRA:                  -0.156
REMARK UNBOUND:                -0.126
REMARK SMILES CC=Cc1ccc(O)c(OC)c1
REMARK SMILES IDX 4 1 12 2 9 3 7 4 6 5 5 6 3 7 1 8 2 9 10 10 11 11 8 12
REMARK H PARENT 8 13
REMARK Flexibility Score: inf
ROOT
ATOM      1  C   UNL     1     118.864 117.612 119.871  1.00  0.00    -0.022 A 
ATOM      2  C   UNL     1     118.904 116.217 119.712  1.00  0.00     0.058 A 
ATOM      3  C   UNL     1     118.236 115.367 120.616  1.00  0.00     0.161 A 
ATOM      4  C   UNL     1     117.531 115.926 121.691  1.00  0.00     0.157 A 
ATOM      5  C   UNL     1     117.500 117.315 121.863  1.00  0.00     0.051 A 
ATOM      6  C   UNL     1     118.164 118.153 120.966  1.00  0.00     0.012 A 
ENDROOT
BRANCH   1   7
ATOM      7  C   UNL     1     119.595 118.459 118.895  1.00  0.00     0.003 C 
ATOM      8  C   UNL     1     121.589 119.434 117.827  1.00  0.00     0.035 C 
ATOM      9  C   UNL     1     120.928 118.546 118.831  1.00  0.00    -0.030 C 
ENDBRANCH   1   7
BRANCH   3  10
ATOM     10  O   UNL     1     118.248 113.970 120.479  1.00  0.00    -0.493 OA
ATOM     11  C   UNL     1     118.105 113.278 119.243  1.00  0.00     0.278 C 
ENDBRANCH   3  10
BRANCH   4  12
ATOM     12  O   UNL     1     116.867 115.091 122.588  1.00  0.00    -0.504 OA
ATOM     13  H   UNL     1     115.889 115.230 122.817  1.00  0.00     0.293 HD
ENDBRANCH   4  12
TORSDOF 3
ENDMDL
MODEL 5
REMARK VINA RESULT:    -3.959      3.979      5.550
REMARK INTER + INTRA:          -4.664
REMARK INTER:                  -4.508
REMARK INTRA:                  -0.156
REMARK UNBOUND:                -0.126
REMARK SMILES CC=Cc1ccc(O)c(OC)c1
REMARK SMILES IDX 4 1 12 2 9 3 7 4 6 5 5 6 3 7 1 8 2 9 10 10 11 11 8 12
REMARK H PARENT 8 13
REMARK Flexibility Score: inf
ROOT
ATOM      1  C   UNL     1     117.570 114.345 119.890  1.00  0.00    -0.022 A 
ATOM      2  C   UNL     1     116.172 114.300 119.751  1.00  0.00     0.058 A 
ATOM      3  C   UNL     1     115.331 114.910 120.703  1.00  0.00     0.161 A 
ATOM      4  C   UNL     1     115.901 115.560 121.806  1.00  0.00     0.157 A 
ATOM      5  C   UNL     1     117.292 115.596 121.958  1.00  0.00     0.051 A 
ATOM      6  C   UNL     1     118.121 114.990 121.014  1.00  0.00     0.012 A 
ENDROOT
BRANCH   1   7
ATOM      7  C   UNL     1     118.408 113.676 118.863  1.00  0.00     0.003 C 
ATOM      8  C   UNL     1     119.336 111.753 117.634  1.00  0.00     0.035 C 
ATOM      9  C   UNL     1     118.455 112.352 118.683  1.00  0.00    -0.030 C 
ENDBRANCH   1   7
BRANCH   3  10
ATOM     10  O   UNL     1     113.932 114.892 120.587  1.00  0.00    -0.493 OA
ATOM     11  C   UNL     1     113.220 115.095 119.372  1.00  0.00     0.278 C 
ENDBRANCH   3  10
BRANCH   4  12
ATOM     12  O   UNL     1     115.075 116.167 122.750  1.00  0.00    -0.504 OA
ATOM     13  H   UNL     1     114.276 116.727 122.475  1.00  0.00     0.293 HD
ENDBRANCH   4  12
TORSDOF 3
ENDMDL
MODEL 6
REMARK VINA RESULT:    -3.951      3.161      4.408
REMARK INTER + INTRA:          -4.655
REMARK INTER:                  -4.493
REMARK INTRA:                  -0.161
REMARK UNBOUND:                -0.126
REMARK SMILES CC=Cc1ccc(O)c(OC)c1
REMARK SMILES IDX 4 1 12 2 9 3 7 4 6 5 5 6 3 7 1 8 2 9 10 10 11 11 8 12
REMARK H PARENT 8 13
REMARK Flexibility Score: inf
ROOT
ATOM      1  C   UNL     1     114.362 115.553 119.863  1.00  0.00    -0.022 A 
ATOM      2  C   UNL     1     114.250 116.950 119.758  1.00  0.00     0.058 A 
ATOM      3  C   UNL     1     114.863 117.797 120.703  1.00  0.00     0.161 A 
ATOM      4  C   UNL     1     115.584 117.234 121.765  1.00  0.00     0.157 A 
ATOM      5  C   UNL     1     115.686 115.843 121.883  1.00  0.00     0.051 A 
ATOM      6  C   UNL     1     115.078 115.007 120.945  1.00  0.00     0.012 A 
ENDROOT
BRANCH   1   7
ATOM      7  C   UNL     1     113.688 114.709 118.845  1.00  0.00     0.003 C 
ATOM      8  C   UNL     1     111.760 113.794 117.614  1.00  0.00     0.035 C 
ATOM      9  C   UNL     1     112.365 114.684 118.652  1.00  0.00    -0.030 C 
ENDBRANCH   1   7
BRANCH   3  10
ATOM     10  O   UNL     1     114.779 119.196 120.621  1.00  0.00    -0.493 OA
ATOM     11  C   UNL     1     115.125 119.959 119.471  1.00  0.00     0.278 C 
ENDBRANCH   3  10
BRANCH   4  12
ATOM     12  O   UNL     1     116.193 118.066 122.702  1.00  0.00    -0.504 OA
ATOM     13  H   UNL     1     115.656 118.724 123.256  1.00  0.00     0.293 HD
ENDBRANCH   4  12
TORSDOF 3
ENDMDL
MODEL 7
REMARK VINA RESULT:    -3.904      2.867      3.923
REMARK INTER + INTRA:          -4.601
REMARK INTER:                  -4.443
REMARK INTRA:                  -0.158
REMARK UNBOUND:                -0.126
REMARK SMILES CC=Cc1ccc(O)c(OC)c1
REMARK SMILES IDX 4 1 12 2 9 3 7 4 6 5 5 6 3 7 1 8 2 9 10 10 11 11 8 12
REMARK H PARENT 8 13
REMARK Flexibility Score: inf
ROOT
ATOM      1  C   UNL     1     118.774 117.519 119.857  1.00  0.00    -0.022 A 
ATOM      2  C   UNL     1     117.976 118.066 120.876  1.00  0.00     0.058 A 
ATOM      3  C   UNL     1     117.301 117.234 121.792  1.00  0.00     0.161 A 
ATOM      4  C   UNL     1     117.422 115.843 121.673  1.00  0.00     0.157 A 
ATOM      5  C   UNL     1     118.203 115.292 120.651  1.00  0.00     0.051 A 
ATOM      6  C   UNL     1     118.870 116.119 119.746  1.00  0.00     0.012 A 
ENDROOT
BRANCH   1   7
ATOM      7  C   UNL     1     119.455 118.443 118.915  1.00  0.00     0.003 C 
ATOM      8  C   UNL     1     121.385 119.411 117.730  1.00  0.00     0.035 C 
ATOM      9  C   UNL     1     120.772 118.437 118.685  1.00  0.00    -0.030 C 
ENDBRANCH   1   7
BRANCH   3  10
ATOM     10  O   UNL     1     116.505 117.750 122.827  1.00  0.00    -0.493 OA
ATOM     11  C   UNL     1     115.131 118.098 122.691  1.00  0.00     0.278 C 
ENDBRANCH   3  10
BRANCH   4  12
ATOM     12  O   UNL     1     116.758 115.014 122.575  1.00  0.00    -0.504 OA
ATOM     13  H   UNL     1     117.061 114.928 123.539  1.00  0.00     0.293 HD
ENDBRANCH   4  12
TORSDOF 3
ENDMDL
MODEL 8
REMARK VINA RESULT:    -3.894      1.476      2.347
REMARK INTER + INTRA:          -4.590
REMARK INTER:                  -4.416
REMARK INTRA:                  -0.174
REMARK UNBOUND:                -0.126
REMARK SMILES CC=Cc1ccc(O)c(OC)c1
REMARK SMILES IDX 4 1 12 2 9 3 7 4 6 5 5 6 3 7 1 8 2 9 10 10 11 11 8 12
REMARK H PARENT 8 13
REMARK Flexibility Score: inf
ROOT
ATOM      1  C   UNL     1     114.866 117.816 119.584  1.00  0.00    -0.022 A 
ATOM      2  C   UNL     1     115.497 118.134 120.798  1.00  0.00     0.058 A 
ATOM      3  C   UNL     1     115.733 117.143 121.771  1.00  0.00     0.161 A 
ATOM      4  C   UNL     1     115.322 115.826 121.524  1.00  0.00     0.157 A 
ATOM      5  C   UNL     1     114.679 115.506 120.322  1.00  0.00     0.051 A 
ATOM      6  C   UNL     1     114.447 116.491 119.361  1.00  0.00     0.012 A 
ENDROOT
BRANCH   1   7
ATOM      7  C   UNL     1     114.634 118.903 118.599  1.00  0.00     0.003 C 
ATOM      8  C   UNL     1     114.484 121.241 117.836  1.00  0.00     0.035 C 
ATOM      9  C   UNL     1     114.748 120.205 118.882  1.00  0.00    -0.030 C 
ENDBRANCH   1   7
BRANCH   3  10
ATOM     10  O   UNL     1     116.370 117.426 122.991  1.00  0.00    -0.493 OA
ATOM     11  C   UNL     1     117.750 117.743 123.125  1.00  0.00     0.278 C 
ENDBRANCH   3  10
BRANCH   4  12
ATOM     12  O   UNL     1     115.552 114.840 122.482  1.00  0.00    -0.504 OA
ATOM     13  H   UNL     1     116.383 114.850 123.064  1.00  0.00     0.293 HD
ENDBRANCH   4  12
TORSDOF 3
ENDMDL
MODEL 9
REMARK VINA RESULT:    -3.297      3.399      3.889
REMARK INTER + INTRA:          -3.905
REMARK INTER:                  -3.737
REMARK INTRA:                  -0.167
REMARK UNBOUND:                -0.126
REMARK SMILES CC=Cc1ccc(O)c(OC)c1
REMARK SMILES IDX 4 1 12 2 9 3 7 4 6 5 5 6 3 7 1 8 2 9 10 10 11 11 8 12
REMARK H PARENT 8 13
REMARK Flexibility Score: inf
ROOT
ATOM      1  C   UNL     1     115.428 114.905 119.628  1.00  0.00    -0.022 A 
ATOM      2  C   UNL     1     115.160 115.572 120.836  1.00  0.00     0.058 A 
ATOM      3  C   UNL     1     116.165 115.738 121.809  1.00  0.00     0.161 A 
ATOM      4  C   UNL     1     117.445 115.220 121.568  1.00  0.00     0.157 A 
ATOM      5  C   UNL     1     117.715 114.542 120.374  1.00  0.00     0.051 A 
ATOM      6  C   UNL     1     116.716 114.379 119.413  1.00  0.00     0.012 A 
ENDROOT
BRANCH   1   7
ATOM      7  C   UNL     1     114.328 114.750 118.643  1.00  0.00     0.003 C 
ATOM      8  C   UNL     1     111.982 114.566 117.916  1.00  0.00     0.035 C 
ATOM      9  C   UNL     1     113.031 114.740 118.967  1.00  0.00    -0.030 C 
ENDBRANCH   1   7
BRANCH   3  10
ATOM     10  O   UNL     1     115.932 116.407 123.021  1.00  0.00    -0.493 OA
ATOM     11  C   UNL     1     115.475 117.751 123.125  1.00  0.00     0.278 C 
ENDBRANCH   3  10
BRANCH   4  12
ATOM     12  O   UNL     1     118.445 115.381 122.526  1.00  0.00    -0.504 OA
ATOM     13  H   UNL     1     119.131 114.657 122.705  1.00  0.00     0.293 HD
ENDBRANCH   4  12
TORSDOF 3
ENDMDL
