MODEL 1
REMARK VINA RESULT:     6.916      0.000      0.000
REMARK INTER + INTRA:          14.021
REMARK INTER:                  15.003
REMARK INTRA:                  -0.982
REMARK UNBOUND:                -0.982
REMARK SMILES CCCCCCCCCCCCCCCCCCCCCC(=O)[O-]
REMARK SMILES IDX 12 1 11 2 10 3 9 4 8 5 7 6 6 7 5 8 4 9 3 10 2 11 1 12 13 13
REMARK SMILES IDX 14 14 15 15 16 16 17 17 18 18 19 19 20 20 21 21 22 22 23 23
REMARK SMILES IDX 24 24
REMARK H PARENT
REMARK Flexibility Score: inf
ROOT
ATOM      1  C   UNL     1      23.607  39.602  24.480  1.00  0.00     0.000 C 
ENDROOT
BRANCH   1   2
ATOM      2  C   UNL     1      24.403  38.509  25.207  1.00  0.00     0.000 C 
BRANCH   2   3
ATOM      3  C   UNL     1      23.523  37.613  26.097  1.00  0.00     0.000 C 
BRANCH   3   4
ATOM      4  C   UNL     1      22.301  38.309  26.724  1.00  0.00    -0.000 C 
BRANCH   4   5
ATOM      5  C   UNL     1      22.605  38.931  28.097  1.00  0.00    -0.000 C 
BRANCH   5   6
ATOM      6  C   UNL     1      21.911  38.193  29.257  1.00  0.00    -0.000 C 
BRANCH   6   7
ATOM      7  C   UNL     1      21.635  39.050  30.510  1.00  0.00    -0.000 C 
BRANCH   7   8
ATOM      8  C   UNL     1      21.603  38.275  31.842  1.00  0.00    -0.000 C 
BRANCH   8   9
ATOM      9  C   UNL     1      21.177  39.102  33.068  1.00  0.00    -0.000 C 
BRANCH   9  10
ATOM     10  C   UNL     1      22.360  39.474  33.977  1.00  0.00    -0.000 C 
BRANCH  10  11
ATOM     11  C   UNL     1      22.661  40.981  33.966  1.00  0.00    -0.003 C 
ATOM     12  C   UNL     1      24.156  41.289  33.877  1.00  0.00     0.004 C 
ENDBRANCH  10  11
ENDBRANCH   9  10
ENDBRANCH   8   9
ENDBRANCH   7   8
ENDBRANCH   6   7
ENDBRANCH   5   6
ENDBRANCH   4   5
ENDBRANCH   3   4
ENDBRANCH   2   3
ENDBRANCH   1   2
BRANCH   1  13
ATOM     13  C   UNL     1      23.518  39.308  22.975  1.00  0.00     0.000 C 
BRANCH  13  14
ATOM     14  C   UNL     1      22.704  38.042  22.665  1.00  0.00     0.000 C 
BRANCH  14  15
ATOM     15  C   UNL     1      22.424  37.870  21.162  1.00  0.00     0.000 C 
BRANCH  15  16
ATOM     16  C   UNL     1      23.700  37.527  20.365  1.00  0.00     0.000 C 
BRANCH  16  17
ATOM     17  C   UNL     1      23.502  36.383  19.355  1.00  0.00     0.000 C 
BRANCH  17  18
ATOM     18  C   UNL     1      24.802  35.995  18.632  1.00  0.00     0.000 C 
BRANCH  18  19
ATOM     19  C   UNL     1      25.665  37.212  18.255  1.00  0.00     0.000 C 
BRANCH  19  20
ATOM     20  C   UNL     1      27.120  36.881  17.875  1.00  0.00     0.006 C 
BRANCH  20  21
ATOM     21  C   UNL     1      27.776  35.880  18.835  1.00  0.00     0.053 C 
BRANCH  21  22
ATOM     22  C   UNL     1      29.209  36.239  19.066  1.00  0.00     0.041 C 
ATOM     23  O   UNL     1      30.022  36.255  18.104  1.00  0.00    -0.550 OA
ATOM     24  O   UNL     1      29.660  36.509  20.353  1.00  0.00    -0.550 OA
ENDBRANCH  21  22
ENDBRANCH  20  21
ENDBRANCH  19  20
ENDBRANCH  18  19
ENDBRANCH  17  18
ENDBRANCH  16  17
ENDBRANCH  15  16
ENDBRANCH  14  15
ENDBRANCH  13  14
ENDBRANCH   1  13
TORSDOF 20
ENDMDL
MODEL 2
REMARK VINA RESULT:     7.017      1.190      1.846
REMARK INTER + INTRA:          14.239
REMARK INTER:                  15.299
REMARK INTRA:                  -1.060
REMARK UNBOUND:                -0.982
REMARK SMILES CCCCCCCCCCCCCCCCCCCCCC(=O)[O-]
REMARK SMILES IDX 12 1 11 2 10 3 9 4 8 5 7 6 6 7 5 8 4 9 3 10 2 11 1 12 13 13
REMARK SMILES IDX 14 14 15 15 16 16 17 17 18 18 19 19 20 20 21 21 22 22 23 23
REMARK SMILES IDX 24 24
REMARK H PARENT
REMARK Flexibility Score: inf
ROOT
ATOM      1  C   UNL     1      23.678  37.501  25.845  1.00  0.00     0.000 C 
ENDROOT
BRANCH   1   2
ATOM      2  C   UNL     1      24.053  38.969  26.096  1.00  0.00     0.000 C 
BRANCH   2   3
ATOM      3  C   UNL     1      23.362  39.564  27.336  1.00  0.00     0.000 C 
BRANCH   3   4
ATOM      4  C   UNL     1      22.375  38.624  28.052  1.00  0.00    -0.000 C 
BRANCH   4   5
ATOM      5  C   UNL     1      22.017  39.100  29.470  1.00  0.00    -0.000 C 
BRANCH   5   6
ATOM      6  C   UNL     1      21.968  37.950  30.493  1.00  0.00    -0.000 C 
BRANCH   6   7
ATOM      7  C   UNL     1      21.086  38.210  31.732  1.00  0.00    -0.000 C 
BRANCH   7   8
ATOM      8  C   UNL     1      21.849  38.608  33.010  1.00  0.00    -0.000 C 
BRANCH   8   9
ATOM      9  C   UNL     1      21.661  40.070  33.455  1.00  0.00    -0.000 C 
BRANCH   9  10
ATOM     10  C   UNL     1      22.474  40.419  34.713  1.00  0.00    -0.000 C 
BRANCH  10  11
ATOM     11  C   UNL     1      23.358  41.661  34.518  1.00  0.00    -0.003 C 
ATOM     12  C   UNL     1      24.371  41.499  33.385  1.00  0.00     0.004 C 
ENDBRANCH  10  11
ENDBRANCH   9  10
ENDBRANCH   8   9
ENDBRANCH   7   8
ENDBRANCH   6   7
ENDBRANCH   5   6
ENDBRANCH   4   5
ENDBRANCH   3   4
ENDBRANCH   2   3
ENDBRANCH   1   2
BRANCH   1  13
ATOM     13  C   UNL     1      22.928  37.347  24.513  1.00  0.00     0.000 C 
BRANCH  13  14
ATOM     14  C   UNL     1      22.726  38.686  23.788  1.00  0.00     0.000 C 
BRANCH  14  15
ATOM     15  C   UNL     1      23.429  38.731  22.419  1.00  0.00     0.000 C 
BRANCH  15  16
ATOM     16  C   UNL     1      22.557  38.132  21.295  1.00  0.00     0.000 C 
BRANCH  16  17
ATOM     17  C   UNL     1      23.002  36.725  20.861  1.00  0.00     0.000 C 
BRANCH  17  18
ATOM     18  C   UNL     1      23.548  36.689  19.424  1.00  0.00     0.000 C 
BRANCH  18  19
ATOM     19  C   UNL     1      23.819  35.260  18.922  1.00  0.00     0.000 C 
BRANCH  19  20
ATOM     20  C   UNL     1      25.281  34.979  18.526  1.00  0.00     0.006 C 
BRANCH  20  21
ATOM     21  C   UNL     1      25.967  36.187  17.876  1.00  0.00     0.053 C 
BRANCH  21  22
ATOM     22  C   UNL     1      27.396  36.272  18.308  1.00  0.00     0.041 C 
ATOM     23  O   UNL     1      28.056  35.223  18.528  1.00  0.00    -0.550 OA
ATOM     24  O   UNL     1      27.986  37.513  18.517  1.00  0.00    -0.550 OA
ENDBRANCH  21  22
ENDBRANCH  20  21
ENDBRANCH  19  20
ENDBRANCH  18  19
ENDBRANCH  17  18
ENDBRANCH  16  17
ENDBRANCH  15  16
ENDBRANCH  14  15
ENDBRANCH  13  14
ENDBRANCH   1  13
TORSDOF 20
ENDMDL
MODEL 3
REMARK VINA RESULT:     7.192      4.830     12.377
REMARK INTER + INTRA:          14.620
REMARK INTER:                  15.633
REMARK INTRA:                  -1.013
REMARK UNBOUND:                -0.982
REMARK SMILES CCCCCCCCCCCCCCCCCCCCCC(=O)[O-]
REMARK SMILES IDX 12 1 11 2 10 3 9 4 8 5 7 6 6 7 5 8 4 9 3 10 2 11 1 12 13 13
REMARK SMILES IDX 14 14 15 15 16 16 17 17 18 18 19 19 20 20 21 21 22 22 23 23
REMARK SMILES IDX 24 24
REMARK H PARENT
REMARK Flexibility Score: inf
ROOT
ATOM      1  C   UNL     1      23.518  39.392  24.174  1.00  0.00     0.000 C 
ENDROOT
BRANCH   1   2
ATOM      2  C   UNL     1      22.580  38.555  23.293  1.00  0.00     0.000 C 
BRANCH   2   3
ATOM      3  C   UNL     1      23.159  38.270  21.895  1.00  0.00     0.000 C 
BRANCH   3   4
ATOM      4  C   UNL     1      22.227  37.498  20.944  1.00  0.00    -0.000 C 
BRANCH   4   5
ATOM      5  C   UNL     1      22.328  35.973  21.114  1.00  0.00    -0.000 C 
BRANCH   5   6
ATOM      6  C   UNL     1      23.508  35.360  20.336  1.00  0.00    -0.000 C 
BRANCH   6   7
ATOM      7  C   UNL     1      23.299  35.240  18.812  1.00  0.00    -0.000 C 
BRANCH   7   8
ATOM      8  C   UNL     1      24.520  35.614  17.949  1.00  0.00    -0.000 C 
BRANCH   8   9
ATOM      9  C   UNL     1      25.832  34.906  18.333  1.00  0.00    -0.000 C 
BRANCH   9  10
ATOM     10  C   UNL     1      27.081  35.682  17.882  1.00  0.00    -0.000 C 
BRANCH  10  11
ATOM     11  C   UNL     1      28.227  35.598  18.904  1.00  0.00    -0.003 C 
ATOM     12  C   UNL     1      29.609  35.669  18.255  1.00  0.00     0.004 C 
ENDBRANCH  10  11
ENDBRANCH   9  10
ENDBRANCH   8   9
ENDBRANCH   7   8
ENDBRANCH   6   7
ENDBRANCH   5   6
ENDBRANCH   4   5
ENDBRANCH   3   4
ENDBRANCH   2   3
ENDBRANCH   1   2
BRANCH   1  13
ATOM     13  C   UNL     1      23.962  38.597  25.412  1.00  0.00     0.000 C 
BRANCH  13  14
ATOM     14  C   UNL     1      22.885  37.618  25.905  1.00  0.00     0.000 C 
BRANCH  14  15
ATOM     15  C   UNL     1      21.950  38.244  26.955  1.00  0.00     0.000 C 
BRANCH  15  16
ATOM     16  C   UNL     1      22.721  39.080  27.998  1.00  0.00     0.000 C 
BRANCH  16  17
ATOM     17  C   UNL     1      21.995  39.193  29.350  1.00  0.00     0.000 C 
BRANCH  17  18
ATOM     18  C   UNL     1      22.270  37.997  30.277  1.00  0.00     0.000 C 
BRANCH  18  19
ATOM     19  C   UNL     1      21.234  37.864  31.406  1.00  0.00     0.000 C 
BRANCH  19  20
ATOM     20  C   UNL     1      21.227  39.023  32.420  1.00  0.00     0.006 C 
BRANCH  20  21
ATOM     21  C   UNL     1      22.271  38.853  33.530  1.00  0.00     0.053 C 
BRANCH  21  22
ATOM     22  C   UNL     1      22.594  40.174  34.151  1.00  0.00     0.041 C 
ATOM     23  O   UNL     1      22.168  40.455  35.303  1.00  0.00    -0.550 OA
ATOM     24  O   UNL     1      23.325  41.118  33.439  1.00  0.00    -0.550 OA
ENDBRANCH  21  22
ENDBRANCH  20  21
ENDBRANCH  19  20
ENDBRANCH  18  19
ENDBRANCH  17  18
ENDBRANCH  16  17
ENDBRANCH  15  16
ENDBRANCH  14  15
ENDBRANCH  13  14
ENDBRANCH   1  13
TORSDOF 20
ENDMDL
MODEL 4
REMARK VINA RESULT:     7.897      4.945     11.677
REMARK INTER + INTRA:          16.148
REMARK INTER:                  16.772
REMARK INTRA:                  -0.623
REMARK UNBOUND:                -0.982
REMARK SMILES CCCCCCCCCCCCCCCCCCCCCC(=O)[O-]
REMARK SMILES IDX 12 1 11 2 10 3 9 4 8 5 7 6 6 7 5 8 4 9 3 10 2 11 1 12 13 13
REMARK SMILES IDX 14 14 15 15 16 16 17 17 18 18 19 19 20 20 21 21 22 22 23 23
REMARK SMILES IDX 24 24
REMARK H PARENT
REMARK Flexibility Score: inf
ROOT
ATOM      1  C   UNL     1      23.286  39.718  23.390  1.00  0.00     0.000 C 
ENDROOT
BRANCH   1   2
ATOM      2  C   UNL     1      22.381  38.632  22.792  1.00  0.00     0.000 C 
BRANCH   2   3
ATOM      3  C   UNL     1      23.045  37.863  21.636  1.00  0.00     0.000 C 
BRANCH   3   4
ATOM      4  C   UNL     1      22.285  36.612  21.157  1.00  0.00    -0.000 C 
BRANCH   4   5
ATOM      5  C   UNL     1      23.216  35.522  20.601  1.00  0.00    -0.000 C 
BRANCH   5   6
ATOM      6  C   UNL     1      23.709  35.825  19.174  1.00  0.00    -0.000 C 
BRANCH   6   7
ATOM      7  C   UNL     1      24.804  34.878  18.642  1.00  0.00    -0.000 C 
BRANCH   7   8
ATOM      8  C   UNL     1      25.959  35.567  17.888  1.00  0.00    -0.000 C 
BRANCH   8   9
ATOM      9  C   UNL     1      26.127  37.069  18.181  1.00  0.00    -0.000 C 
BRANCH   9  10
ATOM     10  C   UNL     1      27.601  37.486  18.323  1.00  0.00    -0.000 C 
BRANCH  10  11
ATOM     11  C   UNL     1      28.550  36.279  18.409  1.00  0.00    -0.003 C 
ATOM     12  C   UNL     1      29.911  36.634  19.005  1.00  0.00     0.004 C 
ENDBRANCH  10  11
ENDBRANCH   9  10
ENDBRANCH   8   9
ENDBRANCH   7   8
ENDBRANCH   6   7
ENDBRANCH   5   6
ENDBRANCH   4   5
ENDBRANCH   3   4
ENDBRANCH   2   3
ENDBRANCH   1   2
BRANCH   1  13
ATOM     13  C   UNL     1      24.589  39.110  23.931  1.00  0.00     0.000 C 
BRANCH  13  14
ATOM     14  C   UNL     1      24.394  38.388  25.273  1.00  0.00     0.000 C 
BRANCH  14  15
ATOM     15  C   UNL     1      23.313  37.295  25.207  1.00  0.00     0.000 C 
BRANCH  15  16
ATOM     16  C   UNL     1      22.225  37.484  26.286  1.00  0.00     0.000 C 
BRANCH  16  17
ATOM     17  C   UNL     1      22.153  38.920  26.835  1.00  0.00     0.000 C 
BRANCH  17  18
ATOM     18  C   UNL     1      23.073  39.142  28.046  1.00  0.00     0.000 C 
BRANCH  18  19
ATOM     19  C   UNL     1      22.298  39.432  29.343  1.00  0.00     0.000 C 
BRANCH  19  20
ATOM     20  C   UNL     1      21.509  38.236  29.907  1.00  0.00     0.006 C 
BRANCH  20  21
ATOM     21  C   UNL     1      21.891  37.895  31.352  1.00  0.00     0.053 C 
BRANCH  21  22
ATOM     22  C   UNL     1      21.144  38.768  32.310  1.00  0.00     0.041 C 
ATOM     23  O   UNL     1      19.885  38.788  32.301  1.00  0.00    -0.550 OA
ATOM     24  O   UNL     1      21.839  39.597  33.182  1.00  0.00    -0.550 OA
ENDBRANCH  21  22
ENDBRANCH  20  21
ENDBRANCH  19  20
ENDBRANCH  18  19
ENDBRANCH  17  18
ENDBRANCH  16  17
ENDBRANCH  15  16
ENDBRANCH  14  15
ENDBRANCH  13  14
ENDBRANCH   1  13
TORSDOF 20
ENDMDL
MODEL 5
REMARK VINA RESULT:     8.322      4.919     12.497
REMARK INTER + INTRA:          17.070
REMARK INTER:                  17.780
REMARK INTRA:                  -0.710
REMARK UNBOUND:                -0.982
REMARK SMILES CCCCCCCCCCCCCCCCCCCCCC(=O)[O-]
REMARK SMILES IDX 12 1 11 2 10 3 9 4 8 5 7 6 6 7 5 8 4 9 3 10 2 11 1 12 13 13
REMARK SMILES IDX 14 14 15 15 16 16 17 17 18 18 19 19 20 20 21 21 22 22 23 23
REMARK SMILES IDX 24 24
REMARK H PARENT
REMARK Flexibility Score: inf
ROOT
ATOM      1  C   UNL     1      23.408  38.247  22.705  1.00  0.00     0.000 C 
ENDROOT
BRANCH   1   2
ATOM      2  C   UNL     1      22.411  37.876  21.597  1.00  0.00     0.000 C 
BRANCH   2   3
ATOM      3  C   UNL     1      23.045  37.865  20.194  1.00  0.00     0.000 C 
BRANCH   3   4
ATOM      4  C   UNL     1      23.891  36.620  19.866  1.00  0.00    -0.000 C 
BRANCH   4   5
ATOM      5  C   UNL     1      24.205  36.488  18.367  1.00  0.00    -0.000 C 
BRANCH   5   6
ATOM      6  C   UNL     1      25.646  36.904  18.017  1.00  0.00    -0.000 C 
BRANCH   6   7
ATOM      7  C   UNL     1      26.716  35.814  18.236  1.00  0.00    -0.000 C 
BRANCH   7   8
ATOM      8  C   UNL     1      28.157  36.225  17.875  1.00  0.00    -0.000 C 
BRANCH   8   9
ATOM      9  C   UNL     1      28.655  37.517  18.548  1.00  0.00    -0.000 C 
BRANCH   9  10
ATOM     10  C   UNL     1      29.552  37.246  19.767  1.00  0.00    -0.000 C 
BRANCH  10  11
ATOM     11  C   UNL     1      30.986  36.856  19.370  1.00  0.00    -0.003 C 
ATOM     12  C   UNL     1      31.446  37.522  18.073  1.00  0.00     0.004 C 
ENDBRANCH  10  11
ENDBRANCH   9  10
ENDBRANCH   8   9
ENDBRANCH   7   8
ENDBRANCH   6   7
ENDBRANCH   5   6
ENDBRANCH   4   5
ENDBRANCH   3   4
ENDBRANCH   2   3
ENDBRANCH   1   2
BRANCH   1  13
ATOM     13  C   UNL     1      22.673  38.621  24.001  1.00  0.00     0.000 C 
BRANCH  13  14
ATOM     14  C   UNL     1      23.563  39.397  24.984  1.00  0.00     0.000 C 
BRANCH  14  15
ATOM     15  C   UNL     1      23.840  38.613  26.279  1.00  0.00     0.000 C 
BRANCH  15  16
ATOM     16  C   UNL     1      22.543  38.253  27.033  1.00  0.00     0.000 C 
BRANCH  16  17
ATOM     17  C   UNL     1      22.193  39.244  28.157  1.00  0.00     0.000 C 
BRANCH  17  18
ATOM     18  C   UNL     1      22.564  38.719  29.553  1.00  0.00     0.000 C 
BRANCH  18  19
ATOM     19  C   UNL     1      21.347  38.209  30.344  1.00  0.00     0.000 C 
BRANCH  19  20
ATOM     20  C   UNL     1      21.046  38.985  31.640  1.00  0.00     0.006 C 
BRANCH  20  21
ATOM     21  C   UNL     1      22.016  38.646  32.779  1.00  0.00     0.053 C 
BRANCH  21  22
ATOM     22  C   UNL     1      22.083  39.771  33.761  1.00  0.00     0.041 C 
ATOM     23  O   UNL     1      23.167  40.383  33.953  1.00  0.00    -0.550 OA
ATOM     24  O   UNL     1      20.960  40.113  34.504  1.00  0.00    -0.550 OA
ENDBRANCH  21  22
ENDBRANCH  20  21
ENDBRANCH  19  20
ENDBRANCH  18  19
ENDBRANCH  17  18
ENDBRANCH  16  17
ENDBRANCH  15  16
ENDBRANCH  14  15
ENDBRANCH  13  14
ENDBRANCH   1  13
TORSDOF 20
ENDMDL
MODEL 6
REMARK VINA RESULT:     8.578      1.739      2.831
REMARK INTER + INTRA:          17.626
REMARK INTER:                  18.938
REMARK INTRA:                  -1.312
REMARK UNBOUND:                -0.982
REMARK SMILES CCCCCCCCCCCCCCCCCCCCCC(=O)[O-]
REMARK SMILES IDX 12 1 11 2 10 3 9 4 8 5 7 6 6 7 5 8 4 9 3 10 2 11 1 12 13 13
REMARK SMILES IDX 14 14 15 15 16 16 17 17 18 18 19 19 20 20 21 21 22 22 23 23
REMARK SMILES IDX 24 24
REMARK H PARENT
REMARK Flexibility Score: inf
ROOT
ATOM      1  C   UNL     1      23.988  39.265  26.256  1.00  0.00     0.000 C 
ENDROOT
BRANCH   1   2
ATOM      2  C   UNL     1      23.144  38.519  27.298  1.00  0.00     0.000 C 
BRANCH   2   3
ATOM      3  C   UNL     1      22.023  39.386  27.900  1.00  0.00     0.000 C 
BRANCH   3   4
ATOM      4  C   UNL     1      21.732  39.141  29.392  1.00  0.00    -0.000 C 
BRANCH   4   5
ATOM      5  C   UNL     1      22.569  37.994  29.984  1.00  0.00    -0.000 C 
BRANCH   5   6
ATOM      6  C   UNL     1      21.838  37.238  31.109  1.00  0.00    -0.000 C 
BRANCH   6   7
ATOM      7  C   UNL     1      21.158  38.132  32.167  1.00  0.00    -0.000 C 
BRANCH   7   8
ATOM      8  C   UNL     1      22.069  38.593  33.321  1.00  0.00    -0.000 C 
BRANCH   8   9
ATOM      9  C   UNL     1      21.918  40.072  33.721  1.00  0.00    -0.000 C 
BRANCH   9  10
ATOM     10  C   UNL     1      23.013  40.541  34.695  1.00  0.00    -0.000 C 
BRANCH  10  11
ATOM     11  C   UNL     1      24.207  41.187  33.973  1.00  0.00    -0.003 C 
ATOM     12  C   UNL     1      23.806  41.905  32.684  1.00  0.00     0.004 C 
ENDBRANCH  10  11
ENDBRANCH   9  10
ENDBRANCH   8   9
ENDBRANCH   7   8
ENDBRANCH   6   7
ENDBRANCH   5   6
ENDBRANCH   4   5
ENDBRANCH   3   4
ENDBRANCH   2   3
ENDBRANCH   1   2
BRANCH   1  13
ATOM     13  C   UNL     1      24.187  38.409  24.996  1.00  0.00     0.000 C 
BRANCH  13  14
ATOM     14  C   UNL     1      23.598  36.997  25.140  1.00  0.00     0.000 C 
BRANCH  14  15
ATOM     15  C   UNL     1      22.446  36.731  24.155  1.00  0.00     0.000 C 
BRANCH  15  16
ATOM     16  C   UNL     1      21.970  38.020  23.452  1.00  0.00     0.000 C 
BRANCH  16  17
ATOM     17  C   UNL     1      22.444  38.131  21.992  1.00  0.00     0.000 C 
BRANCH  17  18
ATOM     18  C   UNL     1      22.526  36.768  21.286  1.00  0.00     0.000 C 
BRANCH  18  19
ATOM     19  C   UNL     1      23.219  36.844  19.915  1.00  0.00     0.000 C 
BRANCH  19  20
ATOM     20  C   UNL     1      23.800  35.512  19.408  1.00  0.00     0.006 C 
BRANCH  20  21
ATOM     21  C   UNL     1      24.288  35.586  17.955  1.00  0.00     0.053 C 
BRANCH  21  22
ATOM     22  C   UNL     1      25.761  35.840  17.911  1.00  0.00     0.041 C 
ATOM     23  O   UNL     1      26.572  34.876  17.929  1.00  0.00    -0.550 OA
ATOM     24  O   UNL     1      26.243  37.143  17.900  1.00  0.00    -0.550 OA
ENDBRANCH  21  22
ENDBRANCH  20  21
ENDBRANCH  19  20
ENDBRANCH  18  19
ENDBRANCH  17  18
ENDBRANCH  16  17
ENDBRANCH  15  16
ENDBRANCH  14  15
ENDBRANCH  13  14
ENDBRANCH   1  13
TORSDOF 20
ENDMDL
MODEL 7
REMARK VINA RESULT:     9.100      1.863      3.640
REMARK INTER + INTRA:          18.758
REMARK INTER:                  19.394
REMARK INTRA:                  -0.636
REMARK UNBOUND:                -0.982
REMARK SMILES CCCCCCCCCCCCCCCCCCCCCC(=O)[O-]
REMARK SMILES IDX 12 1 11 2 10 3 9 4 8 5 7 6 6 7 5 8 4 9 3 10 2 11 1 12 13 13
REMARK SMILES IDX 14 14 15 15 16 16 17 17 18 18 19 19 20 20 21 21 22 22 23 23
REMARK SMILES IDX 24 24
REMARK H PARENT
REMARK Flexibility Score: inf
ROOT
ATOM      1  C   UNL     1      22.516  38.885  27.304  1.00  0.00     0.000 C 
ENDROOT
BRANCH   1   2
ATOM      2  C   UNL     1      22.720  38.228  28.677  1.00  0.00     0.000 C 
BRANCH   2   3
ATOM      3  C   UNL     1      21.915  38.911  29.797  1.00  0.00     0.000 C 
BRANCH   3   4
ATOM      4  C   UNL     1      21.664  38.046  31.046  1.00  0.00    -0.000 C 
BRANCH   4   5
ATOM      5  C   UNL     1      21.025  38.833  32.202  1.00  0.00    -0.000 C 
BRANCH   5   6
ATOM      6  C   UNL     1      22.065  39.404  33.184  1.00  0.00    -0.000 C 
BRANCH   6   7
ATOM      7  C   UNL     1      21.479  40.111  34.424  1.00  0.00    -0.000 C 
BRANCH   7   8
ATOM      8  C   UNL     1      22.411  41.138  35.097  1.00  0.00    -0.000 C 
BRANCH   8   9
ATOM      9  C   UNL     1      22.494  42.505  34.393  1.00  0.00    -0.000 C 
BRANCH   9  10
ATOM     10  C   UNL     1      22.238  43.683  35.349  1.00  0.00    -0.000 C 
BRANCH  10  11
ATOM     11  C   UNL     1      21.995  45.005  34.603  1.00  0.00    -0.003 C 
ATOM     12  C   UNL     1      20.558  45.153  34.105  1.00  0.00     0.004 C 
ENDBRANCH  10  11
ENDBRANCH   9  10
ENDBRANCH   8   9
ENDBRANCH   7   8
ENDBRANCH   6   7
ENDBRANCH   5   6
ENDBRANCH   4   5
ENDBRANCH   3   4
ENDBRANCH   2   3
ENDBRANCH   1   2
BRANCH   1  13
ATOM     13  C   UNL     1      22.479  37.828  26.190  1.00  0.00     0.000 C 
BRANCH  13  14
ATOM     14  C   UNL     1      23.127  38.317  24.886  1.00  0.00     0.000 C 
BRANCH  14  15
ATOM     15  C   UNL     1      22.457  37.727  23.632  1.00  0.00     0.000 C 
BRANCH  15  16
ATOM     16  C   UNL     1      22.735  38.570  22.370  1.00  0.00     0.000 C 
BRANCH  16  17
ATOM     17  C   UNL     1      22.358  37.854  21.061  1.00  0.00     0.000 C 
BRANCH  17  18
ATOM     18  C   UNL     1      23.577  37.272  20.327  1.00  0.00     0.000 C 
BRANCH  18  19
ATOM     19  C   UNL     1      23.266  35.946  19.610  1.00  0.00     0.000 C 
BRANCH  19  20
ATOM     20  C   UNL     1      24.178  35.630  18.410  1.00  0.00     0.006 C 
BRANCH  20  21
ATOM     21  C   UNL     1      25.028  36.830  17.972  1.00  0.00     0.053 C 
BRANCH  21  22
ATOM     22  C   UNL     1      26.471  36.447  17.889  1.00  0.00     0.041 C 
ATOM     23  O   UNL     1      26.805  35.233  17.875  1.00  0.00    -0.550 OA
ATOM     24  O   UNL     1      27.452  37.431  17.876  1.00  0.00    -0.550 OA
ENDBRANCH  21  22
ENDBRANCH  20  21
ENDBRANCH  19  20
ENDBRANCH  18  19
ENDBRANCH  17  18
ENDBRANCH  16  17
ENDBRANCH  15  16
ENDBRANCH  14  15
ENDBRANCH  13  14
ENDBRANCH   1  13
TORSDOF 20
ENDMDL
MODEL 8
REMARK VINA RESULT:     9.297      4.751     12.599
REMARK INTER + INTRA:          19.184
REMARK INTER:                  19.677
REMARK INTRA:                  -0.492
REMARK UNBOUND:                -0.982
REMARK SMILES CCCCCCCCCCCCCCCCCCCCCC(=O)[O-]
REMARK SMILES IDX 12 1 11 2 10 3 9 4 8 5 7 6 6 7 5 8 4 9 3 10 2 11 1 12 13 13
REMARK SMILES IDX 14 14 15 15 16 16 17 17 18 18 19 19 20 20 21 21 22 22 23 23
REMARK SMILES IDX 24 24
REMARK H PARENT
REMARK Flexibility Score: inf
ROOT
ATOM      1  C   UNL     1      23.993  39.066  25.981  1.00  0.00     0.000 C 
ENDROOT
BRANCH   1   2
ATOM      2  C   UNL     1      24.222  38.427  24.604  1.00  0.00     0.000 C 
BRANCH   2   3
ATOM      3  C   UNL     1      23.868  39.366  23.437  1.00  0.00     0.000 C 
BRANCH   3   4
ATOM      4  C   UNL     1      22.746  38.865  22.509  1.00  0.00    -0.000 C 
BRANCH   4   5
ATOM      5  C   UNL     1      22.531  37.345  22.596  1.00  0.00    -0.000 C 
BRANCH   5   6
ATOM      6  C   UNL     1      21.980  36.742  21.290  1.00  0.00    -0.000 C 
BRANCH   6   7
ATOM      7  C   UNL     1      22.984  36.680  20.120  1.00  0.00    -0.000 C 
BRANCH   7   8
ATOM      8  C   UNL     1      23.517  35.274  19.786  1.00  0.00    -0.000 C 
BRANCH   8   9
ATOM      9  C   UNL     1      23.755  35.004  18.289  1.00  0.00    -0.000 C 
BRANCH   9  10
ATOM     10  C   UNL     1      25.246  34.875  17.936  1.00  0.00    -0.000 C 
BRANCH  10  11
ATOM     11  C   UNL     1      26.001  36.208  18.069  1.00  0.00    -0.003 C 
ATOM     12  C   UNL     1      25.092  37.426  17.903  1.00  0.00     0.004 C 
ENDBRANCH  10  11
ENDBRANCH   9  10
ENDBRANCH   8   9
ENDBRANCH   7   8
ENDBRANCH   6   7
ENDBRANCH   5   6
ENDBRANCH   4   5
ENDBRANCH   3   4
ENDBRANCH   2   3
ENDBRANCH   1   2
BRANCH   1  13
ATOM     13  C   UNL     1      22.897  38.320  26.756  1.00  0.00     0.000 C 
BRANCH  13  14
ATOM     14  C   UNL     1      22.401  39.101  27.983  1.00  0.00     0.000 C 
BRANCH  14  15
ATOM     15  C   UNL     1      21.545  38.240  28.929  1.00  0.00     0.000 C 
BRANCH  15  16
ATOM     16  C   UNL     1      21.603  38.741  30.387  1.00  0.00     0.000 C 
BRANCH  16  17
ATOM     17  C   UNL     1      22.017  37.652  31.392  1.00  0.00     0.000 C 
BRANCH  17  18
ATOM     18  C   UNL     1      22.103  38.173  32.836  1.00  0.00     0.000 C 
BRANCH  18  19
ATOM     19  C   UNL     1      21.008  39.202  33.167  1.00  0.00     0.000 C 
BRANCH  19  20
ATOM     20  C   UNL     1      21.284  40.063  34.414  1.00  0.00     0.006 C 
BRANCH  20  21
ATOM     21  C   UNL     1      22.777  40.174  34.745  1.00  0.00     0.053 C 
BRANCH  21  22
ATOM     22  C   UNL     1      23.321  41.485  34.273  1.00  0.00     0.041 C 
ATOM     23  O   UNL     1      22.912  42.562  34.782  1.00  0.00    -0.550 OA
ATOM     24  O   UNL     1      24.246  41.522  33.236  1.00  0.00    -0.550 OA
ENDBRANCH  21  22
ENDBRANCH  20  21
ENDBRANCH  19  20
ENDBRANCH  18  19
ENDBRANCH  17  18
ENDBRANCH  16  17
ENDBRANCH  15  16
ENDBRANCH  14  15
ENDBRANCH  13  14
ENDBRANCH   1  13
TORSDOF 20
ENDMDL
MODEL 9
REMARK VINA RESULT:     9.358      2.628      5.473
REMARK INTER + INTRA:          19.319
REMARK INTER:                  20.006
REMARK INTRA:                  -0.687
REMARK UNBOUND:                -0.982
REMARK SMILES CCCCCCCCCCCCCCCCCCCCCC(=O)[O-]
REMARK SMILES IDX 12 1 11 2 10 3 9 4 8 5 7 6 6 7 5 8 4 9 3 10 2 11 1 12 13 13
REMARK SMILES IDX 14 14 15 15 16 16 17 17 18 18 19 19 20 20 21 21 22 22 23 23
REMARK SMILES IDX 24 24
REMARK H PARENT
REMARK Flexibility Score: inf
ROOT
ATOM      1  C   UNL     1      21.918  39.357  29.031  1.00  0.00     0.000 C 
ENDROOT
BRANCH   1   2
ATOM      2  C   UNL     1      21.908  38.260  30.106  1.00  0.00     0.000 C 
BRANCH   2   3
ATOM      3  C   UNL     1      21.195  38.690  31.400  1.00  0.00     0.000 C 
BRANCH   3   4
ATOM      4  C   UNL     1      21.973  38.418  32.700  1.00  0.00    -0.000 C 
BRANCH   4   5
ATOM      5  C   UNL     1      21.701  39.466  33.792  1.00  0.00    -0.000 C 
BRANCH   5   6
ATOM      6  C   UNL     1      22.709  40.629  33.771  1.00  0.00    -0.000 C 
BRANCH   6   7
ATOM      7  C   UNL     1      22.610  41.607  34.960  1.00  0.00    -0.000 C 
BRANCH   7   8
ATOM      8  C   UNL     1      22.390  43.084  34.579  1.00  0.00    -0.000 C 
BRANCH   8   9
ATOM      9  C   UNL     1      22.173  44.040  35.767  1.00  0.00    -0.000 C 
BRANCH   9  10
ATOM     10  C   UNL     1      21.466  45.344  35.361  1.00  0.00    -0.000 C 
BRANCH  10  11
ATOM     11  C   UNL     1      21.017  45.338  33.891  1.00  0.00    -0.003 C 
ATOM     12  C   UNL     1      19.538  44.992  33.721  1.00  0.00     0.004 C 
ENDBRANCH  10  11
ENDBRANCH   9  10
ENDBRANCH   8   9
ENDBRANCH   7   8
ENDBRANCH   6   7
ENDBRANCH   5   6
ENDBRANCH   4   5
ENDBRANCH   3   4
ENDBRANCH   2   3
ENDBRANCH   1   2
BRANCH   1  13
ATOM     13  C   UNL     1      22.871  38.992  27.883  1.00  0.00     0.000 C 
BRANCH  13  14
ATOM     14  C   UNL     1      22.129  38.554  26.612  1.00  0.00     0.000 C 
BRANCH  14  15
ATOM     15  C   UNL     1      22.882  37.463  25.830  1.00  0.00     0.000 C 
BRANCH  15  16
ATOM     16  C   UNL     1      24.152  38.009  25.143  1.00  0.00     0.000 C 
BRANCH  16  17
ATOM     17  C   UNL     1      23.940  39.370  24.459  1.00  0.00     0.000 C 
BRANCH  17  18
ATOM     18  C   UNL     1      23.486  39.239  22.996  1.00  0.00     0.000 C 
BRANCH  18  19
ATOM     19  C   UNL     1      22.337  38.232  22.814  1.00  0.00     0.000 C 
BRANCH  19  20
ATOM     20  C   UNL     1      22.311  37.519  21.449  1.00  0.00     0.006 C 
BRANCH  20  21
ATOM     21  C   UNL     1      23.447  37.964  20.520  1.00  0.00     0.053 C 
BRANCH  21  22
ATOM     22  C   UNL     1      23.840  36.850  19.603  1.00  0.00     0.041 C 
ATOM     23  O   UNL     1      24.589  37.075  18.616  1.00  0.00    -0.550 OA
ATOM     24  O   UNL     1      23.338  35.570  19.808  1.00  0.00    -0.550 OA
ENDBRANCH  21  22
ENDBRANCH  20  21
ENDBRANCH  19  20
ENDBRANCH  18  19
ENDBRANCH  17  18
ENDBRANCH  16  17
ENDBRANCH  15  16
ENDBRANCH  14  15
ENDBRANCH  13  14
ENDBRANCH   1  13
TORSDOF 20
ENDMDL
