MODEL 1
REMARK VINA RESULT:     0.000      0.000      0.000
REMARK INTER + INTRA:           0.070
REMARK INTER:                   0.000
REMARK INTRA:                   0.070
REMARK UNBOUND:                 0.070
REMARK SMILES C=C1CCC=C(C)CC[C@H]2[C@@H]1CC2(C)C
REMARK SMILES IDX 11 1 12 2 13 3 10 4 14 5 15 6 9 7 8 8 6 9 7 10 5 11 2 13
REMARK SMILES IDX 1 14 3 15 4 16
REMARK H PARENT
REMARK Flexibility Score: 70.00
ROOT
ATOM      1  C   UNL     1     -43.796 -49.128  20.464  1.00  0.00     0.018 C 
ATOM      2  C   UNL     1     -44.002 -49.285  18.948  1.00  0.00     0.015 C 
ATOM      3  C   UNL     1     -42.585 -49.885  18.824  1.00  0.00    -0.031 C 
ATOM      4  C   UNL     1     -42.297 -49.460  20.293  1.00  0.00     0.002 C 
ATOM      5  C   UNL     1     -41.715 -49.296  17.689  1.00  0.00     0.011 C 
ATOM      6  C   UNL     1     -42.636 -51.424  18.697  1.00  0.00     0.011 C 
ENDROOT
BRANCH   4   7
ATOM      7  C   UNL     1     -41.263 -48.319  20.550  1.00  0.00     0.009 C 
BRANCH   7   8
ATOM      8  C   UNL     1     -40.495 -48.331  21.895  1.00  0.00     0.030 C 
BRANCH   8   9
ATOM      9  C   UNL     1     -40.822 -47.147  22.789  1.00  0.00    -0.077 C 
ATOM     10  C   UNL     1     -39.826 -46.021  22.884  1.00  0.00     0.039 C 
ATOM     11  C   UNL     1     -41.978 -47.047  23.490  1.00  0.00    -0.028 CG0
ATOM     12  G   UNL     1     -43.079 -48.089  23.499  1.00  0.00     0.000 G0
ENDBRANCH   8   9
ENDBRANCH   7   8
ENDBRANCH   4   7
BRANCH   1  13
ATOM     13  C   UNL     1     -44.162 -47.831  21.172  1.00  0.00    -0.074 C 
ATOM     14  C   UNL     1     -44.162 -46.702  20.442  1.00  0.00     0.008 C 
BRANCH  13  15
ATOM     15  C   UNL     1     -44.336 -47.722  22.677  1.00  0.00     0.035 C 
BRANCH  15  16
ATOM     16  C   UNL     1     -43.085 -48.095  23.503  1.00  0.00     0.032 CG0
ATOM     17  G   UNL     1     -41.985 -47.053  23.486  1.00  0.00     0.000 G0
ENDBRANCH  15  16
ENDBRANCH  13  15
ENDBRANCH   1  13
TORSDOF 0
ENDMDL
MODEL 2
REMARK VINA RESULT:     0.002     13.983     15.966
REMARK INTER + INTRA:           0.073
REMARK INTER:                   0.000
REMARK INTRA:                   0.073
REMARK UNBOUND:                 0.070
REMARK SMILES C=C1CCC=C(C)CC[C@H]2[C@@H]1CC2(C)C
REMARK SMILES IDX 11 1 12 2 13 3 10 4 14 5 15 6 9 7 8 8 6 9 7 10 5 11 2 13
REMARK SMILES IDX 1 14 3 15 4 16
REMARK H PARENT
REMARK Flexibility Score: 70.00
ROOT
ATOM      1  C   UNL     1     -52.612 -60.872  18.687  1.00  0.00     0.018 C 
ATOM      2  C   UNL     1     -51.417 -60.975  17.725  1.00  0.00     0.015 C 
ATOM      3  C   UNL     1     -50.591 -60.070  18.663  1.00  0.00    -0.031 C 
ATOM      4  C   UNL     1     -51.885 -59.753  19.466  1.00  0.00     0.002 C 
ATOM      5  C   UNL     1     -49.837 -58.911  17.968  1.00  0.00     0.011 C 
ATOM      6  C   UNL     1     -49.603 -60.898  19.516  1.00  0.00     0.011 C 
ENDROOT
BRANCH   4   7
ATOM      7  C   UNL     1     -52.475 -58.310  19.391  1.00  0.00     0.009 C 
BRANCH   7   8
ATOM      8  C   UNL     1     -53.260 -57.786  20.619  1.00  0.00     0.030 C 
BRANCH   8   9
ATOM      9  C   UNL     1     -54.734 -57.548  20.338  1.00  0.00    -0.077 C 
ATOM     10  C   UNL     1     -55.217 -56.130  20.180  1.00  0.00     0.039 C 
ATOM     11  C   UNL     1     -55.633 -58.554  20.202  1.00  0.00    -0.028 CG0
ATOM     12  G   UNL     1     -55.308 -60.030  20.328  1.00  0.00     0.000 G0
ENDBRANCH   8   9
ENDBRANCH   7   8
ENDBRANCH   4   7
BRANCH   1  13
ATOM     13  C   UNL     1     -54.012 -60.583  18.166  1.00  0.00    -0.074 C 
ATOM     14  C   UNL     1     -54.118 -59.945  16.986  1.00  0.00     0.008 C 
BRANCH  13  15
ATOM     15  C   UNL     1     -55.270 -60.802  18.987  1.00  0.00     0.035 C 
BRANCH  15  16
ATOM     16  C   UNL     1     -55.314 -60.031  20.325  1.00  0.00     0.032 CG0
ATOM     17  G   UNL     1     -55.634 -58.556  20.193  1.00  0.00     0.000 G0
ENDBRANCH  15  16
ENDBRANCH  13  15
ENDBRANCH   1  13
TORSDOF 0
ENDMDL
MODEL 3
REMARK VINA RESULT:     0.005     14.169     15.614
REMARK INTER + INTRA:           0.076
REMARK INTER:                   0.000
REMARK INTRA:                   0.076
REMARK UNBOUND:                 0.070
REMARK SMILES C=C1CCC=C(C)CC[C@H]2[C@@H]1CC2(C)C
REMARK SMILES IDX 11 1 12 2 13 3 10 4 14 5 15 6 9 7 8 8 6 9 7 10 5 11 2 13
REMARK SMILES IDX 1 14 3 15 4 16
REMARK H PARENT
REMARK Flexibility Score: 70.00
ROOT
ATOM      1  C   UNL     1     -44.833 -63.058  28.412  1.00  0.00     0.018 C 
ATOM      2  C   UNL     1     -45.333 -63.702  29.716  1.00  0.00     0.015 C 
ATOM      3  C   UNL     1     -46.775 -63.684  29.165  1.00  0.00    -0.031 C 
ATOM      4  C   UNL     1     -46.294 -62.787  27.989  1.00  0.00     0.002 C 
ATOM      5  C   UNL     1     -47.847 -63.136  30.138  1.00  0.00     0.011 C 
ATOM      6  C   UNL     1     -47.198 -65.079  28.655  1.00  0.00     0.011 C 
ENDROOT
BRANCH   4   7
ATOM      7  C   UNL     1     -46.776 -61.302  27.939  1.00  0.00     0.009 C 
BRANCH   7   8
ATOM      8  C   UNL     1     -46.863 -60.619  26.552  1.00  0.00     0.030 C 
BRANCH   8   9
ATOM      9  C   UNL     1     -45.882 -59.471  26.381  1.00  0.00    -0.077 C 
ATOM     10  C   UNL     1     -46.398 -58.060  26.493  1.00  0.00     0.039 C 
ATOM     11  C   UNL     1     -44.559 -59.657  26.151  1.00  0.00    -0.028 CG0
ATOM     12  G   UNL     1     -43.884 -61.007  26.015  1.00  0.00     0.000 G0
ENDBRANCH   8   9
ENDBRANCH   7   8
ENDBRANCH   4   7
BRANCH   1  13
ATOM     13  C   UNL     1     -43.870 -61.880  28.442  1.00  0.00    -0.074 C 
ATOM     14  C   UNL     1     -43.880 -61.094  29.534  1.00  0.00     0.008 C 
BRANCH  13  15
ATOM     15  C   UNL     1     -43.049 -61.442  27.242  1.00  0.00     0.035 C 
BRANCH  15  16
ATOM     16  C   UNL     1     -43.879 -61.012  26.011  1.00  0.00     0.032 CG0
ATOM     17  G   UNL     1     -44.558 -59.664  26.149  1.00  0.00     0.000 G0
ENDBRANCH  15  16
ENDBRANCH  13  15
ENDBRANCH   1  13
TORSDOF 0
ENDMDL
MODEL 4
REMARK VINA RESULT:     0.005     13.313     14.575
REMARK INTER + INTRA:           0.076
REMARK INTER:                   0.000
REMARK INTRA:                   0.076
REMARK UNBOUND:                 0.070
REMARK SMILES C=C1CCC=C(C)CC[C@H]2[C@@H]1CC2(C)C
REMARK SMILES IDX 11 1 12 2 13 3 10 4 14 5 15 6 9 7 8 8 6 9 7 10 5 11 2 13
REMARK SMILES IDX 1 14 3 15 4 16
REMARK H PARENT
REMARK Flexibility Score: 70.00
ROOT
ATOM      1  C   UNL     1     -43.802 -61.725  27.808  1.00  0.00     0.018 C 
ATOM      2  C   UNL     1     -43.981 -63.138  28.388  1.00  0.00     0.015 C 
ATOM      3  C   UNL     1     -45.214 -62.651  29.179  1.00  0.00    -0.031 C 
ATOM      4  C   UNL     1     -44.849 -61.185  28.807  1.00  0.00     0.002 C 
ATOM      5  C   UNL     1     -45.246 -63.060  30.671  1.00  0.00     0.011 C 
ATOM      6  C   UNL     1     -46.528 -63.082  28.490  1.00  0.00     0.011 C 
ENDROOT
BRANCH   4   7
ATOM      7  C   UNL     1     -44.354 -60.230  29.938  1.00  0.00     0.009 C 
BRANCH   7   8
ATOM      8  C   UNL     1     -44.600 -58.711  29.760  1.00  0.00     0.030 C 
BRANCH   8   9
ATOM      9  C   UNL     1     -43.320 -57.904  29.615  1.00  0.00    -0.077 C 
ATOM     10  C   UNL     1     -42.824 -57.122  30.803  1.00  0.00     0.039 C 
ATOM     11  C   UNL     1     -42.593 -57.871  28.471  1.00  0.00    -0.028 CG0
ATOM     12  G   UNL     1     -42.953 -58.602  27.193  1.00  0.00     0.000 G0
ENDBRANCH   8   9
ENDBRANCH   7   8
ENDBRANCH   4   7
BRANCH   1  13
ATOM     13  C   UNL     1     -42.434 -61.059  27.781  1.00  0.00    -0.074 C 
ATOM     14  C   UNL     1     -41.533 -61.448  28.701  1.00  0.00     0.008 C 
BRANCH  13  15
ATOM     15  C   UNL     1     -42.105 -59.862  26.906  1.00  0.00     0.035 C 
BRANCH  15  16
ATOM     16  C   UNL     1     -42.953 -58.602  27.186  1.00  0.00     0.032 CG0
ATOM     17  G   UNL     1     -42.597 -57.874  28.466  1.00  0.00     0.000 G0
ENDBRANCH  15  16
ENDBRANCH  13  15
ENDBRANCH   1  13
TORSDOF 0
ENDMDL
MODEL 5
REMARK VINA RESULT:     0.005     14.875     16.077
REMARK INTER + INTRA:           0.076
REMARK INTER:                   0.000
REMARK INTRA:                   0.076
REMARK UNBOUND:                 0.070
REMARK SMILES C=C1CCC=C(C)CC[C@H]2[C@@H]1CC2(C)C
REMARK SMILES IDX 11 1 12 2 13 3 10 4 14 5 15 6 9 7 8 8 6 9 7 10 5 11 2 13
REMARK SMILES IDX 1 14 3 15 4 16
REMARK H PARENT
REMARK Flexibility Score: 70.00
ROOT
ATOM      1  C   UNL     1     -43.195 -62.630  28.570  1.00  0.00     0.018 C 
ATOM      2  C   UNL     1     -42.716 -64.091  28.602  1.00  0.00     0.015 C 
ATOM      3  C   UNL     1     -43.607 -64.350  29.836  1.00  0.00    -0.031 C 
ATOM      4  C   UNL     1     -43.856 -62.819  29.954  1.00  0.00     0.002 C 
ATOM      5  C   UNL     1     -42.916 -65.090  31.006  1.00  0.00     0.011 C 
ATOM      6  C   UNL     1     -44.905 -65.090  29.444  1.00  0.00     0.011 C 
ENDROOT
BRANCH   4   7
ATOM      7  C   UNL     1     -43.239 -62.055  31.167  1.00  0.00     0.009 C 
BRANCH   7   8
ATOM      8  C   UNL     1     -43.956 -60.769  31.650  1.00  0.00     0.030 C 
BRANCH   8   9
ATOM      9  C   UNL     1     -43.130 -59.508  31.458  1.00  0.00    -0.077 C 
ATOM     10  C   UNL     1     -42.441 -58.909  32.656  1.00  0.00     0.039 C 
ATOM     11  C   UNL     1     -42.970 -58.906  30.254  1.00  0.00    -0.028 CG0
ATOM     12  G   UNL     1     -43.592 -59.383  28.956  1.00  0.00     0.000 G0
ENDBRANCH   8   9
ENDBRANCH   7   8
ENDBRANCH   4   7
BRANCH   1  13
ATOM     13  C   UNL     1     -42.206 -61.486  28.403  1.00  0.00    -0.074 C 
ATOM     14  C   UNL     1     -40.940 -61.693  28.809  1.00  0.00     0.008 C 
BRANCH  13  15
ATOM     15  C   UNL     1     -42.613 -60.084  27.986  1.00  0.00     0.035 C 
BRANCH  15  16
ATOM     16  C   UNL     1     -43.596 -59.381  28.950  1.00  0.00     0.032 CG0
ATOM     17  G   UNL     1     -42.975 -58.909  30.249  1.00  0.00     0.000 G0
ENDBRANCH  15  16
ENDBRANCH  13  15
ENDBRANCH   1  13
TORSDOF 0
ENDMDL
MODEL 6
REMARK VINA RESULT:     0.005     13.244     14.358
REMARK INTER + INTRA:           0.076
REMARK INTER:                   0.000
REMARK INTRA:                   0.076
REMARK UNBOUND:                 0.070
REMARK SMILES C=C1CCC=C(C)CC[C@H]2[C@@H]1CC2(C)C
REMARK SMILES IDX 11 1 12 2 13 3 10 4 14 5 15 6 9 7 8 8 6 9 7 10 5 11 2 13
REMARK SMILES IDX 1 14 3 15 4 16
REMARK H PARENT
REMARK Flexibility Score: 70.00
ROOT
ATOM      1  C   UNL     1     -43.010 -61.235  28.168  1.00  0.00     0.018 C 
ATOM      2  C   UNL     1     -42.490 -62.678  28.067  1.00  0.00     0.015 C 
ATOM      3  C   UNL     1     -42.549 -62.801  29.605  1.00  0.00    -0.031 C 
ATOM      4  C   UNL     1     -42.799 -61.269  29.698  1.00  0.00     0.002 C 
ATOM      5  C   UNL     1     -41.284 -63.396  30.269  1.00  0.00     0.011 C 
ATOM      6  C   UNL     1     -43.797 -63.591  30.057  1.00  0.00     0.011 C 
ENDROOT
BRANCH   4   7
ATOM      7  C   UNL     1     -41.677 -60.365  30.300  1.00  0.00     0.009 C 
BRANCH   7   8
ATOM      8  C   UNL     1     -42.104 -59.038  30.976  1.00  0.00     0.030 C 
BRANCH   8   9
ATOM      9  C   UNL     1     -41.605 -57.801  30.249  1.00  0.00    -0.077 C 
ATOM     10  C   UNL     1     -40.419 -57.064  30.813  1.00  0.00     0.039 C 
ATOM     11  C   UNL     1     -42.165 -57.340  29.103  1.00  0.00    -0.028 CG0
ATOM     12  G   UNL     1     -43.357 -57.968  28.408  1.00  0.00     0.000 G0
ENDBRANCH   8   9
ENDBRANCH   7   8
ENDBRANCH   4   7
BRANCH   1  13
ATOM     13  C   UNL     1     -42.351 -60.110  27.383  1.00  0.00    -0.074 C 
ATOM     14  C   UNL     1     -41.057 -60.259  27.048  1.00  0.00     0.008 C 
BRANCH  13  15
ATOM     15  C   UNL     1     -43.015 -58.768  27.130  1.00  0.00     0.035 C 
BRANCH  15  16
ATOM     16  C   UNL     1     -43.364 -57.966  28.404  1.00  0.00     0.032 CG0
ATOM     17  G   UNL     1     -42.171 -57.344  29.103  1.00  0.00     0.000 G0
ENDBRANCH  15  16
ENDBRANCH  13  15
ENDBRANCH   1  13
TORSDOF 0
ENDMDL
MODEL 7
REMARK VINA RESULT:     0.007     10.997     12.874
REMARK INTER + INTRA:           0.080
REMARK INTER:                   0.000
REMARK INTRA:                   0.080
REMARK UNBOUND:                 0.070
REMARK SMILES C=C1CCC=C(C)CC[C@H]2[C@@H]1CC2(C)C
REMARK SMILES IDX 11 1 12 2 13 3 10 4 14 5 15 6 9 7 8 8 6 9 7 10 5 11 2 13
REMARK SMILES IDX 1 14 3 15 4 16
REMARK H PARENT
REMARK Flexibility Score: 70.00
ROOT
ATOM      1  C   UNL     1     -39.914 -58.674  20.132  1.00  0.00     0.018 C 
ATOM      2  C   UNL     1     -39.902 -59.105  21.608  1.00  0.00     0.015 C 
ATOM      3  C   UNL     1     -38.431 -59.549  21.460  1.00  0.00    -0.031 C 
ATOM      4  C   UNL     1     -38.553 -59.372  19.920  1.00  0.00     0.002 C 
ATOM      5  C   UNL     1     -38.103 -60.950  22.031  1.00  0.00     0.011 C 
ATOM      6  C   UNL     1     -37.466 -58.502  22.060  1.00  0.00     0.011 C 
ENDROOT
BRANCH   4   7
ATOM      7  C   UNL     1     -38.519 -60.646  19.018  1.00  0.00     0.009 C 
BRANCH   7   8
ATOM      8  C   UNL     1     -37.986 -60.492  17.572  1.00  0.00     0.030 C 
BRANCH   8   9
ATOM      9  C   UNL     1     -39.043 -60.738  16.508  1.00  0.00    -0.077 C 
ATOM     10  C   UNL     1     -39.029 -62.051  15.769  1.00  0.00     0.039 C 
ATOM     11  C   UNL     1     -40.011 -59.838  16.206  1.00  0.00    -0.028 CG0
ATOM     12  G   UNL     1     -40.164 -58.479  16.858  1.00  0.00     0.000 G0
ENDBRANCH   8   9
ENDBRANCH   7   8
ENDBRANCH   4   7
BRANCH   1  13
ATOM     13  C   UNL     1     -41.065 -59.061  19.215  1.00  0.00    -0.074 C 
ATOM     14  C   UNL     1     -41.768 -60.164  19.529  1.00  0.00     0.008 C 
BRANCH  13  15
ATOM     15  C   UNL     1     -41.331 -58.388  17.880  1.00  0.00     0.035 C 
BRANCH  15  16
ATOM     16  C   UNL     1     -40.171 -58.481  16.863  1.00  0.00     0.032 CG0
ATOM     17  G   UNL     1     -40.010 -59.842  16.214  1.00  0.00     0.000 G0
ENDBRANCH  15  16
ENDBRANCH  13  15
ENDBRANCH   1  13
TORSDOF 0
ENDMDL
MODEL 8
REMARK VINA RESULT:     0.009     12.316     14.129
REMARK INTER + INTRA:           0.082
REMARK INTER:                   0.000
REMARK INTRA:                   0.082
REMARK UNBOUND:                 0.070
REMARK SMILES C=C1CCC=C(C)CC[C@H]2[C@@H]1CC2(C)C
REMARK SMILES IDX 11 1 12 2 13 3 10 4 14 5 15 6 9 7 8 8 6 9 7 10 5 11 2 13
REMARK SMILES IDX 1 14 3 15 4 16
REMARK H PARENT
REMARK Flexibility Score: 70.00
ROOT
ATOM      1  C   UNL     1     -42.597 -60.922  17.030  1.00  0.00     0.018 C 
ATOM      2  C   UNL     1     -41.531 -61.830  16.394  1.00  0.00     0.015 C 
ATOM      3  C   UNL     1     -42.168 -61.597  15.007  1.00  0.00    -0.031 C 
ATOM      4  C   UNL     1     -43.385 -60.922  15.701  1.00  0.00     0.002 C 
ATOM      5  C   UNL     1     -42.398 -62.873  14.163  1.00  0.00     0.011 C 
ATOM      6  C   UNL     1     -41.362 -60.566  14.186  1.00  0.00     0.011 C 
ENDROOT
BRANCH   4   7
ATOM      7  C   UNL     1     -44.763 -61.657  15.670  1.00  0.00     0.009 C 
BRANCH   7   8
ATOM      8  C   UNL     1     -46.045 -60.790  15.735  1.00  0.00     0.030 C 
BRANCH   8   9
ATOM      9  C   UNL     1     -46.857 -61.004  17.001  1.00  0.00    -0.077 C 
ATOM     10  C   UNL     1     -48.110 -61.836  16.920  1.00  0.00     0.039 C 
ATOM     11  C   UNL     1     -46.495 -60.498  18.205  1.00  0.00    -0.028 CG0
ATOM     12  G   UNL     1     -45.266 -59.647  18.454  1.00  0.00     0.000 G0
ENDBRANCH   8   9
ENDBRANCH   7   8
ENDBRANCH   4   7
BRANCH   1  13
ATOM     13  C   UNL     1     -43.331 -61.346  18.294  1.00  0.00    -0.074 C 
ATOM     14  C   UNL     1     -43.432 -62.664  18.544  1.00  0.00     0.008 C 
BRANCH  13  15
ATOM     15  C   UNL     1     -44.109 -60.381  19.171  1.00  0.00     0.035 C 
BRANCH  15  16
ATOM     16  C   UNL     1     -45.265 -59.645  18.457  1.00  0.00     0.032 CG0
ATOM     17  G   UNL     1     -46.493 -60.496  18.203  1.00  0.00     0.000 G0
ENDBRANCH  15  16
ENDBRANCH  13  15
ENDBRANCH   1  13
TORSDOF 0
ENDMDL
MODEL 9
REMARK VINA RESULT:     0.012      2.446      4.914
REMARK INTER + INTRA:           0.086
REMARK INTER:                   0.000
REMARK INTRA:                   0.086
REMARK UNBOUND:                 0.070
REMARK SMILES C=C1CCC=C(C)CC[C@H]2[C@@H]1CC2(C)C
REMARK SMILES IDX 11 1 12 2 13 3 10 4 14 5 15 6 9 7 8 8 6 9 7 10 5 11 2 13
REMARK SMILES IDX 1 14 3 15 4 16
REMARK H PARENT
REMARK Flexibility Score: 70.00
ROOT
ATOM      1  C   UNL     1     -39.928 -48.722  19.897  1.00  0.00     0.018 C 
ATOM      2  C   UNL     1     -38.449 -48.734  19.476  1.00  0.00     0.015 C 
ATOM      3  C   UNL     1     -38.875 -48.616  17.997  1.00  0.00    -0.031 C 
ATOM      4  C   UNL     1     -40.347 -48.888  18.419  1.00  0.00     0.002 C 
ATOM      5  C   UNL     1     -38.178 -49.601  17.028  1.00  0.00     0.011 C 
ATOM      6  C   UNL     1     -38.709 -47.170  17.479  1.00  0.00     0.011 C 
ENDROOT
BRANCH   4   7
ATOM      7  C   UNL     1     -41.007 -50.238  17.994  1.00  0.00     0.009 C 
BRANCH   7   8
ATOM      8  C   UNL     1     -42.538 -50.249  17.756  1.00  0.00     0.030 C 
BRANCH   8   9
ATOM      9  C   UNL     1     -43.299 -51.100  18.758  1.00  0.00    -0.077 C 
ATOM     10  C   UNL     1     -43.843 -52.430  18.306  1.00  0.00     0.039 C 
ATOM     11  C   UNL     1     -43.495 -50.728  20.047  1.00  0.00    -0.028 CG0
ATOM     12  G   UNL     1     -43.011 -49.427  20.657  1.00  0.00     0.000 G0
ENDBRANCH   8   9
ENDBRANCH   7   8
ENDBRANCH   4   7
BRANCH   1  13
ATOM     13  C   UNL     1     -40.461 -49.729  20.905  1.00  0.00    -0.074 C 
ATOM     14  C   UNL     1     -39.788 -50.885  21.048  1.00  0.00     0.008 C 
BRANCH  13  15
ATOM     15  C   UNL     1     -41.800 -49.578  21.607  1.00  0.00     0.035 C 
BRANCH  15  16
ATOM     16  C   UNL     1     -43.014 -49.430  20.662  1.00  0.00     0.032 CG0
ATOM     17  G   UNL     1     -43.492 -50.727  20.041  1.00  0.00     0.000 G0
ENDBRANCH  15  16
ENDBRANCH  13  15
ENDBRANCH   1  13
TORSDOF 0
ENDMDL
