MODEL 1
REMARK VINA RESULT:    -5.800      0.000      0.000
REMARK INTER + INTRA:          -5.800
REMARK INTER:                  -5.800
REMARK INTRA:                   0.000
REMARK UNBOUND:                 0.000
REMARK SMILES O=c1ccc2ccc3occc3c2o1
REMARK SMILES IDX 6 1 7 2 8 3 12 4 11 5 10 6 9 7 13 8 5 9 4 10 3 11 2 12 1 13
REMARK SMILES IDX 14 14
REMARK H PARENT
REMARK Flexibility Score: inf
ROOT
ATOM      1  C   UNL     1      74.978  41.974  -4.155  1.00  0.00     0.016 A 
ATOM      2  C   UNL     1      74.420  40.750  -4.570  1.00  0.00     0.048 A 
ATOM      3  C   UNL     1      73.213  40.352  -3.997  1.00  0.00     0.137 A 
ATOM      4  C   UNL     1      72.573  41.112  -3.056  1.00  0.00     0.064 A 
ATOM      5  C   UNL     1      71.426  40.435  -2.707  1.00  0.00     0.054 A 
ATOM      6  C   UNL     1      71.453  39.280  -3.482  1.00  0.00     0.196 A 
ATOM      7  O   UNL     1      72.532  39.258  -4.242  1.00  0.00    -0.464 OA
ATOM      8  C   UNL     1      73.093  42.329  -2.620  1.00  0.00     0.149 A 
ATOM      9  C   UNL     1      74.319  42.766  -3.182  1.00  0.00     0.018 A 
ATOM     10  C   UNL     1      74.846  43.985  -2.747  1.00  0.00     0.019 A 
ATOM     11  C   UNL     1      74.157  44.725  -1.786  1.00  0.00     0.094 A 
ATOM     12  C   UNL     1      72.950  44.227  -1.278  1.00  0.00     0.336 A 
ATOM     13  O   UNL     1      72.316  44.884  -0.410  1.00  0.00    -0.246 OA
ATOM     14  O   UNL     1      72.465  43.064  -1.705  1.00  0.00    -0.422 OA
ENDROOT
TORSDOF 0
ENDMDL
MODEL 2
REMARK VINA RESULT:    -5.458     10.185     12.544
REMARK INTER + INTRA:          -5.458
REMARK INTER:                  -5.458
REMARK INTRA:                   0.000
REMARK UNBOUND:                 0.000
REMARK SMILES O=c1ccc2ccc3occc3c2o1
REMARK SMILES IDX 6 1 7 2 8 3 12 4 11 5 10 6 9 7 13 8 5 9 4 10 3 11 2 12 1 13
REMARK SMILES IDX 14 14
REMARK H PARENT
REMARK Flexibility Score: inf
ROOT
ATOM      1  C   UNL     1      72.718  49.641   8.773  1.00  0.00     0.016 A 
ATOM      2  C   UNL     1      73.856  49.278   8.029  1.00  0.00     0.048 A 
ATOM      3  C   UNL     1      73.663  48.654   6.797  1.00  0.00     0.137 A 
ATOM      4  C   UNL     1      72.412  48.391   6.307  1.00  0.00     0.064 A 
ATOM      5  C   UNL     1      72.581  47.777   5.087  1.00  0.00     0.054 A 
ATOM      6  C   UNL     1      73.960  47.709   4.918  1.00  0.00     0.196 A 
ATOM      7  O   UNL     1      74.580  48.240   5.956  1.00  0.00    -0.464 OA
ATOM      8  C   UNL     1      71.262  48.735   7.014  1.00  0.00     0.149 A 
ATOM      9  C   UNL     1      71.421  49.372   8.271  1.00  0.00     0.018 A 
ATOM     10  C   UNL     1      70.271  49.718   8.984  1.00  0.00     0.019 A 
ATOM     11  C   UNL     1      69.017  49.429   8.444  1.00  0.00     0.094 A 
ATOM     12  C   UNL     1      68.941  48.798   7.196  1.00  0.00     0.336 A 
ATOM     13  O   UNL     1      67.816  48.532   6.695  1.00  0.00    -0.246 OA
ATOM     14  O   UNL     1      70.048  48.477   6.533  1.00  0.00    -0.422 OA
ENDROOT
TORSDOF 0
ENDMDL
MODEL 3
REMARK VINA RESULT:    -5.454      9.761     12.689
REMARK INTER + INTRA:          -5.454
REMARK INTER:                  -5.454
REMARK INTRA:                   0.000
REMARK UNBOUND:                 0.000
REMARK SMILES O=c1ccc2ccc3occc3c2o1
REMARK SMILES IDX 6 1 7 2 8 3 12 4 11 5 10 6 9 7 13 8 5 9 4 10 3 11 2 12 1 13
REMARK SMILES IDX 14 14
REMARK H PARENT
REMARK Flexibility Score: inf
ROOT
ATOM      1  C   UNL     1      73.125  49.257   8.858  1.00  0.00     0.016 A 
ATOM      2  C   UNL     1      71.897  49.628   9.438  1.00  0.00     0.048 A 
ATOM      3  C   UNL     1      70.741  49.485   8.672  1.00  0.00     0.137 A 
ATOM      4  C   UNL     1      70.775  49.001   7.393  1.00  0.00     0.064 A 
ATOM      5  C   UNL     1      69.478  48.990   6.933  1.00  0.00     0.054 A 
ATOM      6  C   UNL     1      68.727  49.482   7.996  1.00  0.00     0.196 A 
ATOM      7  O   UNL     1      69.509  49.770   9.020  1.00  0.00    -0.464 OA
ATOM      8  C   UNL     1      71.971  48.622   6.784  1.00  0.00     0.149 A 
ATOM      9  C   UNL     1      73.167  48.754   7.534  1.00  0.00     0.018 A 
ATOM     10  C   UNL     1      74.369  48.377   6.929  1.00  0.00     0.019 A 
ATOM     11  C   UNL     1      74.354  47.889   5.622  1.00  0.00     0.094 A 
ATOM     12  C   UNL     1      73.131  47.787   4.946  1.00  0.00     0.336 A 
ATOM     13  O   UNL     1      73.102  47.348   3.766  1.00  0.00    -0.246 OA
ATOM     14  O   UNL     1      71.998  48.152   5.540  1.00  0.00    -0.422 OA
ENDROOT
TORSDOF 0
ENDMDL
MODEL 4
REMARK VINA RESULT:    -5.246      1.294      4.246
REMARK INTER + INTRA:          -5.246
REMARK INTER:                  -5.246
REMARK INTRA:                   0.000
REMARK UNBOUND:                 0.000
REMARK SMILES O=c1ccc2ccc3occc3c2o1
REMARK SMILES IDX 6 1 7 2 8 3 12 4 11 5 10 6 9 7 13 8 5 9 4 10 3 11 2 12 1 13
REMARK SMILES IDX 14 14
REMARK H PARENT
REMARK Flexibility Score: inf
ROOT
ATOM      1  C   UNL     1      74.945  42.187  -4.068  1.00  0.00     0.016 A 
ATOM      2  C   UNL     1      75.125  43.399  -3.375  1.00  0.00     0.048 A 
ATOM      3  C   UNL     1      74.184  43.747  -2.406  1.00  0.00     0.137 A 
ATOM      4  C   UNL     1      73.109  42.949  -2.123  1.00  0.00     0.064 A 
ATOM      5  C   UNL     1      72.391  43.581  -1.133  1.00  0.00     0.054 A 
ATOM      6  C   UNL     1      73.102  44.750  -0.878  1.00  0.00     0.196 A 
ATOM      7  O   UNL     1      74.168  44.821  -1.655  1.00  0.00    -0.464 OA
ATOM      8  C   UNL     1      72.896  41.743  -2.787  1.00  0.00     0.149 A 
ATOM      9  C   UNL     1      73.834  41.357  -3.779  1.00  0.00     0.018 A 
ATOM     10  C   UNL     1      73.625  40.149  -4.448  1.00  0.00     0.019 A 
ATOM     11  C   UNL     1      72.514  39.370  -4.125  1.00  0.00     0.094 A 
ATOM     12  C   UNL     1      71.632  39.818  -3.133  1.00  0.00     0.336 A 
ATOM     13  O   UNL     1      70.625  39.125  -2.830  1.00  0.00    -0.246 OA
ATOM     14  O   UNL     1      71.849  40.972  -2.507  1.00  0.00    -0.422 OA
ENDROOT
TORSDOF 0
ENDMDL
MODEL 5
REMARK VINA RESULT:    -4.911      9.819     12.479
REMARK INTER + INTRA:          -4.911
REMARK INTER:                  -4.911
REMARK INTRA:                   0.000
REMARK UNBOUND:                 0.000
REMARK SMILES O=c1ccc2ccc3occc3c2o1
REMARK SMILES IDX 6 1 7 2 8 3 12 4 11 5 10 6 9 7 13 8 5 9 4 10 3 11 2 12 1 13
REMARK SMILES IDX 14 14
REMARK H PARENT
REMARK Flexibility Score: inf
ROOT
ATOM      1  C   UNL     1      72.936  50.075   7.669  1.00  0.00     0.016 A 
ATOM      2  C   UNL     1      71.719  50.599   8.143  1.00  0.00     0.048 A 
ATOM      3  C   UNL     1      70.566  49.832   7.981  1.00  0.00     0.137 A 
ATOM      4  C   UNL     1      70.594  48.603   7.379  1.00  0.00     0.064 A 
ATOM      5  C   UNL     1      69.303  48.126   7.381  1.00  0.00     0.054 A 
ATOM      6  C   UNL     1      68.562  49.128   8.002  1.00  0.00     0.196 A 
ATOM      7  O   UNL     1      69.344  50.134   8.348  1.00  0.00    -0.464 OA
ATOM      8  C   UNL     1      71.778  48.050   6.897  1.00  0.00     0.149 A 
ATOM      9  C   UNL     1      72.971  48.803   7.046  1.00  0.00     0.018 A 
ATOM     10  C   UNL     1      74.162  48.253   6.564  1.00  0.00     0.019 A 
ATOM     11  C   UNL     1      74.140  46.997   5.958  1.00  0.00     0.094 A 
ATOM     12  C   UNL     1      72.922  46.313   5.848  1.00  0.00     0.336 A 
ATOM     13  O   UNL     1      72.887  45.178   5.303  1.00  0.00    -0.246 OA
ATOM     14  O   UNL     1      71.799  46.854   6.313  1.00  0.00    -0.422 OA
ENDROOT
TORSDOF 0
ENDMDL
MODEL 6
REMARK VINA RESULT:    -4.822     11.468     13.086
REMARK INTER + INTRA:          -4.822
REMARK INTER:                  -4.822
REMARK INTRA:                   0.000
REMARK UNBOUND:                 0.000
REMARK SMILES O=c1ccc2ccc3occc3c2o1
REMARK SMILES IDX 6 1 7 2 8 3 12 4 11 5 10 6 9 7 13 8 5 9 4 10 3 11 2 12 1 13
REMARK SMILES IDX 14 14
REMARK H PARENT
REMARK Flexibility Score: inf
ROOT
ATOM      1  C   UNL     1      70.642  50.388   8.781  1.00  0.00     0.016 A 
ATOM      2  C   UNL     1      69.302  49.979   8.915  1.00  0.00     0.048 A 
ATOM      3  C   UNL     1      68.950  48.716   8.440  1.00  0.00     0.137 A 
ATOM      4  C   UNL     1      69.865  47.883   7.855  1.00  0.00     0.064 A 
ATOM      5  C   UNL     1      69.193  46.733   7.505  1.00  0.00     0.054 A 
ATOM      6  C   UNL     1      67.882  46.957   7.914  1.00  0.00     0.196 A 
ATOM      7  O   UNL     1      67.768  48.150   8.469  1.00  0.00    -0.464 OA
ATOM      8  C   UNL     1      71.200  48.251   7.703  1.00  0.00     0.149 A 
ATOM      9  C   UNL     1      71.593  49.529   8.176  1.00  0.00     0.018 A 
ATOM     10  C   UNL     1      72.931  49.904   8.026  1.00  0.00     0.019 A 
ATOM     11  C   UNL     1      73.827  49.020   7.423  1.00  0.00     0.094 A 
ATOM     12  C   UNL     1      73.363  47.774   6.982  1.00  0.00     0.336 A 
ATOM     13  O   UNL     1      74.159  46.966   6.436  1.00  0.00    -0.246 OA
ATOM     14  O   UNL     1      72.085  47.436   7.134  1.00  0.00    -0.422 OA
ENDROOT
TORSDOF 0
ENDMDL
MODEL 7
REMARK VINA RESULT:    -4.813      8.764     10.946
REMARK INTER + INTRA:          -4.813
REMARK INTER:                  -4.813
REMARK INTRA:                   0.000
REMARK UNBOUND:                 0.000
REMARK SMILES O=c1ccc2ccc3occc3c2o1
REMARK SMILES IDX 6 1 7 2 8 3 12 4 11 5 10 6 9 7 13 8 5 9 4 10 3 11 2 12 1 13
REMARK SMILES IDX 14 14
REMARK H PARENT
REMARK Flexibility Score: inf
ROOT
ATOM      1  C   UNL     1      74.115  48.162   5.378  1.00  0.00     0.016 A 
ATOM      2  C   UNL     1      74.010  46.955   4.662  1.00  0.00     0.048 A 
ATOM      3  C   UNL     1      73.159  45.968   5.160  1.00  0.00     0.137 A 
ATOM      4  C   UNL     1      72.439  46.148   6.309  1.00  0.00     0.064 A 
ATOM      5  C   UNL     1      71.714  44.995   6.511  1.00  0.00     0.054 A 
ATOM      6  C   UNL     1      72.055  44.176   5.440  1.00  0.00     0.196 A 
ATOM      7  O   UNL     1      72.921  44.784   4.650  1.00  0.00    -0.464 OA
ATOM      8  C   UNL     1      72.515  47.328   7.046  1.00  0.00     0.149 A 
ATOM      9  C   UNL     1      73.371  48.353   6.568  1.00  0.00     0.018 A 
ATOM     10  C   UNL     1      73.452  49.539   7.303  1.00  0.00     0.019 A 
ATOM     11  C   UNL     1      72.699  49.675   8.469  1.00  0.00     0.094 A 
ATOM     12  C   UNL     1      71.875  48.618   8.877  1.00  0.00     0.336 A 
ATOM     13  O   UNL     1      71.189  48.726   9.927  1.00  0.00    -0.246 OA
ATOM     14  O   UNL     1      71.812  47.497   8.163  1.00  0.00    -0.422 OA
ENDROOT
TORSDOF 0
ENDMDL
MODEL 8
REMARK VINA RESULT:    -4.769     13.083     15.461
REMARK INTER + INTRA:          -4.769
REMARK INTER:                  -4.769
REMARK INTRA:                   0.000
REMARK UNBOUND:                 0.000
REMARK SMILES O=c1ccc2ccc3occc3c2o1
REMARK SMILES IDX 6 1 7 2 8 3 12 4 11 5 10 6 9 7 13 8 5 9 4 10 3 11 2 12 1 13
REMARK SMILES IDX 14 14
REMARK H PARENT
REMARK Flexibility Score: inf
ROOT
ATOM      1  C   UNL     1      65.501  49.593  10.050  1.00  0.00     0.016 A 
ATOM      2  C   UNL     1      66.769  49.999   9.593  1.00  0.00     0.048 A 
ATOM      3  C   UNL     1      67.338  49.300   8.529  1.00  0.00     0.137 A 
ATOM      4  C   UNL     1      66.701  48.246   7.933  1.00  0.00     0.064 A 
ATOM      5  C   UNL     1      67.529  47.792   6.932  1.00  0.00     0.054 A 
ATOM      6  C   UNL     1      68.641  48.625   6.994  1.00  0.00     0.196 A 
ATOM      7  O   UNL     1      68.498  49.516   7.958  1.00  0.00    -0.464 OA
ATOM      8  C   UNL     1      65.445  47.814   8.356  1.00  0.00     0.149 A 
ATOM      9  C   UNL     1      64.836  48.502   9.436  1.00  0.00     0.018 A 
ATOM     10  C   UNL     1      63.578  48.073   9.865  1.00  0.00     0.019 A 
ATOM     11  C   UNL     1      62.968  46.993   9.225  1.00  0.00     0.094 A 
ATOM     12  C   UNL     1      63.632  46.365   8.164  1.00  0.00     0.336 A 
ATOM     13  O   UNL     1      63.094  45.389   7.577  1.00  0.00    -0.246 OA
ATOM     14  O   UNL     1      64.831  46.789   7.771  1.00  0.00    -0.422 OA
ENDROOT
TORSDOF 0
ENDMDL
MODEL 9
REMARK VINA RESULT:    -4.761     12.192     14.092
REMARK INTER + INTRA:          -4.761
REMARK INTER:                  -4.761
REMARK INTRA:                   0.000
REMARK UNBOUND:                 0.000
REMARK SMILES O=c1ccc2ccc3occc3c2o1
REMARK SMILES IDX 6 1 7 2 8 3 12 4 11 5 10 6 9 7 13 8 5 9 4 10 3 11 2 12 1 13
REMARK SMILES IDX 14 14
REMARK H PARENT
REMARK Flexibility Score: inf
ROOT
ATOM      1  C   UNL     1      68.292  50.815   9.303  1.00  0.00     0.016 A 
ATOM      2  C   UNL     1      66.945  50.409   9.257  1.00  0.00     0.048 A 
ATOM      3  C   UNL     1      66.622  49.290   8.490  1.00  0.00     0.137 A 
ATOM      4  C   UNL     1      67.572  48.593   7.794  1.00  0.00     0.064 A 
ATOM      5  C   UNL     1      66.923  47.562   7.153  1.00  0.00     0.054 A 
ATOM      6  C   UNL     1      65.588  47.711   7.516  1.00  0.00     0.196 A 
ATOM      7  O   UNL     1      65.440  48.752   8.315  1.00  0.00    -0.464 OA
ATOM      8  C   UNL     1      68.916  48.963   7.814  1.00  0.00     0.149 A 
ATOM      9  C   UNL     1      69.279  50.096   8.585  1.00  0.00     0.018 A 
ATOM     10  C   UNL     1      70.624  50.473   8.609  1.00  0.00     0.019 A 
ATOM     11  C   UNL     1      71.556  49.730   7.883  1.00  0.00     0.094 A 
ATOM     12  C   UNL     1      71.120  48.622   7.146  1.00  0.00     0.336 A 
ATOM     13  O   UNL     1      71.949  47.942   6.485  1.00  0.00    -0.246 OA
ATOM     14  O   UNL     1      69.834  48.280   7.136  1.00  0.00    -0.422 OA
ENDROOT
TORSDOF 0
ENDMDL
