MODEL 1
REMARK VINA RESULT:    -9.571      0.000      0.000
REMARK INTER + INTRA:          -9.851
REMARK INTER:                  -9.851
REMARK INTRA:                   0.000
REMARK UNBOUND:                 0.000
REMARK SMILES CC1(C)CC[C@]2(C)CC[C@]3(C)C(=CC[C@H]4[C@]5(C)CC[C@H](O)C(C)(C)[C@@H]5CC[C@]43C)[C@H]2C1
REMARK SMILES IDX 1 1 2 2 4 3 5 4 6 5 8 6 9 7 10 8 12 9 13 10 14 11 15 12
REMARK SMILES IDX 28 13 27 14 26 15 25 16 16 17 18 18 19 19 20 20 22 21 23 22
REMARK SMILES IDX 24 23 17 24 29 25 30 26 31 27 11 28 7 29 3 30 21 31
REMARK H PARENT 21 32
REMARK Flexibility Score: inf
ROOT
ATOM      1  C   UNL     1      -4.734  28.258  46.872  1.00  0.00     0.011 C 
ATOM      2  C   UNL     1      -5.937  27.404  47.343  1.00  0.00    -0.035 C 
ATOM      3  C   UNL     1      -6.247  27.674  48.841  1.00  0.00     0.007 C 
ATOM      4  C   UNL     1      -5.217  27.054  49.807  1.00  0.00     0.008 C 
ATOM      5  C   UNL     1      -4.983  25.535  49.572  1.00  0.00    -0.026 C 
ATOM      6  C   UNL     1      -3.787  25.077  50.458  1.00  0.00     0.008 C 
ATOM      7  C   UNL     1      -3.269  23.647  50.145  1.00  0.00     0.012 C 
ATOM      8  C   UNL     1      -2.967  23.351  48.626  1.00  0.00    -0.006 C 
ATOM      9  C   UNL     1      -4.213  23.838  47.872  1.00  0.00    -0.064 C 
ATOM     10  C   UNL     1      -5.111  22.976  47.375  1.00  0.00    -0.027 C 
ATOM     11  C   UNL     1      -4.966  21.500  47.376  1.00  0.00     0.032 C 
ATOM     12  C   UNL     1      -3.932  20.891  48.379  1.00  0.00     0.006 C 
ATOM     13  C   UNL     1      -2.620  21.780  48.381  1.00  0.00    -0.020 C 
ATOM     14  C   UNL     1      -1.944  21.551  46.998  1.00  0.00     0.008 C 
ATOM     15  C   UNL     1      -1.679  20.074  46.655  1.00  0.00     0.005 C 
ATOM     16  C   UNL     1      -2.903  19.108  46.732  1.00  0.00     0.003 C 
ATOM     17  C   UNL     1      -3.754  19.318  48.058  1.00  0.00    -0.025 C 
ATOM     18  C   UNL     1      -3.115  18.531  49.250  1.00  0.00     0.010 C 
ATOM     19  C   UNL     1      -2.805  17.054  48.947  1.00  0.00     0.033 C 
ATOM     20  C   UNL     1      -1.906  16.889  47.714  1.00  0.00     0.120 C 
ATOM     21  C   UNL     1      -2.480  17.593  46.438  1.00  0.00    -0.006 C 
ATOM     22  C   UNL     1      -1.412  17.513  45.304  1.00  0.00     0.014 C 
ATOM     23  C   UNL     1      -3.685  16.771  45.889  1.00  0.00     0.014 C 
ATOM     24  C   UNL     1      -5.198  18.724  47.897  1.00  0.00     0.012 C 
ATOM     25  C   UNL     1      -1.618  21.347  49.507  1.00  0.00     0.012 C 
ATOM     26  C   UNL     1      -4.610  25.308  48.080  1.00  0.00     0.022 C 
ATOM     27  C   UNL     1      -5.675  25.888  47.111  1.00  0.00     0.015 C 
ATOM     28  C   UNL     1      -1.751  24.230  48.170  1.00  0.00     0.017 C 
ATOM     29  C   UNL     1      -6.250  24.742  49.997  1.00  0.00     0.012 C 
ATOM     30  C   UNL     1      -7.163  27.823  46.503  1.00  0.00     0.011 C 
ENDROOT
BRANCH  20  31
ATOM     31  O   UNL     1      -0.625  17.375  48.033  1.00  0.00    -0.393 OA
ATOM     32  H   UNL     1      -0.676  18.367  48.058  1.00  0.00     0.210 HD
ENDBRANCH  20  31
TORSDOF 1
ENDMDL
MODEL 2
REMARK VINA RESULT:    -8.775      2.033      3.769
REMARK INTER + INTRA:          -9.031
REMARK INTER:                  -9.031
REMARK INTRA:                   0.000
REMARK UNBOUND:                 0.000
REMARK SMILES CC1(C)CC[C@]2(C)CC[C@]3(C)C(=CC[C@H]4[C@]5(C)CC[C@H](O)C(C)(C)[C@@H]5CC[C@]43C)[C@H]2C1
REMARK SMILES IDX 1 1 2 2 4 3 5 4 6 5 8 6 9 7 10 8 12 9 13 10 14 11 15 12
REMARK SMILES IDX 28 13 27 14 26 15 25 16 16 17 18 18 19 19 20 20 22 21 23 22
REMARK SMILES IDX 24 23 17 24 29 25 30 26 31 27 11 28 7 29 3 30 21 31
REMARK H PARENT 21 32
REMARK Flexibility Score: inf
ROOT
ATOM      1  C   UNL     1      -3.249  28.428  51.958  1.00  0.00     0.011 C 
ATOM      2  C   UNL     1      -2.250  28.422  50.774  1.00  0.00    -0.035 C 
ATOM      3  C   UNL     1      -2.790  29.282  49.599  1.00  0.00     0.007 C 
ATOM      4  C   UNL     1      -3.956  28.623  48.834  1.00  0.00     0.008 C 
ATOM      5  C   UNL     1      -3.639  27.181  48.344  1.00  0.00    -0.026 C 
ATOM      6  C   UNL     1      -4.946  26.554  47.777  1.00  0.00     0.008 C 
ATOM      7  C   UNL     1      -4.852  25.032  47.484  1.00  0.00     0.012 C 
ATOM      8  C   UNL     1      -4.288  24.147  48.660  1.00  0.00    -0.006 C 
ATOM      9  C   UNL     1      -3.011  24.865  49.120  1.00  0.00    -0.064 C 
ATOM     10  C   UNL     1      -1.794  24.394  48.810  1.00  0.00    -0.027 C 
ATOM     11  C   UNL     1      -1.528  23.107  48.122  1.00  0.00     0.032 C 
ATOM     12  C   UNL     1      -2.718  22.467  47.335  1.00  0.00     0.006 C 
ATOM     13  C   UNL     1      -4.047  22.608  48.188  1.00  0.00    -0.020 C 
ATOM     14  C   UNL     1      -3.878  21.654  49.406  1.00  0.00     0.008 C 
ATOM     15  C   UNL     1      -3.546  20.198  49.034  1.00  0.00     0.005 C 
ATOM     16  C   UNL     1      -2.310  19.979  48.106  1.00  0.00     0.003 C 
ATOM     17  C   UNL     1      -2.299  20.977  46.870  1.00  0.00    -0.025 C 
ATOM     18  C   UNL     1      -3.204  20.432  45.716  1.00  0.00     0.010 C 
ATOM     19  C   UNL     1      -2.929  18.968  45.326  1.00  0.00     0.033 C 
ATOM     20  C   UNL     1      -3.036  18.016  46.525  1.00  0.00     0.120 C 
ATOM     21  C   UNL     1      -2.122  18.436  47.725  1.00  0.00    -0.006 C 
ATOM     22  C   UNL     1      -2.441  17.510  48.939  1.00  0.00     0.014 C 
ATOM     23  C   UNL     1      -0.635  18.120  47.382  1.00  0.00     0.014 C 
ATOM     24  C   UNL     1      -0.861  21.087  46.250  1.00  0.00     0.012 C 
ATOM     25  C   UNL     1      -5.315  22.170  47.379  1.00  0.00     0.012 C 
ATOM     26  C   UNL     1      -3.165  26.330  49.556  1.00  0.00     0.022 C 
ATOM     27  C   UNL     1      -1.959  26.972  50.291  1.00  0.00     0.015 C 
ATOM     28  C   UNL     1      -5.310  24.172  49.849  1.00  0.00     0.017 C 
ATOM     29  C   UNL     1      -2.581  27.240  47.207  1.00  0.00     0.012 C 
ATOM     30  C   UNL     1      -0.929  29.046  51.274  1.00  0.00     0.011 C 
ENDROOT
BRANCH  20  31
ATOM     31  O   UNL     1      -4.387  17.944  46.912  1.00  0.00    -0.393 OA
ATOM     32  H   UNL     1      -4.927  18.389  46.206  1.00  0.00     0.210 HD
ENDBRANCH  20  31
TORSDOF 1
ENDMDL
MODEL 3
REMARK VINA RESULT:    -8.254      2.496      8.054
REMARK INTER + INTRA:          -8.495
REMARK INTER:                  -8.495
REMARK INTRA:                   0.000
REMARK UNBOUND:                 0.000
REMARK SMILES CC1(C)CC[C@]2(C)CC[C@]3(C)C(=CC[C@H]4[C@]5(C)CC[C@H](O)C(C)(C)[C@@H]5CC[C@]43C)[C@H]2C1
REMARK SMILES IDX 1 1 2 2 4 3 5 4 6 5 8 6 9 7 10 8 12 9 13 10 14 11 15 12
REMARK SMILES IDX 28 13 27 14 26 15 25 16 16 17 18 18 19 19 20 20 22 21 23 22
REMARK SMILES IDX 24 23 17 24 29 25 30 26 31 27 11 28 7 29 3 30 21 31
REMARK H PARENT 21 32
REMARK Flexibility Score: inf
ROOT
ATOM      1  C   UNL     1      -3.945  16.264  45.113  1.00  0.00     0.011 C 
ATOM      2  C   UNL     1      -2.484  16.773  45.178  1.00  0.00    -0.035 C 
ATOM      3  C   UNL     1      -1.754  16.186  46.417  1.00  0.00     0.007 C 
ATOM      4  C   UNL     1      -2.205  16.809  47.754  1.00  0.00     0.008 C 
ATOM      5  C   UNL     1      -2.128  18.362  47.770  1.00  0.00    -0.026 C 
ATOM      6  C   UNL     1      -2.796  18.876  49.080  1.00  0.00     0.008 C 
ATOM      7  C   UNL     1      -3.025  20.411  49.122  1.00  0.00     0.012 C 
ATOM      8  C   UNL     1      -3.748  21.026  47.864  1.00  0.00    -0.006 C 
ATOM      9  C   UNL     1      -2.996  20.451  46.654  1.00  0.00    -0.064 C 
ATOM     10  C   UNL     1      -2.141  21.199  45.942  1.00  0.00    -0.027 C 
ATOM     11  C   UNL     1      -1.912  22.651  46.139  1.00  0.00     0.032 C 
ATOM     12  C   UNL     1      -2.357  23.258  47.510  1.00  0.00     0.006 C 
ATOM     13  C   UNL     1      -3.763  22.652  47.919  1.00  0.00    -0.020 C 
ATOM     14  C   UNL     1      -4.795  23.250  46.919  1.00  0.00     0.008 C 
ATOM     15  C   UNL     1      -4.793  24.787  46.844  1.00  0.00     0.005 C 
ATOM     16  C   UNL     1      -3.421  25.471  46.549  1.00  0.00     0.003 C 
ATOM     17  C   UNL     1      -2.245  24.868  47.432  1.00  0.00    -0.025 C 
ATOM     18  C   UNL     1      -2.223  25.538  48.846  1.00  0.00     0.010 C 
ATOM     19  C   UNL     1      -2.248  27.076  48.824  1.00  0.00     0.033 C 
ATOM     20  C   UNL     1      -3.446  27.628  48.040  1.00  0.00     0.120 C 
ATOM     21  C   UNL     1      -3.536  27.067  46.581  1.00  0.00    -0.006 C 
ATOM     22  C   UNL     1      -4.874  27.551  45.944  1.00  0.00     0.014 C 
ATOM     23  C   UNL     1      -2.431  27.726  45.702  1.00  0.00     0.014 C 
ATOM     24  C   UNL     1      -0.846  25.193  46.799  1.00  0.00     0.012 C 
ATOM     25  C   UNL     1      -4.180  23.061  49.374  1.00  0.00     0.012 C 
ATOM     26  C   UNL     1      -2.923  18.919  46.556  1.00  0.00     0.022 C 
ATOM     27  C   UNL     1      -2.431  18.328  45.208  1.00  0.00     0.015 C 
ATOM     28  C   UNL     1      -5.222  20.493  47.814  1.00  0.00     0.017 C 
ATOM     29  C   UNL     1      -0.639  18.808  47.763  1.00  0.00     0.012 C 
ATOM     30  C   UNL     1      -1.762  16.283  43.904  1.00  0.00     0.011 C 
ENDROOT
BRANCH  20  31
ATOM     31  O   UNL     1      -4.617  27.348  48.769  1.00  0.00    -0.393 OA
ATOM     32  H   UNL     1      -5.336  27.939  48.423  1.00  0.00     0.210 HD
ENDBRANCH  20  31
TORSDOF 1
ENDMDL
MODEL 4
REMARK VINA RESULT:    -7.903      2.547      8.111
REMARK INTER + INTRA:          -8.134
REMARK INTER:                  -8.134
REMARK INTRA:                   0.000
REMARK UNBOUND:                 0.000
REMARK SMILES CC1(C)CC[C@]2(C)CC[C@]3(C)C(=CC[C@H]4[C@]5(C)CC[C@H](O)C(C)(C)[C@@H]5CC[C@]43C)[C@H]2C1
REMARK SMILES IDX 1 1 2 2 4 3 5 4 6 5 8 6 9 7 10 8 12 9 13 10 14 11 15 12
REMARK SMILES IDX 28 13 27 14 26 15 25 16 16 17 18 18 19 19 20 20 22 21 23 22
REMARK SMILES IDX 24 23 17 24 29 25 30 26 31 27 11 28 7 29 3 30 21 31
REMARK H PARENT 21 32
REMARK Flexibility Score: inf
ROOT
ATOM      1  C   UNL     1      -2.427  17.607  49.013  1.00  0.00     0.011 C 
ATOM      2  C   UNL     1      -2.514  18.107  47.549  1.00  0.00    -0.035 C 
ATOM      3  C   UNL     1      -1.094  18.312  46.955  1.00  0.00     0.007 C 
ATOM      4  C   UNL     1      -0.364  19.552  47.510  1.00  0.00     0.008 C 
ATOM      5  C   UNL     1      -1.192  20.863  47.389  1.00  0.00    -0.026 C 
ATOM      6  C   UNL     1      -0.446  21.992  48.160  1.00  0.00     0.008 C 
ATOM      7  C   UNL     1      -1.271  23.293  48.346  1.00  0.00     0.012 C 
ATOM      8  C   UNL     1      -2.722  23.102  48.931  1.00  0.00    -0.006 C 
ATOM      9  C   UNL     1      -3.344  21.979  48.087  1.00  0.00    -0.064 C 
ATOM     10  C   UNL     1      -4.265  22.238  47.148  1.00  0.00    -0.027 C 
ATOM     11  C   UNL     1      -4.873  23.567  46.895  1.00  0.00     0.032 C 
ATOM     12  C   UNL     1      -4.106  24.813  47.448  1.00  0.00     0.006 C 
ATOM     13  C   UNL     1      -3.567  24.492  48.903  1.00  0.00    -0.020 C 
ATOM     14  C   UNL     1      -4.822  24.419  49.820  1.00  0.00     0.008 C 
ATOM     15  C   UNL     1      -5.725  25.664  49.765  1.00  0.00     0.005 C 
ATOM     16  C   UNL     1      -6.215  26.111  48.352  1.00  0.00     0.003 C 
ATOM     17  C   UNL     1      -5.041  26.120  47.282  1.00  0.00    -0.025 C 
ATOM     18  C   UNL     1      -4.227  27.454  47.370  1.00  0.00     0.010 C 
ATOM     19  C   UNL     1      -5.089  28.730  47.349  1.00  0.00     0.033 C 
ATOM     20  C   UNL     1      -6.155  28.731  48.451  1.00  0.00     0.120 C 
ATOM     21  C   UNL     1      -7.071  27.461  48.422  1.00  0.00    -0.006 C 
ATOM     22  C   UNL     1      -7.992  27.483  49.680  1.00  0.00     0.014 C 
ATOM     23  C   UNL     1      -8.059  27.561  47.221  1.00  0.00     0.014 C 
ATOM     24  C   UNL     1      -5.613  26.082  45.820  1.00  0.00     0.012 C 
ATOM     25  C   UNL     1      -2.618  25.619  49.440  1.00  0.00     0.012 C 
ATOM     26  C   UNL     1      -2.581  20.645  48.051  1.00  0.00     0.022 C 
ATOM     27  C   UNL     1      -3.334  19.426  47.453  1.00  0.00     0.015 C 
ATOM     28  C   UNL     1      -2.610  22.590  50.409  1.00  0.00     0.017 C 
ATOM     29  C   UNL     1      -1.302  21.272  45.893  1.00  0.00     0.012 C 
ATOM     30  C   UNL     1      -3.239  17.019  46.727  1.00  0.00     0.011 C 
ENDROOT
BRANCH  20  31
ATOM     31  O   UNL     1      -5.506  28.864  49.693  1.00  0.00    -0.393 OA
ATOM     32  H   UNL     1      -5.737  29.758  50.060  1.00  0.00     0.210 HD
ENDBRANCH  20  31
TORSDOF 1
ENDMDL
MODEL 5
REMARK VINA RESULT:    -7.847      3.138      8.174
REMARK INTER + INTRA:          -8.077
REMARK INTER:                  -8.077
REMARK INTRA:                   0.000
REMARK UNBOUND:                 0.000
REMARK SMILES CC1(C)CC[C@]2(C)CC[C@]3(C)C(=CC[C@H]4[C@]5(C)CC[C@H](O)C(C)(C)[C@@H]5CC[C@]43C)[C@H]2C1
REMARK SMILES IDX 1 1 2 2 4 3 5 4 6 5 8 6 9 7 10 8 12 9 13 10 14 11 15 12
REMARK SMILES IDX 28 13 27 14 26 15 25 16 16 17 18 18 19 19 20 20 22 21 23 22
REMARK SMILES IDX 24 23 17 24 29 25 30 26 31 27 11 28 7 29 3 30 21 31
REMARK H PARENT 21 32
REMARK Flexibility Score: inf
ROOT
ATOM      1  C   UNL     1      -1.061  17.765  47.573  1.00  0.00     0.011 C 
ATOM      2  C   UNL     1      -2.534  18.181  47.805  1.00  0.00    -0.035 C 
ATOM      3  C   UNL     1      -3.242  18.468  46.452  1.00  0.00     0.007 C 
ATOM      4  C   UNL     1      -2.800  19.789  45.791  1.00  0.00     0.008 C 
ATOM      5  C   UNL     1      -2.917  21.022  46.731  1.00  0.00    -0.026 C 
ATOM      6  C   UNL     1      -2.256  22.244  46.028  1.00  0.00     0.008 C 
ATOM      7  C   UNL     1      -2.067  23.484  46.943  1.00  0.00     0.012 C 
ATOM      8  C   UNL     1      -1.367  23.207  48.328  1.00  0.00    -0.006 C 
ATOM      9  C   UNL     1      -2.111  21.997  48.913  1.00  0.00    -0.064 C 
ATOM     10  C   UNL     1      -2.989  22.134  49.917  1.00  0.00    -0.027 C 
ATOM     11  C   UNL     1      -3.255  23.395  50.650  1.00  0.00     0.032 C 
ATOM     12  C   UNL     1      -2.818  24.725  49.951  1.00  0.00     0.006 C 
ATOM     13  C   UNL     1      -1.394  24.523  49.285  1.00  0.00    -0.020 C 
ATOM     14  C   UNL     1      -0.384  24.397  50.462  1.00  0.00     0.008 C 
ATOM     15  C   UNL     1      -0.427  25.562  51.466  1.00  0.00     0.005 C 
ATOM     16  C   UNL     1      -1.818  25.896  52.091  1.00  0.00     0.003 C 
ATOM     17  C   UNL     1      -2.972  25.944  51.000  1.00  0.00    -0.025 C 
ATOM     18  C   UNL     1      -3.005  27.341  50.296  1.00  0.00     0.010 C 
ATOM     19  C   UNL     1      -3.019  28.541  51.260  1.00  0.00     0.033 C 
ATOM     20  C   UNL     1      -1.841  28.515  52.242  1.00  0.00     0.120 C 
ATOM     21  C   UNL     1      -1.745  27.176  53.049  1.00  0.00    -0.006 C 
ATOM     22  C   UNL     1      -0.423  27.189  53.877  1.00  0.00     0.014 C 
ATOM     23  C   UNL     1      -2.871  27.136  54.125  1.00  0.00     0.014 C 
ATOM     24  C   UNL     1      -4.383  25.786  51.670  1.00  0.00     0.012 C 
ATOM     25  C   UNL     1      -0.981  25.747  48.398  1.00  0.00     0.012 C 
ATOM     26  C   UNL     1      -2.144  20.728  48.047  1.00  0.00     0.022 C 
ATOM     27  C   UNL     1      -2.628  19.424  48.736  1.00  0.00     0.015 C 
ATOM     28  C   UNL     1       0.120  22.782  48.069  1.00  0.00     0.017 C 
ATOM     29  C   UNL     1      -4.418  21.344  46.980  1.00  0.00     0.012 C 
ATOM     30  C   UNL     1      -3.250  16.999  48.494  1.00  0.00     0.011 C 
ENDROOT
BRANCH  20  31
ATOM     31  O   UNL     1      -0.659  28.762  51.519  1.00  0.00    -0.393 OA
ATOM     32  H   UNL     1      -0.269  27.883  51.269  1.00  0.00     0.210 HD
ENDBRANCH  20  31
TORSDOF 1
ENDMDL
MODEL 6
REMARK VINA RESULT:    -7.769      3.113      8.740
REMARK INTER + INTRA:          -7.996
REMARK INTER:                  -7.996
REMARK INTRA:                   0.000
REMARK UNBOUND:                 0.000
REMARK SMILES CC1(C)CC[C@]2(C)CC[C@]3(C)C(=CC[C@H]4[C@]5(C)CC[C@H](O)C(C)(C)[C@@H]5CC[C@]43C)[C@H]2C1
REMARK SMILES IDX 1 1 2 2 4 3 5 4 6 5 8 6 9 7 10 8 12 9 13 10 14 11 15 12
REMARK SMILES IDX 28 13 27 14 26 15 25 16 16 17 18 18 19 19 20 20 22 21 23 22
REMARK SMILES IDX 24 23 17 24 29 25 30 26 31 27 11 28 7 29 3 30 21 31
REMARK H PARENT 21 32
REMARK Flexibility Score: inf
ROOT
ATOM      1  C   UNL     1      -4.486  19.526  47.791  1.00  0.00     0.011 C 
ATOM      2  C   UNL     1      -3.345  20.226  47.012  1.00  0.00    -0.035 C 
ATOM      3  C   UNL     1      -2.009  20.134  47.798  1.00  0.00     0.007 C 
ATOM      4  C   UNL     1      -1.954  21.056  49.034  1.00  0.00     0.008 C 
ATOM      5  C   UNL     1      -2.290  22.540  48.715  1.00  0.00    -0.026 C 
ATOM      6  C   UNL     1      -2.403  23.321  50.057  1.00  0.00     0.008 C 
ATOM      7  C   UNL     1      -2.983  24.754  49.918  1.00  0.00     0.012 C 
ATOM      8  C   UNL     1      -4.330  24.867  49.107  1.00  0.00    -0.006 C 
ATOM      9  C   UNL     1      -4.084  24.069  47.817  1.00  0.00    -0.064 C 
ATOM     10  C   UNL     1      -3.874  24.684  46.644  1.00  0.00    -0.027 C 
ATOM     11  C   UNL     1      -3.972  26.146  46.419  1.00  0.00     0.032 C 
ATOM     12  C   UNL     1      -3.892  27.064  47.683  1.00  0.00     0.006 C 
ATOM     13  C   UNL     1      -4.747  26.419  48.852  1.00  0.00    -0.020 C 
ATOM     14  C   UNL     1      -6.236  26.549  48.418  1.00  0.00     0.008 C 
ATOM     15  C   UNL     1      -6.673  27.982  48.062  1.00  0.00     0.005 C 
ATOM     16  C   UNL     1      -5.816  28.729  46.992  1.00  0.00     0.003 C 
ATOM     17  C   UNL     1      -4.256  28.579  47.256  1.00  0.00    -0.025 C 
ATOM     18  C   UNL     1      -3.775  29.631  48.309  1.00  0.00     0.010 C 
ATOM     19  C   UNL     1      -4.212  31.077  48.012  1.00  0.00     0.033 C 
ATOM     20  C   UNL     1      -5.732  31.205  47.852  1.00  0.00     0.120 C 
ATOM     21  C   UNL     1      -6.319  30.232  46.775  1.00  0.00    -0.006 C 
ATOM     22  C   UNL     1      -7.876  30.320  46.822  1.00  0.00     0.014 C 
ATOM     23  C   UNL     1      -5.949  30.747  45.352  1.00  0.00     0.014 C 
ATOM     24  C   UNL     1      -3.435  28.890  45.955  1.00  0.00     0.012 C 
ATOM     25  C   UNL     1      -4.552  27.177  50.210  1.00  0.00     0.012 C 
ATOM     26  C   UNL     1      -3.662  22.601  47.987  1.00  0.00     0.022 C 
ATOM     27  C   UNL     1      -3.696  21.712  46.716  1.00  0.00     0.015 C 
ATOM     28  C   UNL     1      -5.468  24.147  49.910  1.00  0.00     0.017 C 
ATOM     29  C   UNL     1      -1.141  23.163  47.873  1.00  0.00     0.012 C 
ATOM     30  C   UNL     1      -3.176  19.485  45.667  1.00  0.00     0.011 C 
ENDROOT
BRANCH  20  31
ATOM     31  O   UNL     1      -6.328  30.995  49.110  1.00  0.00    -0.393 OA
ATOM     32  H   UNL     1      -7.311  31.081  48.996  1.00  0.00     0.210 HD
ENDBRANCH  20  31
TORSDOF 1
ENDMDL
MODEL 7
REMARK VINA RESULT:    -7.536      2.901      8.085
REMARK INTER + INTRA:          -7.756
REMARK INTER:                  -7.756
REMARK INTRA:                   0.000
REMARK UNBOUND:                 0.000
REMARK SMILES CC1(C)CC[C@]2(C)CC[C@]3(C)C(=CC[C@H]4[C@]5(C)CC[C@H](O)C(C)(C)[C@@H]5CC[C@]43C)[C@H]2C1
REMARK SMILES IDX 1 1 2 2 4 3 5 4 6 5 8 6 9 7 10 8 12 9 13 10 14 11 15 12
REMARK SMILES IDX 28 13 27 14 26 15 25 16 16 17 18 18 19 19 20 20 22 21 23 22
REMARK SMILES IDX 24 23 17 24 29 25 30 26 31 27 11 28 7 29 3 30 21 31
REMARK H PARENT 21 32
REMARK Flexibility Score: inf
ROOT
ATOM      1  C   UNL     1      -2.164  16.863  44.375  1.00  0.00     0.011 C 
ATOM      2  C   UNL     1      -1.220  16.795  45.601  1.00  0.00    -0.035 C 
ATOM      3  C   UNL     1      -1.816  15.875  46.701  1.00  0.00     0.007 C 
ATOM      4  C   UNL     1      -3.011  16.500  47.449  1.00  0.00     0.008 C 
ATOM      5  C   UNL     1      -2.708  17.910  48.032  1.00  0.00    -0.026 C 
ATOM      6  C   UNL     1      -4.036  18.515  48.575  1.00  0.00     0.008 C 
ATOM      7  C   UNL     1      -3.946  20.017  48.956  1.00  0.00     0.012 C 
ATOM      8  C   UNL     1      -3.326  20.962  47.857  1.00  0.00    -0.006 C 
ATOM      9  C   UNL     1      -2.033  20.260  47.416  1.00  0.00    -0.064 C 
ATOM     10  C   UNL     1      -0.829  20.704  47.804  1.00  0.00    -0.027 C 
ATOM     11  C   UNL     1      -0.587  21.948  48.574  1.00  0.00     0.032 C 
ATOM     12  C   UNL     1      -1.808  22.554  49.343  1.00  0.00     0.006 C 
ATOM     13  C   UNL     1      -3.097  22.470  48.425  1.00  0.00    -0.020 C 
ATOM     14  C   UNL     1      -2.869  23.489  47.271  1.00  0.00     0.008 C 
ATOM     15  C   UNL     1      -2.546  24.919  47.738  1.00  0.00     0.005 C 
ATOM     16  C   UNL     1      -1.351  25.077  48.731  1.00  0.00     0.003 C 
ATOM     17  C   UNL     1      -1.401  24.011  49.908  1.00  0.00    -0.025 C 
ATOM     18  C   UNL     1      -2.354  24.499  51.050  1.00  0.00     0.010 C 
ATOM     19  C   UNL     1      -2.088  25.936  51.532  1.00  0.00     0.033 C 
ATOM     20  C   UNL     1      -2.136  26.954  50.385  1.00  0.00     0.120 C 
ATOM     21  C   UNL     1      -1.172  26.595  49.205  1.00  0.00    -0.006 C 
ATOM     22  C   UNL     1      -1.431  27.589  48.032  1.00  0.00     0.014 C 
ATOM     23  C   UNL     1       0.300  26.879  49.631  1.00  0.00     0.014 C 
ATOM     24  C   UNL     1       0.007  23.856  50.584  1.00  0.00     0.012 C 
ATOM     25  C   UNL     1      -4.398  22.874  49.201  1.00  0.00     0.012 C 
ATOM     26  C   UNL     1      -2.176  18.823  46.892  1.00  0.00     0.022 C 
ATOM     27  C   UNL     1      -0.942  18.213  46.176  1.00  0.00     0.015 C 
ATOM     28  C   UNL     1      -4.294  21.011  46.625  1.00  0.00     0.017 C 
ATOM     29  C   UNL     1      -1.703  17.779  49.210  1.00  0.00     0.012 C 
ATOM     30  C   UNL     1       0.119  16.189  45.125  1.00  0.00     0.011 C 
ENDROOT
BRANCH  20  31
ATOM     31  O   UNL     1      -3.468  27.059  49.944  1.00  0.00    -0.393 OA
ATOM     32  H   UNL     1      -3.636  26.310  49.314  1.00  0.00     0.210 HD
ENDBRANCH  20  31
TORSDOF 1
ENDMDL
MODEL 8
REMARK VINA RESULT:    -7.423      3.417      5.158
REMARK INTER + INTRA:          -7.640
REMARK INTER:                  -7.640
REMARK INTRA:                   0.000
REMARK UNBOUND:                 0.000
REMARK SMILES CC1(C)CC[C@]2(C)CC[C@]3(C)C(=CC[C@H]4[C@]5(C)CC[C@H](O)C(C)(C)[C@@H]5CC[C@]43C)[C@H]2C1
REMARK SMILES IDX 1 1 2 2 4 3 5 4 6 5 8 6 9 7 10 8 12 9 13 10 14 11 15 12
REMARK SMILES IDX 28 13 27 14 26 15 25 16 16 17 18 18 19 19 20 20 22 21 23 22
REMARK SMILES IDX 24 23 17 24 29 25 30 26 31 27 11 28 7 29 3 30 21 31
REMARK H PARENT 21 32
REMARK Flexibility Score: inf
ROOT
ATOM      1  C   UNL     1       1.103  29.980  52.376  1.00  0.00     0.011 C 
ATOM      2  C   UNL     1       0.241  30.334  51.139  1.00  0.00    -0.035 C 
ATOM      3  C   UNL     1      -1.041  31.100  51.566  1.00  0.00     0.007 C 
ATOM      4  C   UNL     1      -2.095  30.208  52.251  1.00  0.00     0.008 C 
ATOM      5  C   UNL     1      -2.473  28.947  51.422  1.00  0.00    -0.026 C 
ATOM      6  C   UNL     1      -3.377  28.032  52.299  1.00  0.00     0.008 C 
ATOM      7  C   UNL     1      -3.627  26.620  51.704  1.00  0.00     0.012 C 
ATOM      8  C   UNL     1      -2.337  25.836  51.249  1.00  0.00    -0.006 C 
ATOM      9  C   UNL     1      -1.545  26.838  50.396  1.00  0.00    -0.064 C 
ATOM     10  C   UNL     1      -1.504  26.741  49.059  1.00  0.00    -0.027 C 
ATOM     11  C   UNL     1      -2.087  25.629  48.268  1.00  0.00     0.032 C 
ATOM     12  C   UNL     1      -3.170  24.750  48.975  1.00  0.00     0.006 C 
ATOM     13  C   UNL     1      -2.719  24.461  50.466  1.00  0.00    -0.020 C 
ATOM     14  C   UNL     1      -1.498  23.501  50.366  1.00  0.00     0.008 C 
ATOM     15  C   UNL     1      -1.758  22.222  49.550  1.00  0.00     0.005 C 
ATOM     16  C   UNL     1      -2.307  22.417  48.102  1.00  0.00     0.003 C 
ATOM     17  C   UNL     1      -3.496  23.470  48.045  1.00  0.00    -0.025 C 
ATOM     18  C   UNL     1      -4.853  22.786  48.418  1.00  0.00     0.010 C 
ATOM     19  C   UNL     1      -5.146  21.486  47.648  1.00  0.00     0.033 C 
ATOM     20  C   UNL     1      -4.020  20.454  47.797  1.00  0.00     0.120 C 
ATOM     21  C   UNL     1      -2.615  21.016  47.393  1.00  0.00    -0.006 C 
ATOM     22  C   UNL     1      -1.533  19.951  47.748  1.00  0.00     0.014 C 
ATOM     23  C   UNL     1      -2.533  21.143  45.842  1.00  0.00     0.014 C 
ATOM     24  C   UNL     1      -3.694  24.012  46.585  1.00  0.00     0.012 C 
ATOM     25  C   UNL     1      -3.845  23.755  51.296  1.00  0.00     0.012 C 
ATOM     26  C   UNL     1      -1.174  28.170  51.068  1.00  0.00     0.022 C 
ATOM     27  C   UNL     1      -0.136  29.059  50.333  1.00  0.00     0.015 C 
ATOM     28  C   UNL     1      -1.477  25.494  52.514  1.00  0.00     0.017 C 
ATOM     29  C   UNL     1      -3.273  29.376  50.160  1.00  0.00     0.012 C 
ATOM     30  C   UNL     1       1.085  31.255  50.230  1.00  0.00     0.011 C 
ENDROOT
BRANCH  20  31
ATOM     31  O   UNL     1      -4.022  19.989  49.125  1.00  0.00    -0.393 OA
ATOM     32  H   UNL     1      -4.192  19.010  49.101  1.00  0.00     0.210 HD
ENDBRANCH  20  31
TORSDOF 1
ENDMDL
MODEL 9
REMARK VINA RESULT:    -7.193      3.661      9.369
REMARK INTER + INTRA:          -7.404
REMARK INTER:                  -7.404
REMARK INTRA:                   0.000
REMARK UNBOUND:                 0.000
REMARK SMILES CC1(C)CC[C@]2(C)CC[C@]3(C)C(=CC[C@H]4[C@]5(C)CC[C@H](O)C(C)(C)[C@@H]5CC[C@]43C)[C@H]2C1
REMARK SMILES IDX 1 1 2 2 4 3 5 4 6 5 8 6 9 7 10 8 12 9 13 10 14 11 15 12
REMARK SMILES IDX 28 13 27 14 26 15 25 16 16 17 18 18 19 19 20 20 22 21 23 22
REMARK SMILES IDX 24 23 17 24 29 25 30 26 31 27 11 28 7 29 3 30 21 31
REMARK H PARENT 21 32
REMARK Flexibility Score: inf
ROOT
ATOM      1  C   UNL     1      -2.009  21.317  46.381  1.00  0.00     0.011 C 
ATOM      2  C   UNL     1      -1.652  21.914  47.765  1.00  0.00    -0.035 C 
ATOM      3  C   UNL     1      -2.536  21.287  48.877  1.00  0.00     0.007 C 
ATOM      4  C   UNL     1      -3.997  21.780  48.857  1.00  0.00     0.008 C 
ATOM      5  C   UNL     1      -4.128  23.330  48.876  1.00  0.00    -0.026 C 
ATOM      6  C   UNL     1      -5.622  23.702  48.646  1.00  0.00     0.008 C 
ATOM      7  C   UNL     1      -5.873  25.211  48.384  1.00  0.00     0.012 C 
ATOM      8  C   UNL     1      -4.971  25.868  47.271  1.00  0.00    -0.006 C 
ATOM      9  C   UNL     1      -3.538  25.433  47.615  1.00  0.00    -0.064 C 
ATOM     10  C   UNL     1      -2.661  26.285  48.166  1.00  0.00    -0.027 C 
ATOM     11  C   UNL     1      -2.905  27.731  48.390  1.00  0.00     0.032 C 
ATOM     12  C   UNL     1      -4.395  28.206  48.388  1.00  0.00     0.006 C 
ATOM     13  C   UNL     1      -5.173  27.482  47.212  1.00  0.00    -0.020 C 
ATOM     14  C   UNL     1      -4.611  28.082  45.891  1.00  0.00     0.008 C 
ATOM     15  C   UNL     1      -4.678  29.618  45.810  1.00  0.00     0.005 C 
ATOM     16  C   UNL     1      -4.025  30.409  46.987  1.00  0.00     0.003 C 
ATOM     17  C   UNL     1      -4.430  29.822  48.407  1.00  0.00    -0.025 C 
ATOM     18  C   UNL     1      -5.818  30.386  48.858  1.00  0.00     0.010 C 
ATOM     19  C   UNL     1      -5.944  31.918  48.768  1.00  0.00     0.033 C 
ATOM     20  C   UNL     1      -5.634  32.446  47.361  1.00  0.00     0.120 C 
ATOM     21  C   UNL     1      -4.235  31.987  46.828  1.00  0.00    -0.006 C 
ATOM     22  C   UNL     1      -4.102  32.429  45.338  1.00  0.00     0.014 C 
ATOM     23  C   UNL     1      -3.113  32.780  47.564  1.00  0.00     0.014 C 
ATOM     24  C   UNL     1      -3.417  30.282  49.514  1.00  0.00     0.012 C 
ATOM     25  C   UNL     1      -6.715  27.756  47.272  1.00  0.00     0.012 C 
ATOM     26  C   UNL     1      -3.284  23.920  47.711  1.00  0.00     0.022 C 
ATOM     27  C   UNL     1      -1.803  23.462  47.765  1.00  0.00     0.015 C 
ATOM     28  C   UNL     1      -5.344  25.245  45.882  1.00  0.00     0.017 C 
ATOM     29  C   UNL     1      -3.688  23.871  50.265  1.00  0.00     0.012 C 
ATOM     30  C   UNL     1      -0.175  21.566  48.056  1.00  0.00     0.011 C 
ENDROOT
BRANCH  20  31
ATOM     31  O   UNL     1      -6.669  32.038  46.499  1.00  0.00    -0.393 OA
ATOM     32  H   UNL     1      -7.530  32.179  46.973  1.00  0.00     0.210 HD
ENDBRANCH  20  31
TORSDOF 1
ENDMDL
