MODEL 1
REMARK VINA RESULT:    -4.282      0.000      0.000
REMARK INTER + INTRA:          -4.555
REMARK INTER:                  -4.532
REMARK INTRA:                  -0.022
REMARK UNBOUND:                -0.022
REMARK SMILES O=C([O-])c1cccnc1
REMARK SMILES IDX 4 1 5 2 9 3 6 4 8 5 7 6 2 7 1 8 3 9
REMARK H PARENT
REMARK Flexibility Score: inf
ROOT
ATOM      1  C   UNL     1      79.819 -20.978  44.205  1.00  0.00     0.016 A 
ATOM      2  C   UNL     1      79.373 -20.779  45.523  1.00  0.00     0.013 A 
ATOM      3  C   UNL     1      80.238 -19.858  43.466  1.00  0.00     0.120 A 
ATOM      4  C   UNL     1      79.353 -19.495  46.071  1.00  0.00     0.021 A 
ATOM      5  N   UNL     1      80.209 -18.617  44.024  1.00  0.00    -0.264 NA
ATOM      6  C   UNL     1      79.779 -18.415  45.298  1.00  0.00     0.111 A 
ENDROOT
BRANCH   1   7
ATOM      7  C   UNL     1      79.847 -22.329  43.606  1.00  0.00     0.073 C 
ATOM      8  O   UNL     1      80.595 -22.577  42.623  1.00  0.00    -0.545 OA
ATOM      9  O   UNL     1      79.048 -23.344  44.119  1.00  0.00    -0.545 OA
ENDBRANCH   1   7
TORSDOF 1
ENDMDL
MODEL 2
REMARK VINA RESULT:    -4.204      0.880      1.603
REMARK INTER + INTRA:          -4.472
REMARK INTER:                  -4.449
REMARK INTRA:                  -0.023
REMARK UNBOUND:                -0.022
REMARK SMILES O=C([O-])c1cccnc1
REMARK SMILES IDX 4 1 5 2 9 3 6 4 8 5 7 6 2 7 1 8 3 9
REMARK H PARENT
REMARK Flexibility Score: inf
ROOT
ATOM      1  C   UNL     1      79.794 -20.957  44.177  1.00  0.00     0.016 A 
ATOM      2  C   UNL     1      80.265 -19.890  43.395  1.00  0.00     0.013 A 
ATOM      3  C   UNL     1      79.345 -20.682  45.480  1.00  0.00     0.120 A 
ATOM      4  C   UNL     1      80.282 -18.594  43.912  1.00  0.00     0.021 A 
ATOM      5  N   UNL     1      79.371 -19.410  45.961  1.00  0.00    -0.264 NA
ATOM      6  C   UNL     1      79.825 -18.370  45.211  1.00  0.00     0.111 A 
ENDROOT
BRANCH   1   7
ATOM      7  C   UNL     1      79.769 -22.338  43.647  1.00  0.00     0.073 C 
ATOM      8  O   UNL     1      80.504 -22.665  42.679  1.00  0.00    -0.545 OA
ATOM      9  O   UNL     1      78.932 -23.294  44.212  1.00  0.00    -0.545 OA
ENDBRANCH   1   7
TORSDOF 1
ENDMDL
MODEL 3
REMARK VINA RESULT:    -4.199      2.472      3.111
REMARK INTER + INTRA:          -4.467
REMARK INTER:                  -4.450
REMARK INTRA:                  -0.017
REMARK UNBOUND:                -0.022
REMARK SMILES O=C([O-])c1cccnc1
REMARK SMILES IDX 4 1 5 2 9 3 6 4 8 5 7 6 2 7 1 8 3 9
REMARK H PARENT
REMARK Flexibility Score: inf
ROOT
ATOM      1  C   UNL     1      80.208 -19.710  43.249  1.00  0.00     0.016 A 
ATOM      2  C   UNL     1      80.088 -18.836  44.343  1.00  0.00     0.013 A 
ATOM      3  C   UNL     1      79.903 -21.068  43.444  1.00  0.00     0.120 A 
ATOM      4  C   UNL     1      79.675 -19.319  45.585  1.00  0.00     0.021 A 
ATOM      5  N   UNL     1      79.502 -21.513  44.665  1.00  0.00    -0.264 NA
ATOM      6  C   UNL     1      79.383 -20.675  45.729  1.00  0.00     0.111 A 
ENDROOT
BRANCH   1   7
ATOM      7  C   UNL     1      80.645 -19.218  41.925  1.00  0.00     0.073 C 
ATOM      8  O   UNL     1      79.884 -18.496  41.228  1.00  0.00    -0.545 OA
ATOM      9  O   UNL     1      81.901 -19.548  41.430  1.00  0.00    -0.545 OA
ENDBRANCH   1   7
TORSDOF 1
ENDMDL
MODEL 4
REMARK VINA RESULT:    -4.005      2.562      3.215
REMARK INTER + INTRA:          -4.262
REMARK INTER:                  -4.246
REMARK INTRA:                  -0.016
REMARK UNBOUND:                -0.022
REMARK SMILES O=C([O-])c1cccnc1
REMARK SMILES IDX 4 1 5 2 9 3 6 4 8 5 7 6 2 7 1 8 3 9
REMARK H PARENT
REMARK Flexibility Score: inf
ROOT
ATOM      1  C   UNL     1      80.368 -19.645  43.149  1.00  0.00     0.016 A 
ATOM      2  C   UNL     1      80.086 -21.020  43.191  1.00  0.00     0.013 A 
ATOM      3  C   UNL     1      80.143 -18.882  44.308  1.00  0.00     0.120 A 
ATOM      4  C   UNL     1      79.595 -21.601  44.361  1.00  0.00     0.021 A 
ATOM      5  N   UNL     1      79.664 -19.472  45.436  1.00  0.00    -0.264 NA
ATOM      6  C   UNL     1      79.388 -20.802  45.486  1.00  0.00     0.111 A 
ENDROOT
BRANCH   1   7
ATOM      7  C   UNL     1      80.888 -19.010  41.918  1.00  0.00     0.073 C 
ATOM      8  O   UNL     1      82.128 -18.946  41.707  1.00  0.00    -0.545 OA
ATOM      9  O   UNL     1      80.015 -18.474  40.979  1.00  0.00    -0.545 OA
ENDBRANCH   1   7
TORSDOF 1
ENDMDL
MODEL 5
REMARK VINA RESULT:    -3.907      1.765      2.316
REMARK INTER + INTRA:          -4.158
REMARK INTER:                  -4.135
REMARK INTRA:                  -0.024
REMARK UNBOUND:                -0.022
REMARK SMILES O=C([O-])c1cccnc1
REMARK SMILES IDX 4 1 5 2 9 3 6 4 8 5 7 6 2 7 1 8 3 9
REMARK H PARENT
REMARK Flexibility Score: inf
ROOT
ATOM      1  C   UNL     1      80.520 -20.272  43.068  1.00  0.00     0.016 A 
ATOM      2  C   UNL     1      80.115 -19.121  43.764  1.00  0.00     0.013 A 
ATOM      3  C   UNL     1      81.347 -20.115  41.943  1.00  0.00     0.120 A 
ATOM      4  C   UNL     1      80.531 -17.859  43.337  1.00  0.00     0.021 A 
ATOM      5  N   UNL     1      81.740 -18.873  41.547  1.00  0.00    -0.264 NA
ATOM      6  C   UNL     1      81.353 -17.754  42.215  1.00  0.00     0.111 A 
ENDROOT
BRANCH   1   7
ATOM      7  C   UNL     1      80.089 -21.618  43.503  1.00  0.00     0.073 C 
ATOM      8  O   UNL     1      80.401 -22.638  42.833  1.00  0.00    -0.545 OA
ATOM      9  O   UNL     1      79.333 -21.776  44.659  1.00  0.00    -0.545 OA
ENDBRANCH   1   7
TORSDOF 1
ENDMDL
MODEL 6
REMARK VINA RESULT:    -3.877      2.523      3.485
REMARK INTER + INTRA:          -4.126
REMARK INTER:                  -4.103
REMARK INTRA:                  -0.023
REMARK UNBOUND:                -0.022
REMARK SMILES O=C([O-])c1cccnc1
REMARK SMILES IDX 4 1 5 2 9 3 6 4 8 5 7 6 2 7 1 8 3 9
REMARK H PARENT
REMARK Flexibility Score: inf
ROOT
ATOM      1  C   UNL     1      80.463 -19.204  43.622  1.00  0.00     0.016 A 
ATOM      2  C   UNL     1      81.104 -20.089  42.739  1.00  0.00     0.013 A 
ATOM      3  C   UNL     1      80.503 -17.829  43.334  1.00  0.00     0.120 A 
ATOM      4  C   UNL     1      81.761 -19.601  41.609  1.00  0.00     0.021 A 
ATOM      5  N   UNL     1      81.150 -17.378  42.226  1.00  0.00    -0.264 NA
ATOM      6  C   UNL     1      81.773 -18.227  41.366  1.00  0.00     0.111 A 
ENDROOT
BRANCH   1   7
ATOM      7  C   UNL     1      79.761 -19.702  44.825  1.00  0.00     0.073 C 
ATOM      8  O   UNL     1      79.383 -18.902  45.721  1.00  0.00    -0.545 OA
ATOM      9  O   UNL     1      79.511 -21.060  44.983  1.00  0.00    -0.545 OA
ENDBRANCH   1   7
TORSDOF 1
ENDMDL
MODEL 7
REMARK VINA RESULT:    -3.799     18.624     19.084
REMARK INTER + INTRA:          -4.044
REMARK INTER:                  -4.023
REMARK INTRA:                  -0.021
REMARK UNBOUND:                -0.022
REMARK SMILES O=C([O-])c1cccnc1
REMARK SMILES IDX 4 1 5 2 9 3 6 4 8 5 7 6 2 7 1 8 3 9
REMARK H PARENT
REMARK Flexibility Score: inf
ROOT
ATOM      1  C   UNL     1      64.132 -12.089  38.578  1.00  0.00     0.016 A 
ATOM      2  C   UNL     1      64.158 -12.171  37.176  1.00  0.00     0.013 A 
ATOM      3  C   UNL     1      64.255 -13.278  39.319  1.00  0.00     0.120 A 
ATOM      4  C   UNL     1      64.302 -13.409  36.548  1.00  0.00     0.021 A 
ATOM      5  N   UNL     1      64.395 -14.472  38.681  1.00  0.00    -0.264 NA
ATOM      6  C   UNL     1      64.421 -14.561  37.325  1.00  0.00     0.111 A 
ENDROOT
BRANCH   1   7
ATOM      7  C   UNL     1      63.979 -10.788  39.264  1.00  0.00     0.073 C 
ATOM      8  O   UNL     1      63.217  -9.903  38.793  1.00  0.00    -0.545 OA
ATOM      9  O   UNL     1      64.677 -10.524  40.437  1.00  0.00    -0.545 OA
ENDBRANCH   1   7
TORSDOF 1
ENDMDL
MODEL 8
REMARK VINA RESULT:    -3.598      8.048      8.942
REMARK INTER + INTRA:          -3.830
REMARK INTER:                  -3.812
REMARK INTRA:                  -0.018
REMARK UNBOUND:                -0.022
REMARK SMILES O=C([O-])c1cccnc1
REMARK SMILES IDX 4 1 5 2 9 3 6 4 8 5 7 6 2 7 1 8 3 9
REMARK H PARENT
REMARK Flexibility Score: inf
ROOT
ATOM      1  C   UNL     1      77.072 -13.009  41.696  1.00  0.00     0.016 A 
ATOM      2  C   UNL     1      77.259 -14.349  41.316  1.00  0.00     0.013 A 
ATOM      3  C   UNL     1      78.179 -12.292  42.181  1.00  0.00     0.120 A 
ATOM      4  C   UNL     1      78.519 -14.939  41.422  1.00  0.00     0.021 A 
ATOM      5  N   UNL     1      79.397 -12.891  42.275  1.00  0.00    -0.264 NA
ATOM      6  C   UNL     1      79.588 -14.187  41.909  1.00  0.00     0.111 A 
ENDROOT
BRANCH   1   7
ATOM      7  C   UNL     1      75.745 -12.365  41.592  1.00  0.00     0.073 C 
ATOM      8  O   UNL     1      75.602 -11.298  40.938  1.00  0.00    -0.545 OA
ATOM      9  O   UNL     1      74.637 -12.929  42.214  1.00  0.00    -0.545 OA
ENDBRANCH   1   7
TORSDOF 1
ENDMDL
