MODEL 1
REMARK VINA RESULT:    -4.900      0.000      0.000
REMARK INTER + INTRA:         -17.418
REMARK INTER:                 -12.921
REMARK INTRA:                  -4.496
REMARK UNBOUND:                -4.496
REMARK SMILES CCCCCCCCCCCCCCCCCCCCCCCCCCCCCC(=O)[O-]
REMARK SMILES IDX 16 1 17 2 18 3 19 4 20 5 21 6 22 7 23 8 24 9 25 10 26 11
REMARK SMILES IDX 27 12 28 13 29 14 30 15 31 16 32 17 15 18 14 19 13 20 12 21
REMARK SMILES IDX 11 22 10 23 9 24 8 25 7 26 6 27 5 28 4 29 3 30 2 31 1 32
REMARK H PARENT
REMARK Flexibility Score: inf
ROOT
ATOM      1  C   UNL     1      26.239 120.354 300.138  1.00  0.00     0.000 C 
ENDROOT
BRANCH   1   2
ATOM      2  C   UNL     1      26.305 121.202 301.420  1.00  0.00     0.000 C 
BRANCH   2   3
ATOM      3  C   UNL     1      24.935 121.764 301.827  1.00  0.00     0.000 C 
BRANCH   3   4
ATOM      4  C   UNL     1      24.720 121.763 303.351  1.00  0.00     0.000 C 
BRANCH   4   5
ATOM      5  C   UNL     1      25.825 120.997 304.103  1.00  0.00     0.000 C 
BRANCH   5   6
ATOM      6  C   UNL     1      25.332 119.711 304.791  1.00  0.00     0.000 C 
BRANCH   6   7
ATOM      7  C   UNL     1      24.950 118.607 303.782  1.00  0.00     0.000 C 
BRANCH   7   8
ATOM      8  C   UNL     1      23.547 118.028 304.051  1.00  0.00     0.000 C 
BRANCH   8   9
ATOM      9  C   UNL     1      22.407 118.970 303.605  1.00  0.00     0.000 C 
BRANCH   9  10
ATOM     10  C   UNL     1      21.772 118.577 302.258  1.00  0.00     0.000 C 
BRANCH  10  11
ATOM     11  C   UNL     1      20.821 119.658 301.724  1.00  0.00     0.000 C 
BRANCH  11  12
ATOM     12  C   UNL     1      21.405 121.060 301.941  1.00  0.00     0.000 C 
BRANCH  12  13
ATOM     13  C   UNL     1      21.323 121.893 300.653  1.00  0.00     0.006 C 
BRANCH  13  14
ATOM     14  C   UNL     1      19.964 121.752 299.953  1.00  0.00     0.053 C 
BRANCH  14  15
ATOM     15  C   UNL     1      19.048 122.893 300.276  1.00  0.00     0.041 C 
ATOM     16  O   UNL     1      19.470 123.879 300.935  1.00  0.00    -0.550 OA
ATOM     17  O   UNL     1      17.717 122.847 299.880  1.00  0.00    -0.550 OA
ENDBRANCH  14  15
ENDBRANCH  13  14
ENDBRANCH  12  13
ENDBRANCH  11  12
ENDBRANCH  10  11
ENDBRANCH   9  10
ENDBRANCH   8   9
ENDBRANCH   7   8
ENDBRANCH   6   7
ENDBRANCH   5   6
ENDBRANCH   4   5
ENDBRANCH   3   4
ENDBRANCH   2   3
ENDBRANCH   1   2
BRANCH   1  18
ATOM     18  C   UNL     1      24.798 119.983 299.747  1.00  0.00     0.000 C 
BRANCH  18  19
ATOM     19  C   UNL     1      24.544 118.468 299.799  1.00  0.00     0.000 C 
BRANCH  19  20
ATOM     20  C   UNL     1      23.329 118.078 298.949  1.00  0.00     0.000 C 
BRANCH  20  21
ATOM     21  C   UNL     1      22.704 119.318 298.290  1.00  0.00     0.000 C 
BRANCH  21  22
ATOM     22  C   UNL     1      21.205 119.147 297.987  1.00  0.00     0.000 C 
BRANCH  22  23
ATOM     23  C   UNL     1      20.603 117.796 298.415  1.00  0.00     0.000 C 
BRANCH  23  24
ATOM     24  C   UNL     1      20.357 116.850 297.226  1.00  0.00    -0.000 C 
BRANCH  24  25
ATOM     25  C   UNL     1      20.028 117.605 295.924  1.00  0.00    -0.000 C 
BRANCH  25  26
ATOM     26  C   UNL     1      18.549 117.529 295.503  1.00  0.00    -0.000 C 
BRANCH  26  27
ATOM     27  C   UNL     1      18.258 118.308 294.207  1.00  0.00    -0.000 C 
BRANCH  27  28
ATOM     28  C   UNL     1      17.011 117.786 293.475  1.00  0.00    -0.000 C 
BRANCH  28  29
ATOM     29  C   UNL     1      17.265 116.444 292.765  1.00  0.00    -0.000 C 
BRANCH  29  30
ATOM     30  C   UNL     1      18.484 116.487 291.826  1.00  0.00    -0.000 C 
BRANCH  30  31
ATOM     31  C   UNL     1      18.488 115.410 290.728  1.00  0.00    -0.003 C 
ATOM     32  C   UNL     1      17.184 114.615 290.667  1.00  0.00     0.004 C 
ENDBRANCH  30  31
ENDBRANCH  29  30
ENDBRANCH  28  29
ENDBRANCH  27  28
ENDBRANCH  26  27
ENDBRANCH  25  26
ENDBRANCH  24  25
ENDBRANCH  23  24
ENDBRANCH  22  23
ENDBRANCH  21  22
ENDBRANCH  20  21
ENDBRANCH  19  20
ENDBRANCH  18  19
ENDBRANCH   1  18
TORSDOF 28
ENDMDL
MODEL 2
REMARK VINA RESULT:    -4.796      4.662      7.140
REMARK INTER + INTRA:         -17.143
REMARK INTER:                 -12.836
REMARK INTRA:                  -4.307
REMARK UNBOUND:                -4.496
REMARK SMILES CCCCCCCCCCCCCCCCCCCCCCCCCCCCCC(=O)[O-]
REMARK SMILES IDX 16 1 17 2 18 3 19 4 20 5 21 6 22 7 23 8 24 9 25 10 26 11
REMARK SMILES IDX 27 12 28 13 29 14 30 15 31 16 32 17 15 18 14 19 13 20 12 21
REMARK SMILES IDX 11 22 10 23 9 24 8 25 7 26 6 27 5 28 4 29 3 30 2 31 1 32
REMARK H PARENT
REMARK Flexibility Score: inf
ROOT
ATOM      1  C   UNL     1      22.074 118.124 296.320  1.00  0.00     0.000 C 
ENDROOT
BRANCH   1   2
ATOM      2  C   UNL     1      21.474 118.331 297.722  1.00  0.00     0.000 C 
BRANCH   2   3
ATOM      3  C   UNL     1      22.292 119.312 298.575  1.00  0.00     0.000 C 
BRANCH   3   4
ATOM      4  C   UNL     1      23.230 118.600 299.566  1.00  0.00     0.000 C 
BRANCH   4   5
ATOM      5  C   UNL     1      24.703 119.021 299.392  1.00  0.00     0.000 C 
BRANCH   5   6
ATOM      6  C   UNL     1      25.108 119.271 297.928  1.00  0.00     0.000 C 
BRANCH   6   7
ATOM      7  C   UNL     1      25.533 120.733 297.671  1.00  0.00     0.000 C 
BRANCH   7   8
ATOM      8  C   UNL     1      25.936 120.976 296.204  1.00  0.00     0.000 C 
BRANCH   8   9
ATOM      9  C   UNL     1      26.886 119.893 295.649  1.00  0.00     0.000 C 
BRANCH   9  10
ATOM     10  C   UNL     1      26.429 119.299 294.303  1.00  0.00     0.000 C 
BRANCH  10  11
ATOM     11  C   UNL     1      24.943 118.912 294.311  1.00  0.00     0.000 C 
BRANCH  11  12
ATOM     12  C   UNL     1      24.405 118.766 292.882  1.00  0.00     0.000 C 
BRANCH  12  13
ATOM     13  C   UNL     1      25.555 118.756 291.862  1.00  0.00     0.006 C 
BRANCH  13  14
ATOM     14  C   UNL     1      25.059 118.554 290.424  1.00  0.00     0.053 C 
BRANCH  14  15
ATOM     15  C   UNL     1      24.530 117.169 290.206  1.00  0.00     0.041 C 
ATOM     16  O   UNL     1      25.192 116.169 290.589  1.00  0.00    -0.550 OA
ATOM     17  O   UNL     1      23.322 116.983 289.545  1.00  0.00    -0.550 OA
ENDBRANCH  14  15
ENDBRANCH  13  14
ENDBRANCH  12  13
ENDBRANCH  11  12
ENDBRANCH  10  11
ENDBRANCH   9  10
ENDBRANCH   8   9
ENDBRANCH   7   8
ENDBRANCH   6   7
ENDBRANCH   5   6
ENDBRANCH   4   5
ENDBRANCH   3   4
ENDBRANCH   2   3
ENDBRANCH   1   2
BRANCH   1  18
ATOM     18  C   UNL     1      21.049 118.357 295.197  1.00  0.00     0.000 C 
BRANCH  18  19
ATOM     19  C   UNL     1      20.956 119.834 294.780  1.00  0.00     0.000 C 
BRANCH  19  20
ATOM     20  C   UNL     1      19.500 120.255 294.545  1.00  0.00     0.000 C 
BRANCH  20  21
ATOM     21  C   UNL     1      19.143 121.485 295.395  1.00  0.00     0.000 C 
BRANCH  21  22
ATOM     22  C   UNL     1      17.990 121.223 296.378  1.00  0.00     0.000 C 
BRANCH  22  23
ATOM     23  C   UNL     1      18.272 120.145 297.442  1.00  0.00     0.000 C 
BRANCH  23  24
ATOM     24  C   UNL     1      17.286 118.966 297.372  1.00  0.00    -0.000 C 
BRANCH  24  25
ATOM     25  C   UNL     1      17.938 117.677 296.837  1.00  0.00    -0.000 C 
BRANCH  25  26
ATOM     26  C   UNL     1      17.217 117.058 295.625  1.00  0.00    -0.000 C 
BRANCH  26  27
ATOM     27  C   UNL     1      16.595 118.119 294.698  1.00  0.00    -0.000 C 
BRANCH  27  28
ATOM     28  C   UNL     1      16.857 117.826 293.211  1.00  0.00    -0.000 C 
BRANCH  28  29
ATOM     29  C   UNL     1      18.202 117.115 292.980  1.00  0.00    -0.000 C 
BRANCH  29  30
ATOM     30  C   UNL     1      18.245 116.338 291.652  1.00  0.00    -0.000 C 
BRANCH  30  31
ATOM     31  C   UNL     1      17.192 115.223 291.526  1.00  0.00    -0.003 C 
ATOM     32  C   UNL     1      17.265 114.482 290.192  1.00  0.00     0.004 C 
ENDBRANCH  30  31
ENDBRANCH  29  30
ENDBRANCH  28  29
ENDBRANCH  27  28
ENDBRANCH  26  27
ENDBRANCH  25  26
ENDBRANCH  24  25
ENDBRANCH  23  24
ENDBRANCH  22  23
ENDBRANCH  21  22
ENDBRANCH  20  21
ENDBRANCH  19  20
ENDBRANCH  18  19
ENDBRANCH   1  18
TORSDOF 28
ENDMDL
MODEL 3
REMARK VINA RESULT:    -4.772      4.928      7.426
REMARK INTER + INTRA:         -17.079
REMARK INTER:                 -13.578
REMARK INTRA:                  -3.501
REMARK UNBOUND:                -4.496
REMARK SMILES CCCCCCCCCCCCCCCCCCCCCCCCCCCCCC(=O)[O-]
REMARK SMILES IDX 16 1 17 2 18 3 19 4 20 5 21 6 22 7 23 8 24 9 25 10 26 11
REMARK SMILES IDX 27 12 28 13 29 14 30 15 31 16 32 17 15 18 14 19 13 20 12 21
REMARK SMILES IDX 11 22 10 23 9 24 8 25 7 26 6 27 5 28 4 29 3 30 2 31 1 32
REMARK H PARENT
REMARK Flexibility Score: inf
ROOT
ATOM      1  C   UNL     1      21.342 119.029 298.302  1.00  0.00     0.000 C 
ENDROOT
BRANCH   1   2
ATOM      2  C   UNL     1      22.214 118.857 299.558  1.00  0.00     0.000 C 
BRANCH   2   3
ATOM      3  C   UNL     1      23.391 119.844 299.599  1.00  0.00     0.000 C 
BRANCH   3   4
ATOM      4  C   UNL     1      24.758 119.142 299.524  1.00  0.00     0.000 C 
BRANCH   4   5
ATOM      5  C   UNL     1      25.400 119.244 298.126  1.00  0.00     0.000 C 
BRANCH   5   6
ATOM      6  C   UNL     1      25.459 120.679 297.573  1.00  0.00     0.000 C 
BRANCH   6   7
ATOM      7  C   UNL     1      25.179 120.743 296.056  1.00  0.00     0.000 C 
BRANCH   7   8
ATOM      8  C   UNL     1      26.310 121.448 295.282  1.00  0.00     0.000 C 
BRANCH   8   9
ATOM      9  C   UNL     1      26.319 121.104 293.777  1.00  0.00     0.000 C 
BRANCH   9  10
ATOM     10  C   UNL     1      25.466 119.872 293.418  1.00  0.00     0.000 C 
BRANCH  10  11
ATOM     11  C   UNL     1      26.321 118.616 293.197  1.00  0.00     0.000 C 
BRANCH  11  12
ATOM     12  C   UNL     1      25.623 117.638 292.242  1.00  0.00     0.000 C 
BRANCH  12  13
ATOM     13  C   UNL     1      25.115 118.367 290.988  1.00  0.00     0.006 C 
BRANCH  13  14
ATOM     14  C   UNL     1      24.106 117.526 290.193  1.00  0.00     0.053 C 
BRANCH  14  15
ATOM     15  C   UNL     1      23.825 118.117 288.845  1.00  0.00     0.041 C 
ATOM     16  O   UNL     1      22.644 118.383 288.502  1.00  0.00    -0.550 OA
ATOM     17  O   UNL     1      24.868 118.339 287.954  1.00  0.00    -0.550 OA
ENDBRANCH  14  15
ENDBRANCH  13  14
ENDBRANCH  12  13
ENDBRANCH  11  12
ENDBRANCH  10  11
ENDBRANCH   9  10
ENDBRANCH   8   9
ENDBRANCH   7   8
ENDBRANCH   6   7
ENDBRANCH   5   6
ENDBRANCH   4   5
ENDBRANCH   3   4
ENDBRANCH   2   3
ENDBRANCH   1   2
BRANCH   1  18
ATOM     18  C   UNL     1      20.573 117.748 297.936  1.00  0.00     0.000 C 
BRANCH  18  19
ATOM     19  C   UNL     1      21.329 116.877 296.919  1.00  0.00     0.000 C 
BRANCH  19  20
ATOM     20  C   UNL     1      22.631 117.550 296.469  1.00  0.00     0.000 C 
BRANCH  20  21
ATOM     21  C   UNL     1      22.552 117.956 294.988  1.00  0.00     0.000 C 
BRANCH  21  22
ATOM     22  C   UNL     1      22.179 119.436 294.790  1.00  0.00     0.000 C 
BRANCH  22  23
ATOM     23  C   UNL     1      20.708 119.692 294.412  1.00  0.00     0.000 C 
BRANCH  23  24
ATOM     24  C   UNL     1      20.150 120.985 295.034  1.00  0.00    -0.000 C 
BRANCH  24  25
ATOM     25  C   UNL     1      18.675 121.233 294.662  1.00  0.00    -0.000 C 
BRANCH  25  26
ATOM     26  C   UNL     1      17.693 120.194 295.233  1.00  0.00    -0.000 C 
BRANCH  26  27
ATOM     27  C   UNL     1      16.954 119.407 294.135  1.00  0.00    -0.000 C 
BRANCH  27  28
ATOM     28  C   UNL     1      17.136 117.887 294.278  1.00  0.00    -0.000 C 
BRANCH  28  29
ATOM     29  C   UNL     1      18.065 117.302 293.199  1.00  0.00    -0.000 C 
BRANCH  29  30
ATOM     30  C   UNL     1      17.362 116.264 292.306  1.00  0.00    -0.000 C 
BRANCH  30  31
ATOM     31  C   UNL     1      18.069 115.984 290.968  1.00  0.00    -0.003 C 
ATOM     32  C   UNL     1      17.634 114.666 290.329  1.00  0.00     0.004 C 
ENDBRANCH  30  31
ENDBRANCH  29  30
ENDBRANCH  28  29
ENDBRANCH  27  28
ENDBRANCH  26  27
ENDBRANCH  25  26
ENDBRANCH  24  25
ENDBRANCH  23  24
ENDBRANCH  22  23
ENDBRANCH  21  22
ENDBRANCH  20  21
ENDBRANCH  19  20
ENDBRANCH  18  19
ENDBRANCH   1  18
TORSDOF 28
ENDMDL
MODEL 4
REMARK VINA RESULT:    -4.586      3.349      5.392
REMARK INTER + INTRA:         -16.589
REMARK INTER:                 -12.081
REMARK INTRA:                  -4.508
REMARK UNBOUND:                -4.496
REMARK SMILES CCCCCCCCCCCCCCCCCCCCCCCCCCCCCC(=O)[O-]
REMARK SMILES IDX 16 1 17 2 18 3 19 4 20 5 21 6 22 7 23 8 24 9 25 10 26 11
REMARK SMILES IDX 27 12 28 13 29 14 30 15 31 16 32 17 15 18 14 19 13 20 12 21
REMARK SMILES IDX 11 22 10 23 9 24 8 25 7 26 6 27 5 28 4 29 3 30 2 31 1 32
REMARK H PARENT
REMARK Flexibility Score: inf
ROOT
ATOM      1  C   UNL     1      20.979 117.999 298.452  1.00  0.00     0.000 C 
ENDROOT
BRANCH   1   2
ATOM      2  C   UNL     1      19.945 119.137 298.522  1.00  0.00     0.000 C 
BRANCH   2   3
ATOM      3  C   UNL     1      20.600 120.524 298.619  1.00  0.00     0.000 C 
BRANCH   3   4
ATOM      4  C   UNL     1      20.289 121.238 299.945  1.00  0.00     0.000 C 
BRANCH   4   5
ATOM      5  C   UNL     1      20.319 120.281 301.153  1.00  0.00     0.000 C 
BRANCH   5   6
ATOM      6  C   UNL     1      21.530 120.487 302.080  1.00  0.00     0.000 C 
BRANCH   6   7
ATOM      7  C   UNL     1      22.382 119.210 302.238  1.00  0.00     0.000 C 
BRANCH   7   8
ATOM      8  C   UNL     1      23.890 119.490 302.096  1.00  0.00     0.000 C 
BRANCH   8   9
ATOM      9  C   UNL     1      24.296 119.913 300.667  1.00  0.00     0.000 C 
BRANCH   9  10
ATOM     10  C   UNL     1      23.997 118.845 299.598  1.00  0.00     0.000 C 
BRANCH  10  11
ATOM     11  C   UNL     1      24.430 119.289 298.193  1.00  0.00     0.000 C 
BRANCH  11  12
ATOM     12  C   UNL     1      25.208 120.610 298.250  1.00  0.00     0.000 C 
BRANCH  12  13
ATOM     13  C   UNL     1      26.265 120.671 297.137  1.00  0.00     0.006 C 
BRANCH  13  14
ATOM     14  C   UNL     1      25.936 121.731 296.077  1.00  0.00     0.053 C 
BRANCH  14  15
ATOM     15  C   UNL     1      26.936 121.735 294.961  1.00  0.00     0.041 C 
ATOM     16  O   UNL     1      26.552 121.672 293.764  1.00  0.00    -0.550 OA
ATOM     17  O   UNL     1      28.295 121.770 295.248  1.00  0.00    -0.550 OA
ENDBRANCH  14  15
ENDBRANCH  13  14
ENDBRANCH  12  13
ENDBRANCH  11  12
ENDBRANCH  10  11
ENDBRANCH   9  10
ENDBRANCH   8   9
ENDBRANCH   7   8
ENDBRANCH   6   7
ENDBRANCH   5   6
ENDBRANCH   4   5
ENDBRANCH   3   4
ENDBRANCH   2   3
ENDBRANCH   1   2
BRANCH   1  18
ATOM     18  C   UNL     1      20.687 117.004 297.316  1.00  0.00     0.000 C 
BRANCH  18  19
ATOM     19  C   UNL     1      20.265 117.703 296.014  1.00  0.00     0.000 C 
BRANCH  19  20
ATOM     20  C   UNL     1      21.478 118.278 295.271  1.00  0.00     0.000 C 
BRANCH  20  21
ATOM     21  C   UNL     1      21.281 119.776 294.984  1.00  0.00     0.000 C 
BRANCH  21  22
ATOM     22  C   UNL     1      19.842 120.125 294.570  1.00  0.00     0.000 C 
BRANCH  22  23
ATOM     23  C   UNL     1      19.212 121.304 295.336  1.00  0.00     0.000 C 
BRANCH  23  24
ATOM     24  C   UNL     1      17.674 121.246 295.358  1.00  0.00    -0.000 C 
BRANCH  24  25
ATOM     25  C   UNL     1      17.134 120.148 296.295  1.00  0.00    -0.000 C 
BRANCH  25  26
ATOM     26  C   UNL     1      16.276 119.080 295.591  1.00  0.00    -0.000 C 
BRANCH  26  27
ATOM     27  C   UNL     1      16.666 117.645 295.992  1.00  0.00    -0.000 C 
BRANCH  27  28
ATOM     28  C   UNL     1      17.003 116.767 294.775  1.00  0.00    -0.000 C 
BRANCH  28  29
ATOM     29  C   UNL     1      17.274 117.597 293.508  1.00  0.00    -0.000 C 
BRANCH  29  30
ATOM     30  C   UNL     1      18.102 116.831 292.460  1.00  0.00    -0.000 C 
BRANCH  30  31
ATOM     31  C   UNL     1      17.339 115.714 291.729  1.00  0.00    -0.003 C 
ATOM     32  C   UNL     1      18.120 115.128 290.554  1.00  0.00     0.004 C 
ENDBRANCH  30  31
ENDBRANCH  29  30
ENDBRANCH  28  29
ENDBRANCH  27  28
ENDBRANCH  26  27
ENDBRANCH  25  26
ENDBRANCH  24  25
ENDBRANCH  23  24
ENDBRANCH  22  23
ENDBRANCH  21  22
ENDBRANCH  20  21
ENDBRANCH  19  20
ENDBRANCH  18  19
ENDBRANCH   1  18
TORSDOF 28
ENDMDL
MODEL 5
REMARK VINA RESULT:    -4.559      3.246      5.459
REMARK INTER + INTRA:         -16.517
REMARK INTER:                 -12.757
REMARK INTRA:                  -3.760
REMARK UNBOUND:                -4.496
REMARK SMILES CCCCCCCCCCCCCCCCCCCCCCCCCCCCCC(=O)[O-]
REMARK SMILES IDX 16 1 17 2 18 3 19 4 20 5 21 6 22 7 23 8 24 9 25 10 26 11
REMARK SMILES IDX 27 12 28 13 29 14 30 15 31 16 32 17 15 18 14 19 13 20 12 21
REMARK SMILES IDX 11 22 10 23 9 24 8 25 7 26 6 27 5 28 4 29 3 30 2 31 1 32
REMARK H PARENT
REMARK Flexibility Score: inf
ROOT
ATOM      1  C   UNL     1      22.600 117.447 297.046  1.00  0.00     0.000 C 
ENDROOT
BRANCH   1   2
ATOM      2  C   UNL     1      22.477 118.463 298.195  1.00  0.00     0.000 C 
BRANCH   2   3
ATOM      3  C   UNL     1      23.616 118.335 299.219  1.00  0.00     0.000 C 
BRANCH   3   4
ATOM      4  C   UNL     1      23.265 118.961 300.580  1.00  0.00     0.000 C 
BRANCH   4   5
ATOM      5  C   UNL     1      22.177 120.047 300.468  1.00  0.00     0.000 C 
BRANCH   5   6
ATOM      6  C   UNL     1      22.732 121.483 300.443  1.00  0.00     0.000 C 
BRANCH   6   7
ATOM      7  C   UNL     1      24.272 121.526 300.535  1.00  0.00     0.000 C 
BRANCH   7   8
ATOM      8  C   UNL     1      24.766 121.803 301.968  1.00  0.00     0.000 C 
BRANCH   8   9
ATOM      9  C   UNL     1      26.033 121.002 302.338  1.00  0.00     0.000 C 
BRANCH   9  10
ATOM     10  C   UNL     1      26.881 120.590 301.121  1.00  0.00     0.000 C 
BRANCH  10  11
ATOM     11  C   UNL     1      27.030 119.065 301.003  1.00  0.00     0.000 C 
BRANCH  11  12
ATOM     12  C   UNL     1      27.318 118.652 299.554  1.00  0.00     0.000 C 
BRANCH  12  13
ATOM     13  C   UNL     1      27.177 119.851 298.603  1.00  0.00     0.006 C 
BRANCH  13  14
ATOM     14  C   UNL     1      26.366 119.508 297.346  1.00  0.00     0.053 C 
BRANCH  14  15
ATOM     15  C   UNL     1      27.039 119.991 296.098  1.00  0.00     0.041 C 
ATOM     16  O   UNL     1      27.049 121.218 295.816  1.00  0.00    -0.550 OA
ATOM     17  O   UNL     1      27.624 119.080 295.228  1.00  0.00    -0.550 OA
ENDBRANCH  14  15
ENDBRANCH  13  14
ENDBRANCH  12  13
ENDBRANCH  11  12
ENDBRANCH  10  11
ENDBRANCH   9  10
ENDBRANCH   8   9
ENDBRANCH   7   8
ENDBRANCH   6   7
ENDBRANCH   5   6
ENDBRANCH   4   5
ENDBRANCH   3   4
ENDBRANCH   2   3
ENDBRANCH   1   2
BRANCH   1  18
ATOM     18  C   UNL     1      22.583 118.116 295.661  1.00  0.00     0.000 C 
BRANCH  18  19
ATOM     19  C   UNL     1      21.160 118.456 295.187  1.00  0.00     0.000 C 
BRANCH  19  20
ATOM     20  C   UNL     1      20.105 117.726 296.027  1.00  0.00     0.000 C 
BRANCH  20  21
ATOM     21  C   UNL     1      19.168 118.731 296.719  1.00  0.00     0.000 C 
BRANCH  21  22
ATOM     22  C   UNL     1      19.596 120.194 296.510  1.00  0.00     0.000 C 
BRANCH  22  23
ATOM     23  C   UNL     1      18.448 121.172 296.202  1.00  0.00     0.000 C 
BRANCH  23  24
ATOM     24  C   UNL     1      18.530 121.760 294.782  1.00  0.00    -0.000 C 
BRANCH  24  25
ATOM     25  C   UNL     1      17.260 121.491 293.953  1.00  0.00    -0.000 C 
BRANCH  25  26
ATOM     26  C   UNL     1      16.309 120.448 294.570  1.00  0.00    -0.000 C 
BRANCH  26  27
ATOM     27  C   UNL     1      16.287 119.124 293.785  1.00  0.00    -0.000 C 
BRANCH  27  28
ATOM     28  C   UNL     1      16.291 117.894 294.707  1.00  0.00    -0.000 C 
BRANCH  28  29
ATOM     29  C   UNL     1      17.093 116.720 294.119  1.00  0.00    -0.000 C 
BRANCH  29  30
ATOM     30  C   UNL     1      17.644 117.019 292.713  1.00  0.00    -0.000 C 
BRANCH  30  31
ATOM     31  C   UNL     1      17.576 115.837 291.731  1.00  0.00    -0.003 C 
ATOM     32  C   UNL     1      18.836 115.698 290.877  1.00  0.00     0.004 C 
ENDBRANCH  30  31
ENDBRANCH  29  30
ENDBRANCH  28  29
ENDBRANCH  27  28
ENDBRANCH  26  27
ENDBRANCH  25  26
ENDBRANCH  24  25
ENDBRANCH  23  24
ENDBRANCH  22  23
ENDBRANCH  21  22
ENDBRANCH  20  21
ENDBRANCH  19  20
ENDBRANCH  18  19
ENDBRANCH   1  18
TORSDOF 28
ENDMDL
MODEL 6
REMARK VINA RESULT:    -4.552      3.959      6.026
REMARK INTER + INTRA:         -16.499
REMARK INTER:                 -11.324
REMARK INTRA:                  -5.175
REMARK UNBOUND:                -4.496
REMARK SMILES CCCCCCCCCCCCCCCCCCCCCCCCCCCCCC(=O)[O-]
REMARK SMILES IDX 16 1 17 2 18 3 19 4 20 5 21 6 22 7 23 8 24 9 25 10 26 11
REMARK SMILES IDX 27 12 28 13 29 14 30 15 31 16 32 17 15 18 14 19 13 20 12 21
REMARK SMILES IDX 11 22 10 23 9 24 8 25 7 26 6 27 5 28 4 29 3 30 2 31 1 32
REMARK H PARENT
REMARK Flexibility Score: inf
ROOT
ATOM      1  C   UNL     1      23.143 119.877 299.208  1.00  0.00     0.000 C 
ENDROOT
BRANCH   1   2
ATOM      2  C   UNL     1      22.434 120.058 300.562  1.00  0.00     0.000 C 
BRANCH   2   3
ATOM      3  C   UNL     1      22.521 121.500 301.086  1.00  0.00     0.000 C 
BRANCH   3   4
ATOM      4  C   UNL     1      23.952 122.062 301.048  1.00  0.00     0.000 C 
BRANCH   4   5
ATOM      5  C   UNL     1      24.776 121.666 302.289  1.00  0.00     0.000 C 
BRANCH   5   6
ATOM      6  C   UNL     1      26.069 120.900 301.957  1.00  0.00     0.000 C 
BRANCH   6   7
ATOM      7  C   UNL     1      26.016 119.423 302.400  1.00  0.00     0.000 C 
BRANCH   7   8
ATOM      8  C   UNL     1      27.402 118.751 302.367  1.00  0.00     0.000 C 
BRANCH   8   9
ATOM      9  C   UNL     1      27.647 117.928 301.084  1.00  0.00     0.000 C 
BRANCH   9  10
ATOM     10  C   UNL     1      28.503 118.661 300.034  1.00  0.00     0.000 C 
BRANCH  10  11
ATOM     11  C   UNL     1      29.294 117.690 299.145  1.00  0.00     0.000 C 
BRANCH  11  12
ATOM     12  C   UNL     1      30.055 118.445 298.048  1.00  0.00     0.000 C 
BRANCH  12  13
ATOM     13  C   UNL     1      29.163 119.513 297.397  1.00  0.00     0.006 C 
BRANCH  13  14
ATOM     14  C   UNL     1      28.715 119.118 295.984  1.00  0.00     0.053 C 
BRANCH  14  15
ATOM     15  C   UNL     1      28.885 120.243 295.009  1.00  0.00     0.041 C 
ATOM     16  O   UNL     1      29.798 121.093 295.174  1.00  0.00    -0.550 OA
ATOM     17  O   UNL     1      28.008 120.373 293.939  1.00  0.00    -0.550 OA
ENDBRANCH  14  15
ENDBRANCH  13  14
ENDBRANCH  12  13
ENDBRANCH  11  12
ENDBRANCH  10  11
ENDBRANCH   9  10
ENDBRANCH   8   9
ENDBRANCH   7   8
ENDBRANCH   6   7
ENDBRANCH   5   6
ENDBRANCH   4   5
ENDBRANCH   3   4
ENDBRANCH   2   3
ENDBRANCH   1   2
BRANCH   1  18
ATOM     18  C   UNL     1      24.199 118.759 299.238  1.00  0.00     0.000 C 
BRANCH  18  19
ATOM     19  C   UNL     1      25.396 119.053 298.319  1.00  0.00     0.000 C 
BRANCH  19  20
ATOM     20  C   UNL     1      25.645 120.561 298.194  1.00  0.00     0.000 C 
BRANCH  20  21
ATOM     21  C   UNL     1      25.645 120.994 296.719  1.00  0.00     0.000 C 
BRANCH  21  22
ATOM     22  C   UNL     1      25.053 119.929 295.780  1.00  0.00     0.000 C 
BRANCH  22  23
ATOM     23  C   UNL     1      23.674 120.274 295.188  1.00  0.00     0.000 C 
BRANCH  23  24
ATOM     24  C   UNL     1      22.561 119.334 295.682  1.00  0.00    -0.000 C 
BRANCH  24  25
ATOM     25  C   UNL     1      22.962 117.848 295.607  1.00  0.00    -0.000 C 
BRANCH  25  26
ATOM     26  C   UNL     1      22.291 116.956 296.668  1.00  0.00    -0.000 C 
BRANCH  26  27
ATOM     27  C   UNL     1      21.038 117.605 297.285  1.00  0.00    -0.000 C 
BRANCH  27  28
ATOM     28  C   UNL     1      19.734 117.023 296.714  1.00  0.00    -0.000 C 
BRANCH  28  29
ATOM     29  C   UNL     1      18.588 118.050 296.702  1.00  0.00    -0.000 C 
BRANCH  29  30
ATOM     30  C   UNL     1      17.618 117.846 295.525  1.00  0.00    -0.000 C 
BRANCH  30  31
ATOM     31  C   UNL     1      18.297 117.587 294.170  1.00  0.00    -0.003 C 
ATOM     32  C   UNL     1      17.301 117.296 293.049  1.00  0.00     0.004 C 
ENDBRANCH  30  31
ENDBRANCH  29  30
ENDBRANCH  28  29
ENDBRANCH  27  28
ENDBRANCH  26  27
ENDBRANCH  25  26
ENDBRANCH  24  25
ENDBRANCH  23  24
ENDBRANCH  22  23
ENDBRANCH  21  22
ENDBRANCH  20  21
ENDBRANCH  19  20
ENDBRANCH  18  19
ENDBRANCH   1  18
TORSDOF 28
ENDMDL
MODEL 7
REMARK VINA RESULT:    -4.544      3.626      5.424
REMARK INTER + INTRA:         -16.478
REMARK INTER:                 -13.133
REMARK INTRA:                  -3.345
REMARK UNBOUND:                -4.496
REMARK SMILES CCCCCCCCCCCCCCCCCCCCCCCCCCCCCC(=O)[O-]
REMARK SMILES IDX 16 1 17 2 18 3 19 4 20 5 21 6 22 7 23 8 24 9 25 10 26 11
REMARK SMILES IDX 27 12 28 13 29 14 30 15 31 16 32 17 15 18 14 19 13 20 12 21
REMARK SMILES IDX 11 22 10 23 9 24 8 25 7 26 6 27 5 28 4 29 3 30 2 31 1 32
REMARK H PARENT
REMARK Flexibility Score: inf
ROOT
ATOM      1  C   UNL     1      26.333 121.906 294.840  1.00  0.00     0.000 C 
ENDROOT
BRANCH   1   2
ATOM      2  C   UNL     1      27.614 121.115 294.520  1.00  0.00     0.000 C 
BRANCH   2   3
ATOM      3  C   UNL     1      28.743 121.388 295.526  1.00  0.00     0.000 C 
BRANCH   3   4
ATOM      4  C   UNL     1      30.108 120.867 295.045  1.00  0.00     0.000 C 
BRANCH   4   5
ATOM      5  C   UNL     1      30.609 119.669 295.875  1.00  0.00     0.000 C 
BRANCH   5   6
ATOM      6  C   UNL     1      30.290 119.777 297.377  1.00  0.00     0.000 C 
BRANCH   6   7
ATOM      7  C   UNL     1      29.319 118.678 297.859  1.00  0.00     0.000 C 
BRANCH   7   8
ATOM      8  C   UNL     1      28.809 118.933 299.290  1.00  0.00     0.000 C 
BRANCH   8   9
ATOM      9  C   UNL     1      27.289 119.193 299.355  1.00  0.00     0.000 C 
BRANCH   9  10
ATOM     10  C   UNL     1      26.600 119.181 297.978  1.00  0.00     0.000 C 
BRANCH  10  11
ATOM     11  C   UNL     1      25.110 119.543 298.067  1.00  0.00     0.000 C 
BRANCH  11  12
ATOM     12  C   UNL     1      24.390 118.658 299.092  1.00  0.00     0.000 C 
BRANCH  12  13
ATOM     13  C   UNL     1      23.398 119.482 299.927  1.00  0.00     0.006 C 
BRANCH  13  14
ATOM     14  C   UNL     1      23.923 120.892 300.233  1.00  0.00     0.053 C 
BRANCH  14  15
ATOM     15  C   UNL     1      24.498 120.986 301.614  1.00  0.00     0.041 C 
ATOM     16  O   UNL     1      24.406 122.057 302.269  1.00  0.00    -0.550 OA
ATOM     17  O   UNL     1      25.170 119.900 302.162  1.00  0.00    -0.550 OA
ENDBRANCH  14  15
ENDBRANCH  13  14
ENDBRANCH  12  13
ENDBRANCH  11  12
ENDBRANCH  10  11
ENDBRANCH   9  10
ENDBRANCH   8   9
ENDBRANCH   7   8
ENDBRANCH   6   7
ENDBRANCH   5   6
ENDBRANCH   4   5
ENDBRANCH   3   4
ENDBRANCH   2   3
ENDBRANCH   1   2
BRANCH   1  18
ATOM     18  C   UNL     1      25.071 121.028 294.801  1.00  0.00     0.000 C 
BRANCH  18  19
ATOM     19  C   UNL     1      25.384 119.559 294.473  1.00  0.00     0.000 C 
BRANCH  19  20
ATOM     20  C   UNL     1      24.254 118.917 293.658  1.00  0.00     0.000 C 
BRANCH  20  21
ATOM     21  C   UNL     1      23.665 117.707 294.402  1.00  0.00     0.000 C 
BRANCH  21  22
ATOM     22  C   UNL     1      22.779 118.107 295.595  1.00  0.00     0.000 C 
BRANCH  22  23
ATOM     23  C   UNL     1      22.418 116.956 296.552  1.00  0.00     0.000 C 
BRANCH  23  24
ATOM     24  C   UNL     1      21.239 117.301 297.480  1.00  0.00    -0.000 C 
BRANCH  24  25
ATOM     25  C   UNL     1      19.924 116.626 297.045  1.00  0.00    -0.000 C 
BRANCH  25  26
ATOM     26  C   UNL     1      18.830 117.608 296.585  1.00  0.00    -0.000 C 
BRANCH  26  27
ATOM     27  C   UNL     1      18.770 117.756 295.053  1.00  0.00    -0.000 C 
BRANCH  27  28
ATOM     28  C   UNL     1      17.388 117.399 294.482  1.00  0.00    -0.000 C 
BRANCH  28  29
ATOM     29  C   UNL     1      17.373 117.390 292.943  1.00  0.00    -0.000 C 
BRANCH  29  30
ATOM     30  C   UNL     1      17.363 115.967 292.355  1.00  0.00    -0.000 C 
BRANCH  30  31
ATOM     31  C   UNL     1      18.083 115.826 291.003  1.00  0.00    -0.003 C 
ATOM     32  C   UNL     1      17.414 114.815 290.074  1.00  0.00     0.004 C 
ENDBRANCH  30  31
ENDBRANCH  29  30
ENDBRANCH  28  29
ENDBRANCH  27  28
ENDBRANCH  26  27
ENDBRANCH  25  26
ENDBRANCH  24  25
ENDBRANCH  23  24
ENDBRANCH  22  23
ENDBRANCH  21  22
ENDBRANCH  20  21
ENDBRANCH  19  20
ENDBRANCH  18  19
ENDBRANCH   1  18
TORSDOF 28
ENDMDL
MODEL 8
REMARK VINA RESULT:    -4.540      3.440      5.656
REMARK INTER + INTRA:         -16.468
REMARK INTER:                 -12.935
REMARK INTRA:                  -3.532
REMARK UNBOUND:                -4.496
REMARK SMILES CCCCCCCCCCCCCCCCCCCCCCCCCCCCCC(=O)[O-]
REMARK SMILES IDX 16 1 17 2 18 3 19 4 20 5 21 6 22 7 23 8 24 9 25 10 26 11
REMARK SMILES IDX 27 12 28 13 29 14 30 15 31 16 32 17 15 18 14 19 13 20 12 21
REMARK SMILES IDX 11 22 10 23 9 24 8 25 7 26 6 27 5 28 4 29 3 30 2 31 1 32
REMARK H PARENT
REMARK Flexibility Score: inf
ROOT
ATOM      1  C   UNL     1      24.962 121.477 301.659  1.00  0.00     0.000 C 
ENDROOT
BRANCH   1   2
ATOM      2  C   UNL     1      26.184 120.542 301.700  1.00  0.00     0.000 C 
BRANCH   2   3
ATOM      3  C   UNL     1      27.031 120.623 300.420  1.00  0.00     0.000 C 
BRANCH   3   4
ATOM      4  C   UNL     1      27.138 119.272 299.691  1.00  0.00     0.000 C 
BRANCH   4   5
ATOM      5  C   UNL     1      26.121 119.140 298.541  1.00  0.00     0.000 C 
BRANCH   5   6
ATOM      6  C   UNL     1      26.353 120.134 297.389  1.00  0.00     0.000 C 
BRANCH   6   7
ATOM      7  C   UNL     1      27.741 119.972 296.734  1.00  0.00     0.000 C 
BRANCH   7   8
ATOM      8  C   UNL     1      27.987 121.007 295.620  1.00  0.00     0.000 C 
BRANCH   8   9
ATOM      9  C   UNL     1      27.342 120.613 294.273  1.00  0.00     0.000 C 
BRANCH   9  10
ATOM     10  C   UNL     1      27.521 119.126 293.913  1.00  0.00     0.000 C 
BRANCH  10  11
ATOM     11  C   UNL     1      26.583 118.683 292.781  1.00  0.00     0.000 C 
BRANCH  11  12
ATOM     12  C   UNL     1      25.148 119.159 293.039  1.00  0.00     0.000 C 
BRANCH  12  13
ATOM     13  C   UNL     1      24.501 118.358 294.179  1.00  0.00     0.006 C 
BRANCH  13  14
ATOM     14  C   UNL     1      22.969 118.456 294.166  1.00  0.00     0.053 C 
BRANCH  14  15
ATOM     15  C   UNL     1      22.487 119.737 294.774  1.00  0.00     0.041 C 
ATOM     16  O   UNL     1      23.165 120.313 295.664  1.00  0.00    -0.550 OA
ATOM     17  O   UNL     1      21.267 120.275 294.382  1.00  0.00    -0.550 OA
ENDBRANCH  14  15
ENDBRANCH  13  14
ENDBRANCH  12  13
ENDBRANCH  11  12
ENDBRANCH  10  11
ENDBRANCH   9  10
ENDBRANCH   8   9
ENDBRANCH   7   8
ENDBRANCH   6   7
ENDBRANCH   5   6
ENDBRANCH   4   5
ENDBRANCH   3   4
ENDBRANCH   2   3
ENDBRANCH   1   2
BRANCH   1  18
ATOM     18  C   UNL     1      23.631 120.709 301.598  1.00  0.00     0.000 C 
BRANCH  18  19
ATOM     19  C   UNL     1      23.206 120.379 300.158  1.00  0.00     0.000 C 
BRANCH  19  20
ATOM     20  C   UNL     1      22.773 118.914 300.026  1.00  0.00     0.000 C 
BRANCH  20  21
ATOM     21  C   UNL     1      22.111 118.661 298.662  1.00  0.00     0.000 C 
BRANCH  21  22
ATOM     22  C   UNL     1      22.824 117.574 297.840  1.00  0.00     0.000 C 
BRANCH  22  23
ATOM     23  C   UNL     1      21.899 116.702 296.971  1.00  0.00     0.000 C 
BRANCH  23  24
ATOM     24  C   UNL     1      20.410 116.883 297.318  1.00  0.00    -0.000 C 
BRANCH  24  25
ATOM     25  C   UNL     1      19.568 117.324 296.105  1.00  0.00    -0.000 C 
BRANCH  25  26
ATOM     26  C   UNL     1      18.650 118.531 296.376  1.00  0.00    -0.000 C 
BRANCH  26  27
ATOM     27  C   UNL     1      17.589 118.730 295.277  1.00  0.00    -0.000 C 
BRANCH  27  28
ATOM     28  C   UNL     1      17.200 117.411 294.591  1.00  0.00    -0.000 C 
BRANCH  28  29
ATOM     29  C   UNL     1      17.404 117.457 293.067  1.00  0.00    -0.000 C 
BRANCH  29  30
ATOM     30  C   UNL     1      17.261 116.076 292.403  1.00  0.00    -0.000 C 
BRANCH  30  31
ATOM     31  C   UNL     1      18.183 115.845 291.194  1.00  0.00    -0.003 C 
ATOM     32  C   UNL     1      17.604 114.857 290.183  1.00  0.00     0.004 C 
ENDBRANCH  30  31
ENDBRANCH  29  30
ENDBRANCH  28  29
ENDBRANCH  27  28
ENDBRANCH  26  27
ENDBRANCH  25  26
ENDBRANCH  24  25
ENDBRANCH  23  24
ENDBRANCH  22  23
ENDBRANCH  21  22
ENDBRANCH  20  21
ENDBRANCH  19  20
ENDBRANCH  18  19
ENDBRANCH   1  18
TORSDOF 28
ENDMDL
MODEL 9
REMARK VINA RESULT:    -4.537      2.054      4.269
REMARK INTER + INTRA:         -16.460
REMARK INTER:                 -12.311
REMARK INTRA:                  -4.149
REMARK UNBOUND:                -4.496
REMARK SMILES CCCCCCCCCCCCCCCCCCCCCCCCCCCCCC(=O)[O-]
REMARK SMILES IDX 16 1 17 2 18 3 19 4 20 5 21 6 22 7 23 8 24 9 25 10 26 11
REMARK SMILES IDX 27 12 28 13 29 14 30 15 31 16 32 17 15 18 14 19 13 20 12 21
REMARK SMILES IDX 11 22 10 23 9 24 8 25 7 26 6 27 5 28 4 29 3 30 2 31 1 32
REMARK H PARENT
REMARK Flexibility Score: inf
ROOT
ATOM      1  C   UNL     1      22.534 117.126 296.685  1.00  0.00     0.000 C 
ENDROOT
BRANCH   1   2
ATOM      2  C   UNL     1      22.883 117.603 295.264  1.00  0.00     0.000 C 
BRANCH   2   3
ATOM      3  C   UNL     1      23.420 119.042 295.239  1.00  0.00     0.000 C 
BRANCH   3   4
ATOM      4  C   UNL     1      24.903 119.131 295.639  1.00  0.00     0.000 C 
BRANCH   4   5
ATOM      5  C   UNL     1      25.141 120.096 296.817  1.00  0.00     0.000 C 
BRANCH   5   6
ATOM      6  C   UNL     1      25.603 119.399 298.109  1.00  0.00     0.000 C 
BRANCH   6   7
ATOM      7  C   UNL     1      26.572 120.266 298.939  1.00  0.00     0.000 C 
BRANCH   7   8
ATOM      8  C   UNL     1      26.049 120.528 300.364  1.00  0.00     0.000 C 
BRANCH   8   9
ATOM      9  C   UNL     1      24.758 119.746 300.689  1.00  0.00     0.000 C 
BRANCH   9  10
ATOM     10  C   UNL     1      23.533 120.648 300.931  1.00  0.00     0.000 C 
BRANCH  10  11
ATOM     11  C   UNL     1      23.627 121.417 302.257  1.00  0.00     0.000 C 
BRANCH  11  12
ATOM     12  C   UNL     1      22.443 121.082 303.172  1.00  0.00     0.000 C 
BRANCH  12  13
ATOM     13  C   UNL     1      21.110 121.247 302.426  1.00  0.00     0.006 C 
BRANCH  13  14
ATOM     14  C   UNL     1      20.433 119.900 302.135  1.00  0.00     0.053 C 
BRANCH  14  15
ATOM     15  C   UNL     1      19.007 119.881 302.593  1.00  0.00     0.041 C 
ATOM     16  O   UNL     1      18.735 119.860 303.822  1.00  0.00    -0.550 OA
ATOM     17  O   UNL     1      17.978 119.849 301.660  1.00  0.00    -0.550 OA
ENDBRANCH  14  15
ENDBRANCH  13  14
ENDBRANCH  12  13
ENDBRANCH  11  12
ENDBRANCH  10  11
ENDBRANCH   9  10
ENDBRANCH   8   9
ENDBRANCH   7   8
ENDBRANCH   6   7
ENDBRANCH   5   6
ENDBRANCH   4   5
ENDBRANCH   3   4
ENDBRANCH   2   3
ENDBRANCH   1   2
BRANCH   1  18
ATOM     18  C   UNL     1      21.019 116.973 296.903  1.00  0.00     0.000 C 
BRANCH  18  19
ATOM     19  C   UNL     1      20.527 117.713 298.157  1.00  0.00     0.000 C 
BRANCH  19  20
ATOM     20  C   UNL     1      21.579 118.703 298.669  1.00  0.00     0.000 C 
BRANCH  20  21
ATOM     21  C   UNL     1      21.337 120.106 298.087  1.00  0.00     0.000 C 
BRANCH  21  22
ATOM     22  C   UNL     1      19.861 120.534 298.144  1.00  0.00     0.000 C 
BRANCH  22  23
ATOM     23  C   UNL     1      19.251 120.953 296.794  1.00  0.00     0.000 C 
BRANCH  23  24
ATOM     24  C   UNL     1      20.179 120.656 295.602  1.00  0.00    -0.000 C 
BRANCH  24  25
ATOM     25  C   UNL     1      19.653 119.515 294.710  1.00  0.00    -0.000 C 
BRANCH  25  26
ATOM     26  C   UNL     1      18.133 119.284 294.807  1.00  0.00    -0.000 C 
BRANCH  26  27
ATOM     27  C   UNL     1      17.775 117.991 295.562  1.00  0.00    -0.000 C 
BRANCH  27  28
ATOM     28  C   UNL     1      17.246 116.892 294.626  1.00  0.00    -0.000 C 
BRANCH  28  29
ATOM     29  C   UNL     1      17.640 117.130 293.158  1.00  0.00    -0.000 C 
BRANCH  29  30
ATOM     30  C   UNL     1      17.380 115.903 292.265  1.00  0.00    -0.000 C 
BRANCH  30  31
ATOM     31  C   UNL     1      18.320 115.781 291.053  1.00  0.00    -0.003 C 
ATOM     32  C   UNL     1      17.669 115.077 289.863  1.00  0.00     0.004 C 
ENDBRANCH  30  31
ENDBRANCH  29  30
ENDBRANCH  28  29
ENDBRANCH  27  28
ENDBRANCH  26  27
ENDBRANCH  25  26
ENDBRANCH  24  25
ENDBRANCH  23  24
ENDBRANCH  22  23
ENDBRANCH  21  22
ENDBRANCH  20  21
ENDBRANCH  19  20
ENDBRANCH  18  19
ENDBRANCH   1  18
TORSDOF 28
ENDMDL
