MODEL 1
REMARK VINA RESULT:    -5.547      0.000      0.000
REMARK INTER + INTRA:          -6.066
REMARK INTER:                  -6.034
REMARK INTRA:                  -0.032
REMARK UNBOUND:                -0.032
REMARK SMILES O=C([O-])c1ccc(O)cc1
REMARK SMILES IDX 7 1 6 2 9 3 5 4 10 5 4 6 8 7 2 9 1 10 3 11
REMARK H PARENT 8 8
REMARK Flexibility Score: inf
ROOT
ATOM      1  C   UNL     1       6.780 -55.024 -31.383  1.00  0.00     0.115 A 
ATOM      2  C   UNL     1       7.929 -54.237 -31.538  1.00  0.00     0.047 A 
ATOM      3  C   UNL     1       6.649 -55.843 -30.259  1.00  0.00     0.047 A 
ATOM      4  C   UNL     1       8.940 -54.271 -30.574  1.00  0.00     0.014 A 
ATOM      5  C   UNL     1       7.657 -55.879 -29.291  1.00  0.00     0.014 A 
ATOM      6  C   UNL     1       8.815 -55.093 -29.439  1.00  0.00    -0.003 A 
ENDROOT
BRANCH   1   7
ATOM      7  O   UNL     1       5.767 -54.999 -32.339  1.00  0.00    -0.508 OA
ATOM      8  H   UNL     1       5.821 -54.396 -33.152  1.00  0.00     0.293 HD
ENDBRANCH   1   7
BRANCH   6   9
ATOM      9  C   UNL     1       9.885 -55.126 -28.419  1.00  0.00     0.071 C 
ATOM     10  O   UNL     1      10.482 -54.068 -28.081  1.00  0.00    -0.545 OA
ATOM     11  O   UNL     1      10.248 -56.325 -27.816  1.00  0.00    -0.545 OA
ENDBRANCH   6   9
TORSDOF 2
ENDMDL
MODEL 2
REMARK VINA RESULT:    -5.539      0.033      1.532
REMARK INTER + INTRA:          -6.057
REMARK INTER:                  -6.025
REMARK INTRA:                  -0.032
REMARK UNBOUND:                -0.032
REMARK SMILES O=C([O-])c1ccc(O)cc1
REMARK SMILES IDX 7 1 6 2 9 3 5 4 10 5 4 6 8 7 2 9 1 10 3 11
REMARK H PARENT 8 8
REMARK Flexibility Score: inf
ROOT
ATOM      1  C   UNL     1       6.756 -55.025 -31.376  1.00  0.00     0.115 A 
ATOM      2  C   UNL     1       6.640 -55.837 -30.239  1.00  0.00     0.047 A 
ATOM      3  C   UNL     1       7.897 -54.238 -31.551  1.00  0.00     0.047 A 
ATOM      4  C   UNL     1       7.661 -55.859 -29.285  1.00  0.00     0.014 A 
ATOM      5  C   UNL     1       8.921 -54.259 -30.600  1.00  0.00     0.014 A 
ATOM      6  C   UNL     1       8.814 -55.071 -29.455  1.00  0.00    -0.003 A 
ENDROOT
BRANCH   1   7
ATOM      7  O   UNL     1       5.744 -54.994 -32.333  1.00  0.00    -0.508 OA
ATOM      8  H   UNL     1       4.932 -55.597 -32.265  1.00  0.00     0.293 HD
ENDBRANCH   1   7
BRANCH   6   9
ATOM      9  C   UNL     1       9.893 -55.097 -28.444  1.00  0.00     0.071 C 
ATOM     10  O   UNL     1      10.494 -54.038 -28.121  1.00  0.00    -0.545 OA
ATOM     11  O   UNL     1      10.260 -56.292 -27.836  1.00  0.00    -0.545 OA
ENDBRANCH   6   9
TORSDOF 2
ENDMDL
MODEL 3
REMARK VINA RESULT:    -5.470      1.010      4.474
REMARK INTER + INTRA:          -5.982
REMARK INTER:                  -5.951
REMARK INTRA:                  -0.031
REMARK UNBOUND:                -0.032
REMARK SMILES O=C([O-])c1ccc(O)cc1
REMARK SMILES IDX 7 1 6 2 9 3 5 4 10 5 4 6 8 7 2 9 1 10 3 11
REMARK H PARENT 8 8
REMARK Flexibility Score: inf
ROOT
ATOM      1  C   UNL     1       9.644 -55.175 -28.867  1.00  0.00     0.115 A 
ATOM      2  C   UNL     1       8.503 -55.988 -28.912  1.00  0.00     0.047 A 
ATOM      3  C   UNL     1       9.914 -54.301 -29.923  1.00  0.00     0.047 A 
ATOM      4  C   UNL     1       7.638 -55.925 -30.009  1.00  0.00     0.014 A 
ATOM      5  C   UNL     1       9.051 -54.235 -31.021  1.00  0.00     0.014 A 
ATOM      6  C   UNL     1       7.903 -55.047 -31.076  1.00  0.00    -0.003 A 
ENDROOT
BRANCH   1   7
ATOM      7  O   UNL     1      10.512 -55.230 -27.779  1.00  0.00    -0.508 OA
ATOM      8  H   UNL     1      10.326 -55.828 -26.982  1.00  0.00     0.293 HD
ENDBRANCH   1   7
BRANCH   6   9
ATOM      9  C   UNL     1       6.986 -54.982 -32.235  1.00  0.00     0.071 C 
ATOM     10  O   UNL     1       7.439 -54.993 -33.411  1.00  0.00    -0.545 OA
ATOM     11  O   UNL     1       5.611 -54.909 -32.043  1.00  0.00    -0.545 OA
ENDBRANCH   6   9
TORSDOF 2
ENDMDL
MODEL 4
REMARK VINA RESULT:    -5.468      0.985      4.199
REMARK INTER + INTRA:          -5.980
REMARK INTER:                  -5.949
REMARK INTRA:                  -0.031
REMARK UNBOUND:                -0.032
REMARK SMILES O=C([O-])c1ccc(O)cc1
REMARK SMILES IDX 7 1 6 2 9 3 5 4 10 5 4 6 8 7 2 9 1 10 3 11
REMARK H PARENT 8 8
REMARK Flexibility Score: inf
ROOT
ATOM      1  C   UNL     1       9.660 -55.108 -28.842  1.00  0.00     0.115 A 
ATOM      2  C   UNL     1       9.893 -54.225 -29.906  1.00  0.00     0.047 A 
ATOM      3  C   UNL     1       8.533 -55.934 -28.863  1.00  0.00     0.047 A 
ATOM      4  C   UNL     1       9.004 -54.171 -30.982  1.00  0.00     0.014 A 
ATOM      5  C   UNL     1       7.642 -55.883 -29.939  1.00  0.00     0.014 A 
ATOM      6  C   UNL     1       7.868 -55.000 -31.011  1.00  0.00    -0.003 A 
ENDROOT
BRANCH   1   7
ATOM      7  O   UNL     1      10.539 -55.170 -27.764  1.00  0.00    -0.508 OA
ATOM      8  H   UNL     1      10.270 -55.597 -26.884  1.00  0.00     0.293 HD
ENDBRANCH   1   7
BRANCH   6   9
ATOM      9  C   UNL     1       6.928 -54.941 -32.152  1.00  0.00     0.071 C 
ATOM     10  O   UNL     1       7.359 -54.934 -33.336  1.00  0.00    -0.545 OA
ATOM     11  O   UNL     1       5.556 -54.894 -31.934  1.00  0.00    -0.545 OA
ENDBRANCH   6   9
TORSDOF 2
ENDMDL
MODEL 5
REMARK VINA RESULT:    -5.404      2.420      3.451
REMARK INTER + INTRA:          -5.910
REMARK INTER:                  -5.875
REMARK INTRA:                  -0.034
REMARK UNBOUND:                -0.032
REMARK SMILES O=C([O-])c1ccc(O)cc1
REMARK SMILES IDX 7 1 6 2 9 3 5 4 10 5 4 6 8 7 2 9 1 10 3 11
REMARK H PARENT 8 8
REMARK Flexibility Score: inf
ROOT
ATOM      1  C   UNL     1       8.312 -54.395 -31.398  1.00  0.00     0.115 A 
ATOM      2  C   UNL     1       8.750 -54.757 -30.116  1.00  0.00     0.047 A 
ATOM      3  C   UNL     1       7.012 -54.709 -31.800  1.00  0.00     0.047 A 
ATOM      4  C   UNL     1       7.889 -55.429 -29.244  1.00  0.00     0.014 A 
ATOM      5  C   UNL     1       6.148 -55.381 -30.930  1.00  0.00     0.014 A 
ATOM      6  C   UNL     1       6.578 -55.749 -29.641  1.00  0.00    -0.003 A 
ENDROOT
BRANCH   1   7
ATOM      7  O   UNL     1       9.162 -53.726 -32.275  1.00  0.00    -0.508 OA
ATOM      8  H   UNL     1       9.866 -54.220 -32.812  1.00  0.00     0.293 HD
ENDBRANCH   1   7
BRANCH   6   9
ATOM      9  C   UNL     1       5.669 -56.459 -28.716  1.00  0.00     0.071 C 
ATOM     10  O   UNL     1       5.854 -56.407 -27.470  1.00  0.00    -0.545 OA
ATOM     11  O   UNL     1       4.596 -57.195 -29.207  1.00  0.00    -0.545 OA
ENDBRANCH   6   9
TORSDOF 2
ENDMDL
MODEL 6
REMARK VINA RESULT:    -5.376      2.447      3.459
REMARK INTER + INTRA:          -5.879
REMARK INTER:                  -5.846
REMARK INTRA:                  -0.033
REMARK UNBOUND:                -0.032
REMARK SMILES O=C([O-])c1ccc(O)cc1
REMARK SMILES IDX 7 1 6 2 9 3 5 4 10 5 4 6 8 7 2 9 1 10 3 11
REMARK H PARENT 8 8
REMARK Flexibility Score: inf
ROOT
ATOM      1  C   UNL     1       8.332 -54.460 -31.424  1.00  0.00     0.115 A 
ATOM      2  C   UNL     1       7.014 -54.729 -31.817  1.00  0.00     0.047 A 
ATOM      3  C   UNL     1       8.763 -54.835 -30.149  1.00  0.00     0.047 A 
ATOM      4  C   UNL     1       6.135 -55.369 -30.940  1.00  0.00     0.014 A 
ATOM      5  C   UNL     1       7.887 -55.477 -29.268  1.00  0.00     0.014 A 
ATOM      6  C   UNL     1       6.562 -55.751 -29.655  1.00  0.00    -0.003 A 
ENDROOT
BRANCH   1   7
ATOM      7  O   UNL     1       9.216 -53.821 -32.290  1.00  0.00    -0.508 OA
ATOM      8  H   UNL     1       9.673 -54.322 -33.045  1.00  0.00     0.293 HD
ENDBRANCH   1   7
BRANCH   6   9
ATOM      9  C   UNL     1       5.630 -56.429 -28.728  1.00  0.00     0.071 C 
ATOM     10  O   UNL     1       5.721 -56.251 -27.484  1.00  0.00    -0.545 OA
ATOM     11  O   UNL     1       4.640 -57.274 -29.217  1.00  0.00    -0.545 OA
ENDBRANCH   6   9
TORSDOF 2
ENDMDL
MODEL 7
REMARK VINA RESULT:    -5.307      1.862      2.500
REMARK INTER + INTRA:          -5.805
REMARK INTER:                  -5.773
REMARK INTRA:                  -0.032
REMARK UNBOUND:                -0.032
REMARK SMILES O=C([O-])c1ccc(O)cc1
REMARK SMILES IDX 7 1 6 2 9 3 5 4 10 5 4 6 8 7 2 9 1 10 3 11
REMARK H PARENT 8 8
REMARK Flexibility Score: inf
ROOT
ATOM      1  C   UNL     1       5.363 -56.019 -30.596  1.00  0.00     0.115 A 
ATOM      2  C   UNL     1       5.688 -55.239 -31.715  1.00  0.00     0.047 A 
ATOM      3  C   UNL     1       6.317 -56.226 -29.596  1.00  0.00     0.047 A 
ATOM      4  C   UNL     1       6.960 -54.671 -31.830  1.00  0.00     0.014 A 
ATOM      5  C   UNL     1       7.590 -55.659 -29.708  1.00  0.00     0.014 A 
ATOM      6  C   UNL     1       7.925 -54.875 -30.827  1.00  0.00    -0.003 A 
ENDROOT
BRANCH   1   7
ATOM      7  O   UNL     1       4.099 -56.590 -30.472  1.00  0.00    -0.508 OA
ATOM      8  H   UNL     1       3.979 -57.588 -30.336  1.00  0.00     0.293 HD
ENDBRANCH   1   7
BRANCH   6   9
ATOM      9  C   UNL     1       9.270 -54.272 -30.951  1.00  0.00     0.071 C 
ATOM     10  O   UNL     1       9.850 -54.223 -32.069  1.00  0.00    -0.545 OA
ATOM     11  O   UNL     1       9.914 -53.749 -29.836  1.00  0.00    -0.545 OA
ENDBRANCH   6   9
TORSDOF 2
ENDMDL
MODEL 8
REMARK VINA RESULT:    -5.257      1.830      2.727
REMARK INTER + INTRA:          -5.750
REMARK INTER:                  -5.717
REMARK INTRA:                  -0.033
REMARK UNBOUND:                -0.032
REMARK SMILES O=C([O-])c1ccc(O)cc1
REMARK SMILES IDX 7 1 6 2 9 3 5 4 10 5 4 6 8 7 2 9 1 10 3 11
REMARK H PARENT 8 8
REMARK Flexibility Score: inf
ROOT
ATOM      1  C   UNL     1       5.447 -55.924 -30.570  1.00  0.00     0.115 A 
ATOM      2  C   UNL     1       6.397 -56.113 -29.557  1.00  0.00     0.047 A 
ATOM      3  C   UNL     1       5.790 -55.202 -31.715  1.00  0.00     0.047 A 
ATOM      4  C   UNL     1       7.683 -55.581 -29.692  1.00  0.00     0.014 A 
ATOM      5  C   UNL     1       7.075 -54.669 -31.854  1.00  0.00     0.014 A 
ATOM      6  C   UNL     1       8.036 -54.853 -30.843  1.00  0.00    -0.003 A 
ENDROOT
BRANCH   1   7
ATOM      7  O   UNL     1       4.163 -56.449 -30.445  1.00  0.00    -0.508 OA
ATOM      8  H   UNL     1       3.379 -56.060 -30.957  1.00  0.00     0.293 HD
ENDBRANCH   1   7
BRANCH   6   9
ATOM      9  C   UNL     1       9.398 -54.292 -30.983  1.00  0.00     0.071 C 
ATOM     10  O   UNL     1       9.963 -54.259 -32.109  1.00  0.00    -0.545 OA
ATOM     11  O   UNL     1      10.072 -53.793 -29.875  1.00  0.00    -0.545 OA
ENDBRANCH   6   9
TORSDOF 2
ENDMDL
MODEL 9
REMARK VINA RESULT:    -5.113      2.356      3.576
REMARK INTER + INTRA:          -5.593
REMARK INTER:                  -5.561
REMARK INTRA:                  -0.032
REMARK UNBOUND:                -0.032
REMARK SMILES O=C([O-])c1ccc(O)cc1
REMARK SMILES IDX 7 1 6 2 9 3 5 4 10 5 4 6 8 7 2 9 1 10 3 11
REMARK H PARENT 8 8
REMARK Flexibility Score: inf
ROOT
ATOM      1  C   UNL     1       6.488 -56.077 -28.786  1.00  0.00     0.115 A 
ATOM      2  C   UNL     1       7.889 -56.114 -28.798  1.00  0.00     0.047 A 
ATOM      3  C   UNL     1       5.798 -55.657 -29.925  1.00  0.00     0.047 A 
ATOM      4  C   UNL     1       8.593 -55.732 -29.943  1.00  0.00     0.014 A 
ATOM      5  C   UNL     1       6.498 -55.275 -31.073  1.00  0.00     0.014 A 
ATOM      6  C   UNL     1       7.904 -55.309 -31.094  1.00  0.00    -0.003 A 
ENDROOT
BRANCH   1   7
ATOM      7  O   UNL     1       5.777 -56.455 -27.649  1.00  0.00    -0.508 OA
ATOM      8  H   UNL     1       5.612 -55.805 -26.888  1.00  0.00     0.293 HD
ENDBRANCH   1   7
BRANCH   6   9
ATOM      9  C   UNL     1       8.651 -54.906 -32.306  1.00  0.00     0.071 C 
ATOM     10  O   UNL     1       9.707 -54.224 -32.211  1.00  0.00    -0.545 OA
ATOM     11  O   UNL     1       8.200 -55.275 -33.568  1.00  0.00    -0.545 OA
ENDBRANCH   6   9
TORSDOF 2
ENDMDL
