MODEL 1
REMARK VINA RESULT:    -3.189      0.000      0.000
REMARK INTER + INTRA:          -3.576
REMARK INTER:                  -3.562
REMARK INTRA:                  -0.014
REMARK UNBOUND:                -0.014
REMARK SMILES CCCC(=O)[O-]
REMARK SMILES IDX 3 1 4 2 5 3 6 4 2 5 1 6
REMARK H PARENT
REMARK Flexibility Score: inf
ROOT
ATOM      1  C   UNL     1      -4.842  35.417  21.661  1.00  0.00     0.052 C 
ENDROOT
BRANCH   1   2
ATOM      2  C   UNL     1      -5.212  35.830  20.271  1.00  0.00     0.041 C 
ATOM      3  O   UNL     1      -5.729  34.997  19.480  1.00  0.00    -0.550 OA
ATOM      4  O   UNL     1      -5.031  37.145  19.865  1.00  0.00    -0.550 OA
ENDBRANCH   1   2
BRANCH   1   5
ATOM      5  C   UNL     1      -6.080  35.399  22.562  1.00  0.00     0.003 C 
ATOM      6  C   UNL     1      -6.019  34.247  23.559  1.00  0.00     0.004 C 
ENDBRANCH   1   5
TORSDOF 2
ENDMDL
MODEL 2
REMARK VINA RESULT:    -3.179      1.010      1.502
REMARK INTER + INTRA:          -3.564
REMARK INTER:                  -3.556
REMARK INTRA:                  -0.008
REMARK UNBOUND:                -0.014
REMARK SMILES CCCC(=O)[O-]
REMARK SMILES IDX 3 1 4 2 5 3 6 4 2 5 1 6
REMARK H PARENT
REMARK Flexibility Score: inf
ROOT
ATOM      1  C   UNL     1      -6.087  35.354  21.444  1.00  0.00     0.052 C 
ENDROOT
BRANCH   1   2
ATOM      2  C   UNL     1      -5.306  36.398  20.711  1.00  0.00     0.041 C 
ATOM      3  O   UNL     1      -5.209  37.563  21.181  1.00  0.00    -0.550 OA
ATOM      4  O   UNL     1      -4.642  36.072  19.536  1.00  0.00    -0.550 OA
ENDBRANCH   1   2
BRANCH   1   5
ATOM      5  C   UNL     1      -5.844  35.463  22.953  1.00  0.00     0.003 C 
ATOM      6  C   UNL     1      -6.104  34.131  23.650  1.00  0.00     0.004 C 
ENDBRANCH   1   5
TORSDOF 2
ENDMDL
MODEL 3
REMARK VINA RESULT:    -3.159      0.995      1.021
REMARK INTER + INTRA:          -3.542
REMARK INTER:                  -3.537
REMARK INTRA:                  -0.006
REMARK UNBOUND:                -0.014
REMARK SMILES CCCC(=O)[O-]
REMARK SMILES IDX 3 1 4 2 5 3 6 4 2 5 1 6
REMARK H PARENT
REMARK Flexibility Score: inf
ROOT
ATOM      1  C   UNL     1      -5.977  35.375  21.364  1.00  0.00     0.052 C 
ENDROOT
BRANCH   1   2
ATOM      2  C   UNL     1      -5.272  36.425  20.565  1.00  0.00     0.041 C 
ATOM      3  O   UNL     1      -4.650  36.110  19.515  1.00  0.00    -0.550 OA
ATOM      4  O   UNL     1      -5.343  37.757  20.951  1.00  0.00    -0.550 OA
ENDBRANCH   1   2
BRANCH   1   5
ATOM      5  C   UNL     1      -5.552  35.445  22.834  1.00  0.00     0.003 C 
ATOM      6  C   UNL     1      -6.125  34.276  23.629  1.00  0.00     0.004 C 
ENDBRANCH   1   5
TORSDOF 2
ENDMDL
MODEL 4
REMARK VINA RESULT:    -3.134      0.098      1.325
REMARK INTER + INTRA:          -3.515
REMARK INTER:                  -3.503
REMARK INTRA:                  -0.011
REMARK UNBOUND:                -0.014
REMARK SMILES CCCC(=O)[O-]
REMARK SMILES IDX 3 1 4 2 5 3 6 4 2 5 1 6
REMARK H PARENT
REMARK Flexibility Score: inf
ROOT
ATOM      1  C   UNL     1      -4.869  35.485  21.754  1.00  0.00     0.052 C 
ENDROOT
BRANCH   1   2
ATOM      2  C   UNL     1      -5.222  35.902  20.361  1.00  0.00     0.041 C 
ATOM      3  O   UNL     1      -5.001  37.082  19.978  1.00  0.00    -0.550 OA
ATOM      4  O   UNL     1      -5.750  34.976  19.471  1.00  0.00    -0.550 OA
ENDBRANCH   1   2
BRANCH   1   5
ATOM      5  C   UNL     1      -6.125  35.420  22.629  1.00  0.00     0.003 C 
ATOM      6  C   UNL     1      -6.050  34.257  23.613  1.00  0.00     0.004 C 
ENDBRANCH   1   5
TORSDOF 2
ENDMDL
MODEL 5
REMARK VINA RESULT:    -3.121      2.457      3.638
REMARK INTER + INTRA:          -3.499
REMARK INTER:                  -3.464
REMARK INTRA:                  -0.035
REMARK UNBOUND:                -0.014
REMARK SMILES CCCC(=O)[O-]
REMARK SMILES IDX 3 1 4 2 5 3 6 4 2 5 1 6
REMARK H PARENT
REMARK Flexibility Score: inf
ROOT
ATOM      1  C   UNL     1      -6.016  35.373  21.499  1.00  0.00     0.052 C 
ENDROOT
BRANCH   1   2
ATOM      2  C   UNL     1      -5.690  35.324  22.958  1.00  0.00     0.041 C 
ATOM      3  O   UNL     1      -5.495  36.391  23.600  1.00  0.00    -0.550 OA
ATOM      4  O   UNL     1      -5.650  34.105  23.621  1.00  0.00    -0.550 OA
ENDBRANCH   1   2
BRANCH   1   5
ATOM      5  C   UNL     1      -4.789  35.806  20.690  1.00  0.00     0.003 C 
ATOM      6  C   UNL     1      -5.061  37.097  19.925  1.00  0.00     0.004 C 
ENDBRANCH   1   5
TORSDOF 2
ENDMDL
MODEL 6
REMARK VINA RESULT:    -3.094      2.754      3.544
REMARK INTER + INTRA:          -3.470
REMARK INTER:                  -3.432
REMARK INTRA:                  -0.038
REMARK UNBOUND:                -0.014
REMARK SMILES CCCC(=O)[O-]
REMARK SMILES IDX 3 1 4 2 5 3 6 4 2 5 1 6
REMARK H PARENT
REMARK Flexibility Score: inf
ROOT
ATOM      1  C   UNL     1      -6.074  35.220  21.981  1.00  0.00     0.052 C 
ENDROOT
BRANCH   1   2
ATOM      2  C   UNL     1      -5.875  34.941  23.437  1.00  0.00     0.041 C 
ATOM      3  O   UNL     1      -6.119  33.795  23.901  1.00  0.00    -0.550 OA
ATOM      4  O   UNL     1      -5.374  35.930  24.272  1.00  0.00    -0.550 OA
ENDBRANCH   1   2
BRANCH   1   5
ATOM      5  C   UNL     1      -4.781  35.754  21.356  1.00  0.00     0.003 C 
ATOM      6  C   UNL     1      -4.959  37.185  20.859  1.00  0.00     0.004 C 
ENDBRANCH   1   5
TORSDOF 2
ENDMDL
MODEL 7
REMARK VINA RESULT:    -3.050      1.751      2.079
REMARK INTER + INTRA:          -3.420
REMARK INTER:                  -3.409
REMARK INTRA:                  -0.011
REMARK UNBOUND:                -0.014
REMARK SMILES CCCC(=O)[O-]
REMARK SMILES IDX 3 1 4 2 5 3 6 4 2 5 1 6
REMARK H PARENT
REMARK Flexibility Score: inf
ROOT
ATOM      1  C   UNL     1      -5.743  35.239  22.926  1.00  0.00     0.052 C 
ENDROOT
BRANCH   1   2
ATOM      2  C   UNL     1      -5.185  35.351  21.543  1.00  0.00     0.041 C 
ATOM      3  O   UNL     1      -3.939  35.379  21.364  1.00  0.00    -0.550 OA
ATOM      4  O   UNL     1      -6.039  35.374  20.449  1.00  0.00    -0.550 OA
ENDBRANCH   1   2
BRANCH   1   5
ATOM      5  C   UNL     1      -5.725  36.602  23.624  1.00  0.00     0.003 C 
ATOM      6  C   UNL     1      -5.541  36.448  25.130  1.00  0.00     0.004 C 
ENDBRANCH   1   5
TORSDOF 2
ENDMDL
MODEL 8
REMARK VINA RESULT:    -2.970      3.136      3.752
REMARK INTER + INTRA:          -3.331
REMARK INTER:                  -3.324
REMARK INTRA:                  -0.006
REMARK UNBOUND:                -0.014
REMARK SMILES CCCC(=O)[O-]
REMARK SMILES IDX 3 1 4 2 5 3 6 4 2 5 1 6
REMARK H PARENT
REMARK Flexibility Score: inf
ROOT
ATOM      1  C   UNL     1      -4.809  38.009  21.427  1.00  0.00     0.052 C 
ENDROOT
BRANCH   1   2
ATOM      2  C   UNL     1      -5.186  39.159  22.306  1.00  0.00     0.041 C 
ATOM      3  O   UNL     1      -5.753  40.171  21.815  1.00  0.00    -0.550 OA
ATOM      4  O   UNL     1      -4.958  39.092  23.674  1.00  0.00    -0.550 OA
ENDBRANCH   1   2
BRANCH   1   5
ATOM      5  C   UNL     1      -5.366  36.698  21.990  1.00  0.00     0.003 C 
ATOM      6  C   UNL     1      -5.625  35.687  20.878  1.00  0.00     0.004 C 
ENDBRANCH   1   5
TORSDOF 2
ENDMDL
MODEL 9
REMARK VINA RESULT:    -2.902      2.935      3.705
REMARK INTER + INTRA:          -3.255
REMARK INTER:                  -3.235
REMARK INTRA:                  -0.020
REMARK UNBOUND:                -0.014
REMARK SMILES CCCC(=O)[O-]
REMARK SMILES IDX 3 1 4 2 5 3 6 4 2 5 1 6
REMARK H PARENT
REMARK Flexibility Score: inf
ROOT
ATOM      1  C   UNL     1      -5.674  35.433  23.488  1.00  0.00     0.052 C 
ENDROOT
BRANCH   1   2
ATOM      2  C   UNL     1      -5.482  36.741  24.188  1.00  0.00     0.041 C 
ATOM      3  O   UNL     1      -5.333  36.773  25.439  1.00  0.00    -0.550 OA
ATOM      4  O   UNL     1      -5.420  37.919  23.456  1.00  0.00    -0.550 OA
ENDBRANCH   1   2
BRANCH   1   5
ATOM      5  C   UNL     1      -5.698  35.636  21.970  1.00  0.00     0.003 C 
ATOM      6  C   UNL     1      -4.320  35.399  21.360  1.00  0.00     0.004 C 
ENDBRANCH   1   5
TORSDOF 2
ENDMDL
