MODEL 1
REMARK VINA RESULT:    -2.942      0.000      0.000
REMARK INTER + INTRA:          -3.299
REMARK INTER:                  -3.286
REMARK INTRA:                  -0.014
REMARK UNBOUND:                -0.014
REMARK SMILES CCCC(=O)[O-]
REMARK SMILES IDX 3 1 4 2 5 3 6 4 2 5 1 6
REMARK H PARENT
REMARK Flexibility Score: inf
ROOT
ATOM      1  C   UNL     1      -0.329   5.651   6.458  1.00  0.00     0.052 C 
ENDROOT
BRANCH   1   2
ATOM      2  C   UNL     1      -0.462   5.959   4.998  1.00  0.00     0.041 C 
ATOM      3  O   UNL     1       0.030   5.181   4.139  1.00  0.00    -0.550 OA
ATOM      4  O   UNL     1      -1.158   7.087   4.586  1.00  0.00    -0.550 OA
ENDBRANCH   1   2
BRANCH   1   5
ATOM      5  C   UNL     1       0.633   4.482   6.707  1.00  0.00     0.003 C 
ATOM      6  C   UNL     1       0.396   3.813   8.061  1.00  0.00     0.004 C 
ENDBRANCH   1   5
TORSDOF 2
ENDMDL
MODEL 2
REMARK VINA RESULT:    -2.895      0.267      1.349
REMARK INTER + INTRA:          -3.247
REMARK INTER:                  -3.237
REMARK INTRA:                  -0.011
REMARK UNBOUND:                -0.014
REMARK SMILES CCCC(=O)[O-]
REMARK SMILES IDX 3 1 4 2 5 3 6 4 2 5 1 6
REMARK H PARENT
REMARK Flexibility Score: inf
ROOT
ATOM      1  C   UNL     1      -0.548   5.837   6.496  1.00  0.00     0.052 C 
ENDROOT
BRANCH   1   2
ATOM      2  C   UNL     1      -0.607   6.086   5.021  1.00  0.00     0.041 C 
ATOM      3  O   UNL     1      -1.193   7.106   4.572  1.00  0.00    -0.550 OA
ATOM      4  O   UNL     1       0.013   5.207   4.142  1.00  0.00    -0.550 OA
ENDBRANCH   1   2
BRANCH   1   5
ATOM      5  C   UNL     1       0.398   4.679   6.839  1.00  0.00     0.003 C 
ATOM      6  C   UNL     1       0.162   4.133   8.247  1.00  0.00     0.004 C 
ENDBRANCH   1   5
TORSDOF 2
ENDMDL
MODEL 3
REMARK VINA RESULT:    -2.717      7.772      8.238
REMARK INTER + INTRA:          -3.048
REMARK INTER:                  -3.042
REMARK INTRA:                  -0.007
REMARK UNBOUND:                -0.014
REMARK SMILES CCCC(=O)[O-]
REMARK SMILES IDX 3 1 4 2 5 3 6 4 2 5 1 6
REMARK H PARENT
REMARK Flexibility Score: inf
ROOT
ATOM      1  C   UNL     1      -4.469  -0.957   4.291  1.00  0.00     0.052 C 
ENDROOT
BRANCH   1   2
ATOM      2  C   UNL     1      -3.308  -1.735   3.752  1.00  0.00     0.041 C 
ATOM      3  O   UNL     1      -2.130  -1.342   3.958  1.00  0.00    -0.550 OA
ATOM      4  O   UNL     1      -3.527  -2.914   3.050  1.00  0.00    -0.550 OA
ENDBRANCH   1   2
BRANCH   1   5
ATOM      5  C   UNL     1      -4.732  -1.279   5.768  1.00  0.00     0.003 C 
ATOM      6  C   UNL     1      -5.592  -0.215   6.450  1.00  0.00     0.004 C 
ENDBRANCH   1   5
TORSDOF 2
ENDMDL
MODEL 4
REMARK VINA RESULT:    -2.667      1.367      2.142
REMARK INTER + INTRA:          -2.993
REMARK INTER:                  -2.955
REMARK INTRA:                  -0.038
REMARK UNBOUND:                -0.014
REMARK SMILES CCCC(=O)[O-]
REMARK SMILES IDX 3 1 4 2 5 3 6 4 2 5 1 6
REMARK H PARENT
REMARK Flexibility Score: inf
ROOT
ATOM      1  C   UNL     1      -0.479   5.894   6.527  1.00  0.00     0.052 C 
ENDROOT
BRANCH   1   2
ATOM      2  C   UNL     1      -0.531   6.089   5.043  1.00  0.00     0.041 C 
ATOM      3  O   UNL     1      -0.059   5.214   4.271  1.00  0.00    -0.550 OA
ATOM      4  O   UNL     1      -1.130   7.224   4.512  1.00  0.00    -0.550 OA
ENDBRANCH   1   2
BRANCH   1   5
ATOM      5  C   UNL     1      -1.145   7.055   7.276  1.00  0.00     0.003 C 
ATOM      6  C   UNL     1      -2.562   6.713   7.738  1.00  0.00     0.004 C 
ENDBRANCH   1   5
TORSDOF 2
ENDMDL
MODEL 5
REMARK VINA RESULT:    -2.641      1.229      1.914
REMARK INTER + INTRA:          -2.963
REMARK INTER:                  -2.949
REMARK INTRA:                  -0.014
REMARK UNBOUND:                -0.014
REMARK SMILES CCCC(=O)[O-]
REMARK SMILES IDX 3 1 4 2 5 3 6 4 2 5 1 6
REMARK H PARENT
REMARK Flexibility Score: inf
ROOT
ATOM      1  C   UNL     1       1.424   4.405   5.625  1.00  0.00     0.052 C 
ENDROOT
BRANCH   1   2
ATOM      2  C   UNL     1       0.909   5.071   4.386  1.00  0.00     0.041 C 
ATOM      3  O   UNL     1      -0.303   5.401   4.300  1.00  0.00    -0.550 OA
ATOM      4  O   UNL     1       1.776   5.357   3.339  1.00  0.00    -0.550 OA
ENDBRANCH   1   2
BRANCH   1   5
ATOM      5  C   UNL     1       0.450   4.560   6.800  1.00  0.00     0.003 C 
ATOM      6  C   UNL     1       0.628   3.466   7.852  1.00  0.00     0.004 C 
ENDBRANCH   1   5
TORSDOF 2
ENDMDL
MODEL 6
REMARK VINA RESULT:    -2.567      7.754      8.268
REMARK INTER + INTRA:          -2.881
REMARK INTER:                  -2.863
REMARK INTRA:                  -0.017
REMARK UNBOUND:                -0.014
REMARK SMILES CCCC(=O)[O-]
REMARK SMILES IDX 3 1 4 2 5 3 6 4 2 5 1 6
REMARK H PARENT
REMARK Flexibility Score: inf
ROOT
ATOM      1  C   UNL     1       2.151  -2.280   6.020  1.00  0.00     0.052 C 
ENDROOT
BRANCH   1   2
ATOM      2  C   UNL     1       3.500  -2.098   5.396  1.00  0.00     0.041 C 
ATOM      3  O   UNL     1       3.675  -2.351   4.176  1.00  0.00    -0.550 OA
ATOM      4  O   UNL     1       4.558  -1.616   6.157  1.00  0.00    -0.550 OA
ENDBRANCH   1   2
BRANCH   1   5
ATOM      5  C   UNL     1       1.097  -1.373   5.370  1.00  0.00     0.003 C 
ATOM      6  C   UNL     1      -0.261  -2.062   5.239  1.00  0.00     0.004 C 
ENDBRANCH   1   5
TORSDOF 2
ENDMDL
MODEL 7
REMARK VINA RESULT:    -2.510      8.554      8.902
REMARK INTER + INTRA:          -2.817
REMARK INTER:                  -2.784
REMARK INTRA:                  -0.033
REMARK UNBOUND:                -0.014
REMARK SMILES CCCC(=O)[O-]
REMARK SMILES IDX 3 1 4 2 5 3 6 4 2 5 1 6
REMARK H PARENT
REMARK Flexibility Score: inf
ROOT
ATOM      1  C   UNL     1      -2.643  -1.599   4.021  1.00  0.00     0.052 C 
ENDROOT
BRANCH   1   2
ATOM      2  C   UNL     1      -2.431  -3.068   3.822  1.00  0.00     0.041 C 
ATOM      3  O   UNL     1      -2.371  -3.550   2.661  1.00  0.00    -0.550 OA
ATOM      4  O   UNL     1      -2.268  -3.902   4.922  1.00  0.00    -0.550 OA
ENDBRANCH   1   2
BRANCH   1   5
ATOM      5  C   UNL     1      -4.132  -1.230   3.988  1.00  0.00     0.003 C 
ATOM      6  C   UNL     1      -4.694  -0.956   5.383  1.00  0.00     0.004 C 
ENDBRANCH   1   5
TORSDOF 2
ENDMDL
MODEL 8
REMARK VINA RESULT:    -2.498     12.872     13.459
REMARK INTER + INTRA:          -2.803
REMARK INTER:                  -2.731
REMARK INTRA:                  -0.072
REMARK UNBOUND:                -0.014
REMARK SMILES CCCC(=O)[O-]
REMARK SMILES IDX 3 1 4 2 5 3 6 4 2 5 1 6
REMARK H PARENT
REMARK Flexibility Score: inf
ROOT
ATOM      1  C   UNL     1      -0.209  -4.355  -2.955  1.00  0.00     0.052 C 
ENDROOT
BRANCH   1   2
ATOM      2  C   UNL     1       0.721  -5.474  -2.596  1.00  0.00     0.041 C 
ATOM      3  O   UNL     1       1.666  -5.278  -1.787  1.00  0.00    -0.550 OA
ATOM      4  O   UNL     1       0.523  -6.741  -3.130  1.00  0.00    -0.550 OA
ENDBRANCH   1   2
BRANCH   1   5
ATOM      5  C   UNL     1      -0.970  -3.833  -1.730  1.00  0.00     0.003 C 
ATOM      6  C   UNL     1      -1.834  -4.913  -1.079  1.00  0.00     0.004 C 
ENDBRANCH   1   5
TORSDOF 2
ENDMDL
MODEL 9
REMARK VINA RESULT:    -2.445     12.320     12.825
REMARK INTER + INTRA:          -2.745
REMARK INTER:                  -2.737
REMARK INTRA:                  -0.008
REMARK UNBOUND:                -0.014
REMARK SMILES CCCC(=O)[O-]
REMARK SMILES IDX 3 1 4 2 5 3 6 4 2 5 1 6
REMARK H PARENT
REMARK Flexibility Score: inf
ROOT
ATOM      1  C   UNL     1      -0.699  -3.610  -4.044  1.00  0.00     0.052 C 
ENDROOT
BRANCH   1   2
ATOM      2  C   UNL     1      -1.377  -2.328  -4.421  1.00  0.00     0.041 C 
ATOM      3  O   UNL     1      -0.942  -1.229  -3.988  1.00  0.00    -0.550 OA
ATOM      4  O   UNL     1      -2.470  -2.347  -5.278  1.00  0.00    -0.550 OA
ENDBRANCH   1   2
BRANCH   1   5
ATOM      5  C   UNL     1      -0.696  -3.826  -2.525  1.00  0.00     0.003 C 
ATOM      6  C   UNL     1       0.233  -4.963  -2.102  1.00  0.00     0.004 C 
ENDBRANCH   1   5
TORSDOF 2
ENDMDL
