MODEL 1
REMARK VINA RESULT:    -2.745      0.000      0.000
REMARK INTER + INTRA:          -9.506
REMARK INTER:                  -7.237
REMARK INTRA:                  -2.269
REMARK UNBOUND:                -2.269
REMARK SMILES CCCCCCCCCCCCCCCCCCCCCCCCCCCCCC(=O)[O-]
REMARK SMILES IDX 16 1 17 2 18 3 19 4 20 5 21 6 22 7 23 8 24 9 25 10 26 11
REMARK SMILES IDX 27 12 28 13 29 14 30 15 31 16 32 17 15 18 14 19 13 20 12 21
REMARK SMILES IDX 11 22 10 23 9 24 8 25 7 26 6 27 5 28 4 29 3 30 2 31 1 32
REMARK H PARENT
REMARK Flexibility Score: inf
ROOT
ATOM      1  C   UNL     1      -2.479  11.776 -36.008  1.00  0.00     0.000 C 
ENDROOT
BRANCH   1   2
ATOM      2  C   UNL     1      -1.282  12.722 -36.234  1.00  0.00     0.000 C 
BRANCH   2   3
ATOM      3  C   UNL     1      -1.377  13.593 -37.499  1.00  0.00     0.000 C 
BRANCH   3   4
ATOM      4  C   UNL     1      -0.039  13.705 -38.245  1.00  0.00     0.000 C 
BRANCH   4   5
ATOM      5  C   UNL     1       0.859  12.496 -37.942  1.00  0.00     0.000 C 
BRANCH   5   6
ATOM      6  C   UNL     1       1.630  11.992 -39.176  1.00  0.00     0.000 C 
BRANCH   6   7
ATOM      7  C   UNL     1       1.981  13.069 -40.220  1.00  0.00     0.000 C 
BRANCH   7   8
ATOM      8  C   UNL     1       2.859  12.536 -41.364  1.00  0.00     0.000 C 
BRANCH   8   9
ATOM      9  C   UNL     1       2.814  11.004 -41.480  1.00  0.00     0.000 C 
BRANCH   9  10
ATOM     10  C   UNL     1       1.727  10.490 -42.450  1.00  0.00     0.000 C 
BRANCH  10  11
ATOM     11  C   UNL     1       1.800   8.967 -42.655  1.00  0.00     0.000 C 
BRANCH  11  12
ATOM     12  C   UNL     1       0.491   8.260 -42.239  1.00  0.00     0.000 C 
BRANCH  12  13
ATOM     13  C   UNL     1       0.606   6.728 -42.174  1.00  0.00     0.006 C 
BRANCH  13  14
ATOM     14  C   UNL     1       1.984   6.212 -42.601  1.00  0.00     0.053 C 
BRANCH  14  15
ATOM     15  C   UNL     1       2.536   5.274 -41.573  1.00  0.00     0.041 C 
ATOM     16  O   UNL     1       1.766   4.718 -40.745  1.00  0.00    -0.550 OA
ATOM     17  O   UNL     1       3.903   5.032 -41.513  1.00  0.00    -0.550 OA
ENDBRANCH  14  15
ENDBRANCH  13  14
ENDBRANCH  12  13
ENDBRANCH  11  12
ENDBRANCH  10  11
ENDBRANCH   9  10
ENDBRANCH   8   9
ENDBRANCH   7   8
ENDBRANCH   6   7
ENDBRANCH   5   6
ENDBRANCH   4   5
ENDBRANCH   3   4
ENDBRANCH   2   3
ENDBRANCH   1   2
BRANCH   1  18
ATOM     18  C   UNL     1      -2.465  10.488 -36.852  1.00  0.00     0.000 C 
BRANCH  18  19
ATOM     19  C   UNL     1      -1.506  10.499 -38.058  1.00  0.00     0.000 C 
BRANCH  19  20
ATOM     20  C   UNL     1      -0.764   9.163 -38.296  1.00  0.00     0.000 C 
BRANCH  20  21
ATOM     21  C   UNL     1      -1.372   8.251 -39.384  1.00  0.00     0.000 C 
BRANCH  21  22
ATOM     22  C   UNL     1      -2.910   8.144 -39.377  1.00  0.00     0.000 C 
BRANCH  22  23
ATOM     23  C   UNL     1      -3.587   9.083 -40.386  1.00  0.00     0.000 C 
BRANCH  23  24
ATOM     24  C   UNL     1      -4.850   9.711 -39.784  1.00  0.00    -0.000 C 
BRANCH  24  25
ATOM     25  C   UNL     1      -5.362   8.893 -38.589  1.00  0.00    -0.000 C 
BRANCH  25  26
ATOM     26  C   UNL     1      -6.787   9.284 -38.169  1.00  0.00    -0.000 C 
BRANCH  26  27
ATOM     27  C   UNL     1      -7.867   8.490 -38.926  1.00  0.00    -0.000 C 
BRANCH  27  28
ATOM     28  C   UNL     1      -7.347   7.138 -39.445  1.00  0.00    -0.000 C 
BRANCH  28  29
ATOM     29  C   UNL     1      -7.478   6.998 -40.972  1.00  0.00    -0.000 C 
BRANCH  29  30
ATOM     30  C   UNL     1      -7.782   5.556 -41.418  1.00  0.00    -0.000 C 
BRANCH  30  31
ATOM     31  C   UNL     1      -8.517   4.694 -40.376  1.00  0.00    -0.003 C 
ATOM     32  C   UNL     1      -9.324   3.558 -41.002  1.00  0.00     0.004 C 
ENDBRANCH  30  31
ENDBRANCH  29  30
ENDBRANCH  28  29
ENDBRANCH  27  28
ENDBRANCH  26  27
ENDBRANCH  25  26
ENDBRANCH  24  25
ENDBRANCH  23  24
ENDBRANCH  22  23
ENDBRANCH  21  22
ENDBRANCH  20  21
ENDBRANCH  19  20
ENDBRANCH  18  19
ENDBRANCH   1  18
TORSDOF 28
ENDMDL
MODEL 2
REMARK VINA RESULT:    -2.647      2.778      7.931
REMARK INTER + INTRA:          -9.248
REMARK INTER:                  -7.797
REMARK INTRA:                  -1.451
REMARK UNBOUND:                -2.269
REMARK SMILES CCCCCCCCCCCCCCCCCCCCCCCCCCCCCC(=O)[O-]
REMARK SMILES IDX 16 1 17 2 18 3 19 4 20 5 21 6 22 7 23 8 24 9 25 10 26 11
REMARK SMILES IDX 27 12 28 13 29 14 30 15 31 16 32 17 15 18 14 19 13 20 12 21
REMARK SMILES IDX 11 22 10 23 9 24 8 25 7 26 6 27 5 28 4 29 3 30 2 31 1 32
REMARK H PARENT
REMARK Flexibility Score: inf
ROOT
ATOM      1  C   UNL     1      -1.372  13.128 -36.527  1.00  0.00     0.000 C 
ENDROOT
BRANCH   1   2
ATOM      2  C   UNL     1      -2.131  11.925 -35.930  1.00  0.00     0.000 C 
BRANCH   2   3
ATOM      3  C   UNL     1      -2.283  10.723 -36.879  1.00  0.00     0.000 C 
BRANCH   3   4
ATOM      4  C   UNL     1      -1.636  10.964 -38.250  1.00  0.00     0.000 C 
BRANCH   4   5
ATOM      5  C   UNL     1      -0.646   9.841 -38.594  1.00  0.00     0.000 C 
BRANCH   5   6
ATOM      6  C   UNL     1      -1.247   8.433 -38.426  1.00  0.00     0.000 C 
BRANCH   6   7
ATOM      7  C   UNL     1      -2.416   8.098 -39.372  1.00  0.00     0.000 C 
BRANCH   7   8
ATOM      8  C   UNL     1      -2.940   9.322 -40.140  1.00  0.00     0.000 C 
BRANCH   8   9
ATOM      9  C   UNL     1      -4.475   9.416 -40.126  1.00  0.00     0.000 C 
BRANCH   9  10
ATOM     10  C   UNL     1      -5.136   8.547 -39.035  1.00  0.00     0.000 C 
BRANCH  10  11
ATOM     11  C   UNL     1      -6.491   9.115 -38.578  1.00  0.00     0.000 C 
BRANCH  11  12
ATOM     12  C   UNL     1      -7.671   8.203 -38.982  1.00  0.00     0.000 C 
BRANCH  12  13
ATOM     13  C   UNL     1      -7.365   7.284 -40.177  1.00  0.00     0.006 C 
BRANCH  13  14
ATOM     14  C   UNL     1      -7.416   5.796 -39.815  1.00  0.00     0.053 C 
BRANCH  14  15
ATOM     15  C   UNL     1      -8.061   5.009 -40.914  1.00  0.00     0.041 C 
ATOM     16  O   UNL     1      -8.846   4.064 -40.639  1.00  0.00    -0.550 OA
ATOM     17  O   UNL     1      -7.773   5.304 -42.241  1.00  0.00    -0.550 OA
ENDBRANCH  14  15
ENDBRANCH  13  14
ENDBRANCH  12  13
ENDBRANCH  11  12
ENDBRANCH  10  11
ENDBRANCH   9  10
ENDBRANCH   8   9
ENDBRANCH   7   8
ENDBRANCH   6   7
ENDBRANCH   5   6
ENDBRANCH   4   5
ENDBRANCH   3   4
ENDBRANCH   2   3
ENDBRANCH   1   2
BRANCH   1  18
ATOM     18  C   UNL     1       0.077  12.840 -36.959  1.00  0.00     0.000 C 
BRANCH  18  19
ATOM     19  C   UNL     1       0.500  13.461 -38.305  1.00  0.00     0.000 C 
BRANCH  19  20
ATOM     20  C   UNL     1       1.433  12.568 -39.155  1.00  0.00     0.000 C 
BRANCH  20  21
ATOM     21  C   UNL     1       2.446  13.324 -40.043  1.00  0.00     0.000 C 
BRANCH  21  22
ATOM     22  C   UNL     1       2.660  12.738 -41.453  1.00  0.00     0.000 C 
BRANCH  22  23
ATOM     23  C   UNL     1       2.946  11.229 -41.444  1.00  0.00     0.000 C 
BRANCH  23  24
ATOM     24  C   UNL     1       1.968  10.484 -42.361  1.00  0.00    -0.000 C 
BRANCH  24  25
ATOM     25  C   UNL     1       1.815   9.016 -41.935  1.00  0.00    -0.000 C 
BRANCH  25  26
ATOM     26  C   UNL     1       0.366   8.515 -42.041  1.00  0.00    -0.000 C 
BRANCH  26  27
ATOM     27  C   UNL     1       0.279   7.022 -42.403  1.00  0.00    -0.000 C 
BRANCH  27  28
ATOM     28  C   UNL     1       0.108   6.125 -41.165  1.00  0.00    -0.000 C 
BRANCH  28  29
ATOM     29  C   UNL     1       1.220   5.069 -41.039  1.00  0.00    -0.000 C 
BRANCH  29  30
ATOM     30  C   UNL     1       2.464   5.405 -41.883  1.00  0.00    -0.000 C 
BRANCH  30  31
ATOM     31  C   UNL     1       3.810   5.225 -41.160  1.00  0.00    -0.003 C 
ATOM     32  C   UNL     1       5.004   5.220 -42.114  1.00  0.00     0.004 C 
ENDBRANCH  30  31
ENDBRANCH  29  30
ENDBRANCH  28  29
ENDBRANCH  27  28
ENDBRANCH  26  27
ENDBRANCH  25  26
ENDBRANCH  24  25
ENDBRANCH  23  24
ENDBRANCH  22  23
ENDBRANCH  21  22
ENDBRANCH  20  21
ENDBRANCH  19  20
ENDBRANCH  18  19
ENDBRANCH   1  18
TORSDOF 28
ENDMDL
MODEL 3
REMARK VINA RESULT:    -2.600      3.196      8.490
REMARK INTER + INTRA:          -9.123
REMARK INTER:                  -6.807
REMARK INTRA:                  -2.316
REMARK UNBOUND:                -2.269
REMARK SMILES CCCCCCCCCCCCCCCCCCCCCCCCCCCCCC(=O)[O-]
REMARK SMILES IDX 16 1 17 2 18 3 19 4 20 5 21 6 22 7 23 8 24 9 25 10 26 11
REMARK SMILES IDX 27 12 28 13 29 14 30 15 31 16 32 17 15 18 14 19 13 20 12 21
REMARK SMILES IDX 11 22 10 23 9 24 8 25 7 26 6 27 5 28 4 29 3 30 2 31 1 32
REMARK H PARENT
REMARK Flexibility Score: inf
ROOT
ATOM      1  C   UNL     1      -1.606  11.219 -37.928  1.00  0.00     0.000 C 
ENDROOT
BRANCH   1   2
ATOM      2  C   UNL     1      -0.349  10.364 -38.187  1.00  0.00     0.000 C 
BRANCH   2   3
ATOM      3  C   UNL     1      -0.561   8.846 -38.045  1.00  0.00     0.000 C 
BRANCH   3   4
ATOM      4  C   UNL     1      -0.743   8.143 -39.399  1.00  0.00     0.000 C 
BRANCH   4   5
ATOM      5  C   UNL     1      -2.232   7.930 -39.709  1.00  0.00     0.000 C 
BRANCH   5   6
ATOM      6  C   UNL     1      -2.930   9.201 -40.227  1.00  0.00     0.000 C 
BRANCH   6   7
ATOM      7  C   UNL     1      -4.344   9.451 -39.669  1.00  0.00     0.000 C 
BRANCH   7   8
ATOM      8  C   UNL     1      -4.548   8.867 -38.261  1.00  0.00     0.000 C 
BRANCH   8   9
ATOM      9  C   UNL     1      -6.027   8.841 -37.840  1.00  0.00     0.000 C 
BRANCH   9  10
ATOM     10  C   UNL     1      -6.997   9.243 -38.972  1.00  0.00     0.000 C 
BRANCH  10  11
ATOM     11  C   UNL     1      -7.990   8.119 -39.316  1.00  0.00     0.000 C 
BRANCH  11  12
ATOM     12  C   UNL     1      -7.374   7.067 -40.263  1.00  0.00     0.000 C 
BRANCH  12  13
ATOM     13  C   UNL     1      -7.810   5.624 -39.957  1.00  0.00     0.006 C 
BRANCH  13  14
ATOM     14  C   UNL     1      -8.344   4.886 -41.189  1.00  0.00     0.053 C 
BRANCH  14  15
ATOM     15  C   UNL     1      -9.266   3.779 -40.781  1.00  0.00     0.041 C 
ATOM     16  O   UNL     1      -9.328   2.723 -41.464  1.00  0.00    -0.550 OA
ATOM     17  O   UNL     1     -10.075   3.924 -39.660  1.00  0.00    -0.550 OA
ENDBRANCH  14  15
ENDBRANCH  13  14
ENDBRANCH  12  13
ENDBRANCH  11  12
ENDBRANCH  10  11
ENDBRANCH   9  10
ENDBRANCH   8   9
ENDBRANCH   7   8
ENDBRANCH   6   7
ENDBRANCH   5   6
ENDBRANCH   4   5
ENDBRANCH   3   4
ENDBRANCH   2   3
ENDBRANCH   1   2
BRANCH   1  18
ATOM     18  C   UNL     1      -1.528  12.146 -36.701  1.00  0.00     0.000 C 
BRANCH  18  19
ATOM     19  C   UNL     1      -0.825  13.497 -36.938  1.00  0.00     0.000 C 
BRANCH  19  20
ATOM     20  C   UNL     1      -0.257  13.680 -38.365  1.00  0.00     0.000 C 
BRANCH  20  21
ATOM     21  C   UNL     1       1.253  13.394 -38.518  1.00  0.00     0.000 C 
BRANCH  21  22
ATOM     22  C   UNL     1       1.633  12.428 -39.657  1.00  0.00     0.000 C 
BRANCH  22  23
ATOM     23  C   UNL     1       2.393  13.112 -40.803  1.00  0.00     0.000 C 
BRANCH  23  24
ATOM     24  C   UNL     1       2.958  12.073 -41.780  1.00  0.00    -0.000 C 
BRANCH  24  25
ATOM     25  C   UNL     1       2.561  10.648 -41.366  1.00  0.00    -0.000 C 
BRANCH  25  26
ATOM     26  C   UNL     1       1.618   9.978 -42.378  1.00  0.00    -0.000 C 
BRANCH  26  27
ATOM     27  C   UNL     1       1.699   8.441 -42.336  1.00  0.00    -0.000 C 
BRANCH  27  28
ATOM     28  C   UNL     1       0.324   7.774 -42.509  1.00  0.00    -0.000 C 
BRANCH  28  29
ATOM     29  C   UNL     1       0.373   6.249 -42.303  1.00  0.00    -0.000 C 
BRANCH  29  30
ATOM     30  C   UNL     1       1.484   5.813 -41.330  1.00  0.00    -0.000 C 
BRANCH  30  31
ATOM     31  C   UNL     1       2.643   5.031 -41.974  1.00  0.00    -0.003 C 
ATOM     32  C   UNL     1       3.996   5.326 -41.327  1.00  0.00     0.004 C 
ENDBRANCH  30  31
ENDBRANCH  29  30
ENDBRANCH  28  29
ENDBRANCH  27  28
ENDBRANCH  26  27
ENDBRANCH  25  26
ENDBRANCH  24  25
ENDBRANCH  23  24
ENDBRANCH  22  23
ENDBRANCH  21  22
ENDBRANCH  20  21
ENDBRANCH  19  20
ENDBRANCH  18  19
ENDBRANCH   1  18
TORSDOF 28
ENDMDL
MODEL 4
REMARK VINA RESULT:    -2.387      2.896      5.613
REMARK INTER + INTRA:          -8.564
REMARK INTER:                  -7.009
REMARK INTRA:                  -1.555
REMARK UNBOUND:                -2.269
REMARK SMILES CCCCCCCCCCCCCCCCCCCCCCCCCCCCCC(=O)[O-]
REMARK SMILES IDX 16 1 17 2 18 3 19 4 20 5 21 6 22 7 23 8 24 9 25 10 26 11
REMARK SMILES IDX 27 12 28 13 29 14 30 15 31 16 32 17 15 18 14 19 13 20 12 21
REMARK SMILES IDX 11 22 10 23 9 24 8 25 7 26 6 27 5 28 4 29 3 30 2 31 1 32
REMARK H PARENT
REMARK Flexibility Score: inf
ROOT
ATOM      1  C   UNL     1       0.097   4.973 -41.277  1.00  0.00     0.000 C 
ENDROOT
BRANCH   1   2
ATOM      2  C   UNL     1       1.636   5.072 -41.256  1.00  0.00     0.000 C 
BRANCH   2   3
ATOM      3  C   UNL     1       2.220   6.226 -42.091  1.00  0.00     0.000 C 
BRANCH   3   4
ATOM      4  C   UNL     1       1.141   7.015 -42.847  1.00  0.00     0.000 C 
BRANCH   4   5
ATOM      5  C   UNL     1       0.822   8.334 -42.128  1.00  0.00     0.000 C 
BRANCH   5   6
ATOM      6  C   UNL     1       1.604   9.535 -42.690  1.00  0.00     0.000 C 
BRANCH   6   7
ATOM      7  C   UNL     1       2.377  10.365 -41.647  1.00  0.00     0.000 C 
BRANCH   7   8
ATOM      8  C   UNL     1       2.716  11.783 -42.135  1.00  0.00     0.000 C 
BRANCH   8   9
ATOM      9  C   UNL     1       2.942  12.768 -40.976  1.00  0.00     0.000 C 
BRANCH   9  10
ATOM     10  C   UNL     1       1.651  13.125 -40.208  1.00  0.00     0.000 C 
BRANCH  10  11
ATOM     11  C   UNL     1       1.713  12.696 -38.732  1.00  0.00     0.000 C 
BRANCH  11  12
ATOM     12  C   UNL     1       0.989  11.354 -38.484  1.00  0.00     0.000 C 
BRANCH  12  13
ATOM     13  C   UNL     1      -0.420  11.509 -37.884  1.00  0.00     0.006 C 
BRANCH  13  14
ATOM     14  C   UNL     1      -0.466  12.497 -36.713  1.00  0.00     0.053 C 
BRANCH  14  15
ATOM     15  C   UNL     1      -1.584  13.476 -36.895  1.00  0.00     0.041 C 
ATOM     16  O   UNL     1      -1.624  14.207 -37.919  1.00  0.00    -0.550 OA
ATOM     17  O   UNL     1      -2.567  13.598 -35.920  1.00  0.00    -0.550 OA
ENDBRANCH  14  15
ENDBRANCH  13  14
ENDBRANCH  12  13
ENDBRANCH  11  12
ENDBRANCH  10  11
ENDBRANCH   9  10
ENDBRANCH   8   9
ENDBRANCH   7   8
ENDBRANCH   6   7
ENDBRANCH   5   6
ENDBRANCH   4   5
ENDBRANCH   3   4
ENDBRANCH   2   3
ENDBRANCH   1   2
BRANCH   1  18
ATOM     18  C   UNL     1      -0.615   5.574 -40.050  1.00  0.00     0.000 C 
BRANCH  18  19
ATOM     19  C   UNL     1      -0.980   7.067 -40.164  1.00  0.00     0.000 C 
BRANCH  19  20
ATOM     20  C   UNL     1      -0.910   7.844 -38.829  1.00  0.00     0.000 C 
BRANCH  20  21
ATOM     21  C   UNL     1      -1.811   9.096 -38.743  1.00  0.00     0.000 C 
BRANCH  21  22
ATOM     22  C   UNL     1      -3.313   8.851 -38.991  1.00  0.00     0.000 C 
BRANCH  22  23
ATOM     23  C   UNL     1      -3.881   9.692 -40.144  1.00  0.00     0.000 C 
BRANCH  23  24
ATOM     24  C   UNL     1      -5.415   9.689 -40.116  1.00  0.00    -0.000 C 
BRANCH  24  25
ATOM     25  C   UNL     1      -5.946   9.081 -38.809  1.00  0.00    -0.000 C 
BRANCH  25  26
ATOM     26  C   UNL     1      -7.481   9.080 -38.737  1.00  0.00    -0.000 C 
BRANCH  26  27
ATOM     27  C   UNL     1      -8.084   7.683 -38.963  1.00  0.00    -0.000 C 
BRANCH  27  28
ATOM     28  C   UNL     1      -7.159   6.767 -39.783  1.00  0.00    -0.000 C 
BRANCH  28  29
ATOM     29  C   UNL     1      -7.599   6.639 -41.252  1.00  0.00    -0.000 C 
BRANCH  29  30
ATOM     30  C   UNL     1      -8.048   5.212 -41.619  1.00  0.00    -0.000 C 
BRANCH  30  31
ATOM     31  C   UNL     1      -8.687   4.413 -40.469  1.00  0.00    -0.003 C 
ATOM     32  C   UNL     1      -9.579   3.273 -40.956  1.00  0.00     0.004 C 
ENDBRANCH  30  31
ENDBRANCH  29  30
ENDBRANCH  28  29
ENDBRANCH  27  28
ENDBRANCH  26  27
ENDBRANCH  25  26
ENDBRANCH  24  25
ENDBRANCH  23  24
ENDBRANCH  22  23
ENDBRANCH  21  22
ENDBRANCH  20  21
ENDBRANCH  19  20
ENDBRANCH  18  19
ENDBRANCH   1  18
TORSDOF 28
ENDMDL
MODEL 5
REMARK VINA RESULT:    -2.354      0.772      2.228
REMARK INTER + INTRA:          -8.475
REMARK INTER:                  -6.546
REMARK INTRA:                  -1.929
REMARK UNBOUND:                -2.269
REMARK SMILES CCCCCCCCCCCCCCCCCCCCCCCCCCCCCC(=O)[O-]
REMARK SMILES IDX 16 1 17 2 18 3 19 4 20 5 21 6 22 7 23 8 24 9 25 10 26 11
REMARK SMILES IDX 27 12 28 13 29 14 30 15 31 16 32 17 15 18 14 19 13 20 12 21
REMARK SMILES IDX 11 22 10 23 9 24 8 25 7 26 6 27 5 28 4 29 3 30 2 31 1 32
REMARK H PARENT
REMARK Flexibility Score: inf
ROOT
ATOM      1  C   UNL     1      -1.684  10.496 -38.000  1.00  0.00     0.000 C 
ENDROOT
BRANCH   1   2
ATOM      2  C   UNL     1      -2.351  10.719 -36.627  1.00  0.00     0.000 C 
BRANCH   2   3
ATOM      3  C   UNL     1      -2.203  12.142 -36.062  1.00  0.00     0.000 C 
BRANCH   3   4
ATOM      4  C   UNL     1      -0.822  12.752 -36.342  1.00  0.00     0.000 C 
BRANCH   4   5
ATOM      5  C   UNL     1      -0.842  13.586 -37.631  1.00  0.00     0.000 C 
BRANCH   5   6
ATOM      6  C   UNL     1       0.373  13.326 -38.540  1.00  0.00     0.000 C 
BRANCH   6   7
ATOM      7  C   UNL     1       1.204  12.077 -38.189  1.00  0.00     0.000 C 
BRANCH   7   8
ATOM      8  C   UNL     1       1.586  11.241 -39.421  1.00  0.00     0.000 C 
BRANCH   8   9
ATOM      9  C   UNL     1       2.172  12.096 -40.557  1.00  0.00     0.000 C 
BRANCH   9  10
ATOM     10  C   UNL     1       2.756  11.264 -41.718  1.00  0.00     0.000 C 
BRANCH  10  11
ATOM     11  C   UNL     1       1.696  10.371 -42.387  1.00  0.00     0.000 C 
BRANCH  11  12
ATOM     12  C   UNL     1       1.863   8.883 -42.006  1.00  0.00     0.000 C 
BRANCH  12  13
ATOM     13  C   UNL     1       0.538   8.105 -41.944  1.00  0.00     0.006 C 
BRANCH  13  14
ATOM     14  C   UNL     1       0.619   6.729 -42.615  1.00  0.00     0.053 C 
BRANCH  14  15
ATOM     15  C   UNL     1       0.994   5.678 -41.617  1.00  0.00     0.041 C 
ATOM     16  O   UNL     1       2.202   5.360 -41.457  1.00  0.00    -0.550 OA
ATOM     17  O   UNL     1       0.007   5.033 -40.882  1.00  0.00    -0.550 OA
ENDBRANCH  14  15
ENDBRANCH  13  14
ENDBRANCH  12  13
ENDBRANCH  11  12
ENDBRANCH  10  11
ENDBRANCH   9  10
ENDBRANCH   8   9
ENDBRANCH   7   8
ENDBRANCH   6   7
ENDBRANCH   5   6
ENDBRANCH   4   5
ENDBRANCH   3   4
ENDBRANCH   2   3
ENDBRANCH   1   2
BRANCH   1  18
ATOM     18  C   UNL     1      -1.242   9.049 -38.289  1.00  0.00     0.000 C 
BRANCH  18  19
ATOM     19  C   UNL     1      -2.056   8.314 -39.372  1.00  0.00     0.000 C 
BRANCH  19  20
ATOM     20  C   UNL     1      -2.952   9.235 -40.232  1.00  0.00     0.000 C 
BRANCH  20  21
ATOM     21  C   UNL     1      -4.340   9.554 -39.635  1.00  0.00     0.000 C 
BRANCH  21  22
ATOM     22  C   UNL     1      -4.930   8.472 -38.710  1.00  0.00     0.000 C 
BRANCH  22  23
ATOM     23  C   UNL     1      -5.339   9.011 -37.332  1.00  0.00     0.000 C 
BRANCH  23  24
ATOM     24  C   UNL     1      -6.866   9.056 -37.195  1.00  0.00    -0.000 C 
BRANCH  24  25
ATOM     25  C   UNL     1      -7.543   9.199 -38.566  1.00  0.00    -0.000 C 
BRANCH  25  26
ATOM     26  C   UNL     1      -8.313   7.935 -38.982  1.00  0.00    -0.000 C 
BRANCH  26  27
ATOM     27  C   UNL     1      -7.392   6.841 -39.551  1.00  0.00    -0.000 C 
BRANCH  27  28
ATOM     28  C   UNL     1      -7.417   6.791 -41.089  1.00  0.00    -0.000 C 
BRANCH  28  29
ATOM     29  C   UNL     1      -8.091   5.518 -41.631  1.00  0.00    -0.000 C 
BRANCH  29  30
ATOM     30  C   UNL     1      -8.218   4.410 -40.569  1.00  0.00    -0.000 C 
BRANCH  30  31
ATOM     31  C   UNL     1      -9.601   3.738 -40.490  1.00  0.00    -0.003 C 
ATOM     32  C   UNL     1      -9.749   2.561 -41.453  1.00  0.00     0.004 C 
ENDBRANCH  30  31
ENDBRANCH  29  30
ENDBRANCH  28  29
ENDBRANCH  27  28
ENDBRANCH  26  27
ENDBRANCH  25  26
ENDBRANCH  24  25
ENDBRANCH  23  24
ENDBRANCH  22  23
ENDBRANCH  21  22
ENDBRANCH  20  21
ENDBRANCH  19  20
ENDBRANCH  18  19
ENDBRANCH   1  18
TORSDOF 28
ENDMDL
MODEL 6
REMARK VINA RESULT:    -2.157      3.486      8.663
REMARK INTER + INTRA:          -7.957
REMARK INTER:                  -6.892
REMARK INTRA:                  -1.064
REMARK UNBOUND:                -2.269
REMARK SMILES CCCCCCCCCCCCCCCCCCCCCCCCCCCCCC(=O)[O-]
REMARK SMILES IDX 16 1 17 2 18 3 19 4 20 5 21 6 22 7 23 8 24 9 25 10 26 11
REMARK SMILES IDX 27 12 28 13 29 14 30 15 31 16 32 17 15 18 14 19 13 20 12 21
REMARK SMILES IDX 11 22 10 23 9 24 8 25 7 26 6 27 5 28 4 29 3 30 2 31 1 32
REMARK H PARENT
REMARK Flexibility Score: inf
ROOT
ATOM      1  C   UNL     1      -2.922  10.479 -36.861  1.00  0.00     0.000 C 
ENDROOT
BRANCH   1   2
ATOM      2  C   UNL     1      -4.089   9.477 -36.742  1.00  0.00     0.000 C 
BRANCH   2   3
ATOM      3  C   UNL     1      -4.394   8.686 -38.027  1.00  0.00     0.000 C 
BRANCH   3   4
ATOM      4  C   UNL     1      -3.763   9.318 -39.276  1.00  0.00     0.000 C 
BRANCH   4   5
ATOM      5  C   UNL     1      -4.833   9.986 -40.152  1.00  0.00     0.000 C 
BRANCH   5   6
ATOM      6  C   UNL     1      -6.178   9.237 -40.142  1.00  0.00     0.000 C 
BRANCH   6   7
ATOM      7  C   UNL     1      -7.421  10.118 -39.913  1.00  0.00     0.000 C 
BRANCH   7   8
ATOM      8  C   UNL     1      -7.793  10.262 -38.428  1.00  0.00     0.000 C 
BRANCH   8   9
ATOM      9  C   UNL     1      -7.819   8.912 -37.692  1.00  0.00     0.000 C 
BRANCH   9  10
ATOM     10  C   UNL     1      -9.186   8.198 -37.763  1.00  0.00     0.000 C 
BRANCH  10  11
ATOM     11  C   UNL     1      -9.154   6.965 -38.684  1.00  0.00     0.000 C 
BRANCH  11  12
ATOM     12  C   UNL     1      -7.763   6.750 -39.320  1.00  0.00     0.000 C 
BRANCH  12  13
ATOM     13  C   UNL     1      -7.513   5.309 -39.796  1.00  0.00     0.006 C 
BRANCH  13  14
ATOM     14  C   UNL     1      -8.334   4.937 -41.035  1.00  0.00     0.053 C 
BRANCH  14  15
ATOM     15  C   UNL     1      -9.266   3.807 -40.729  1.00  0.00     0.041 C 
ATOM     16  O   UNL     1      -9.414   2.867 -41.555  1.00  0.00    -0.550 OA
ATOM     17  O   UNL     1      -9.991   3.803 -39.544  1.00  0.00    -0.550 OA
ENDBRANCH  14  15
ENDBRANCH  13  14
ENDBRANCH  12  13
ENDBRANCH  11  12
ENDBRANCH  10  11
ENDBRANCH   9  10
ENDBRANCH   8   9
ENDBRANCH   7   8
ENDBRANCH   6   7
ENDBRANCH   5   6
ENDBRANCH   4   5
ENDBRANCH   3   4
ENDBRANCH   2   3
ENDBRANCH   1   2
BRANCH   1  18
ATOM     18  C   UNL     1      -2.667  11.341 -35.611  1.00  0.00     0.000 C 
BRANCH  18  19
ATOM     19  C   UNL     1      -2.442  12.842 -35.878  1.00  0.00     0.000 C 
BRANCH  19  20
ATOM     20  C   UNL     1      -0.994  13.210 -36.276  1.00  0.00     0.000 C 
BRANCH  20  21
ATOM     21  C   UNL     1      -0.621  12.933 -37.749  1.00  0.00     0.000 C 
BRANCH  21  22
ATOM     22  C   UNL     1       0.815  12.425 -37.986  1.00  0.00     0.000 C 
BRANCH  22  23
ATOM     23  C   UNL     1       0.887  10.915 -38.257  1.00  0.00     0.000 C 
BRANCH  23  24
ATOM     24  C   UNL     1      -0.520  10.309 -38.337  1.00  0.00    -0.000 C 
BRANCH  24  25
ATOM     25  C   UNL     1      -0.458   8.784 -38.515  1.00  0.00    -0.000 C 
BRANCH  25  26
ATOM     26  C   UNL     1      -1.193   8.304 -39.777  1.00  0.00    -0.000 C 
BRANCH  26  27
ATOM     27  C   UNL     1      -0.582   7.020 -40.366  1.00  0.00    -0.000 C 
BRANCH  27  28
ATOM     28  C   UNL     1       0.296   7.297 -41.599  1.00  0.00    -0.000 C 
BRANCH  28  29
ATOM     29  C   UNL     1       0.755   6.008 -42.303  1.00  0.00    -0.000 C 
BRANCH  29  30
ATOM     30  C   UNL     1       2.282   5.942 -42.495  1.00  0.00    -0.000 C 
BRANCH  30  31
ATOM     31  C   UNL     1       3.059   5.311 -41.326  1.00  0.00    -0.003 C 
ATOM     32  C   UNL     1       4.532   5.067 -41.650  1.00  0.00     0.004 C 
ENDBRANCH  30  31
ENDBRANCH  29  30
ENDBRANCH  28  29
ENDBRANCH  27  28
ENDBRANCH  26  27
ENDBRANCH  25  26
ENDBRANCH  24  25
ENDBRANCH  23  24
ENDBRANCH  22  23
ENDBRANCH  21  22
ENDBRANCH  20  21
ENDBRANCH  19  20
ENDBRANCH  18  19
ENDBRANCH   1  18
TORSDOF 28
ENDMDL
MODEL 7
REMARK VINA RESULT:    -1.919     14.363     16.590
REMARK INTER + INTRA:          -7.329
REMARK INTER:                  -5.383
REMARK INTRA:                  -1.946
REMARK UNBOUND:                -2.269
REMARK SMILES CCCCCCCCCCCCCCCCCCCCCCCCCCCCCC(=O)[O-]
REMARK SMILES IDX 16 1 17 2 18 3 19 4 20 5 21 6 22 7 23 8 24 9 25 10 26 11
REMARK SMILES IDX 27 12 28 13 29 14 30 15 31 16 32 17 15 18 14 19 13 20 12 21
REMARK SMILES IDX 11 22 10 23 9 24 8 25 7 26 6 27 5 28 4 29 3 30 2 31 1 32
REMARK H PARENT
REMARK Flexibility Score: inf
ROOT
ATOM      1  C   UNL     1      -8.417   3.371 -25.743  1.00  0.00     0.000 C 
ENDROOT
BRANCH   1   2
ATOM      2  C   UNL     1      -7.147   2.888 -26.472  1.00  0.00     0.000 C 
BRANCH   2   3
ATOM      3  C   UNL     1      -7.408   2.026 -27.720  1.00  0.00     0.000 C 
BRANCH   3   4
ATOM      4  C   UNL     1      -6.181   1.924 -28.639  1.00  0.00     0.000 C 
BRANCH   4   5
ATOM      5  C   UNL     1      -5.045   2.826 -28.136  1.00  0.00     0.000 C 
BRANCH   5   6
ATOM      6  C   UNL     1      -3.726   2.066 -27.902  1.00  0.00     0.000 C 
BRANCH   6   7
ATOM      7  C   UNL     1      -3.328   1.875 -26.425  1.00  0.00     0.000 C 
BRANCH   7   8
ATOM      8  C   UNL     1      -1.834   2.127 -26.167  1.00  0.00     0.000 C 
BRANCH   8   9
ATOM      9  C   UNL     1      -1.070   2.516 -27.444  1.00  0.00     0.000 C 
BRANCH   9  10
ATOM     10  C   UNL     1       0.374   1.973 -27.488  1.00  0.00     0.000 C 
BRANCH  10  11
ATOM     11  C   UNL     1       1.275   2.621 -26.421  1.00  0.00     0.000 C 
BRANCH  11  12
ATOM     12  C   UNL     1       2.721   2.081 -26.475  1.00  0.00     0.000 C 
BRANCH  12  13
ATOM     13  C   UNL     1       3.491   2.236 -25.152  1.00  0.00     0.006 C 
BRANCH  13  14
ATOM     14  C   UNL     1       4.965   2.600 -25.357  1.00  0.00     0.053 C 
BRANCH  14  15
ATOM     15  C   UNL     1       5.348   3.754 -24.483  1.00  0.00     0.041 C 
ATOM     16  O   UNL     1       6.112   3.576 -23.498  1.00  0.00    -0.550 OA
ATOM     17  O   UNL     1       4.842   5.022 -24.743  1.00  0.00    -0.550 OA
ENDBRANCH  14  15
ENDBRANCH  13  14
ENDBRANCH  12  13
ENDBRANCH  11  12
ENDBRANCH  10  11
ENDBRANCH   9  10
ENDBRANCH   8   9
ENDBRANCH   7   8
ENDBRANCH   6   7
ENDBRANCH   5   6
ENDBRANCH   4   5
ENDBRANCH   3   4
ENDBRANCH   2   3
ENDBRANCH   1   2
BRANCH   1  18
ATOM     18  C   UNL     1      -8.666   2.730 -24.364  1.00  0.00     0.000 C 
BRANCH  18  19
ATOM     19  C   UNL     1      -9.987   1.948 -24.229  1.00  0.00     0.000 C 
BRANCH  19  20
ATOM     20  C   UNL     1     -10.811   2.301 -22.969  1.00  0.00     0.000 C 
BRANCH  20  21
ATOM     21  C   UNL     1     -12.281   2.698 -23.228  1.00  0.00     0.000 C 
BRANCH  21  22
ATOM     22  C   UNL     1     -12.488   3.915 -24.151  1.00  0.00     0.000 C 
BRANCH  22  23
ATOM     23  C   UNL     1     -12.184   3.615 -25.626  1.00  0.00     0.000 C 
BRANCH  23  24
ATOM     24  C   UNL     1     -12.958   2.379 -26.102  1.00  0.00    -0.000 C 
BRANCH  24  25
ATOM     25  C   UNL     1     -14.080   2.767 -27.076  1.00  0.00    -0.000 C 
BRANCH  25  26
ATOM     26  C   UNL     1     -13.587   2.896 -28.527  1.00  0.00    -0.000 C 
BRANCH  26  27
ATOM     27  C   UNL     1     -13.558   4.355 -29.014  1.00  0.00    -0.000 C 
BRANCH  27  28
ATOM     28  C   UNL     1     -13.970   5.352 -27.917  1.00  0.00    -0.000 C 
BRANCH  28  29
ATOM     29  C   UNL     1     -12.941   6.480 -27.722  1.00  0.00    -0.000 C 
BRANCH  29  30
ATOM     30  C   UNL     1     -11.508   6.053 -28.090  1.00  0.00    -0.000 C 
BRANCH  30  31
ATOM     31  C   UNL     1     -10.513   6.030 -26.916  1.00  0.00    -0.003 C 
ATOM     32  C   UNL     1     -10.648   7.241 -25.994  1.00  0.00     0.004 C 
ENDBRANCH  30  31
ENDBRANCH  29  30
ENDBRANCH  28  29
ENDBRANCH  27  28
ENDBRANCH  26  27
ENDBRANCH  25  26
ENDBRANCH  24  25
ENDBRANCH  23  24
ENDBRANCH  22  23
ENDBRANCH  21  22
ENDBRANCH  20  21
ENDBRANCH  19  20
ENDBRANCH  18  19
ENDBRANCH   1  18
TORSDOF 28
ENDMDL
MODEL 8
REMARK VINA RESULT:    -1.753     14.056     16.020
REMARK INTER + INTRA:          -6.891
REMARK INTER:                  -5.350
REMARK INTRA:                  -1.541
REMARK UNBOUND:                -2.269
REMARK SMILES CCCCCCCCCCCCCCCCCCCCCCCCCCCCCC(=O)[O-]
REMARK SMILES IDX 16 1 17 2 18 3 19 4 20 5 21 6 22 7 23 8 24 9 25 10 26 11
REMARK SMILES IDX 27 12 28 13 29 14 30 15 31 16 32 17 15 18 14 19 13 20 12 21
REMARK SMILES IDX 11 22 10 23 9 24 8 25 7 26 6 27 5 28 4 29 3 30 2 31 1 32
REMARK H PARENT
REMARK Flexibility Score: inf
ROOT
ATOM      1  C   UNL     1      -6.694   2.435 -26.526  1.00  0.00     0.000 C 
ENDROOT
BRANCH   1   2
ATOM      2  C   UNL     1      -5.787   2.014 -27.701  1.00  0.00     0.000 C 
BRANCH   2   3
ATOM      3  C   UNL     1      -5.377   3.161 -28.642  1.00  0.00     0.000 C 
BRANCH   3   4
ATOM      4  C   UNL     1      -3.944   3.008 -29.174  1.00  0.00     0.000 C 
BRANCH   4   5
ATOM      5  C   UNL     1      -3.205   1.879 -28.439  1.00  0.00     0.000 C 
BRANCH   5   6
ATOM      6  C   UNL     1      -1.690   2.126 -28.318  1.00  0.00     0.000 C 
BRANCH   6   7
ATOM      7  C   UNL     1      -1.221   2.698 -26.967  1.00  0.00     0.000 C 
BRANCH   7   8
ATOM      8  C   UNL     1      -0.073   1.892 -26.336  1.00  0.00     0.000 C 
BRANCH   8   9
ATOM      9  C   UNL     1       1.295   2.237 -26.948  1.00  0.00     0.000 C 
BRANCH   9  10
ATOM     10  C   UNL     1       2.325   2.737 -25.913  1.00  0.00     0.000 C 
BRANCH  10  11
ATOM     11  C   UNL     1       3.628   1.919 -25.942  1.00  0.00     0.000 C 
BRANCH  11  12
ATOM     12  C   UNL     1       4.840   2.770 -26.381  1.00  0.00     0.000 C 
BRANCH  12  13
ATOM     13  C   UNL     1       5.720   3.246 -25.212  1.00  0.00     0.006 C 
BRANCH  13  14
ATOM     14  C   UNL     1       5.699   4.767 -25.029  1.00  0.00     0.053 C 
BRANCH  14  15
ATOM     15  C   UNL     1       5.404   5.121 -23.604  1.00  0.00     0.041 C 
ATOM     16  O   UNL     1       4.747   4.329 -22.878  1.00  0.00    -0.550 OA
ATOM     17  O   UNL     1       5.834   6.337 -23.086  1.00  0.00    -0.550 OA
ENDBRANCH  14  15
ENDBRANCH  13  14
ENDBRANCH  12  13
ENDBRANCH  11  12
ENDBRANCH  10  11
ENDBRANCH   9  10
ENDBRANCH   8   9
ENDBRANCH   7   8
ENDBRANCH   6   7
ENDBRANCH   5   6
ENDBRANCH   4   5
ENDBRANCH   3   4
ENDBRANCH   2   3
ENDBRANCH   1   2
BRANCH   1  18
ATOM     18  C   UNL     1      -6.027   2.401 -25.138  1.00  0.00     0.000 C 
BRANCH  18  19
ATOM     19  C   UNL     1      -6.971   2.652 -23.946  1.00  0.00     0.000 C 
BRANCH  19  20
ATOM     20  C   UNL     1      -7.434   4.120 -23.797  1.00  0.00     0.000 C 
BRANCH  20  21
ATOM     21  C   UNL     1      -8.963   4.329 -23.735  1.00  0.00     0.000 C 
BRANCH  21  22
ATOM     22  C   UNL     1      -9.466   5.703 -24.219  1.00  0.00     0.000 C 
BRANCH  22  23
ATOM     23  C   UNL     1     -10.817   6.103 -23.608  1.00  0.00     0.000 C 
BRANCH  23  24
ATOM     24  C   UNL     1     -11.828   6.461 -24.705  1.00  0.00    -0.000 C 
BRANCH  24  25
ATOM     25  C   UNL     1     -11.391   7.717 -25.474  1.00  0.00    -0.000 C 
BRANCH  25  26
ATOM     26  C   UNL     1     -11.394   7.510 -26.997  1.00  0.00    -0.000 C 
BRANCH  26  27
ATOM     27  C   UNL     1     -12.613   6.706 -27.484  1.00  0.00    -0.000 C 
BRANCH  27  28
ATOM     28  C   UNL     1     -12.219   5.346 -28.085  1.00  0.00    -0.000 C 
BRANCH  28  29
ATOM     29  C   UNL     1     -13.430   4.421 -28.305  1.00  0.00    -0.000 C 
BRANCH  29  30
ATOM     30  C   UNL     1     -13.117   2.944 -28.004  1.00  0.00    -0.000 C 
BRANCH  30  31
ATOM     31  C   UNL     1     -13.747   1.933 -28.978  1.00  0.00    -0.003 C 
ATOM     32  C   UNL     1     -13.279   2.122 -30.421  1.00  0.00     0.004 C 
ENDBRANCH  30  31
ENDBRANCH  29  30
ENDBRANCH  28  29
ENDBRANCH  27  28
ENDBRANCH  26  27
ENDBRANCH  25  26
ENDBRANCH  24  25
ENDBRANCH  23  24
ENDBRANCH  22  23
ENDBRANCH  21  22
ENDBRANCH  20  21
ENDBRANCH  19  20
ENDBRANCH  18  19
ENDBRANCH   1  18
TORSDOF 28
ENDMDL
MODEL 9
REMARK VINA RESULT:    -1.682     14.585     16.669
REMARK INTER + INTRA:          -6.705
REMARK INTER:                  -5.049
REMARK INTRA:                  -1.656
REMARK UNBOUND:                -2.269
REMARK SMILES CCCCCCCCCCCCCCCCCCCCCCCCCCCCCC(=O)[O-]
REMARK SMILES IDX 16 1 17 2 18 3 19 4 20 5 21 6 22 7 23 8 24 9 25 10 26 11
REMARK SMILES IDX 27 12 28 13 29 14 30 15 31 16 32 17 15 18 14 19 13 20 12 21
REMARK SMILES IDX 11 22 10 23 9 24 8 25 7 26 6 27 5 28 4 29 3 30 2 31 1 32
REMARK H PARENT
REMARK Flexibility Score: inf
ROOT
ATOM      1  C   UNL     1      -6.767   2.532 -26.589  1.00  0.00     0.000 C 
ENDROOT
BRANCH   1   2
ATOM      2  C   UNL     1      -5.805   2.079 -27.706  1.00  0.00     0.000 C 
BRANCH   2   3
ATOM      3  C   UNL     1      -5.228   3.221 -28.563  1.00  0.00     0.000 C 
BRANCH   3   4
ATOM      4  C   UNL     1      -3.776   2.965 -28.993  1.00  0.00     0.000 C 
BRANCH   4   5
ATOM      5  C   UNL     1      -3.131   1.875 -28.123  1.00  0.00     0.000 C 
BRANCH   5   6
ATOM      6  C   UNL     1      -1.605   2.031 -27.990  1.00  0.00     0.000 C 
BRANCH   6   7
ATOM      7  C   UNL     1      -1.128   2.819 -26.754  1.00  0.00     0.000 C 
BRANCH   7   8
ATOM      8  C   UNL     1       0.092   2.182 -26.068  1.00  0.00     0.000 C 
BRANCH   8   9
ATOM      9  C   UNL     1       1.373   2.306 -26.908  1.00  0.00     0.000 C 
BRANCH   9  10
ATOM     10  C   UNL     1       2.541   2.981 -26.157  1.00  0.00     0.000 C 
BRANCH  10  11
ATOM     11  C   UNL     1       2.544   2.642 -24.656  1.00  0.00     0.000 C 
BRANCH  11  12
ATOM     12  C   UNL     1       3.832   1.903 -24.229  1.00  0.00     0.000 C 
BRANCH  12  13
ATOM     13  C   UNL     1       4.949   2.837 -23.735  1.00  0.00     0.006 C 
BRANCH  13  14
ATOM     14  C   UNL     1       5.470   3.777 -24.827  1.00  0.00     0.053 C 
BRANCH  14  15
ATOM     15  C   UNL     1       5.651   5.162 -24.288  1.00  0.00     0.041 C 
ATOM     16  O   UNL     1       5.722   6.143 -25.075  1.00  0.00    -0.550 OA
ATOM     17  O   UNL     1       5.765   5.366 -22.918  1.00  0.00    -0.550 OA
ENDBRANCH  14  15
ENDBRANCH  13  14
ENDBRANCH  12  13
ENDBRANCH  11  12
ENDBRANCH  10  11
ENDBRANCH   9  10
ENDBRANCH   8   9
ENDBRANCH   7   8
ENDBRANCH   6   7
ENDBRANCH   5   6
ENDBRANCH   4   5
ENDBRANCH   3   4
ENDBRANCH   2   3
ENDBRANCH   1   2
BRANCH   1  18
ATOM     18  C   UNL     1      -6.176   2.510 -25.166  1.00  0.00     0.000 C 
BRANCH  18  19
ATOM     19  C   UNL     1      -7.082   1.888 -24.085  1.00  0.00     0.000 C 
BRANCH  19  20
ATOM     20  C   UNL     1      -8.062   2.884 -23.423  1.00  0.00     0.000 C 
BRANCH  20  21
ATOM     21  C   UNL     1      -9.557   2.638 -23.720  1.00  0.00     0.000 C 
BRANCH  21  22
ATOM     22  C   UNL     1     -10.484   3.853 -23.514  1.00  0.00     0.000 C 
BRANCH  22  23
ATOM     23  C   UNL     1     -11.910   3.463 -23.101  1.00  0.00     0.000 C 
BRANCH  23  24
ATOM     24  C   UNL     1     -12.947   4.214 -23.946  1.00  0.00    -0.000 C 
BRANCH  24  25
ATOM     25  C   UNL     1     -13.050   5.686 -23.520  1.00  0.00    -0.000 C 
BRANCH  25  26
ATOM     26  C   UNL     1     -13.221   6.638 -24.715  1.00  0.00    -0.000 C 
BRANCH  26  27
ATOM     27  C   UNL     1     -14.124   6.051 -25.814  1.00  0.00    -0.000 C 
BRANCH  27  28
ATOM     28  C   UNL     1     -13.411   5.956 -27.174  1.00  0.00    -0.000 C 
BRANCH  28  29
ATOM     29  C   UNL     1     -12.123   5.116 -27.112  1.00  0.00    -0.000 C 
BRANCH  29  30
ATOM     30  C   UNL     1     -11.008   5.661 -28.024  1.00  0.00    -0.000 C 
BRANCH  30  31
ATOM     31  C   UNL     1      -9.727   6.104 -27.295  1.00  0.00    -0.003 C 
ATOM     32  C   UNL     1      -9.498   5.355 -25.983  1.00  0.00     0.004 C 
ENDBRANCH  30  31
ENDBRANCH  29  30
ENDBRANCH  28  29
ENDBRANCH  27  28
ENDBRANCH  26  27
ENDBRANCH  25  26
ENDBRANCH  24  25
ENDBRANCH  23  24
ENDBRANCH  22  23
ENDBRANCH  21  22
ENDBRANCH  20  21
ENDBRANCH  19  20
ENDBRANCH  18  19
ENDBRANCH   1  18
TORSDOF 28
ENDMDL
