MODEL 1
REMARK VINA RESULT:    -3.327      0.000      0.000
REMARK INTER + INTRA:          -7.706
REMARK INTER:                  -5.856
REMARK INTRA:                  -1.850
REMARK UNBOUND:                -1.850
REMARK SMILES CCCCCCC=CCCCCCCCC(=O)[O-]
REMARK SMILES IDX 10 1 11 2 12 3 13 4 14 5 15 6 16 7 17 8 18 9 9 10 8 11 7 12
REMARK SMILES IDX 6 13 5 14 4 15 3 16 2 17 1 18
REMARK H PARENT
REMARK Flexibility Score: inf
ROOT
ATOM      1  C   UNL     1      -9.249  15.772 -12.960  1.00  0.00     0.004 C 
ENDROOT
BRANCH   1   2
ATOM      2  C   UNL     1      -8.917  17.118 -13.626  1.00  0.00     0.000 C 
BRANCH   2   3
ATOM      3  C   UNL     1      -8.574  16.980 -15.120  1.00  0.00     0.000 C 
BRANCH   3   4
ATOM      4  C   UNL     1      -7.342  17.779 -15.583  1.00  0.00     0.000 C 
BRANCH   4   5
ATOM      5  C   UNL     1      -6.324  18.016 -14.456  1.00  0.00     0.006 C 
BRANCH   5   6
ATOM      6  C   UNL     1      -5.893  19.486 -14.364  1.00  0.00     0.053 C 
BRANCH   6   7
ATOM      7  C   UNL     1      -6.786  20.270 -13.451  1.00  0.00     0.041 C 
ATOM      8  O   UNL     1      -6.351  20.691 -12.345  1.00  0.00    -0.550 OA
ATOM      9  O   UNL     1      -8.105  20.514 -13.809  1.00  0.00    -0.550 OA
ENDBRANCH   6   7
ENDBRANCH   5   6
ENDBRANCH   4   5
ENDBRANCH   3   4
ENDBRANCH   2   3
ENDBRANCH   1   2
BRANCH   1  10
ATOM     10  C   UNL     1      -8.120  15.293 -12.035  1.00  0.00     0.027 C 
BRANCH  10  11
ATOM     11  C   UNL     1      -7.746  13.854 -12.291  1.00  0.00    -0.031 C 
ATOM     12  C   UNL     1      -6.909  13.436 -13.259  1.00  0.00    -0.031 C 
BRANCH  12  13
ATOM     13  C   UNL     1      -6.249  14.328 -14.285  1.00  0.00     0.027 C 
BRANCH  13  14
ATOM     14  C   UNL     1      -6.781  14.041 -15.694  1.00  0.00     0.004 C 
BRANCH  14  15
ATOM     15  C   UNL     1      -6.793  12.536 -16.012  1.00  0.00     0.000 C 
BRANCH  15  16
ATOM     16  C   UNL     1      -8.216  11.968 -16.125  1.00  0.00    -0.000 C 
BRANCH  16  17
ATOM     17  C   UNL     1      -9.297  13.020 -15.833  1.00  0.00    -0.003 C 
ATOM     18  C   UNL     1     -10.691  12.466 -16.111  1.00  0.00     0.004 C 
ENDBRANCH  16  17
ENDBRANCH  15  16
ENDBRANCH  14  15
ENDBRANCH  13  14
ENDBRANCH  12  13
ENDBRANCH  10  11
ENDBRANCH   1  10
TORSDOF 13
ENDMDL
MODEL 2
REMARK VINA RESULT:    -3.136      2.811      6.383
REMARK INTER + INTRA:          -7.370
REMARK INTER:                  -5.652
REMARK INTRA:                  -1.718
REMARK UNBOUND:                -1.850
REMARK SMILES CCCCCCC=CCCCCCCCC(=O)[O-]
REMARK SMILES IDX 10 1 11 2 12 3 13 4 14 5 15 6 16 7 17 8 18 9 9 10 8 11 7 12
REMARK SMILES IDX 6 13 5 14 4 15 3 16 2 17 1 18
REMARK H PARENT
REMARK Flexibility Score: inf
ROOT
ATOM      1  C   UNL     1      -8.570  14.716 -12.935  1.00  0.00     0.004 C 
ENDROOT
BRANCH   1   2
ATOM      2  C   UNL     1      -7.389  13.811 -12.543  1.00  0.00     0.000 C 
BRANCH   2   3
ATOM      3  C   UNL     1      -7.108  12.708 -13.579  1.00  0.00     0.000 C 
BRANCH   3   4
ATOM      4  C   UNL     1      -6.309  13.162 -14.814  1.00  0.00     0.000 C 
BRANCH   4   5
ATOM      5  C   UNL     1      -7.149  13.171 -16.102  1.00  0.00     0.006 C 
BRANCH   5   6
ATOM      6  C   UNL     1      -8.400  12.289 -15.985  1.00  0.00     0.053 C 
BRANCH   6   7
ATOM      7  C   UNL     1      -9.658  13.100 -16.040  1.00  0.00     0.041 C 
ATOM      8  O   UNL     1     -10.782  12.530 -16.035  1.00  0.00    -0.550 OA
ATOM      9  O   UNL     1      -9.590  14.485 -16.125  1.00  0.00    -0.550 OA
ENDBRANCH   6   7
ENDBRANCH   5   6
ENDBRANCH   4   5
ENDBRANCH   3   4
ENDBRANCH   2   3
ENDBRANCH   1   2
BRANCH   1  10
ATOM     10  C   UNL     1      -8.163  16.196 -13.003  1.00  0.00     0.027 C 
BRANCH  10  11
ATOM     11  C   UNL     1      -7.016  16.427 -13.956  1.00  0.00    -0.031 C 
ATOM     12  C   UNL     1      -7.103  17.103 -15.117  1.00  0.00    -0.031 C 
BRANCH  12  13
ATOM     13  C   UNL     1      -8.371  17.692 -15.689  1.00  0.00     0.027 C 
BRANCH  13  14
ATOM     14  C   UNL     1      -8.174  19.161 -16.081  1.00  0.00     0.004 C 
BRANCH  14  15
ATOM     15  C   UNL     1      -6.695  19.580 -16.026  1.00  0.00     0.000 C 
BRANCH  15  16
ATOM     16  C   UNL     1      -6.496  20.959 -15.378  1.00  0.00    -0.000 C 
BRANCH  16  17
ATOM     17  C   UNL     1      -6.033  20.863 -13.917  1.00  0.00    -0.003 C 
ATOM     18  C   UNL     1      -7.220  20.678 -12.976  1.00  0.00     0.004 C 
ENDBRANCH  16  17
ENDBRANCH  15  16
ENDBRANCH  14  15
ENDBRANCH  13  14
ENDBRANCH  12  13
ENDBRANCH  10  11
ENDBRANCH   1  10
TORSDOF 13
ENDMDL
MODEL 3
REMARK VINA RESULT:    -2.307      1.128      1.803
REMARK INTER + INTRA:          -5.910
REMARK INTER:                  -4.620
REMARK INTRA:                  -1.290
REMARK UNBOUND:                -1.850
REMARK SMILES CCCCCCC=CCCCCCCCC(=O)[O-]
REMARK SMILES IDX 10 1 11 2 12 3 13 4 14 5 15 6 16 7 17 8 18 9 9 10 8 11 7 12
REMARK SMILES IDX 6 13 5 14 4 15 3 16 2 17 1 18
REMARK H PARENT
REMARK Flexibility Score: inf
ROOT
ATOM      1  C   UNL     1      -7.784  16.467 -13.793  1.00  0.00     0.004 C 
ENDROOT
BRANCH   1   2
ATOM      2  C   UNL     1      -6.488  16.523 -14.619  1.00  0.00     0.000 C 
BRANCH   2   3
ATOM      3  C   UNL     1      -6.010  17.961 -14.889  1.00  0.00     0.000 C 
BRANCH   3   4
ATOM      4  C   UNL     1      -6.894  18.772 -15.853  1.00  0.00     0.000 C 
BRANCH   4   5
ATOM      5  C   UNL     1      -6.840  20.286 -15.586  1.00  0.00     0.006 C 
BRANCH   5   6
ATOM      6  C   UNL     1      -7.925  20.740 -14.600  1.00  0.00     0.053 C 
BRANCH   6   7
ATOM      7  C   UNL     1      -7.668  20.226 -13.216  1.00  0.00     0.041 C 
ATOM      8  O   UNL     1      -8.518  19.494 -12.642  1.00  0.00    -0.550 OA
ATOM      9  O   UNL     1      -6.501  20.578 -12.550  1.00  0.00    -0.550 OA
ENDBRANCH   6   7
ENDBRANCH   5   6
ENDBRANCH   4   5
ENDBRANCH   3   4
ENDBRANCH   2   3
ENDBRANCH   1   2
BRANCH   1  10
ATOM     10  C   UNL     1      -7.563  15.819 -12.418  1.00  0.00     0.027 C 
BRANCH  10  11
ATOM     11  C   UNL     1      -8.133  14.424 -12.348  1.00  0.00    -0.031 C 
ATOM     12  C   UNL     1      -7.516  13.315 -12.797  1.00  0.00    -0.031 C 
BRANCH  12  13
ATOM     13  C   UNL     1      -6.178  13.287 -13.497  1.00  0.00     0.027 C 
BRANCH  13  14
ATOM     14  C   UNL     1      -6.125  12.176 -14.553  1.00  0.00     0.004 C 
BRANCH  14  15
ATOM     15  C   UNL     1      -6.777  12.608 -15.878  1.00  0.00     0.000 C 
BRANCH  15  16
ATOM     16  C   UNL     1      -8.127  11.918 -16.125  1.00  0.00    -0.000 C 
BRANCH  16  17
ATOM     17  C   UNL     1      -9.319  12.865 -15.931  1.00  0.00    -0.003 C 
ATOM     18  C   UNL     1      -8.896  14.322 -16.094  1.00  0.00     0.004 C 
ENDBRANCH  16  17
ENDBRANCH  15  16
ENDBRANCH  14  15
ENDBRANCH  13  14
ENDBRANCH  12  13
ENDBRANCH  10  11
ENDBRANCH   1  10
TORSDOF 13
ENDMDL
MODEL 4
REMARK VINA RESULT:    -2.122      1.776      2.311
REMARK INTER + INTRA:          -5.584
REMARK INTER:                  -4.930
REMARK INTRA:                  -0.654
REMARK UNBOUND:                -1.850
REMARK SMILES CCCCCCC=CCCCCCCCC(=O)[O-]
REMARK SMILES IDX 10 1 11 2 12 3 13 4 14 5 15 6 16 7 17 8 18 9 9 10 8 11 7 12
REMARK SMILES IDX 6 13 5 14 4 15 3 16 2 17 1 18
REMARK H PARENT
REMARK Flexibility Score: inf
ROOT
ATOM      1  C   UNL     1      -9.292  16.469 -13.077  1.00  0.00     0.004 C 
ENDROOT
BRANCH   1   2
ATOM      2  C   UNL     1      -9.398  17.986 -12.846  1.00  0.00     0.000 C 
BRANCH   2   3
ATOM      3  C   UNL     1      -8.043  18.641 -12.526  1.00  0.00     0.000 C 
BRANCH   3   4
ATOM      4  C   UNL     1      -7.422  19.453 -13.677  1.00  0.00     0.000 C 
BRANCH   4   5
ATOM      5  C   UNL     1      -8.465  19.943 -14.695  1.00  0.00     0.006 C 
BRANCH   5   6
ATOM      6  C   UNL     1      -8.184  19.420 -16.110  1.00  0.00     0.053 C 
BRANCH   6   7
ATOM      7  C   UNL     1      -7.819  17.967 -16.103  1.00  0.00     0.041 C 
ATOM      8  O   UNL     1      -6.609  17.616 -16.125  1.00  0.00    -0.550 OA
ATOM      9  O   UNL     1      -8.816  17.000 -16.100  1.00  0.00    -0.550 OA
ENDBRANCH   6   7
ENDBRANCH   5   6
ENDBRANCH   4   5
ENDBRANCH   3   4
ENDBRANCH   2   3
ENDBRANCH   1   2
BRANCH   1  10
ATOM     10  C   UNL     1      -7.944  15.907 -12.599  1.00  0.00     0.027 C 
BRANCH  10  11
ATOM     11  C   UNL     1      -8.070  14.502 -12.066  1.00  0.00    -0.031 C 
ATOM     12  C   UNL     1      -7.392  13.436 -12.532  1.00  0.00    -0.031 C 
BRANCH  12  13
ATOM     13  C   UNL     1      -6.436  13.457 -13.702  1.00  0.00     0.027 C 
BRANCH  13  14
ATOM     14  C   UNL     1      -6.972  14.330 -14.843  1.00  0.00     0.004 C 
BRANCH  14  15
ATOM     15  C   UNL     1      -7.220  13.517 -16.124  1.00  0.00     0.000 C 
BRANCH  15  16
ATOM     16  C   UNL     1      -8.279  12.421 -15.933  1.00  0.00    -0.000 C 
BRANCH  16  17
ATOM     17  C   UNL     1      -9.689  12.992 -15.719  1.00  0.00    -0.003 C 
ATOM     18  C   UNL     1     -10.758  11.954 -16.047  1.00  0.00     0.004 C 
ENDBRANCH  16  17
ENDBRANCH  15  16
ENDBRANCH  14  15
ENDBRANCH  13  14
ENDBRANCH  12  13
ENDBRANCH  10  11
ENDBRANCH   1  10
TORSDOF 13
ENDMDL
MODEL 5
REMARK VINA RESULT:    -1.872      1.196      3.140
REMARK INTER + INTRA:          -5.144
REMARK INTER:                  -4.446
REMARK INTRA:                  -0.698
REMARK UNBOUND:                -1.850
REMARK SMILES CCCCCCC=CCCCCCCCC(=O)[O-]
REMARK SMILES IDX 10 1 11 2 12 3 13 4 14 5 15 6 16 7 17 8 18 9 9 10 8 11 7 12
REMARK SMILES IDX 6 13 5 14 4 15 3 16 2 17 1 18
REMARK H PARENT
REMARK Flexibility Score: inf
ROOT
ATOM      1  C   UNL     1      -8.755  15.161 -15.215  1.00  0.00     0.004 C 
ENDROOT
BRANCH   1   2
ATOM      2  C   UNL     1      -8.000  16.247 -16.001  1.00  0.00     0.000 C 
BRANCH   2   3
ATOM      3  C   UNL     1      -6.634  16.595 -15.385  1.00  0.00     0.000 C 
BRANCH   3   4
ATOM      4  C   UNL     1      -5.880  17.744 -16.077  1.00  0.00     0.000 C 
BRANCH   4   5
ATOM      5  C   UNL     1      -5.927  19.058 -15.280  1.00  0.00     0.006 C 
BRANCH   5   6
ATOM      6  C   UNL     1      -7.360  19.574 -15.096  1.00  0.00     0.053 C 
BRANCH   6   7
ATOM      7  C   UNL     1      -7.690  19.795 -13.651  1.00  0.00     0.041 C 
ATOM      8  O   UNL     1      -8.814  19.451 -13.198  1.00  0.00    -0.550 OA
ATOM      9  O   UNL     1      -6.766  20.404 -12.812  1.00  0.00    -0.550 OA
ENDBRANCH   6   7
ENDBRANCH   5   6
ENDBRANCH   4   5
ENDBRANCH   3   4
ENDBRANCH   2   3
ENDBRANCH   1   2
BRANCH   1  10
ATOM     10  C   UNL     1      -9.238  14.022 -16.125  1.00  0.00     0.027 C 
BRANCH  10  11
ATOM     11  C   UNL     1      -9.154  12.677 -15.447  1.00  0.00    -0.031 C 
ATOM     12  C   UNL     1      -8.068  12.202 -14.808  1.00  0.00    -0.031 C 
BRANCH  12  13
ATOM     13  C   UNL     1      -6.736  12.909 -14.713  1.00  0.00     0.027 C 
BRANCH  13  14
ATOM     14  C   UNL     1      -6.464  13.390 -13.282  1.00  0.00     0.004 C 
BRANCH  14  15
ATOM     15  C   UNL     1      -7.719  13.310 -12.397  1.00  0.00     0.000 C 
BRANCH  15  16
ATOM     16  C   UNL     1      -7.854  14.514 -11.453  1.00  0.00    -0.000 C 
BRANCH  16  17
ATOM     17  C   UNL     1      -8.114  15.828 -12.204  1.00  0.00    -0.003 C 
ATOM     18  C   UNL     1      -9.609  16.113 -12.310  1.00  0.00     0.004 C 
ENDBRANCH  16  17
ENDBRANCH  15  16
ENDBRANCH  14  15
ENDBRANCH  13  14
ENDBRANCH  12  13
ENDBRANCH  10  11
ENDBRANCH   1  10
TORSDOF 13
ENDMDL
MODEL 6
REMARK VINA RESULT:    -1.774      1.579      2.334
REMARK INTER + INTRA:          -4.973
REMARK INTER:                  -5.321
REMARK INTRA:                   0.348
REMARK UNBOUND:                -1.850
REMARK SMILES CCCCCCC=CCCCCCCCC(=O)[O-]
REMARK SMILES IDX 10 1 11 2 12 3 13 4 14 5 15 6 16 7 17 8 18 9 9 10 8 11 7 12
REMARK SMILES IDX 6 13 5 14 4 15 3 16 2 17 1 18
REMARK H PARENT
REMARK Flexibility Score: inf
ROOT
ATOM      1  C   UNL     1      -9.062  16.352 -12.548  1.00  0.00     0.004 C 
ENDROOT
BRANCH   1   2
ATOM      2  C   UNL     1      -9.265  17.787 -13.063  1.00  0.00     0.000 C 
BRANCH   2   3
ATOM      3  C   UNL     1      -8.257  18.787 -12.469  1.00  0.00     0.000 C 
BRANCH   3   4
ATOM      4  C   UNL     1      -8.141  20.123 -13.224  1.00  0.00     0.000 C 
BRANCH   4   5
ATOM      5  C   UNL     1      -6.826  20.865 -12.932  1.00  0.00     0.006 C 
BRANCH   5   6
ATOM      6  C   UNL     1      -5.924  20.956 -14.170  1.00  0.00     0.053 C 
BRANCH   6   7
ATOM      7  C   UNL     1      -6.612  20.442 -15.398  1.00  0.00     0.041 C 
ATOM      8  O   UNL     1      -7.668  20.992 -15.811  1.00  0.00    -0.550 OA
ATOM      9  O   UNL     1      -6.102  19.339 -16.070  1.00  0.00    -0.550 OA
ENDBRANCH   6   7
ENDBRANCH   5   6
ENDBRANCH   4   5
ENDBRANCH   3   4
ENDBRANCH   2   3
ENDBRANCH   1   2
BRANCH   1  10
ATOM     10  C   UNL     1      -7.886  15.651 -13.244  1.00  0.00     0.027 C 
BRANCH  10  11
ATOM     11  C   UNL     1      -7.372  16.439 -14.424  1.00  0.00    -0.031 C 
ATOM     12  C   UNL     1      -6.540  15.959 -15.368  1.00  0.00    -0.031 C 
BRANCH  12  13
ATOM     13  C   UNL     1      -5.937  14.574 -15.374  1.00  0.00     0.027 C 
BRANCH  13  14
ATOM     14  C   UNL     1      -6.997  13.508 -15.676  1.00  0.00     0.004 C 
BRANCH  14  15
ATOM     15  C   UNL     1      -7.612  12.925 -14.393  1.00  0.00     0.000 C 
BRANCH  15  16
ATOM     16  C   UNL     1      -9.115  12.639 -14.536  1.00  0.00    -0.000 C 
BRANCH  16  17
ATOM     17  C   UNL     1      -9.572  12.599 -16.001  1.00  0.00    -0.003 C 
ATOM     18  C   UNL     1     -10.968  11.997 -16.125  1.00  0.00     0.004 C 
ENDBRANCH  16  17
ENDBRANCH  15  16
ENDBRANCH  14  15
ENDBRANCH  13  14
ENDBRANCH  12  13
ENDBRANCH  10  11
ENDBRANCH   1  10
TORSDOF 13
ENDMDL
MODEL 7
REMARK VINA RESULT:    -1.661      1.725      3.093
REMARK INTER + INTRA:          -4.773
REMARK INTER:                  -4.449
REMARK INTRA:                  -0.325
REMARK UNBOUND:                -1.850
REMARK SMILES CCCCCCC=CCCCCCCCC(=O)[O-]
REMARK SMILES IDX 10 1 11 2 12 3 13 4 14 5 15 6 16 7 17 8 18 9 9 10 8 11 7 12
REMARK SMILES IDX 6 13 5 14 4 15 3 16 2 17 1 18
REMARK H PARENT
REMARK Flexibility Score: inf
ROOT
ATOM      1  C   UNL     1      -8.585  19.311 -12.525  1.00  0.00     0.004 C 
ENDROOT
BRANCH   1   2
ATOM      2  C   UNL     1      -8.323  20.221 -13.737  1.00  0.00     0.000 C 
BRANCH   2   3
ATOM      3  C   UNL     1      -6.835  20.570 -13.916  1.00  0.00     0.000 C 
BRANCH   3   4
ATOM      4  C   UNL     1      -5.930  19.386 -14.302  1.00  0.00     0.000 C 
BRANCH   4   5
ATOM      5  C   UNL     1      -5.964  19.071 -15.806  1.00  0.00     0.006 C 
BRANCH   5   6
ATOM      6  C   UNL     1      -6.385  17.621 -16.086  1.00  0.00     0.053 C 
BRANCH   6   7
ATOM      7  C   UNL     1      -7.874  17.462 -16.068  1.00  0.00     0.041 C 
ATOM      8  O   UNL     1      -8.620  18.474 -15.976  1.00  0.00    -0.550 OA
ATOM      9  O   UNL     1      -8.439  16.194 -16.125  1.00  0.00    -0.550 OA
ENDBRANCH   6   7
ENDBRANCH   5   6
ENDBRANCH   4   5
ENDBRANCH   3   4
ENDBRANCH   2   3
ENDBRANCH   1   2
BRANCH   1  10
ATOM     10  C   UNL     1      -8.120  17.869 -12.777  1.00  0.00     0.027 C 
BRANCH  10  11
ATOM     11  C   UNL     1      -9.276  16.902 -12.849  1.00  0.00    -0.031 C 
ATOM     12  C   UNL     1      -9.205  15.591 -12.549  1.00  0.00    -0.031 C 
BRANCH  12  13
ATOM     13  C   UNL     1      -7.947  14.857 -12.148  1.00  0.00     0.027 C 
BRANCH  13  14
ATOM     14  C   UNL     1      -7.303  14.159 -13.351  1.00  0.00     0.004 C 
BRANCH  14  15
ATOM     15  C   UNL     1      -8.108  12.930 -13.805  1.00  0.00     0.000 C 
BRANCH  15  16
ATOM     16  C   UNL     1      -7.977  12.661 -15.312  1.00  0.00    -0.000 C 
BRANCH  16  17
ATOM     17  C   UNL     1      -9.234  12.011 -15.907  1.00  0.00    -0.003 C 
ATOM     18  C   UNL     1     -10.444  12.931 -15.772  1.00  0.00     0.004 C 
ENDBRANCH  16  17
ENDBRANCH  15  16
ENDBRANCH  14  15
ENDBRANCH  13  14
ENDBRANCH  12  13
ENDBRANCH  10  11
ENDBRANCH   1  10
TORSDOF 13
ENDMDL
