MODEL 1
REMARK VINA RESULT:     3.890      0.000      0.000
REMARK INTER + INTRA:           5.017
REMARK INTER:                   5.141
REMARK INTRA:                  -0.124
REMARK UNBOUND:                -0.124
REMARK SMILES CC(C)=CCC[C@@H](C(=O)[O-])[C@@H]1CC[C@]2(C)C3=C(CC[C@]12C)[C@@]1(C)CC[C@@H](O)C(C)(C)[C@@H]1CC3
REMARK SMILES IDX 6 1 7 2 8 3 9 4 10 5 11 6 12 7 20 8 13 9 14 10 19 11 21 12
REMARK SMILES IDX 15 13 16 14 18 15 17 16 33 17 22 18 32 19 31 20 24 21 23 22
REMARK SMILES IDX 28 23 25 24 26 25 29 26 30 27 27 28 5 30 4 31 2 32 1 33 3 34
REMARK H PARENT 27 29
REMARK Flexibility Score: inf
ROOT
ATOM      1  C   UNL     1      16.424  27.916  11.459  1.00  0.00     0.014 C 
ENDROOT
BRANCH   1   2
ATOM      2  C   UNL     1      17.881  27.705  10.976  1.00  0.00     0.039 C 
BRANCH   2   3
ATOM      3  C   UNL     1      18.797  27.632  12.178  1.00  0.00     0.045 C 
ATOM      4  O   UNL     1      18.545  26.840  13.125  1.00  0.00    -0.550 OA
ATOM      5  O   UNL     1      19.946  28.413  12.236  1.00  0.00    -0.550 OA
ENDBRANCH   2   3
BRANCH   2   6
ATOM      6  C   UNL     1      17.994  26.468  10.007  1.00  0.00     0.004 C 
ATOM      7  C   UNL     1      19.325  25.709  10.025  1.00  0.00     0.006 C 
ATOM      8  C   UNL     1      17.679  26.710   8.503  1.00  0.00    -0.020 C 
ATOM      9  C   UNL     1      19.401  24.946   8.703  1.00  0.00     0.012 C 
ATOM     10  C   UNL     1      18.211  25.398   7.809  1.00  0.00    -0.006 C 
ATOM     11  C   UNL     1      18.456  27.934   7.969  1.00  0.00     0.012 C 
ATOM     12  C   UNL     1      16.151  26.953   8.307  1.00  0.00     0.012 C 
ATOM     13  C   UNL     1      17.124  24.278   7.825  1.00  0.00     0.017 C 
ATOM     14  C   UNL     1      18.716  25.583   6.354  1.00  0.00    -0.064 C 
ATOM     15  C   UNL     1      18.339  28.054   6.457  1.00  0.00     0.032 C 
ATOM     16  C   UNL     1      18.822  26.802   5.742  1.00  0.00    -0.064 C 
ATOM     17  C   UNL     1      19.108  24.327   5.587  1.00  0.00     0.032 C 
ATOM     18  C   UNL     1      19.295  26.870   4.263  1.00  0.00    -0.008 C 
ATOM     19  C   UNL     1      20.294  24.489   4.623  1.00  0.00     0.009 C 
ATOM     20  C   UNL     1      20.558  25.944   4.149  1.00  0.00     0.007 C 
ATOM     21  C   UNL     1      19.716  28.320   3.864  1.00  0.00     0.014 C 
ATOM     22  C   UNL     1      18.098  26.417   3.375  1.00  0.00     0.016 C 
ATOM     23  C   UNL     1      21.383  26.042   2.801  1.00  0.00    -0.006 C 
ATOM     24  C   UNL     1      20.446  28.415   2.516  1.00  0.00     0.033 C 
ATOM     25  C   UNL     1      21.709  27.538   2.496  1.00  0.00     0.120 C 
ATOM     26  C   UNL     1      20.662  25.416   1.573  1.00  0.00     0.014 C 
ATOM     27  C   UNL     1      22.725  25.277   2.960  1.00  0.00     0.014 C 
BRANCH  25  28
ATOM     28  O   UNL     1      22.637  28.037   3.429  1.00  0.00    -0.393 OA
ATOM     29  H   UNL     1      23.526  27.673   3.179  1.00  0.00     0.210 HD
ENDBRANCH  25  28
ENDBRANCH   2   6
ENDBRANCH   1   2
BRANCH   1  30
ATOM     30  C   UNL     1      16.083  29.404  11.652  1.00  0.00     0.028 C 
BRANCH  30  31
ATOM     31  C   UNL     1      17.320  30.202  11.983  1.00  0.00    -0.028 C 
ATOM     32  C   UNL     1      17.306  31.409  12.592  1.00  0.00    -0.080 C 
ATOM     33  C   UNL     1      18.607  32.123  12.857  1.00  0.00     0.039 C 
ATOM     34  C   UNL     1      16.019  32.123  12.926  1.00  0.00     0.039 C 
ENDBRANCH  30  31
ENDBRANCH   1  30
TORSDOF 6
ENDMDL
