MODEL 1
REMARK VINA RESULT:    -5.851      0.000      0.000
REMARK INTER + INTRA:          -9.846
REMARK INTER:                  -8.588
REMARK INTRA:                  -1.258
REMARK UNBOUND:                -1.258
REMARK SMILES CC(C)COC(=O)c1ccccc1C(=O)OCC(C)C
REMARK SMILES IDX 8 1 9 2 10 3 11 4 12 5 13 6 6 7 7 8 5 9 4 10 2 11 1 12 3 13
REMARK SMILES IDX 14 14 15 15 16 16 17 17 18 18 19 19 20 20
REMARK H PARENT
REMARK Flexibility Score: inf
ROOT
ATOM      1  C   UNL     1       2.065 -20.096  -6.557  1.00  0.00     0.074 A 
ATOM      2  C   UNL     1       1.997 -20.565  -7.881  1.00  0.00     0.016 A 
ATOM      3  C   UNL     1       1.207 -21.668  -8.207  1.00  0.00     0.001 A 
ATOM      4  C   UNL     1       0.476 -22.320  -7.218  1.00  0.00     0.001 A 
ATOM      5  C   UNL     1       0.509 -21.857  -5.902  1.00  0.00     0.016 A 
ATOM      6  C   UNL     1       1.281 -20.731  -5.556  1.00  0.00     0.074 A 
ENDROOT
BRANCH   1   7
ATOM      7  C   UNL     1       3.005 -18.992  -6.262  1.00  0.00     0.339 C 
ATOM      8  O   UNL     1       2.598 -17.798  -6.252  1.00  0.00    -0.246 OA
BRANCH   7   9
ATOM      9  O   UNL     1       4.334 -19.288  -5.938  1.00  0.00    -0.462 OA
BRANCH   9  10
ATOM     10  C   UNL     1       5.283 -19.781  -6.883  1.00  0.00     0.236 C 
BRANCH  10  11
ATOM     11  C   UNL     1       5.446 -21.308  -6.763  1.00  0.00     0.021 C 
ATOM     12  C   UNL     1       5.218 -21.776  -5.320  1.00  0.00     0.011 C 
ATOM     13  C   UNL     1       6.836 -21.735  -7.248  1.00  0.00     0.011 C 
ENDBRANCH  10  11
ENDBRANCH   9  10
ENDBRANCH   7   9
ENDBRANCH   1   7
BRANCH   6  14
ATOM     14  C   UNL     1       1.181 -20.225  -4.167  1.00  0.00     0.339 C 
ATOM     15  O   UNL     1       0.115 -19.688  -3.758  1.00  0.00    -0.246 OA
BRANCH  14  16
ATOM     16  O   UNL     1       2.259 -20.400  -3.294  1.00  0.00    -0.462 OA
BRANCH  16  17
ATOM     17  C   UNL     1       2.429 -19.621  -2.112  1.00  0.00     0.236 C 
BRANCH  17  18
ATOM     18  C   UNL     1       3.258 -18.362  -2.409  1.00  0.00     0.021 C 
ATOM     19  C   UNL     1       4.755 -18.687  -2.473  1.00  0.00     0.011 C 
ATOM     20  C   UNL     1       2.985 -17.263  -1.375  1.00  0.00     0.011 C 
ENDBRANCH  17  18
ENDBRANCH  16  17
ENDBRANCH  14  16
ENDBRANCH   6  14
TORSDOF 8
ENDMDL
MODEL 2
REMARK VINA RESULT:    -5.830      0.071      4.474
REMARK INTER + INTRA:          -9.814
REMARK INTER:                  -8.612
REMARK INTRA:                  -1.202
REMARK UNBOUND:                -1.258
REMARK SMILES CC(C)COC(=O)c1ccccc1C(=O)OCC(C)C
REMARK SMILES IDX 8 1 9 2 10 3 11 4 12 5 13 6 6 7 7 8 5 9 4 10 2 11 1 12 3 13
REMARK SMILES IDX 14 14 15 15 16 16 17 17 18 18 19 19 20 20
REMARK H PARENT
REMARK Flexibility Score: inf
ROOT
ATOM      1  C   UNL     1       1.271 -20.723  -5.550  1.00  0.00     0.074 A 
ATOM      2  C   UNL     1       0.497 -21.849  -5.883  1.00  0.00     0.016 A 
ATOM      3  C   UNL     1       0.473 -22.336  -7.190  1.00  0.00     0.001 A 
ATOM      4  C   UNL     1       1.217 -21.707  -8.184  1.00  0.00     0.001 A 
ATOM      5  C   UNL     1       2.011 -20.603  -7.871  1.00  0.00     0.016 A 
ATOM      6  C   UNL     1       2.069 -20.109  -6.554  1.00  0.00     0.074 A 
ENDROOT
BRANCH   1   7
ATOM      7  C   UNL     1       1.166 -20.194  -4.173  1.00  0.00     0.339 C 
ATOM      8  O   UNL     1       0.074 -19.714  -3.759  1.00  0.00    -0.246 OA
BRANCH   7   9
ATOM      9  O   UNL     1       2.268 -20.283  -3.315  1.00  0.00    -0.462 OA
BRANCH   9  10
ATOM     10  C   UNL     1       2.426 -19.472  -2.152  1.00  0.00     0.236 C 
BRANCH  10  11
ATOM     11  C   UNL     1       3.318 -18.250  -2.443  1.00  0.00     0.021 C 
ATOM     12  C   UNL     1       4.802 -18.638  -2.447  1.00  0.00     0.011 C 
ATOM     13  C   UNL     1       3.060 -17.145  -1.413  1.00  0.00     0.011 C 
ENDBRANCH  10  11
ENDBRANCH   9  10
ENDBRANCH   7   9
ENDBRANCH   1   7
BRANCH   6  14
ATOM     14  C   UNL     1       3.018 -19.008  -6.270  1.00  0.00     0.339 C 
ATOM     15  O   UNL     1       2.627 -17.808  -6.283  1.00  0.00    -0.246 OA
BRANCH  14  16
ATOM     16  O   UNL     1       4.339 -19.312  -5.927  1.00  0.00    -0.462 OA
BRANCH  16  17
ATOM     17  C   UNL     1       5.287 -19.803  -6.872  1.00  0.00     0.236 C 
BRANCH  17  18
ATOM     18  C   UNL     1       5.451 -21.324  -6.730  1.00  0.00     0.021 C 
ATOM     19  C   UNL     1       5.246 -21.771  -5.278  1.00  0.00     0.011 C 
ATOM     20  C   UNL     1       6.820 -21.783  -7.250  1.00  0.00     0.011 C 
ENDBRANCH  17  18
ENDBRANCH  16  17
ENDBRANCH  14  16
ENDBRANCH   6  14
TORSDOF 8
ENDMDL
MODEL 3
REMARK VINA RESULT:    -5.454      1.710      4.476
REMARK INTER + INTRA:          -9.262
REMARK INTER:                  -8.063
REMARK INTRA:                  -1.199
REMARK UNBOUND:                -1.258
REMARK SMILES CC(C)COC(=O)c1ccccc1C(=O)OCC(C)C
REMARK SMILES IDX 8 1 9 2 10 3 11 4 12 5 13 6 6 7 7 8 5 9 4 10 2 11 1 12 3 13
REMARK SMILES IDX 14 14 15 15 16 16 17 17 18 18 19 19 20 20
REMARK H PARENT
REMARK Flexibility Score: inf
ROOT
ATOM      1  C   UNL     1       1.806 -19.478  -4.500  1.00  0.00     0.074 A 
ATOM      2  C   UNL     1       0.548 -19.925  -4.059  1.00  0.00     0.016 A 
ATOM      3  C   UNL     1       0.405 -20.530  -2.810  1.00  0.00     0.001 A 
ATOM      4  C   UNL     1       1.513 -20.699  -1.984  1.00  0.00     0.001 A 
ATOM      5  C   UNL     1       2.766 -20.242  -2.392  1.00  0.00     0.016 A 
ATOM      6  C   UNL     1       2.929 -19.607  -3.638  1.00  0.00     0.074 A 
ENDROOT
BRANCH   1   7
ATOM      7  C   UNL     1       1.907 -18.946  -5.877  1.00  0.00     0.339 C 
ATOM      8  O   UNL     1       1.544 -17.764  -6.129  1.00  0.00    -0.246 OA
BRANCH   7   9
ATOM      9  O   UNL     1       2.461 -19.744  -6.884  1.00  0.00    -0.462 OA
BRANCH   9  10
ATOM     10  C   UNL     1       2.563 -21.165  -6.795  1.00  0.00     0.236 C 
BRANCH  10  11
ATOM     11  C   UNL     1       1.537 -21.855  -7.713  1.00  0.00     0.021 C 
ATOM     12  C   UNL     1       1.167 -20.958  -8.901  1.00  0.00     0.011 C 
ATOM     13  C   UNL     1       0.281 -22.232  -6.919  1.00  0.00     0.011 C 
ENDBRANCH  10  11
ENDBRANCH   9  10
ENDBRANCH   7   9
ENDBRANCH   1   7
BRANCH   6  14
ATOM     14  C   UNL     1       4.262 -19.045  -3.959  1.00  0.00     0.339 C 
ATOM     15  O   UNL     1       4.537 -17.848  -3.666  1.00  0.00    -0.246 OA
BRANCH  14  16
ATOM     16  O   UNL     1       5.233 -19.868  -4.536  1.00  0.00    -0.462 OA
BRANCH  16  17
ATOM     17  C   UNL     1       5.844 -19.578  -5.791  1.00  0.00     0.236 C 
BRANCH  17  18
ATOM     18  C   UNL     1       6.825 -20.693  -6.184  1.00  0.00     0.021 C 
ATOM     19  C   UNL     1       6.089 -21.883  -6.811  1.00  0.00     0.011 C 
ATOM     20  C   UNL     1       7.660 -21.145  -4.979  1.00  0.00     0.011 C 
ENDBRANCH  17  18
ENDBRANCH  16  17
ENDBRANCH  14  16
ENDBRANCH   6  14
TORSDOF 8
ENDMDL
MODEL 4
REMARK VINA RESULT:    -5.295     11.434     14.094
REMARK INTER + INTRA:          -9.029
REMARK INTER:                  -7.594
REMARK INTRA:                  -1.436
REMARK UNBOUND:                -1.258
REMARK SMILES CC(C)COC(=O)c1ccccc1C(=O)OCC(C)C
REMARK SMILES IDX 8 1 9 2 10 3 11 4 12 5 13 6 6 7 7 8 5 9 4 10 2 11 1 12 3 13
REMARK SMILES IDX 14 14 15 15 16 16 17 17 18 18 19 19 20 20
REMARK H PARENT
REMARK Flexibility Score: inf
ROOT
ATOM      1  C   UNL     1      -8.002 -28.281  -3.206  1.00  0.00     0.074 A 
ATOM      2  C   UNL     1      -7.436 -29.415  -3.814  1.00  0.00     0.016 A 
ATOM      3  C   UNL     1      -6.056 -29.514  -3.992  1.00  0.00     0.001 A 
ATOM      4  C   UNL     1      -5.221 -28.484  -3.567  1.00  0.00     0.001 A 
ATOM      5  C   UNL     1      -5.760 -27.360  -2.938  1.00  0.00     0.016 A 
ATOM      6  C   UNL     1      -7.147 -27.251  -2.728  1.00  0.00     0.074 A 
ENDROOT
BRANCH   1   7
ATOM      7  C   UNL     1      -9.478 -28.192  -3.148  1.00  0.00     0.339 C 
ATOM      8  O   UNL     1     -10.089 -27.327  -3.835  1.00  0.00    -0.246 OA
BRANCH   7   9
ATOM      9  O   UNL     1     -10.193 -29.110  -2.370  1.00  0.00    -0.462 OA
BRANCH   9  10
ATOM     10  C   UNL     1     -10.171 -29.117  -0.944  1.00  0.00     0.236 C 
BRANCH  10  11
ATOM     11  C   UNL     1      -9.385 -30.328  -0.406  1.00  0.00     0.021 C 
ATOM     12  C   UNL     1      -7.920 -29.959  -0.137  1.00  0.00     0.011 C 
ATOM     13  C   UNL     1      -9.468 -31.497  -1.393  1.00  0.00     0.011 C 
ENDBRANCH  10  11
ENDBRANCH   9  10
ENDBRANCH   7   9
ENDBRANCH   1   7
BRANCH   6  14
ATOM     14  C   UNL     1      -7.640 -26.088  -1.953  1.00  0.00     0.339 C 
ATOM     15  O   UNL     1      -7.932 -26.211  -0.732  1.00  0.00    -0.246 OA
BRANCH  14  16
ATOM     16  O   UNL     1      -7.722 -24.837  -2.573  1.00  0.00    -0.462 OA
BRANCH  16  17
ATOM     17  C   UNL     1      -8.908 -24.045  -2.558  1.00  0.00     0.236 C 
BRANCH  17  18
ATOM     18  C   UNL     1      -8.647 -22.696  -1.871  1.00  0.00     0.021 C 
ATOM     19  C   UNL     1      -7.144 -22.443  -1.699  1.00  0.00     0.011 C 
ATOM     20  C   UNL     1      -9.368 -22.615  -0.519  1.00  0.00     0.011 C 
ENDBRANCH  17  18
ENDBRANCH  16  17
ENDBRANCH  14  16
ENDBRANCH   6  14
TORSDOF 8
ENDMDL
MODEL 5
REMARK VINA RESULT:    -5.220      1.368      5.204
REMARK INTER + INTRA:          -8.918
REMARK INTER:                  -7.721
REMARK INTRA:                  -1.197
REMARK UNBOUND:                -1.258
REMARK SMILES CC(C)COC(=O)c1ccccc1C(=O)OCC(C)C
REMARK SMILES IDX 8 1 9 2 10 3 11 4 12 5 13 6 6 7 7 8 5 9 4 10 2 11 1 12 3 13
REMARK SMILES IDX 14 14 15 15 16 16 17 17 18 18 19 19 20 20
REMARK H PARENT
REMARK Flexibility Score: inf
ROOT
ATOM      1  C   UNL     1       1.771 -18.858  -3.300  1.00  0.00     0.074 A 
ATOM      2  C   UNL     1       1.052 -17.659  -3.156  1.00  0.00     0.016 A 
ATOM      3  C   UNL     1       1.710 -16.465  -2.858  1.00  0.00     0.001 A 
ATOM      4  C   UNL     1       3.093 -16.450  -2.698  1.00  0.00     0.001 A 
ATOM      5  C   UNL     1       3.829 -17.624  -2.861  1.00  0.00     0.016 A 
ATOM      6  C   UNL     1       3.188 -18.835  -3.184  1.00  0.00     0.074 A 
ENDROOT
BRANCH   1   7
ATOM      7  C   UNL     1       1.002 -20.105  -3.506  1.00  0.00     0.339 C 
ATOM      8  O   UNL     1       0.695 -20.831  -2.521  1.00  0.00    -0.246 OA
BRANCH   7   9
ATOM      9  O   UNL     1       0.570 -20.442  -4.794  1.00  0.00    -0.462 OA
BRANCH   9  10
ATOM     10  C   UNL     1       1.342 -20.203  -5.970  1.00  0.00     0.236 C 
BRANCH  10  11
ATOM     11  C   UNL     1       1.400 -21.458  -6.861  1.00  0.00     0.021 C 
ATOM     12  C   UNL     1       1.450 -21.078  -8.347  1.00  0.00     0.011 C 
ATOM     13  C   UNL     1       0.197 -22.365  -6.583  1.00  0.00     0.011 C 
ENDBRANCH  10  11
ENDBRANCH   9  10
ENDBRANCH   7   9
ENDBRANCH   1   7
BRANCH   6  14
ATOM     14  C   UNL     1       4.039 -20.018  -3.455  1.00  0.00     0.339 C 
ATOM     15  O   UNL     1       4.295 -20.844  -2.537  1.00  0.00    -0.246 OA
BRANCH  14  16
ATOM     16  O   UNL     1       4.509 -20.242  -4.753  1.00  0.00    -0.462 OA
BRANCH  16  17
ATOM     17  C   UNL     1       4.839 -21.540  -5.240  1.00  0.00     0.236 C 
BRANCH  17  18
ATOM     18  C   UNL     1       5.034 -21.511  -6.764  1.00  0.00     0.021 C 
ATOM     19  C   UNL     1       6.371 -22.146  -7.164  1.00  0.00     0.011 C 
ATOM     20  C   UNL     1       4.930 -20.079  -7.307  1.00  0.00     0.011 C 
ENDBRANCH  17  18
ENDBRANCH  16  17
ENDBRANCH  14  16
ENDBRANCH   6  14
TORSDOF 8
ENDMDL
MODEL 6
REMARK VINA RESULT:    -5.219     11.604     14.339
REMARK INTER + INTRA:          -8.917
REMARK INTER:                  -7.406
REMARK INTRA:                  -1.511
REMARK UNBOUND:                -1.258
REMARK SMILES CC(C)COC(=O)c1ccccc1C(=O)OCC(C)C
REMARK SMILES IDX 8 1 9 2 10 3 11 4 12 5 13 6 6 7 7 8 5 9 4 10 2 11 1 12 3 13
REMARK SMILES IDX 14 14 15 15 16 16 17 17 18 18 19 19 20 20
REMARK H PARENT
REMARK Flexibility Score: inf
ROOT
ATOM      1  C   UNL     1      -7.127 -27.496  -2.713  1.00  0.00     0.074 A 
ATOM      2  C   UNL     1      -5.771 -27.715  -3.013  1.00  0.00     0.016 A 
ATOM      3  C   UNL     1      -5.368 -28.862  -3.696  1.00  0.00     0.001 A 
ATOM      4  C   UNL     1      -6.311 -29.809  -4.089  1.00  0.00     0.001 A 
ATOM      5  C   UNL     1      -7.665 -29.601  -3.823  1.00  0.00     0.016 A 
ATOM      6  C   UNL     1      -8.096 -28.439  -3.156  1.00  0.00     0.074 A 
ENDROOT
BRANCH   1   7
ATOM      7  C   UNL     1      -7.473 -26.315  -1.892  1.00  0.00     0.339 C 
ATOM      8  O   UNL     1      -7.764 -26.454  -0.672  1.00  0.00    -0.246 OA
BRANCH   7   9
ATOM      9  O   UNL     1      -7.417 -25.039  -2.463  1.00  0.00    -0.462 OA
BRANCH   9  10
ATOM     10  C   UNL     1      -8.575 -24.300  -2.849  1.00  0.00     0.236 C 
BRANCH  10  11
ATOM     11  C   UNL     1      -8.743 -23.038  -1.981  1.00  0.00     0.021 C 
ATOM     12  C   UNL     1      -7.382 -22.496  -1.524  1.00  0.00     0.011 C 
ATOM     13  C   UNL     1      -9.630 -23.340  -0.768  1.00  0.00     0.011 C 
ENDBRANCH  10  11
ENDBRANCH   9  10
ENDBRANCH   7   9
ENDBRANCH   1   7
BRANCH   6  14
ATOM     14  C   UNL     1      -9.555 -28.227  -3.008  1.00  0.00     0.339 C 
ATOM     15  O   UNL     1     -10.153 -27.378  -3.725  1.00  0.00    -0.246 OA
BRANCH  14  16
ATOM     16  O   UNL     1     -10.275 -29.017  -2.107  1.00  0.00    -0.462 OA
BRANCH  16  17
ATOM     17  C   UNL     1     -10.042 -28.991  -0.700  1.00  0.00     0.236 C 
BRANCH  17  18
ATOM     18  C   UNL     1      -9.378 -30.297  -0.239  1.00  0.00     0.021 C 
ATOM     19  C   UNL     1      -7.869 -30.112  -0.041  1.00  0.00     0.011 C 
ATOM     20  C   UNL     1      -9.659 -31.439  -1.224  1.00  0.00     0.011 C 
ENDBRANCH  17  18
ENDBRANCH  16  17
ENDBRANCH  14  16
ENDBRANCH   6  14
TORSDOF 8
ENDMDL
MODEL 7
REMARK VINA RESULT:    -5.169      2.090      3.710
REMARK INTER + INTRA:          -8.845
REMARK INTER:                  -7.379
REMARK INTRA:                  -1.466
REMARK UNBOUND:                -1.258
REMARK SMILES CC(C)COC(=O)c1ccccc1C(=O)OCC(C)C
REMARK SMILES IDX 8 1 9 2 10 3 11 4 12 5 13 6 6 7 7 8 5 9 4 10 2 11 1 12 3 13
REMARK SMILES IDX 14 14 15 15 16 16 17 17 18 18 19 19 20 20
REMARK H PARENT
REMARK Flexibility Score: inf
ROOT
ATOM      1  C   UNL     1       2.364 -19.426  -4.777  1.00  0.00     0.074 A 
ATOM      2  C   UNL     1       0.965 -19.393  -4.639  1.00  0.00     0.016 A 
ATOM      3  C   UNL     1       0.353 -19.856  -3.474  1.00  0.00     0.001 A 
ATOM      4  C   UNL     1       1.126 -20.359  -2.431  1.00  0.00     0.001 A 
ATOM      5  C   UNL     1       2.516 -20.378  -2.536  1.00  0.00     0.016 A 
ATOM      6  C   UNL     1       3.156 -19.894  -3.693  1.00  0.00     0.074 A 
ENDROOT
BRANCH   1   7
ATOM      7  C   UNL     1       2.940 -19.022  -6.078  1.00  0.00     0.339 C 
ATOM      8  O   UNL     1       3.354 -17.843  -6.251  1.00  0.00    -0.246 OA
BRANCH   7   9
ATOM      9  O   UNL     1       3.076 -19.974  -7.095  1.00  0.00    -0.462 OA
BRANCH   9  10
ATOM     10  C   UNL     1       2.850 -21.370  -6.901  1.00  0.00     0.236 C 
BRANCH  10  11
ATOM     11  C   UNL     1       1.628 -21.852  -7.705  1.00  0.00     0.021 C 
ATOM     12  C   UNL     1       1.162 -20.780  -8.698  1.00  0.00     0.011 C 
ATOM     13  C   UNL     1       0.485 -22.234  -6.759  1.00  0.00     0.011 C 
ENDBRANCH  10  11
ENDBRANCH   9  10
ENDBRANCH   7   9
ENDBRANCH   1   7
BRANCH   6  14
ATOM     14  C   UNL     1       4.637 -19.838  -3.692  1.00  0.00     0.339 C 
ATOM     15  O   UNL     1       5.315 -20.853  -4.012  1.00  0.00    -0.246 OA
BRANCH  14  16
ATOM     16  O   UNL     1       5.277 -18.632  -3.391  1.00  0.00    -0.462 OA
BRANCH  16  17
ATOM     17  C   UNL     1       5.462 -18.169  -2.055  1.00  0.00     0.236 C 
BRANCH  17  18
ATOM     18  C   UNL     1       4.547 -16.969  -1.768  1.00  0.00     0.021 C 
ATOM     19  C   UNL     1       3.961 -16.397  -3.065  1.00  0.00     0.011 C 
ATOM     20  C   UNL     1       5.292 -15.880  -0.985  1.00  0.00     0.011 C 
ENDBRANCH  17  18
ENDBRANCH  16  17
ENDBRANCH  14  16
ENDBRANCH   6  14
TORSDOF 8
ENDMDL
MODEL 8
REMARK VINA RESULT:    -5.152      1.347      1.957
REMARK INTER + INTRA:          -8.819
REMARK INTER:                  -7.884
REMARK INTRA:                  -0.935
REMARK UNBOUND:                -1.258
REMARK SMILES CC(C)COC(=O)c1ccccc1C(=O)OCC(C)C
REMARK SMILES IDX 8 1 9 2 10 3 11 4 12 5 13 6 6 7 7 8 5 9 4 10 2 11 1 12 3 13
REMARK SMILES IDX 14 14 15 15 16 16 17 17 18 18 19 19 20 20
REMARK H PARENT
REMARK Flexibility Score: inf
ROOT
ATOM      1  C   UNL     1       2.502 -20.717  -6.500  1.00  0.00     0.074 A 
ATOM      2  C   UNL     1       2.060 -21.463  -7.606  1.00  0.00     0.016 A 
ATOM      3  C   UNL     1       0.854 -22.163  -7.559  1.00  0.00     0.001 A 
ATOM      4  C   UNL     1       0.072 -22.130  -6.407  1.00  0.00     0.001 A 
ATOM      5  C   UNL     1       0.479 -21.376  -5.306  1.00  0.00     0.016 A 
ATOM      6  C   UNL     1       1.681 -20.643  -5.341  1.00  0.00     0.074 A 
ENDROOT
BRANCH   1   7
ATOM      7  C   UNL     1       3.839 -20.090  -6.578  1.00  0.00     0.339 C 
ATOM      8  O   UNL     1       3.967 -18.922  -7.041  1.00  0.00    -0.246 OA
BRANCH   7   9
ATOM      9  O   UNL     1       4.952 -20.778  -6.083  1.00  0.00    -0.462 OA
BRANCH   9  10
ATOM     10  C   UNL     1       5.611 -21.824  -6.795  1.00  0.00     0.236 C 
BRANCH  10  11
ATOM     11  C   UNL     1       6.866 -21.299  -7.519  1.00  0.00     0.021 C 
ATOM     12  C   UNL     1       7.732 -22.456  -8.033  1.00  0.00     0.011 C 
ATOM     13  C   UNL     1       7.681 -20.398  -6.585  1.00  0.00     0.011 C 
ENDBRANCH  10  11
ENDBRANCH   9  10
ENDBRANCH   7   9
ENDBRANCH   1   7
BRANCH   6  14
ATOM     14  C   UNL     1       1.995 -19.774  -4.183  1.00  0.00     0.339 C 
ATOM     15  O   UNL     1       2.438 -20.273  -3.112  1.00  0.00    -0.246 OA
BRANCH  14  16
ATOM     16  O   UNL     1       1.854 -18.388  -4.307  1.00  0.00    -0.462 OA
BRANCH  16  17
ATOM     17  C   UNL     1       2.890 -17.473  -3.960  1.00  0.00     0.236 C 
BRANCH  17  18
ATOM     18  C   UNL     1       2.414 -16.513  -2.859  1.00  0.00     0.021 C 
ATOM     19  C   UNL     1       2.771 -17.046  -1.466  1.00  0.00     0.011 C 
ATOM     20  C   UNL     1       0.907 -16.249  -2.968  1.00  0.00     0.011 C 
ENDBRANCH  17  18
ENDBRANCH  16  17
ENDBRANCH  14  16
ENDBRANCH   6  14
TORSDOF 8
ENDMDL
MODEL 9
REMARK VINA RESULT:    -5.091      2.102      4.896
REMARK INTER + INTRA:          -8.730
REMARK INTER:                  -7.524
REMARK INTRA:                  -1.206
REMARK UNBOUND:                -1.258
REMARK SMILES CC(C)COC(=O)c1ccccc1C(=O)OCC(C)C
REMARK SMILES IDX 8 1 9 2 10 3 11 4 12 5 13 6 6 7 7 8 5 9 4 10 2 11 1 12 3 13
REMARK SMILES IDX 14 14 15 15 16 16 17 17 18 18 19 19 20 20
REMARK H PARENT
REMARK Flexibility Score: inf
ROOT
ATOM      1  C   UNL     1       2.760 -19.378  -3.328  1.00  0.00     0.074 A 
ATOM      2  C   UNL     1       2.515 -20.030  -2.107  1.00  0.00     0.016 A 
ATOM      3  C   UNL     1       1.328 -20.732  -1.899  1.00  0.00     0.001 A 
ATOM      4  C   UNL     1       0.367 -20.792  -2.904  1.00  0.00     0.001 A 
ATOM      5  C   UNL     1       0.599 -20.173  -4.133  1.00  0.00     0.016 A 
ATOM      6  C   UNL     1       1.800 -19.479  -4.372  1.00  0.00     0.074 A 
ENDROOT
BRANCH   1   7
ATOM      7  C   UNL     1       3.989 -18.562  -3.442  1.00  0.00     0.339 C 
ATOM      8  O   UNL     1       3.952 -17.323  -3.203  1.00  0.00    -0.246 OA
BRANCH   7   9
ATOM      9  O   UNL     1       5.201 -19.184  -3.762  1.00  0.00    -0.462 OA
BRANCH   9  10
ATOM     10  C   UNL     1       6.448 -18.826  -3.168  1.00  0.00     0.236 C 
BRANCH  10  11
ATOM     11  C   UNL     1       6.505 -19.260  -1.691  1.00  0.00     0.021 C 
ATOM     12  C   UNL     1       7.554 -18.450  -0.918  1.00  0.00     0.011 C 
ATOM     13  C   UNL     1       6.807 -20.759  -1.587  1.00  0.00     0.011 C 
ENDBRANCH  10  11
ENDBRANCH   9  10
ENDBRANCH   7   9
ENDBRANCH   1   7
BRANCH   6  14
ATOM     14  C   UNL     1       2.031 -18.944  -5.735  1.00  0.00     0.339 C 
ATOM     15  O   UNL     1       1.494 -17.860  -6.094  1.00  0.00    -0.246 OA
BRANCH  14  16
ATOM     16  O   UNL     1       2.896 -19.621  -6.600  1.00  0.00    -0.462 OA
BRANCH  16  17
ATOM     17  C   UNL     1       2.687 -20.974  -6.997  1.00  0.00     0.236 C 
BRANCH  17  18
ATOM     18  C   UNL     1       1.273 -21.156  -7.569  1.00  0.00     0.021 C 
ATOM     19  C   UNL     1       0.680 -22.510  -7.161  1.00  0.00     0.011 C 
ATOM     20  C   UNL     1       1.270 -21.001  -9.096  1.00  0.00     0.011 C 
ENDBRANCH  17  18
ENDBRANCH  16  17
ENDBRANCH  14  16
ENDBRANCH   6  14
TORSDOF 8
ENDMDL
