MODEL 1
REMARK VINA RESULT:     8.051      0.000      0.000
REMARK INTER + INTRA:          14.010
REMARK INTER:                  14.640
REMARK INTRA:                  -0.630
REMARK UNBOUND:                -0.630
REMARK SMILES CCCCCCCCCCCCCCCC(=O)[O-]
REMARK SMILES IDX 9 1 10 2 11 3 12 4 13 5 14 6 15 7 16 8 17 9 18 10 8 11 7 12
REMARK SMILES IDX 6 13 5 14 4 15 3 16 2 17 1 18
REMARK H PARENT
REMARK Flexibility Score: inf
ROOT
ATOM      1  C   UNL     1       9.614 -31.544 -16.483  1.00  0.00     0.000 C 
ENDROOT
BRANCH   1   2
ATOM      2  C   UNL     1       9.855 -30.152 -17.086  1.00  0.00     0.000 C 
BRANCH   2   3
ATOM      3  C   UNL     1       8.708 -29.696 -18.000  1.00  0.00     0.000 C 
BRANCH   3   4
ATOM      4  C   UNL     1       7.648 -28.921 -17.207  1.00  0.00     0.000 C 
BRANCH   4   5
ATOM      5  C   UNL     1       6.539 -28.399 -18.133  1.00  0.00     0.000 C 
BRANCH   5   6
ATOM      6  C   UNL     1       6.676 -28.916 -19.577  1.00  0.00     0.006 C 
BRANCH   6   7
ATOM      7  C   UNL     1       6.465 -27.843 -20.657  1.00  0.00     0.053 C 
BRANCH   7   8
ATOM      8  C   UNL     1       6.569 -28.410 -22.039  1.00  0.00     0.041 C 
ATOM      9  O   UNL     1       7.064 -29.554 -22.219  1.00  0.00    -0.550 OA
ATOM     10  O   UNL     1       6.091 -27.688 -23.125  1.00  0.00    -0.550 OA
ENDBRANCH   7   8
ENDBRANCH   6   7
ENDBRANCH   5   6
ENDBRANCH   4   5
ENDBRANCH   3   4
ENDBRANCH   2   3
ENDBRANCH   1   2
BRANCH   1  11
ATOM     11  C   UNL     1       9.227 -31.488 -14.998  1.00  0.00     0.000 C 
BRANCH  11  12
ATOM     12  C   UNL     1       9.219 -30.042 -14.487  1.00  0.00    -0.000 C 
BRANCH  12  13
ATOM     13  C   UNL     1       8.127 -29.840 -13.426  1.00  0.00    -0.000 C 
BRANCH  13  14
ATOM     14  C   UNL     1       8.623 -30.138 -12.002  1.00  0.00    -0.000 C 
BRANCH  14  15
ATOM     15  C   UNL     1       7.904 -29.296 -10.936  1.00  0.00    -0.000 C 
BRANCH  15  16
ATOM     16  C   UNL     1       8.679 -29.314  -9.610  1.00  0.00    -0.000 C 
BRANCH  16  17
ATOM     17  C   UNL     1       9.860 -28.332  -9.601  1.00  0.00    -0.003 C 
ATOM     18  C   UNL     1       9.482 -26.958  -9.048  1.00  0.00     0.004 C 
ENDBRANCH  16  17
ENDBRANCH  15  16
ENDBRANCH  14  15
ENDBRANCH  13  14
ENDBRANCH  12  13
ENDBRANCH  11  12
ENDBRANCH   1  11
TORSDOF 14
ENDMDL
MODEL 2
REMARK VINA RESULT:     8.171      4.473      8.859
REMARK INTER + INTRA:          14.228
REMARK INTER:                  13.619
REMARK INTRA:                   0.609
REMARK UNBOUND:                -0.630
REMARK SMILES CCCCCCCCCCCCCCCC(=O)[O-]
REMARK SMILES IDX 9 1 10 2 11 3 12 4 13 5 14 6 15 7 16 8 17 9 18 10 8 11 7 12
REMARK SMILES IDX 6 13 5 14 4 15 3 16 2 17 1 18
REMARK H PARENT
REMARK Flexibility Score: inf
ROOT
ATOM      1  C   UNL     1       9.255 -31.989 -15.616  1.00  0.00     0.000 C 
ENDROOT
BRANCH   1   2
ATOM      2  C   UNL     1       9.456 -30.815 -14.645  1.00  0.00     0.000 C 
BRANCH   2   3
ATOM      3  C   UNL     1       8.517 -29.636 -14.938  1.00  0.00     0.000 C 
BRANCH   3   4
ATOM      4  C   UNL     1       7.748 -29.218 -13.678  1.00  0.00     0.000 C 
BRANCH   4   5
ATOM      5  C   UNL     1       8.430 -29.759 -12.413  1.00  0.00     0.000 C 
BRANCH   5   6
ATOM      6  C   UNL     1       7.784 -29.235 -11.117  1.00  0.00     0.006 C 
BRANCH   6   7
ATOM      7  C   UNL     1       8.576 -29.557  -9.840  1.00  0.00     0.053 C 
BRANCH   7   8
ATOM      8  C   UNL     1       9.954 -28.971  -9.873  1.00  0.00     0.041 C 
ATOM      9  O   UNL     1      10.920 -29.645 -10.319  1.00  0.00    -0.550 OA
ATOM     10  O   UNL     1      10.167 -27.669  -9.438  1.00  0.00    -0.550 OA
ENDBRANCH   7   8
ENDBRANCH   6   7
ENDBRANCH   5   6
ENDBRANCH   4   5
ENDBRANCH   3   4
ENDBRANCH   2   3
ENDBRANCH   1   2
BRANCH   1  11
ATOM     11  C   UNL     1       9.530 -31.604 -17.076  1.00  0.00     0.000 C 
BRANCH  11  12
ATOM     12  C   UNL     1       9.538 -30.081 -17.250  1.00  0.00    -0.000 C 
BRANCH  12  13
ATOM     13  C   UNL     1       8.663 -29.658 -18.439  1.00  0.00    -0.000 C 
BRANCH  13  14
ATOM     14  C   UNL     1       7.392 -28.911 -18.004  1.00  0.00    -0.000 C 
BRANCH  14  15
ATOM     15  C   UNL     1       6.483 -28.548 -19.188  1.00  0.00    -0.000 C 
BRANCH  15  16
ATOM     16  C   UNL     1       7.164 -28.879 -20.523  1.00  0.00    -0.000 C 
BRANCH  16  17
ATOM     17  C   UNL     1       6.206 -28.768 -21.720  1.00  0.00    -0.003 C 
ATOM     18  C   UNL     1       6.746 -27.865 -22.828  1.00  0.00     0.004 C 
ENDBRANCH  16  17
ENDBRANCH  15  16
ENDBRANCH  14  15
ENDBRANCH  13  14
ENDBRANCH  12  13
ENDBRANCH  11  12
ENDBRANCH   1  11
TORSDOF 14
ENDMDL
MODEL 3
REMARK VINA RESULT:     8.765      4.650      9.207
REMARK INTER + INTRA:          15.308
REMARK INTER:                  15.316
REMARK INTRA:                  -0.008
REMARK UNBOUND:                -0.630
REMARK SMILES CCCCCCCCCCCCCCCC(=O)[O-]
REMARK SMILES IDX 9 1 10 2 11 3 12 4 13 5 14 6 15 7 16 8 17 9 18 10 8 11 7 12
REMARK SMILES IDX 6 13 5 14 4 15 3 16 2 17 1 18
REMARK H PARENT
REMARK Flexibility Score: inf
ROOT
ATOM      1  C   UNL     1      10.056 -30.854 -16.931  1.00  0.00     0.000 C 
ENDROOT
BRANCH   1   2
ATOM      2  C   UNL     1       9.257 -31.897 -16.133  1.00  0.00     0.000 C 
BRANCH   2   3
ATOM      3  C   UNL     1       9.089 -31.511 -14.656  1.00  0.00     0.000 C 
BRANCH   3   4
ATOM      4  C   UNL     1       8.896 -29.998 -14.501  1.00  0.00     0.000 C 
BRANCH   4   5
ATOM      5  C   UNL     1       7.996 -29.678 -13.298  1.00  0.00     0.000 C 
BRANCH   5   6
ATOM      6  C   UNL     1       8.718 -29.851 -11.949  1.00  0.00     0.006 C 
BRANCH   6   7
ATOM      7  C   UNL     1       7.992 -29.211 -10.755  1.00  0.00     0.053 C 
BRANCH   7   8
ATOM      8  C   UNL     1       8.883 -29.094  -9.557  1.00  0.00     0.041 C 
ATOM      9  O   UNL     1       9.018 -30.066  -8.769  1.00  0.00    -0.550 OA
ATOM     10  O   UNL     1       9.588 -27.919  -9.327  1.00  0.00    -0.550 OA
ENDBRANCH   7   8
ENDBRANCH   6   7
ENDBRANCH   5   6
ENDBRANCH   4   5
ENDBRANCH   3   4
ENDBRANCH   2   3
ENDBRANCH   1   2
BRANCH   1  11
ATOM     11  C   UNL     1       9.183 -30.069 -17.921  1.00  0.00     0.000 C 
BRANCH  11  12
ATOM     12  C   UNL     1       8.119 -29.248 -17.183  1.00  0.00    -0.000 C 
BRANCH  12  13
ATOM     13  C   UNL     1       6.983 -28.839 -18.132  1.00  0.00    -0.000 C 
BRANCH  13  14
ATOM     14  C   UNL     1       7.425 -28.801 -19.604  1.00  0.00    -0.000 C 
BRANCH  14  15
ATOM     15  C   UNL     1       6.265 -28.498 -20.564  1.00  0.00    -0.000 C 
BRANCH  15  16
ATOM     16  C   UNL     1       6.395 -29.317 -21.857  1.00  0.00    -0.000 C 
BRANCH  16  17
ATOM     17  C   UNL     1       6.257 -28.455 -23.120  1.00  0.00    -0.003 C 
ATOM     18  C   UNL     1       5.945 -26.992 -22.807  1.00  0.00     0.004 C 
ENDBRANCH  16  17
ENDBRANCH  15  16
ENDBRANCH  14  15
ENDBRANCH  13  14
ENDBRANCH  12  13
ENDBRANCH  11  12
ENDBRANCH   1  11
TORSDOF 14
ENDMDL
MODEL 4
REMARK VINA RESULT:     9.132      3.576      7.576
REMARK INTER + INTRA:          15.976
REMARK INTER:                  15.174
REMARK INTRA:                   0.802
REMARK UNBOUND:                -0.630
REMARK SMILES CCCCCCCCCCCCCCCC(=O)[O-]
REMARK SMILES IDX 9 1 10 2 11 3 12 4 13 5 14 6 15 7 16 8 17 9 18 10 8 11 7 12
REMARK SMILES IDX 6 13 5 14 4 15 3 16 2 17 1 18
REMARK H PARENT
REMARK Flexibility Score: inf
ROOT
ATOM      1  C   UNL     1       6.873 -28.845 -18.015  1.00  0.00     0.000 C 
ENDROOT
BRANCH   1   2
ATOM      2  C   UNL     1       6.246 -28.028 -16.874  1.00  0.00     0.000 C 
BRANCH   2   3
ATOM      3  C   UNL     1       7.144 -27.964 -15.629  1.00  0.00     0.000 C 
BRANCH   3   4
ATOM      4  C   UNL     1       8.288 -28.981 -15.723  1.00  0.00     0.000 C 
BRANCH   4   5
ATOM      5  C   UNL     1       8.418 -29.785 -14.421  1.00  0.00     0.000 C 
BRANCH   5   6
ATOM      6  C   UNL     1       9.501 -30.877 -14.500  1.00  0.00     0.006 C 
BRANCH   6   7
ATOM      7  C   UNL     1       9.805 -31.365 -15.925  1.00  0.00     0.053 C 
BRANCH   7   8
ATOM      8  C   UNL     1       9.208 -32.712 -16.194  1.00  0.00     0.041 C 
ATOM      9  O   UNL     1       9.153 -33.158 -17.370  1.00  0.00    -0.550 OA
ATOM     10  O   UNL     1       8.738 -33.488 -15.142  1.00  0.00    -0.550 OA
ENDBRANCH   7   8
ENDBRANCH   6   7
ENDBRANCH   5   6
ENDBRANCH   4   5
ENDBRANCH   3   4
ENDBRANCH   2   3
ENDBRANCH   1   2
BRANCH   1  11
ATOM     11  C   UNL     1       5.999 -28.867 -19.278  1.00  0.00     0.000 C 
BRANCH  11  12
ATOM     12  C   UNL     1       6.347 -27.697 -20.206  1.00  0.00    -0.000 C 
BRANCH  12  13
ATOM     13  C   UNL     1       6.177 -28.095 -21.680  1.00  0.00    -0.000 C 
BRANCH  13  14
ATOM     14  C   UNL     1       7.347 -28.944 -22.202  1.00  0.00    -0.000 C 
BRANCH  14  15
ATOM     15  C   UNL     1       7.766 -30.046 -21.217  1.00  0.00    -0.000 C 
BRANCH  15  16
ATOM     16  C   UNL     1       9.112 -29.710 -20.560  1.00  0.00    -0.000 C 
BRANCH  16  17
ATOM     17  C   UNL     1       9.169 -30.126 -19.082  1.00  0.00    -0.003 C 
ATOM     18  C   UNL     1      10.302 -29.443 -18.318  1.00  0.00     0.004 C 
ENDBRANCH  16  17
ENDBRANCH  15  16
ENDBRANCH  14  15
ENDBRANCH  13  14
ENDBRANCH  12  13
ENDBRANCH  11  12
ENDBRANCH   1  11
TORSDOF 14
ENDMDL
MODEL 5
REMARK VINA RESULT:     9.170      4.150      8.666
REMARK INTER + INTRA:          16.046
REMARK INTER:                  17.039
REMARK INTRA:                  -0.993
REMARK UNBOUND:                -0.630
REMARK SMILES CCCCCCCCCCCCCCCC(=O)[O-]
REMARK SMILES IDX 9 1 10 2 11 3 12 4 13 5 14 6 15 7 16 8 17 9 18 10 8 11 7 12
REMARK SMILES IDX 6 13 5 14 4 15 3 16 2 17 1 18
REMARK H PARENT
REMARK Flexibility Score: inf
ROOT
ATOM      1  C   UNL     1       6.953 -28.294 -19.616  1.00  0.00     0.000 C 
ENDROOT
BRANCH   1   2
ATOM      2  C   UNL     1       6.850 -29.207 -18.385  1.00  0.00     0.000 C 
BRANCH   2   3
ATOM      3  C   UNL     1       6.941 -28.431 -17.063  1.00  0.00     0.000 C 
BRANCH   3   4
ATOM      4  C   UNL     1       8.018 -29.027 -16.148  1.00  0.00     0.000 C 
BRANCH   4   5
ATOM      5  C   UNL     1       9.174 -29.616 -16.970  1.00  0.00     0.000 C 
BRANCH   5   6
ATOM      6  C   UNL     1      10.045 -30.594 -16.160  1.00  0.00     0.006 C 
BRANCH   6   7
ATOM      7  C   UNL     1       9.265 -31.442 -15.143  1.00  0.00     0.053 C 
BRANCH   7   8
ATOM      8  C   UNL     1       9.089 -32.854 -15.609  1.00  0.00     0.041 C 
ATOM      9  O   UNL     1       8.787 -33.760 -14.789  1.00  0.00    -0.550 OA
ATOM     10  O   UNL     1       9.229 -33.164 -16.956  1.00  0.00    -0.550 OA
ENDBRANCH   7   8
ENDBRANCH   6   7
ENDBRANCH   5   6
ENDBRANCH   4   5
ENDBRANCH   3   4
ENDBRANCH   2   3
ENDBRANCH   1   2
BRANCH   1  11
ATOM     11  C   UNL     1       6.464 -28.975 -20.903  1.00  0.00     0.000 C 
BRANCH  11  12
ATOM     12  C   UNL     1       7.644 -29.369 -21.798  1.00  0.00    -0.000 C 
BRANCH  12  13
ATOM     13  C   UNL     1       8.569 -30.366 -21.083  1.00  0.00    -0.000 C 
BRANCH  13  14
ATOM     14  C   UNL     1       8.223 -31.829 -21.401  1.00  0.00    -0.000 C 
BRANCH  14  15
ATOM     15  C   UNL     1       9.086 -32.410 -22.532  1.00  0.00    -0.000 C 
BRANCH  15  16
ATOM     16  C   UNL     1      10.290 -33.176 -21.965  1.00  0.00    -0.000 C 
BRANCH  16  17
ATOM     17  C   UNL     1      11.538 -33.057 -22.853  1.00  0.00    -0.003 C 
ATOM     18  C   UNL     1      11.936 -31.607 -23.124  1.00  0.00     0.004 C 
ENDBRANCH  16  17
ENDBRANCH  15  16
ENDBRANCH  14  15
ENDBRANCH  13  14
ENDBRANCH  12  13
ENDBRANCH  11  12
ENDBRANCH   1  11
TORSDOF 14
ENDMDL
MODEL 6
REMARK VINA RESULT:    10.067      4.643      8.239
REMARK INTER + INTRA:          17.676
REMARK INTER:                  18.537
REMARK INTRA:                  -0.861
REMARK UNBOUND:                -0.630
REMARK SMILES CCCCCCCCCCCCCCCC(=O)[O-]
REMARK SMILES IDX 9 1 10 2 11 3 12 4 13 5 14 6 15 7 16 8 17 9 18 10 8 11 7 12
REMARK SMILES IDX 6 13 5 14 4 15 3 16 2 17 1 18
REMARK H PARENT
REMARK Flexibility Score: inf
ROOT
ATOM      1  C   UNL     1       9.534 -29.965 -17.224  1.00  0.00     0.000 C 
ENDROOT
BRANCH   1   2
ATOM      2  C   UNL     1      10.035 -30.979 -16.184  1.00  0.00     0.000 C 
BRANCH   2   3
ATOM      3  C   UNL     1       9.257 -32.302 -16.225  1.00  0.00     0.000 C 
BRANCH   3   4
ATOM      4  C   UNL     1       9.152 -32.922 -14.825  1.00  0.00     0.000 C 
BRANCH   4   5
ATOM      5  C   UNL     1       8.113 -34.053 -14.800  1.00  0.00     0.000 C 
BRANCH   5   6
ATOM      6  C   UNL     1       7.587 -34.411 -16.202  1.00  0.00     0.006 C 
BRANCH   6   7
ATOM      7  C   UNL     1       6.194 -35.060 -16.209  1.00  0.00     0.053 C 
BRANCH   7   8
ATOM      8  C   UNL     1       6.185 -36.358 -16.956  1.00  0.00     0.041 C 
ATOM      9  O   UNL     1       5.894 -36.383 -18.181  1.00  0.00    -0.550 OA
ATOM     10  O   UNL     1       6.528 -37.537 -16.306  1.00  0.00    -0.550 OA
ENDBRANCH   7   8
ENDBRANCH   6   7
ENDBRANCH   5   6
ENDBRANCH   4   5
ENDBRANCH   3   4
ENDBRANCH   2   3
ENDBRANCH   1   2
BRANCH   1  11
ATOM     11  C   UNL     1       8.335 -29.145 -16.724  1.00  0.00     0.000 C 
BRANCH  11  12
ATOM     12  C   UNL     1       7.092 -29.412 -17.581  1.00  0.00    -0.000 C 
BRANCH  12  13
ATOM     13  C   UNL     1       6.469 -28.096 -18.072  1.00  0.00    -0.000 C 
BRANCH  13  14
ATOM     14  C   UNL     1       6.366 -28.024 -19.604  1.00  0.00    -0.000 C 
BRANCH  14  15
ATOM     15  C   UNL     1       6.271 -29.411 -20.257  1.00  0.00    -0.000 C 
BRANCH  15  16
ATOM     16  C   UNL     1       6.977 -29.424 -21.621  1.00  0.00    -0.000 C 
BRANCH  16  17
ATOM     17  C   UNL     1       7.322 -28.013 -22.121  1.00  0.00    -0.003 C 
ATOM     18  C   UNL     1       6.278 -27.455 -23.088  1.00  0.00     0.004 C 
ENDBRANCH  16  17
ENDBRANCH  15  16
ENDBRANCH  14  15
ENDBRANCH  13  14
ENDBRANCH  12  13
ENDBRANCH  11  12
ENDBRANCH   1  11
TORSDOF 14
ENDMDL
MODEL 7
REMARK VINA RESULT:    10.233      3.125      6.966
REMARK INTER + INTRA:          17.978
REMARK INTER:                  19.130
REMARK INTRA:                  -1.152
REMARK UNBOUND:                -0.630
REMARK SMILES CCCCCCCCCCCCCCCC(=O)[O-]
REMARK SMILES IDX 9 1 10 2 11 3 12 4 13 5 14 6 15 7 16 8 17 9 18 10 8 11 7 12
REMARK SMILES IDX 6 13 5 14 4 15 3 16 2 17 1 18
REMARK H PARENT
REMARK Flexibility Score: inf
ROOT
ATOM      1  C   UNL     1       9.822 -31.491 -15.916  1.00  0.00     0.000 C 
ENDROOT
BRANCH   1   2
ATOM      2  C   UNL     1       8.943 -30.347 -15.385  1.00  0.00     0.000 C 
BRANCH   2   3
ATOM      3  C   UNL     1       8.532 -29.357 -16.485  1.00  0.00     0.000 C 
BRANCH   3   4
ATOM      4  C   UNL     1       9.259 -29.663 -17.800  1.00  0.00     0.000 C 
BRANCH   4   5
ATOM      5  C   UNL     1       8.312 -29.517 -19.000  1.00  0.00     0.000 C 
BRANCH   5   6
ATOM      6  C   UNL     1       6.983 -28.832 -18.632  1.00  0.00     0.006 C 
BRANCH   6   7
ATOM      7  C   UNL     1       6.305 -28.097 -19.798  1.00  0.00     0.053 C 
BRANCH   7   8
ATOM      8  C   UNL     1       6.709 -28.661 -21.126  1.00  0.00     0.041 C 
ATOM      9  O   UNL     1       7.282 -27.931 -21.977  1.00  0.00    -0.550 OA
ATOM     10  O   UNL     1       6.479 -30.001 -21.411  1.00  0.00    -0.550 OA
ENDBRANCH   7   8
ENDBRANCH   6   7
ENDBRANCH   5   6
ENDBRANCH   4   5
ENDBRANCH   3   4
ENDBRANCH   2   3
ENDBRANCH   1   2
BRANCH   1  11
ATOM     11  C   UNL     1       9.185 -32.873 -15.709  1.00  0.00     0.000 C 
BRANCH  11  12
ATOM     12  C   UNL     1       8.773 -33.493 -17.049  1.00  0.00    -0.000 C 
BRANCH  12  13
ATOM     13  C   UNL     1       9.877 -33.312 -18.102  1.00  0.00    -0.000 C 
BRANCH  13  14
ATOM     14  C   UNL     1       9.378 -33.568 -19.534  1.00  0.00    -0.000 C 
BRANCH  14  15
ATOM     15  C   UNL     1      10.362 -33.066 -20.602  1.00  0.00    -0.000 C 
BRANCH  15  16
ATOM     16  C   UNL     1       9.715 -33.087 -21.995  1.00  0.00    -0.000 C 
BRANCH  16  17
ATOM     17  C   UNL     1      10.747 -33.227 -23.124  1.00  0.00    -0.003 C 
ATOM     18  C   UNL     1      12.070 -32.531 -22.808  1.00  0.00     0.004 C 
ENDBRANCH  16  17
ENDBRANCH  15  16
ENDBRANCH  14  15
ENDBRANCH  13  14
ENDBRANCH  12  13
ENDBRANCH  11  12
ENDBRANCH   1  11
TORSDOF 14
ENDMDL
