MODEL 1
REMARK VINA RESULT:    -4.911      0.000      0.000
REMARK INTER + INTRA:         -10.311
REMARK INTER:                  -9.217
REMARK INTRA:                  -1.094
REMARK UNBOUND:                -1.094
REMARK SMILES O=C([O-])CCCCCCCCCCCCCCC(=O)[O-]
REMARK SMILES IDX 10 1 9 2 8 3 7 4 6 5 5 6 4 7 2 8 1 9 3 10 11 11 12 12 13 13
REMARK SMILES IDX 14 14 15 15 16 16 17 17 18 18 19 19 20 20
REMARK H PARENT
REMARK Flexibility Score: inf
ROOT
ATOM      1  C   UNL     1      18.376   8.069   4.521  1.00  0.00     0.000 C 
ENDROOT
BRANCH   1   2
ATOM      2  C   UNL     1      18.554   7.639   3.057  1.00  0.00     0.000 C 
BRANCH   2   3
ATOM      3  C   UNL     1      20.019   7.276   2.767  1.00  0.00     0.000 C 
BRANCH   3   4
ATOM      4  C   UNL     1      20.346   5.815   3.112  1.00  0.00     0.000 C 
BRANCH   4   5
ATOM      5  C   UNL     1      21.337   5.688   4.279  1.00  0.00     0.000 C 
BRANCH   5   6
ATOM      6  C   UNL     1      20.595   5.532   5.615  1.00  0.00     0.006 C 
BRANCH   6   7
ATOM      7  C   UNL     1      21.484   4.918   6.704  1.00  0.00     0.053 C 
BRANCH   7   8
ATOM      8  C   UNL     1      22.575   5.855   7.124  1.00  0.00     0.041 C 
ATOM      9  O   UNL     1      23.679   5.855   6.521  1.00  0.00    -0.550 OA
ATOM     10  O   UNL     1      22.358   6.753   8.162  1.00  0.00    -0.550 OA
ENDBRANCH   7   8
ENDBRANCH   6   7
ENDBRANCH   5   6
ENDBRANCH   4   5
ENDBRANCH   3   4
ENDBRANCH   2   3
ENDBRANCH   1   2
BRANCH   1  11
ATOM     11  C   UNL     1      16.924   7.927   5.007  1.00  0.00     0.000 C 
BRANCH  11  12
ATOM     12  C   UNL     1      16.789   8.100   6.528  1.00  0.00     0.000 C 
BRANCH  12  13
ATOM     13  C   UNL     1      18.151   7.959   7.219  1.00  0.00     0.000 C 
BRANCH  13  14
ATOM     14  C   UNL     1      18.300   8.977   8.356  1.00  0.00     0.000 C 
BRANCH  14  15
ATOM     15  C   UNL     1      16.933   9.358   8.937  1.00  0.00     0.000 C 
BRANCH  15  16
ATOM     16  C   UNL     1      17.079   9.955  10.342  1.00  0.00     0.006 C 
BRANCH  16  17
ATOM     17  C   UNL     1      18.515  10.426  10.593  1.00  0.00     0.053 C 
BRANCH  17  18
ATOM     18  C   UNL     1      18.545  11.896  10.866  1.00  0.00     0.041 C 
ATOM     19  O   UNL     1      17.533  12.605  10.627  1.00  0.00    -0.550 OA
ATOM     20  O   UNL     1      19.708  12.492  11.339  1.00  0.00    -0.550 OA
ENDBRANCH  17  18
ENDBRANCH  16  17
ENDBRANCH  15  16
ENDBRANCH  14  15
ENDBRANCH  13  14
ENDBRANCH  12  13
ENDBRANCH  11  12
ENDBRANCH   1  11
TORSDOF 15
ENDMDL
MODEL 2
REMARK VINA RESULT:    -4.902      9.013     11.322
REMARK INTER + INTRA:         -10.295
REMARK INTER:                  -8.501
REMARK INTRA:                  -1.794
REMARK UNBOUND:                -1.094
REMARK SMILES O=C([O-])CCCCCCCCCCCCCCC(=O)[O-]
REMARK SMILES IDX 10 1 9 2 8 3 7 4 6 5 5 6 4 7 2 8 1 9 3 10 11 11 12 12 13 13
REMARK SMILES IDX 14 14 15 15 16 16 17 17 18 18 19 19 20 20
REMARK H PARENT
REMARK Flexibility Score: inf
ROOT
ATOM      1  C   UNL     1      25.921   8.456  15.857  1.00  0.00     0.000 C 
ENDROOT
BRANCH   1   2
ATOM      2  C   UNL     1      26.300   6.968  15.886  1.00  0.00     0.000 C 
BRANCH   2   3
ATOM      3  C   UNL     1      27.130   6.590  14.649  1.00  0.00     0.000 C 
BRANCH   3   4
ATOM      4  C   UNL     1      27.016   7.626  13.520  1.00  0.00     0.000 C 
BRANCH   4   5
ATOM      5  C   UNL     1      28.332   7.807  12.747  1.00  0.00     0.000 C 
BRANCH   5   6
ATOM      6  C   UNL     1      28.200   8.916  11.692  1.00  0.00     0.006 C 
BRANCH   6   7
ATOM      7  C   UNL     1      26.977   9.808  11.938  1.00  0.00     0.053 C 
BRANCH   7   8
ATOM      8  C   UNL     1      27.373  11.196  12.339  1.00  0.00     0.041 C 
ATOM      9  O   UNL     1      26.493  12.059  12.596  1.00  0.00    -0.550 OA
ATOM     10  O   UNL     1      28.717  11.528  12.461  1.00  0.00    -0.550 OA
ENDBRANCH   7   8
ENDBRANCH   6   7
ENDBRANCH   5   6
ENDBRANCH   4   5
ENDBRANCH   3   4
ENDBRANCH   2   3
ENDBRANCH   1   2
BRANCH   1  11
ATOM     11  C   UNL     1      24.404   8.678  15.745  1.00  0.00     0.000 C 
BRANCH  11  12
ATOM     12  C   UNL     1      23.618   7.361  15.648  1.00  0.00     0.000 C 
BRANCH  12  13
ATOM     13  C   UNL     1      23.234   7.057  14.195  1.00  0.00     0.000 C 
BRANCH  13  14
ATOM     14  C   UNL     1      23.012   5.554  13.985  1.00  0.00     0.000 C 
BRANCH  14  15
ATOM     15  C   UNL     1      23.635   4.741  15.126  1.00  0.00     0.000 C 
BRANCH  15  16
ATOM     16  C   UNL     1      24.304   3.468  14.593  1.00  0.00     0.006 C 
BRANCH  16  17
ATOM     17  C   UNL     1      25.088   3.755  13.309  1.00  0.00     0.053 C 
BRANCH  17  18
ATOM     18  C   UNL     1      25.926   2.574  12.932  1.00  0.00     0.041 C 
ATOM     19  O   UNL     1      25.821   2.063  11.787  1.00  0.00    -0.550 OA
ATOM     20  O   UNL     1      26.787   2.007  13.864  1.00  0.00    -0.550 OA
ENDBRANCH  17  18
ENDBRANCH  16  17
ENDBRANCH  15  16
ENDBRANCH  14  15
ENDBRANCH  13  14
ENDBRANCH  12  13
ENDBRANCH  11  12
ENDBRANCH   1  11
TORSDOF 15
ENDMDL
MODEL 3
REMARK VINA RESULT:    -4.773      9.258     11.036
REMARK INTER + INTRA:         -10.052
REMARK INTER:                  -8.356
REMARK INTRA:                  -1.697
REMARK UNBOUND:                -1.094
REMARK SMILES O=C([O-])CCCCCCCCCCCCCCC(=O)[O-]
REMARK SMILES IDX 10 1 9 2 8 3 7 4 6 5 5 6 4 7 2 8 1 9 3 10 11 11 12 12 13 13
REMARK SMILES IDX 14 14 15 15 16 16 17 17 18 18 19 19 20 20
REMARK H PARENT
REMARK Flexibility Score: inf
ROOT
ATOM      1  C   UNL     1      25.603   7.993  15.204  1.00  0.00     0.000 C 
ENDROOT
BRANCH   1   2
ATOM      2  C   UNL     1      24.267   7.398  15.674  1.00  0.00     0.000 C 
BRANCH   2   3
ATOM      3  C   UNL     1      23.299   7.225  14.492  1.00  0.00     0.000 C 
BRANCH   3   4
ATOM      4  C   UNL     1      23.100   5.753  14.100  1.00  0.00     0.000 C 
BRANCH   4   5
ATOM      5  C   UNL     1      23.466   4.782  15.233  1.00  0.00     0.000 C 
BRANCH   5   6
ATOM      6  C   UNL     1      24.250   3.577  14.692  1.00  0.00     0.006 C 
BRANCH   6   7
ATOM      7  C   UNL     1      25.023   3.916  13.411  1.00  0.00     0.053 C 
BRANCH   7   8
ATOM      8  C   UNL     1      26.064   2.884  13.101  1.00  0.00     0.041 C 
ATOM      9  O   UNL     1      26.420   2.057  13.981  1.00  0.00    -0.550 OA
ATOM     10  O   UNL     1      26.617   2.815  11.828  1.00  0.00    -0.550 OA
ENDBRANCH   7   8
ENDBRANCH   6   7
ENDBRANCH   5   6
ENDBRANCH   4   5
ENDBRANCH   3   4
ENDBRANCH   2   3
ENDBRANCH   1   2
BRANCH   1  11
ATOM     11  C   UNL     1      26.673   6.919  14.954  1.00  0.00     0.000 C 
BRANCH  11  12
ATOM     12  C   UNL     1      27.338   7.054  13.575  1.00  0.00     0.000 C 
BRANCH  12  13
ATOM     13  C   UNL     1      27.165   8.472  13.019  1.00  0.00     0.000 C 
BRANCH  13  14
ATOM     14  C   UNL     1      28.025   8.683  11.768  1.00  0.00     0.000 C 
BRANCH  14  15
ATOM     15  C   UNL     1      29.500   8.873  12.140  1.00  0.00     0.000 C 
BRANCH  15  16
ATOM     16  C   UNL     1      29.669  10.001  13.165  1.00  0.00     0.006 C 
BRANCH  16  17
ATOM     17  C   UNL     1      29.713  11.369  12.476  1.00  0.00     0.053 C 
BRANCH  17  18
ATOM     18  C   UNL     1      28.522  12.188  12.861  1.00  0.00     0.041 C 
ATOM     19  O   UNL     1      27.859  11.897  13.891  1.00  0.00    -0.550 OA
ATOM     20  O   UNL     1      28.115  13.243  12.054  1.00  0.00    -0.550 OA
ENDBRANCH  17  18
ENDBRANCH  16  17
ENDBRANCH  15  16
ENDBRANCH  14  15
ENDBRANCH  13  14
ENDBRANCH  12  13
ENDBRANCH  11  12
ENDBRANCH   1  11
TORSDOF 15
ENDMDL
MODEL 4
REMARK VINA RESULT:    -4.716      2.670      7.282
REMARK INTER + INTRA:          -9.946
REMARK INTER:                  -8.479
REMARK INTRA:                  -1.467
REMARK UNBOUND:                -1.094
REMARK SMILES O=C([O-])CCCCCCCCCCCCCCC(=O)[O-]
REMARK SMILES IDX 10 1 9 2 8 3 7 4 6 5 5 6 4 7 2 8 1 9 3 10 11 11 12 12 13 13
REMARK SMILES IDX 14 14 15 15 16 16 17 17 18 18 19 19 20 20
REMARK H PARENT
REMARK Flexibility Score: inf
ROOT
ATOM      1  C   UNL     1      20.259   5.917   3.003  1.00  0.00     0.000 C 
ENDROOT
BRANCH   1   2
ATOM      2  C   UNL     1      19.932   7.384   2.684  1.00  0.00     0.000 C 
BRANCH   2   3
ATOM      3  C   UNL     1      18.412   7.609   2.640  1.00  0.00     0.000 C 
BRANCH   3   4
ATOM      4  C   UNL     1      17.829   7.984   4.011  1.00  0.00     0.000 C 
BRANCH   4   5
ATOM      5  C   UNL     1      17.132   6.802   4.703  1.00  0.00     0.000 C 
BRANCH   5   6
ATOM      6  C   UNL     1      17.803   6.478   6.046  1.00  0.00     0.006 C 
BRANCH   6   7
ATOM      7  C   UNL     1      18.268   7.741   6.781  1.00  0.00     0.053 C 
BRANCH   7   8
ATOM      8  C   UNL     1      17.197   8.292   7.671  1.00  0.00     0.041 C 
ATOM      9  O   UNL     1      15.986   8.040   7.439  1.00  0.00    -0.550 OA
ATOM     10  O   UNL     1      17.539   9.058   8.779  1.00  0.00    -0.550 OA
ENDBRANCH   7   8
ENDBRANCH   6   7
ENDBRANCH   5   6
ENDBRANCH   4   5
ENDBRANCH   3   4
ENDBRANCH   2   3
ENDBRANCH   1   2
BRANCH   1  11
ATOM     11  C   UNL     1      21.036   5.757   4.319  1.00  0.00     0.000 C 
BRANCH  11  12
ATOM     12  C   UNL     1      20.796   4.394   4.988  1.00  0.00     0.000 C 
BRANCH  12  13
ATOM     13  C   UNL     1      21.497   4.320   6.349  1.00  0.00     0.000 C 
BRANCH  13  14
ATOM     14  C   UNL     1      22.053   5.689   6.758  1.00  0.00     0.000 C 
BRANCH  14  15
ATOM     15  C   UNL     1      23.584   5.660   6.839  1.00  0.00     0.000 C 
BRANCH  15  16
ATOM     16  C   UNL     1      24.127   4.267   6.497  1.00  0.00     0.006 C 
BRANCH  16  17
ATOM     17  C   UNL     1      25.656   4.277   6.420  1.00  0.00     0.053 C 
BRANCH  17  18
ATOM     18  C   UNL     1      26.236   3.283   7.375  1.00  0.00     0.041 C 
ATOM     19  O   UNL     1      26.240   3.520   8.611  1.00  0.00    -0.550 OA
ATOM     20  O   UNL     1      26.816   2.114   6.896  1.00  0.00    -0.550 OA
ENDBRANCH  17  18
ENDBRANCH  16  17
ENDBRANCH  15  16
ENDBRANCH  14  15
ENDBRANCH  13  14
ENDBRANCH  12  13
ENDBRANCH  11  12
ENDBRANCH   1  11
TORSDOF 15
ENDMDL
MODEL 5
REMARK VINA RESULT:    -4.706      2.392      3.657
REMARK INTER + INTRA:          -9.927
REMARK INTER:                  -7.956
REMARK INTRA:                  -1.971
REMARK UNBOUND:                -1.094
REMARK SMILES O=C([O-])CCCCCCCCCCCCCCC(=O)[O-]
REMARK SMILES IDX 10 1 9 2 8 3 7 4 6 5 5 6 4 7 2 8 1 9 3 10 11 11 12 12 13 13
REMARK SMILES IDX 14 14 15 15 16 16 17 17 18 18 19 19 20 20
REMARK H PARENT
REMARK Flexibility Score: inf
ROOT
ATOM      1  C   UNL     1      19.979   6.032   2.404  1.00  0.00     0.000 C 
ENDROOT
BRANCH   1   2
ATOM      2  C   UNL     1      20.864   5.457   3.521  1.00  0.00     0.000 C 
BRANCH   2   3
ATOM      3  C   UNL     1      20.135   4.331   4.271  1.00  0.00     0.000 C 
BRANCH   3   4
ATOM      4  C   UNL     1      20.030   4.595   5.781  1.00  0.00     0.000 C 
BRANCH   4   5
ATOM      5  C   UNL     1      20.748   5.884   6.209  1.00  0.00     0.000 C 
BRANCH   5   6
ATOM      6  C   UNL     1      21.861   5.582   7.224  1.00  0.00     0.006 C 
BRANCH   6   7
ATOM      7  C   UNL     1      23.247   5.979   6.699  1.00  0.00     0.053 C 
BRANCH   7   8
ATOM      8  C   UNL     1      24.020   4.789   6.218  1.00  0.00     0.041 C 
ATOM      9  O   UNL     1      25.266   4.866   6.054  1.00  0.00    -0.550 OA
ATOM     10  O   UNL     1      23.368   3.586   5.981  1.00  0.00    -0.550 OA
ENDBRANCH   7   8
ENDBRANCH   6   7
ENDBRANCH   5   6
ENDBRANCH   4   5
ENDBRANCH   3   4
ENDBRANCH   2   3
ENDBRANCH   1   2
BRANCH   1  11
ATOM     11  C   UNL     1      19.765   7.548   2.540  1.00  0.00     0.000 C 
BRANCH  11  12
ATOM     12  C   UNL     1      18.338   7.907   2.985  1.00  0.00     0.000 C 
BRANCH  12  13
ATOM     13  C   UNL     1      18.213   7.860   4.513  1.00  0.00     0.000 C 
BRANCH  13  14
ATOM     14  C   UNL     1      17.148   6.847   4.948  1.00  0.00     0.000 C 
BRANCH  14  15
ATOM     15  C   UNL     1      17.131   6.686   6.472  1.00  0.00     0.000 C 
BRANCH  15  16
ATOM     16  C   UNL     1      17.553   7.985   7.168  1.00  0.00     0.006 C 
BRANCH  16  17
ATOM     17  C   UNL     1      16.359   8.929   7.342  1.00  0.00     0.053 C 
BRANCH  17  18
ATOM     18  C   UNL     1      15.702   8.704   8.667  1.00  0.00     0.041 C 
ATOM     19  O   UNL     1      16.139   9.279   9.697  1.00  0.00    -0.550 OA
ATOM     20  O   UNL     1      14.635   7.818   8.772  1.00  0.00    -0.550 OA
ENDBRANCH  17  18
ENDBRANCH  16  17
ENDBRANCH  15  16
ENDBRANCH  14  15
ENDBRANCH  13  14
ENDBRANCH  12  13
ENDBRANCH  11  12
ENDBRANCH   1  11
TORSDOF 15
ENDMDL
MODEL 6
REMARK VINA RESULT:    -4.689      1.677      6.877
REMARK INTER + INTRA:          -9.896
REMARK INTER:                  -8.347
REMARK INTRA:                  -1.549
REMARK UNBOUND:                -1.094
REMARK SMILES O=C([O-])CCCCCCCCCCCCCCC(=O)[O-]
REMARK SMILES IDX 10 1 9 2 8 3 7 4 6 5 5 6 4 7 2 8 1 9 3 10 11 11 12 12 13 13
REMARK SMILES IDX 14 14 15 15 16 16 17 17 18 18 19 19 20 20
REMARK H PARENT
REMARK Flexibility Score: inf
ROOT
ATOM      1  C   UNL     1      19.056   7.653   2.863  1.00  0.00     0.000 C 
ENDROOT
BRANCH   1   2
ATOM      2  C   UNL     1      18.380   8.014   4.195  1.00  0.00     0.000 C 
BRANCH   2   3
ATOM      3  C   UNL     1      17.309   6.975   4.564  1.00  0.00     0.000 C 
BRANCH   3   4
ATOM      4  C   UNL     1      17.176   6.774   6.082  1.00  0.00     0.000 C 
BRANCH   4   5
ATOM      5  C   UNL     1      18.094   7.707   6.887  1.00  0.00     0.000 C 
BRANCH   5   6
ATOM      6  C   UNL     1      17.284   8.547   7.885  1.00  0.00     0.006 C 
BRANCH   6   7
ATOM      7  C   UNL     1      18.183   9.421   8.770  1.00  0.00     0.053 C 
BRANCH   7   8
ATOM      8  C   UNL     1      17.505   9.794  10.053  1.00  0.00     0.041 C 
ATOM      9  O   UNL     1      16.249   9.815  10.124  1.00  0.00    -0.550 OA
ATOM     10  O   UNL     1      18.263  10.087  11.180  1.00  0.00    -0.550 OA
ENDBRANCH   7   8
ENDBRANCH   6   7
ENDBRANCH   5   6
ENDBRANCH   4   5
ENDBRANCH   3   4
ENDBRANCH   2   3
ENDBRANCH   1   2
BRANCH   1  11
ATOM     11  C   UNL     1      20.323   6.804   3.054  1.00  0.00     0.000 C 
BRANCH  11  12
ATOM     12  C   UNL     1      20.071   5.305   2.828  1.00  0.00     0.000 C 
BRANCH  12  13
ATOM     13  C   UNL     1      20.764   4.464   3.907  1.00  0.00     0.000 C 
BRANCH  13  14
ATOM     14  C   UNL     1      20.037   4.585   5.252  1.00  0.00     0.000 C 
BRANCH  14  15
ATOM     15  C   UNL     1      21.026   4.861   6.389  1.00  0.00     0.000 C 
BRANCH  15  16
ATOM     16  C   UNL     1      22.284   5.566   5.867  1.00  0.00     0.006 C 
BRANCH  16  17
ATOM     17  C   UNL     1      23.410   5.523   6.905  1.00  0.00     0.053 C 
BRANCH  17  18
ATOM     18  C   UNL     1      24.591   4.781   6.366  1.00  0.00     0.041 C 
ATOM     19  O   UNL     1      24.998   3.736   6.939  1.00  0.00    -0.550 OA
ATOM     20  O   UNL     1      25.274   5.270   5.259  1.00  0.00    -0.550 OA
ENDBRANCH  17  18
ENDBRANCH  16  17
ENDBRANCH  15  16
ENDBRANCH  14  15
ENDBRANCH  13  14
ENDBRANCH  12  13
ENDBRANCH  11  12
ENDBRANCH   1  11
TORSDOF 15
ENDMDL
MODEL 7
REMARK VINA RESULT:    -4.689      8.343     12.123
REMARK INTER + INTRA:          -9.895
REMARK INTER:                  -8.528
REMARK INTRA:                  -1.366
REMARK UNBOUND:                -1.094
REMARK SMILES O=C([O-])CCCCCCCCCCCCCCC(=O)[O-]
REMARK SMILES IDX 10 1 9 2 8 3 7 4 6 5 5 6 4 7 2 8 1 9 3 10 11 11 12 12 13 13
REMARK SMILES IDX 14 14 15 15 16 16 17 17 18 18 19 19 20 20
REMARK H PARENT
REMARK Flexibility Score: inf
ROOT
ATOM      1  C   UNL     1      23.924   8.550  17.306  1.00  0.00     0.000 C 
ENDROOT
BRANCH   1   2
ATOM      2  C   UNL     1      23.123   9.121  18.486  1.00  0.00     0.000 C 
BRANCH   2   3
ATOM      3  C   UNL     1      21.630   9.228  18.134  1.00  0.00     0.000 C 
BRANCH   3   4
ATOM      4  C   UNL     1      21.110  10.673  18.191  1.00  0.00     0.000 C 
BRANCH   4   5
ATOM      5  C   UNL     1      21.509  11.496  16.957  1.00  0.00     0.000 C 
BRANCH   5   6
ATOM      6  C   UNL     1      21.043  10.809  15.664  1.00  0.00     0.006 C 
BRANCH   6   7
ATOM      7  C   UNL     1      22.038  11.004  14.513  1.00  0.00     0.053 C 
BRANCH   7   8
ATOM      8  C   UNL     1      21.600  12.090  13.579  1.00  0.00     0.041 C 
ATOM      9  O   UNL     1      22.224  13.183  13.539  1.00  0.00    -0.550 OA
ATOM     10  O   UNL     1      20.523  11.882  12.727  1.00  0.00    -0.550 OA
ENDBRANCH   7   8
ENDBRANCH   6   7
ENDBRANCH   5   6
ENDBRANCH   4   5
ENDBRANCH   3   4
ENDBRANCH   2   3
ENDBRANCH   1   2
BRANCH   1  11
ATOM     11  C   UNL     1      23.091   7.599  16.431  1.00  0.00     0.000 C 
BRANCH  11  12
ATOM     12  C   UNL     1      23.489   7.659  14.947  1.00  0.00     0.000 C 
BRANCH  12  13
ATOM     13  C   UNL     1      24.104   6.332  14.490  1.00  0.00     0.000 C 
BRANCH  13  14
ATOM     14  C   UNL     1      23.287   5.139  15.001  1.00  0.00     0.000 C 
BRANCH  14  15
ATOM     15  C   UNL     1      24.074   3.832  14.863  1.00  0.00     0.000 C 
BRANCH  15  16
ATOM     16  C   UNL     1      25.141   3.944  13.768  1.00  0.00     0.006 C 
BRANCH  16  17
ATOM     17  C   UNL     1      25.941   2.644  13.643  1.00  0.00     0.053 C 
BRANCH  17  18
ATOM     18  C   UNL     1      27.105   2.831  12.723  1.00  0.00     0.041 C 
ATOM     19  O   UNL     1      28.281   2.785  13.171  1.00  0.00    -0.550 OA
ATOM     20  O   UNL     1      26.891   3.107  11.378  1.00  0.00    -0.550 OA
ENDBRANCH  17  18
ENDBRANCH  16  17
ENDBRANCH  15  16
ENDBRANCH  14  15
ENDBRANCH  13  14
ENDBRANCH  12  13
ENDBRANCH  11  12
ENDBRANCH   1  11
TORSDOF 15
ENDMDL
MODEL 8
REMARK VINA RESULT:    -4.653      6.619      9.468
REMARK INTER + INTRA:          -9.827
REMARK INTER:                  -8.815
REMARK INTRA:                  -1.012
REMARK UNBOUND:                -1.094
REMARK SMILES O=C([O-])CCCCCCCCCCCCCCC(=O)[O-]
REMARK SMILES IDX 10 1 9 2 8 3 7 4 6 5 5 6 4 7 2 8 1 9 3 10 11 11 12 12 13 13
REMARK SMILES IDX 14 14 15 15 16 16 17 17 18 18 19 19 20 20
REMARK H PARENT
REMARK Flexibility Score: inf
ROOT
ATOM      1  C   UNL     1      21.477  11.649  16.046  1.00  0.00     0.000 C 
ENDROOT
BRANCH   1   2
ATOM      2  C   UNL     1      20.587  10.877  17.033  1.00  0.00     0.000 C 
BRANCH   2   3
ATOM      3  C   UNL     1      21.428  10.268  18.167  1.00  0.00     0.000 C 
BRANCH   3   4
ATOM      4  C   UNL     1      21.599   8.748  18.028  1.00  0.00     0.000 C 
BRANCH   4   5
ATOM      5  C   UNL     1      22.998   8.351  17.531  1.00  0.00     0.000 C 
BRANCH   5   6
ATOM      6  C   UNL     1      22.979   8.042  16.027  1.00  0.00     0.006 C 
BRANCH   6   7
ATOM      7  C   UNL     1      23.971   6.934  15.650  1.00  0.00     0.053 C 
BRANCH   7   8
ATOM      8  C   UNL     1      23.302   5.818  14.907  1.00  0.00     0.041 C 
ATOM      9  O   UNL     1      23.201   4.678  15.431  1.00  0.00    -0.550 OA
ATOM     10  O   UNL     1      22.759   6.047  13.649  1.00  0.00    -0.550 OA
ENDBRANCH   7   8
ENDBRANCH   6   7
ENDBRANCH   5   6
ENDBRANCH   4   5
ENDBRANCH   3   4
ENDBRANCH   2   3
ENDBRANCH   1   2
BRANCH   1  11
ATOM     11  C   UNL     1      20.892  11.681  14.625  1.00  0.00     0.000 C 
BRANCH  11  12
ATOM     12  C   UNL     1      20.259  13.037  14.275  1.00  0.00     0.000 C 
BRANCH  12  13
ATOM     13  C   UNL     1      19.934  13.122  12.779  1.00  0.00     0.000 C 
BRANCH  13  14
ATOM     14  C   UNL     1      19.767  11.724  12.172  1.00  0.00     0.000 C 
BRANCH  14  15
ATOM     15  C   UNL     1      18.843  11.761  10.950  1.00  0.00     0.000 C 
BRANCH  15  16
ATOM     16  C   UNL     1      18.305  13.176  10.708  1.00  0.00     0.006 C 
BRANCH  16  17
ATOM     17  C   UNL     1      16.775  13.180  10.642  1.00  0.00     0.053 C 
BRANCH  17  18
ATOM     18  C   UNL     1      16.217  14.287  11.479  1.00  0.00     0.041 C 
ATOM     19  O   UNL     1      15.468  15.156  10.963  1.00  0.00    -0.550 OA
ATOM     20  O   UNL     1      16.566  14.387  12.821  1.00  0.00    -0.550 OA
ENDBRANCH  17  18
ENDBRANCH  16  17
ENDBRANCH  15  16
ENDBRANCH  14  15
ENDBRANCH  13  14
ENDBRANCH  12  13
ENDBRANCH  11  12
ENDBRANCH   1  11
TORSDOF 15
ENDMDL
MODEL 9
REMARK VINA RESULT:    -4.651      8.699     12.451
REMARK INTER + INTRA:          -9.824
REMARK INTER:                  -8.511
REMARK INTRA:                  -1.313
REMARK UNBOUND:                -1.094
REMARK SMILES O=C([O-])CCCCCCCCCCCCCCC(=O)[O-]
REMARK SMILES IDX 10 1 9 2 8 3 7 4 6 5 5 6 4 7 2 8 1 9 3 10 11 11 12 12 13 13
REMARK SMILES IDX 14 14 15 15 16 16 17 17 18 18 19 19 20 20
REMARK H PARENT
REMARK Flexibility Score: inf
ROOT
ATOM      1  C   UNL     1      24.185   9.213  15.806  1.00  0.00     0.000 C 
ENDROOT
BRANCH   1   2
ATOM      2  C   UNL     1      23.819   8.980  17.281  1.00  0.00     0.000 C 
BRANCH   2   3
ATOM      3  C   UNL     1      22.490   8.218  17.401  1.00  0.00     0.000 C 
BRANCH   3   4
ATOM      4  C   UNL     1      21.526   8.863  18.409  1.00  0.00     0.000 C 
BRANCH   4   5
ATOM      5  C   UNL     1      21.298  10.358  18.138  1.00  0.00     0.000 C 
BRANCH   5   6
ATOM      6  C   UNL     1      20.585  10.571  16.794  1.00  0.00     0.006 C 
BRANCH   6   7
ATOM      7  C   UNL     1      20.523  12.052  16.399  1.00  0.00     0.053 C 
BRANCH   7   8
ATOM      8  C   UNL     1      19.722  12.855  17.378  1.00  0.00     0.041 C 
ATOM      9  O   UNL     1      18.500  12.608  17.553  1.00  0.00    -0.550 OA
ATOM     10  O   UNL     1      20.335  13.855  18.123  1.00  0.00    -0.550 OA
ENDBRANCH   7   8
ENDBRANCH   6   7
ENDBRANCH   5   6
ENDBRANCH   4   5
ENDBRANCH   3   4
ENDBRANCH   2   3
ENDBRANCH   1   2
BRANCH   1  11
ATOM     11  C   UNL     1      25.208   8.192  15.283  1.00  0.00     0.000 C 
BRANCH  11  12
ATOM     12  C   UNL     1      24.753   7.512  13.982  1.00  0.00     0.000 C 
BRANCH  12  13
ATOM     13  C   UNL     1      23.238   7.278  13.986  1.00  0.00     0.000 C 
BRANCH  13  14
ATOM     14  C   UNL     1      22.910   5.781  13.942  1.00  0.00     0.000 C 
BRANCH  14  15
ATOM     15  C   UNL     1      23.612   5.030  15.079  1.00  0.00     0.000 C 
BRANCH  15  16
ATOM     16  C   UNL     1      24.255   3.734  14.569  1.00  0.00     0.006 C 
BRANCH  16  17
ATOM     17  C   UNL     1      25.333   4.031  13.522  1.00  0.00     0.053 C 
BRANCH  17  18
ATOM     18  C   UNL     1      25.997   2.765  13.081  1.00  0.00     0.041 C 
ATOM     19  O   UNL     1      26.079   2.485  11.856  1.00  0.00    -0.550 OA
ATOM     20  O   UNL     1      26.482   1.869  14.026  1.00  0.00    -0.550 OA
ENDBRANCH  17  18
ENDBRANCH  16  17
ENDBRANCH  15  16
ENDBRANCH  14  15
ENDBRANCH  13  14
ENDBRANCH  12  13
ENDBRANCH  11  12
ENDBRANCH   1  11
TORSDOF 15
ENDMDL
