MODEL 1
REMARK VINA RESULT:    -4.293      0.000      0.000
REMARK INTER + INTRA:          -4.561
REMARK INTER:                  -4.544
REMARK INTRA:                  -0.017
REMARK UNBOUND:                -0.017
REMARK SMILES O=C([O-])c1cccnc1
REMARK SMILES IDX 4 1 5 2 9 3 6 4 8 5 7 6 2 7 1 8 3 9
REMARK H PARENT
REMARK Flexibility Score: inf
ROOT
ATOM      1  C   UNL     1      12.996 -30.309  23.401  1.00  0.00     0.016 A 
ATOM      2  C   UNL     1      12.726 -29.143  24.139  1.00  0.00     0.013 A 
ATOM      3  C   UNL     1      12.178 -30.605  22.298  1.00  0.00     0.120 A 
ATOM      4  C   UNL     1      11.668 -28.311  23.772  1.00  0.00     0.021 A 
ATOM      5  N   UNL     1      11.153 -29.776  21.961  1.00  0.00    -0.264 NA
ATOM      6  C   UNL     1      10.884 -28.647  22.668  1.00  0.00     0.111 A 
ENDROOT
BRANCH   1   7
ATOM      7  C   UNL     1      14.112 -31.204  23.775  1.00  0.00     0.073 C 
ATOM      8  O   UNL     1      15.307 -30.831  23.635  1.00  0.00    -0.545 OA
ATOM      9  O   UNL     1      13.857 -32.473  24.283  1.00  0.00    -0.545 OA
ENDBRANCH   1   7
TORSDOF 1
ENDMDL
MODEL 2
REMARK VINA RESULT:    -4.164      1.422      1.640
REMARK INTER + INTRA:          -4.424
REMARK INTER:                  -4.401
REMARK INTRA:                  -0.023
REMARK UNBOUND:                -0.017
REMARK SMILES O=C([O-])c1cccnc1
REMARK SMILES IDX 4 1 5 2 9 3 6 4 8 5 7 6 2 7 1 8 3 9
REMARK H PARENT
REMARK Flexibility Score: inf
ROOT
ATOM      1  C   UNL     1      13.116 -30.927  22.685  1.00  0.00     0.016 A 
ATOM      2  C   UNL     1      13.452 -30.178  23.827  1.00  0.00     0.013 A 
ATOM      3  C   UNL     1      11.990 -30.538  21.940  1.00  0.00     0.120 A 
ATOM      4  C   UNL     1      12.675 -29.078  24.196  1.00  0.00     0.021 A 
ATOM      5  N   UNL     1      11.251 -29.462  22.322  1.00  0.00    -0.264 NA
ATOM      6  C   UNL     1      11.567 -28.732  23.424  1.00  0.00     0.111 A 
ENDROOT
BRANCH   1   7
ATOM      7  C   UNL     1      13.925 -32.095  22.277  1.00  0.00     0.073 C 
ATOM      8  O   UNL     1      14.636 -32.707  23.117  1.00  0.00    -0.545 OA
ATOM      9  O   UNL     1      13.913 -32.532  20.957  1.00  0.00    -0.545 OA
ENDBRANCH   1   7
TORSDOF 1
ENDMDL
MODEL 3
REMARK VINA RESULT:    -4.125      1.766      2.230
REMARK INTER + INTRA:          -4.383
REMARK INTER:                  -4.361
REMARK INTRA:                  -0.022
REMARK UNBOUND:                -0.017
REMARK SMILES O=C([O-])c1cccnc1
REMARK SMILES IDX 4 1 5 2 9 3 6 4 8 5 7 6 2 7 1 8 3 9
REMARK H PARENT
REMARK Flexibility Score: inf
ROOT
ATOM      1  C   UNL     1      13.126 -30.949  22.651  1.00  0.00     0.016 A 
ATOM      2  C   UNL     1      11.993 -30.517  21.939  1.00  0.00     0.013 A 
ATOM      3  C   UNL     1      13.497 -30.243  23.807  1.00  0.00     0.120 A 
ATOM      4  C   UNL     1      11.266 -29.412  22.384  1.00  0.00     0.021 A 
ATOM      5  N   UNL     1      12.770 -29.169  24.219  1.00  0.00    -0.264 NA
ATOM      6  C   UNL     1      11.674 -28.744  23.539  1.00  0.00     0.111 A 
ENDROOT
BRANCH   1   7
ATOM      7  C   UNL     1      13.910 -32.117  22.196  1.00  0.00     0.073 C 
ATOM      8  O   UNL     1      14.636 -32.755  23.003  1.00  0.00    -0.545 OA
ATOM      9  O   UNL     1      13.857 -32.527  20.868  1.00  0.00    -0.545 OA
ENDBRANCH   1   7
TORSDOF 1
ENDMDL
MODEL 4
REMARK VINA RESULT:    -4.039      5.859      7.399
REMARK INTER + INTRA:          -4.292
REMARK INTER:                  -4.269
REMARK INTRA:                  -0.023
REMARK UNBOUND:                -0.017
REMARK SMILES O=C([O-])c1cccnc1
REMARK SMILES IDX 4 1 5 2 9 3 6 4 8 5 7 6 2 7 1 8 3 9
REMARK H PARENT
REMARK Flexibility Score: inf
ROOT
ATOM      1  C   UNL     1      15.924 -34.826  21.205  1.00  0.00     0.016 A 
ATOM      2  C   UNL     1      15.849 -35.466  19.955  1.00  0.00     0.013 A 
ATOM      3  C   UNL     1      16.935 -35.221  22.097  1.00  0.00     0.120 A 
ATOM      4  C   UNL     1      16.764 -36.467  19.624  1.00  0.00     0.021 A 
ATOM      5  N   UNL     1      17.814 -36.199  21.749  1.00  0.00    -0.264 NA
ATOM      6  C   UNL     1      17.750 -36.823  20.544  1.00  0.00     0.111 A 
ENDROOT
BRANCH   1   7
ATOM      7  C   UNL     1      14.964 -33.764  21.575  1.00  0.00     0.073 C 
ATOM      8  O   UNL     1      14.843 -33.399  22.775  1.00  0.00    -0.545 OA
ATOM      9  O   UNL     1      14.180 -33.154  20.602  1.00  0.00    -0.545 OA
ENDBRANCH   1   7
TORSDOF 1
ENDMDL
MODEL 5
REMARK VINA RESULT:    -4.038      2.878      3.725
REMARK INTER + INTRA:          -4.291
REMARK INTER:                  -4.273
REMARK INTRA:                  -0.018
REMARK UNBOUND:                -0.017
REMARK SMILES O=C([O-])c1cccnc1
REMARK SMILES IDX 4 1 5 2 9 3 6 4 8 5 7 6 2 7 1 8 3 9
REMARK H PARENT
REMARK Flexibility Score: inf
ROOT
ATOM      1  C   UNL     1      12.846 -28.823  23.076  1.00  0.00     0.016 A 
ATOM      2  C   UNL     1      12.089 -29.863  22.508  1.00  0.00     0.013 A 
ATOM      3  C   UNL     1      14.211 -28.740  22.756  1.00  0.00     0.120 A 
ATOM      4  C   UNL     1      12.695 -30.782  21.650  1.00  0.00     0.021 A 
ATOM      5  N   UNL     1      14.777 -29.649  21.917  1.00  0.00    -0.264 NA
ATOM      6  C   UNL     1      14.054 -30.658  21.363  1.00  0.00     0.111 A 
ENDROOT
BRANCH   1   7
ATOM      7  C   UNL     1      12.223 -27.840  23.987  1.00  0.00     0.073 C 
ATOM      8  O   UNL     1      11.230 -27.160  23.615  1.00  0.00    -0.545 OA
ATOM      9  O   UNL     1      12.727 -27.650  25.269  1.00  0.00    -0.545 OA
ENDBRANCH   1   7
TORSDOF 1
ENDMDL
MODEL 6
REMARK VINA RESULT:    -4.036      2.541      3.594
REMARK INTER + INTRA:          -4.289
REMARK INTER:                  -4.267
REMARK INTRA:                  -0.022
REMARK UNBOUND:                -0.017
REMARK SMILES O=C([O-])c1cccnc1
REMARK SMILES IDX 4 1 5 2 9 3 6 4 8 5 7 6 2 7 1 8 3 9
REMARK H PARENT
REMARK Flexibility Score: inf
ROOT
ATOM      1  C   UNL     1      12.775 -30.126  22.926  1.00  0.00     0.016 A 
ATOM      2  C   UNL     1      13.622 -30.729  23.872  1.00  0.00     0.013 A 
ATOM      3  C   UNL     1      12.734 -30.664  21.629  1.00  0.00     0.120 A 
ATOM      4  C   UNL     1      14.397 -31.834  23.515  1.00  0.00     0.021 A 
ATOM      5  N   UNL     1      13.499 -31.742  21.307  1.00  0.00    -0.264 NA
ATOM      6  C   UNL     1      14.321 -32.331  22.214  1.00  0.00     0.111 A 
ENDROOT
BRANCH   1   7
ATOM      7  C   UNL     1      11.947 -28.955  23.284  1.00  0.00     0.073 C 
ATOM      8  O   UNL     1      10.875 -28.715  22.667  1.00  0.00    -0.545 OA
ATOM      9  O   UNL     1      12.342 -28.100  24.307  1.00  0.00    -0.545 OA
ENDBRANCH   1   7
TORSDOF 1
ENDMDL
MODEL 7
REMARK VINA RESULT:    -4.026     10.101     10.879
REMARK INTER + INTRA:          -4.278
REMARK INTER:                  -4.262
REMARK INTRA:                  -0.016
REMARK UNBOUND:                -0.017
REMARK SMILES O=C([O-])c1cccnc1
REMARK SMILES IDX 4 1 5 2 9 3 6 4 8 5 7 6 2 7 1 8 3 9
REMARK H PARENT
REMARK Flexibility Score: inf
ROOT
ATOM      1  C   UNL     1      22.188 -25.976  20.212  1.00  0.00     0.016 A 
ATOM      2  C   UNL     1      20.801 -25.749  20.176  1.00  0.00     0.013 A 
ATOM      3  C   UNL     1      22.645 -27.250  20.588  1.00  0.00     0.120 A 
ATOM      4  C   UNL     1      19.914 -26.774  20.509  1.00  0.00     0.021 A 
ATOM      5  N   UNL     1      21.759 -28.232  20.908  1.00  0.00    -0.264 NA
ATOM      6  C   UNL     1      20.417 -28.021  20.876  1.00  0.00     0.111 A 
ENDROOT
BRANCH   1   7
ATOM      7  C   UNL     1      23.144 -24.904  19.863  1.00  0.00     0.073 C 
ATOM      8  O   UNL     1      23.624 -24.826  18.701  1.00  0.00    -0.545 OA
ATOM      9  O   UNL     1      23.529 -23.967  20.816  1.00  0.00    -0.545 OA
ENDBRANCH   1   7
TORSDOF 1
ENDMDL
MODEL 8
REMARK VINA RESULT:    -3.995     11.250     11.909
REMARK INTER + INTRA:          -4.245
REMARK INTER:                  -4.229
REMARK INTRA:                  -0.016
REMARK UNBOUND:                -0.017
REMARK SMILES O=C([O-])c1cccnc1
REMARK SMILES IDX 4 1 5 2 9 3 6 4 8 5 7 6 2 7 1 8 3 9
REMARK H PARENT
REMARK Flexibility Score: inf
ROOT
ATOM      1  C   UNL     1      22.510 -25.256  20.509  1.00  0.00     0.016 A 
ATOM      2  C   UNL     1      23.286 -24.906  19.391  1.00  0.00     0.013 A 
ATOM      3  C   UNL     1      22.647 -24.494  21.681  1.00  0.00     0.120 A 
ATOM      4  C   UNL     1      24.167 -23.826  19.460  1.00  0.00     0.021 A 
ATOM      5  N   UNL     1      23.513 -23.446  21.722  1.00  0.00    -0.264 NA
ATOM      6  C   UNL     1      24.268 -23.100  20.646  1.00  0.00     0.111 A 
ENDROOT
BRANCH   1   7
ATOM      7  C   UNL     1      21.571 -26.397  20.457  1.00  0.00     0.073 C 
ATOM      8  O   UNL     1      21.958 -27.559  20.749  1.00  0.00    -0.545 OA
ATOM      9  O   UNL     1      20.246 -26.202  20.081  1.00  0.00    -0.545 OA
ENDBRANCH   1   7
TORSDOF 1
ENDMDL
MODEL 9
REMARK VINA RESULT:    -3.897      2.704      3.412
REMARK INTER + INTRA:          -4.142
REMARK INTER:                  -4.119
REMARK INTRA:                  -0.023
REMARK UNBOUND:                -0.017
REMARK SMILES O=C([O-])c1cccnc1
REMARK SMILES IDX 4 1 5 2 9 3 6 4 8 5 7 6 2 7 1 8 3 9
REMARK H PARENT
REMARK Flexibility Score: inf
ROOT
ATOM      1  C   UNL     1      14.493 -32.833  22.102  1.00  0.00     0.016 A 
ATOM      2  C   UNL     1      14.351 -32.340  23.411  1.00  0.00     0.013 A 
ATOM      3  C   UNL     1      13.889 -32.122  21.052  1.00  0.00     0.120 A 
ATOM      4  C   UNL     1      13.624 -31.171  23.644  1.00  0.00     0.021 A 
ATOM      5  N   UNL     1      13.186 -30.985  21.307  1.00  0.00    -0.264 NA
ATOM      6  C   UNL     1      13.043 -30.501  22.568  1.00  0.00     0.111 A 
ENDROOT
BRANCH   1   7
ATOM      7  C   UNL     1      15.259 -34.069  21.834  1.00  0.00     0.073 C 
ATOM      8  O   UNL     1      16.105 -34.492  22.666  1.00  0.00    -0.545 OA
ATOM      9  O   UNL     1      15.057 -34.781  20.657  1.00  0.00    -0.545 OA
ENDBRANCH   1   7
TORSDOF 1
ENDMDL
