MODEL 1
REMARK VINA RESULT:    -3.693      0.000      0.000
REMARK INTER + INTRA:          -9.018
REMARK INTER:                  -6.499
REMARK INTRA:                  -2.519
REMARK UNBOUND:                -2.519
REMARK SMILES CCCCCCC=CCCCCCCCC(=O)[O-]
REMARK SMILES IDX 10 1 11 2 12 3 13 4 14 5 15 6 16 7 17 8 18 9 9 10 8 11 7 12
REMARK SMILES IDX 6 13 5 14 4 15 3 16 2 17 1 18
REMARK H PARENT
REMARK Flexibility Score: inf
ROOT
ATOM      1  C   UNL     1    -102.028  24.981  15.453  1.00  0.00     0.004 C 
ENDROOT
BRANCH   1   2
ATOM      2  C   UNL     1    -101.840  24.632  13.963  1.00  0.00     0.000 C 
BRANCH   2   3
ATOM      3  C   UNL     1    -102.901  25.280  13.057  1.00  0.00     0.000 C 
BRANCH   3   4
ATOM      4  C   UNL     1    -103.873  24.251  12.457  1.00  0.00     0.000 C 
BRANCH   4   5
ATOM      5  C   UNL     1    -103.528  22.806  12.862  1.00  0.00     0.006 C 
BRANCH   5   6
ATOM      6  C   UNL     1    -104.533  21.791  12.298  1.00  0.00     0.053 C 
BRANCH   6   7
ATOM      7  C   UNL     1    -104.626  20.567  13.156  1.00  0.00     0.041 C 
ATOM      8  O   UNL     1    -104.625  20.667  14.410  1.00  0.00    -0.550 OA
ATOM      9  O   UNL     1    -104.733  19.313  12.568  1.00  0.00    -0.550 OA
ENDBRANCH   6   7
ENDBRANCH   5   6
ENDBRANCH   4   5
ENDBRANCH   3   4
ENDBRANCH   2   3
ENDBRANCH   1   2
BRANCH   1  10
ATOM     10  C   UNL     1    -102.371  23.786  16.359  1.00  0.00     0.027 C 
BRANCH  10  11
ATOM     11  C   UNL     1    -103.281  24.181  17.498  1.00  0.00    -0.031 C 
ATOM     12  C   UNL     1    -104.626  24.100  17.489  1.00  0.00    -0.031 C 
BRANCH  12  13
ATOM     13  C   UNL     1    -105.461  23.555  16.357  1.00  0.00     0.027 C 
BRANCH  13  14
ATOM     14  C   UNL     1    -105.923  24.630  15.357  1.00  0.00     0.004 C 
BRANCH  14  15
ATOM     15  C   UNL     1    -105.984  26.049  15.956  1.00  0.00     0.000 C 
BRANCH  15  16
ATOM     16  C   UNL     1    -105.802  27.145  14.890  1.00  0.00    -0.000 C 
BRANCH  16  17
ATOM     17  C   UNL     1    -104.498  27.936  15.076  1.00  0.00    -0.003 C 
ATOM     18  C   UNL     1    -103.903  27.773  16.477  1.00  0.00     0.004 C 
ENDBRANCH  16  17
ENDBRANCH  15  16
ENDBRANCH  14  15
ENDBRANCH  13  14
ENDBRANCH  12  13
ENDBRANCH  10  11
ENDBRANCH   1  10
TORSDOF 13
ENDMDL
MODEL 2
REMARK VINA RESULT:    -3.677      2.154      4.299
REMARK INTER + INTRA:          -8.991
REMARK INTER:                  -7.060
REMARK INTRA:                  -1.931
REMARK UNBOUND:                -2.519
REMARK SMILES CCCCCCC=CCCCCCCCC(=O)[O-]
REMARK SMILES IDX 10 1 11 2 12 3 13 4 14 5 15 6 16 7 17 8 18 9 9 10 8 11 7 12
REMARK SMILES IDX 6 13 5 14 4 15 3 16 2 17 1 18
REMARK H PARENT
REMARK Flexibility Score: inf
ROOT
ATOM      1  C   UNL     1    -103.767  22.048  12.069  1.00  0.00     0.004 C 
ENDROOT
BRANCH   1   2
ATOM      2  C   UNL     1    -104.598  20.759  11.910  1.00  0.00     0.000 C 
BRANCH   2   3
ATOM      3  C   UNL     1    -105.897  20.778  12.735  1.00  0.00     0.000 C 
BRANCH   3   4
ATOM      4  C   UNL     1    -106.016  19.567  13.674  1.00  0.00     0.000 C 
BRANCH   4   5
ATOM      5  C   UNL     1    -104.674  18.843  13.880  1.00  0.00     0.006 C 
BRANCH   5   6
ATOM      6  C   UNL     1    -104.044  19.166  15.242  1.00  0.00     0.053 C 
BRANCH   6   7
ATOM      7  C   UNL     1    -103.499  17.940  15.907  1.00  0.00     0.041 C 
ATOM      8  O   UNL     1    -104.110  17.416  16.875  1.00  0.00    -0.550 OA
ATOM      9  O   UNL     1    -102.322  17.364  15.446  1.00  0.00    -0.550 OA
ENDBRANCH   6   7
ENDBRANCH   5   6
ENDBRANCH   4   5
ENDBRANCH   3   4
ENDBRANCH   2   3
ENDBRANCH   1   2
BRANCH   1  10
ATOM     10  C   UNL     1    -104.141  22.913  13.286  1.00  0.00     0.027 C 
BRANCH  10  11
ATOM     11  C   UNL     1    -103.172  22.729  14.430  1.00  0.00    -0.031 C 
ATOM     12  C   UNL     1    -102.723  23.707  15.240  1.00  0.00    -0.031 C 
BRANCH  12  13
ATOM     13  C   UNL     1    -103.145  25.155  15.178  1.00  0.00     0.027 C 
BRANCH  13  14
ATOM     14  C   UNL     1    -103.710  25.690  16.506  1.00  0.00     0.004 C 
BRANCH  14  15
ATOM     15  C   UNL     1    -105.128  25.176  16.828  1.00  0.00     0.000 C 
BRANCH  15  16
ATOM     16  C   UNL     1    -105.122  24.062  17.890  1.00  0.00    -0.000 C 
BRANCH  16  17
ATOM     17  C   UNL     1    -106.275  23.063  17.701  1.00  0.00    -0.003 C 
ATOM     18  C   UNL     1    -106.138  22.238  16.419  1.00  0.00     0.004 C 
ENDBRANCH  16  17
ENDBRANCH  15  16
ENDBRANCH  14  15
ENDBRANCH  13  14
ENDBRANCH  12  13
ENDBRANCH  10  11
ENDBRANCH   1  10
TORSDOF 13
ENDMDL
MODEL 3
REMARK VINA RESULT:    -3.669      4.159      7.341
REMARK INTER + INTRA:          -8.977
REMARK INTER:                  -7.564
REMARK INTRA:                  -1.413
REMARK UNBOUND:                -2.519
REMARK SMILES CCCCCCC=CCCCCCCCC(=O)[O-]
REMARK SMILES IDX 10 1 11 2 12 3 13 4 14 5 15 6 16 7 17 8 18 9 9 10 8 11 7 12
REMARK SMILES IDX 6 13 5 14 4 15 3 16 2 17 1 18
REMARK H PARENT
REMARK Flexibility Score: inf
ROOT
ATOM      1  C   UNL     1    -104.554  19.788  12.080  1.00  0.00     0.004 C 
ENDROOT
BRANCH   1   2
ATOM      2  C   UNL     1    -104.924  21.191  12.601  1.00  0.00     0.000 C 
BRANCH   2   3
ATOM      3  C   UNL     1    -103.698  22.098  12.804  1.00  0.00     0.000 C 
BRANCH   3   4
ATOM      4  C   UNL     1    -103.846  23.026  14.021  1.00  0.00     0.000 C 
BRANCH   4   5
ATOM      5  C   UNL     1    -103.487  22.328  15.345  1.00  0.00     0.006 C 
BRANCH   5   6
ATOM      6  C   UNL     1    -102.452  23.121  16.156  1.00  0.00     0.053 C 
BRANCH   6   7
ATOM      7  C   UNL     1    -103.067  24.307  16.832  1.00  0.00     0.041 C 
ATOM      8  O   UNL     1    -103.718  24.164  17.900  1.00  0.00    -0.550 OA
ATOM      9  O   UNL     1    -102.905  25.577  16.292  1.00  0.00    -0.550 OA
ENDBRANCH   6   7
ENDBRANCH   5   6
ENDBRANCH   4   5
ENDBRANCH   3   4
ENDBRANCH   2   3
ENDBRANCH   1   2
BRANCH   1  10
ATOM     10  C   UNL     1    -104.799  18.642  13.076  1.00  0.00     0.027 C 
BRANCH  10  11
ATOM     11  C   UNL     1    -105.163  19.154  14.450  1.00  0.00    -0.031 C 
ATOM     12  C   UNL     1    -104.597  18.760  15.607  1.00  0.00    -0.031 C 
BRANCH  12  13
ATOM     13  C   UNL     1    -103.464  17.771  15.733  1.00  0.00     0.027 C 
BRANCH  13  14
ATOM     14  C   UNL     1    -103.796  16.562  16.626  1.00  0.00     0.004 C 
BRANCH  14  15
ATOM     15  C   UNL     1    -105.162  15.918  16.315  1.00  0.00     0.000 C 
BRANCH  15  16
ATOM     16  C   UNL     1    -106.086  15.879  17.547  1.00  0.00    -0.000 C 
BRANCH  16  17
ATOM     17  C   UNL     1    -105.313  16.034  18.866  1.00  0.00    -0.003 C 
ATOM     18  C   UNL     1    -105.994  17.001  19.839  1.00  0.00     0.004 C 
ENDBRANCH  16  17
ENDBRANCH  15  16
ENDBRANCH  14  15
ENDBRANCH  13  14
ENDBRANCH  12  13
ENDBRANCH  10  11
ENDBRANCH   1  10
TORSDOF 13
ENDMDL
MODEL 4
REMARK VINA RESULT:    -3.591      2.032      3.393
REMARK INTER + INTRA:          -8.838
REMARK INTER:                  -6.729
REMARK INTRA:                  -2.109
REMARK UNBOUND:                -2.519
REMARK SMILES CCCCCCC=CCCCCCCCC(=O)[O-]
REMARK SMILES IDX 10 1 11 2 12 3 13 4 14 5 15 6 16 7 17 8 18 9 9 10 8 11 7 12
REMARK SMILES IDX 6 13 5 14 4 15 3 16 2 17 1 18
REMARK H PARENT
REMARK Flexibility Score: inf
ROOT
ATOM      1  C   UNL     1    -102.808  23.436  12.638  1.00  0.00     0.004 C 
ENDROOT
BRANCH   1   2
ATOM      2  C   UNL     1    -103.716  22.190  12.627  1.00  0.00     0.000 C 
BRANCH   2   3
ATOM      3  C   UNL     1    -104.684  22.144  13.821  1.00  0.00     0.000 C 
BRANCH   3   4
ATOM      4  C   UNL     1    -104.241  21.144  14.901  1.00  0.00     0.000 C 
BRANCH   4   5
ATOM      5  C   UNL     1    -104.763  19.720  14.639  1.00  0.00     0.006 C 
BRANCH   5   6
ATOM      6  C   UNL     1    -103.846  18.647  15.242  1.00  0.00     0.053 C 
BRANCH   6   7
ATOM      7  C   UNL     1    -104.496  17.943  16.394  1.00  0.00     0.041 C 
ATOM      8  O   UNL     1    -103.949  16.937  16.915  1.00  0.00    -0.550 OA
ATOM      9  O   UNL     1    -105.700  18.412  16.904  1.00  0.00    -0.550 OA
ENDBRANCH   6   7
ENDBRANCH   5   6
ENDBRANCH   4   5
ENDBRANCH   3   4
ENDBRANCH   2   3
ENDBRANCH   1   2
BRANCH   1  10
ATOM     10  C   UNL     1    -103.143  24.472  13.725  1.00  0.00     0.027 C 
BRANCH  10  11
ATOM     11  C   UNL     1    -101.917  24.903  14.494  1.00  0.00    -0.031 C 
ATOM     12  C   UNL     1    -101.667  24.623  15.788  1.00  0.00    -0.031 C 
BRANCH  12  13
ATOM     13  C   UNL     1    -102.545  23.787  16.687  1.00  0.00     0.027 C 
BRANCH  13  14
ATOM     14  C   UNL     1    -103.606  24.603  17.446  1.00  0.00     0.004 C 
BRANCH  14  15
ATOM     15  C   UNL     1    -105.043  24.384  16.930  1.00  0.00     0.000 C 
BRANCH  15  16
ATOM     16  C   UNL     1    -105.616  25.636  16.241  1.00  0.00    -0.000 C 
BRANCH  16  17
ATOM     17  C   UNL     1    -104.671  26.844  16.337  1.00  0.00    -0.003 C 
ATOM     18  C   UNL     1    -104.607  27.648  15.035  1.00  0.00     0.004 C 
ENDBRANCH  16  17
ENDBRANCH  15  16
ENDBRANCH  14  15
ENDBRANCH  13  14
ENDBRANCH  12  13
ENDBRANCH  10  11
ENDBRANCH   1  10
TORSDOF 13
ENDMDL
MODEL 5
REMARK VINA RESULT:    -3.558      4.659      7.426
REMARK INTER + INTRA:          -8.781
REMARK INTER:                  -7.463
REMARK INTRA:                  -1.318
REMARK UNBOUND:                -2.519
REMARK SMILES CCCCCCC=CCCCCCCCC(=O)[O-]
REMARK SMILES IDX 10 1 11 2 12 3 13 4 14 5 15 6 16 7 17 8 18 9 9 10 8 11 7 12
REMARK SMILES IDX 6 13 5 14 4 15 3 16 2 17 1 18
REMARK H PARENT
REMARK Flexibility Score: inf
ROOT
ATOM      1  C   UNL     1    -106.019  19.247  13.784  1.00  0.00     0.004 C 
ENDROOT
BRANCH   1   2
ATOM      2  C   UNL     1    -104.793  19.184  12.851  1.00  0.00     0.000 C 
BRANCH   2   3
ATOM      3  C   UNL     1    -104.633  20.447  11.986  1.00  0.00     0.000 C 
BRANCH   3   4
ATOM      4  C   UNL     1    -104.895  21.739  12.777  1.00  0.00     0.000 C 
BRANCH   4   5
ATOM      5  C   UNL     1    -103.673  22.188  13.598  1.00  0.00     0.006 C 
BRANCH   5   6
ATOM      6  C   UNL     1    -104.075  22.780  14.957  1.00  0.00     0.053 C 
BRANCH   6   7
ATOM      7  C   UNL     1    -103.684  24.221  15.072  1.00  0.00     0.041 C 
ATOM      8  O   UNL     1    -104.562  25.122  15.054  1.00  0.00    -0.550 OA
ATOM      9  O   UNL     1    -102.347  24.569  15.219  1.00  0.00    -0.550 OA
ENDBRANCH   6   7
ENDBRANCH   5   6
ENDBRANCH   4   5
ENDBRANCH   3   4
ENDBRANCH   2   3
ENDBRANCH   1   2
BRANCH   1  10
ATOM     10  C   UNL     1    -105.746  18.832  15.240  1.00  0.00     0.027 C 
BRANCH  10  11
ATOM     11  C   UNL     1    -104.271  18.639  15.507  1.00  0.00    -0.031 C 
ATOM     12  C   UNL     1    -103.700  17.507  15.961  1.00  0.00    -0.031 C 
BRANCH  12  13
ATOM     13  C   UNL     1    -104.425  16.213  16.238  1.00  0.00     0.027 C 
BRANCH  13  14
ATOM     14  C   UNL     1    -104.274  15.719  17.688  1.00  0.00     0.004 C 
BRANCH  14  15
ATOM     15  C   UNL     1    -105.552  15.887  18.536  1.00  0.00     0.000 C 
BRANCH  15  16
ATOM     16  C   UNL     1    -105.533  17.177  19.375  1.00  0.00    -0.000 C 
BRANCH  16  17
ATOM     17  C   UNL     1    -106.857  17.413  20.120  1.00  0.00    -0.003 C 
ATOM     18  C   UNL     1    -106.719  17.245  21.635  1.00  0.00     0.004 C 
ENDBRANCH  16  17
ENDBRANCH  15  16
ENDBRANCH  14  15
ENDBRANCH  13  14
ENDBRANCH  12  13
ENDBRANCH  10  11
ENDBRANCH   1  10
TORSDOF 13
ENDMDL
MODEL 6
REMARK VINA RESULT:    -3.536      1.745      3.082
REMARK INTER + INTRA:          -8.743
REMARK INTER:                  -7.317
REMARK INTRA:                  -1.426
REMARK UNBOUND:                -2.519
REMARK SMILES CCCCCCC=CCCCCCCCC(=O)[O-]
REMARK SMILES IDX 10 1 11 2 12 3 13 4 14 5 15 6 16 7 17 8 18 9 9 10 8 11 7 12
REMARK SMILES IDX 6 13 5 14 4 15 3 16 2 17 1 18
REMARK H PARENT
REMARK Flexibility Score: inf
ROOT
ATOM      1  C   UNL     1    -103.110  23.386  13.335  1.00  0.00     0.004 C 
ENDROOT
BRANCH   1   2
ATOM      2  C   UNL     1    -103.434  22.430  12.170  1.00  0.00     0.000 C 
BRANCH   2   3
ATOM      3  C   UNL     1    -104.663  21.546  12.444  1.00  0.00     0.000 C 
BRANCH   3   4
ATOM      4  C   UNL     1    -104.490  20.115  11.911  1.00  0.00     0.000 C 
BRANCH   4   5
ATOM      5  C   UNL     1    -104.844  19.046  12.961  1.00  0.00     0.006 C 
BRANCH   5   6
ATOM      6  C   UNL     1    -104.549  19.518  14.391  1.00  0.00     0.053 C 
BRANCH   6   7
ATOM      7  C   UNL     1    -104.096  18.390  15.266  1.00  0.00     0.041 C 
ATOM      8  O   UNL     1    -104.779  17.336  15.350  1.00  0.00    -0.550 OA
ATOM      9  O   UNL     1    -102.906  18.496  15.977  1.00  0.00    -0.550 OA
ENDBRANCH   6   7
ENDBRANCH   5   6
ENDBRANCH   4   5
ENDBRANCH   3   4
ENDBRANCH   2   3
ENDBRANCH   1   2
BRANCH   1  10
ATOM     10  C   UNL     1    -103.861  23.088  14.644  1.00  0.00     0.027 C 
BRANCH  10  11
ATOM     11  C   UNL     1    -102.921  22.951  15.819  1.00  0.00    -0.031 C 
ATOM     12  C   UNL     1    -102.851  23.795  16.866  1.00  0.00    -0.031 C 
BRANCH  12  13
ATOM     13  C   UNL     1    -103.732  25.001  17.078  1.00  0.00     0.027 C 
BRANCH  13  14
ATOM     14  C   UNL     1    -103.173  26.291  16.452  1.00  0.00     0.004 C 
BRANCH  14  15
ATOM     15  C   UNL     1    -104.230  27.398  16.262  1.00  0.00     0.000 C 
BRANCH  15  16
ATOM     16  C   UNL     1    -105.668  26.858  16.365  1.00  0.00    -0.000 C 
BRANCH  16  17
ATOM     17  C   UNL     1    -106.415  26.912  15.022  1.00  0.00    -0.003 C 
ATOM     18  C   UNL     1    -105.575  26.379  13.859  1.00  0.00     0.004 C 
ENDBRANCH  16  17
ENDBRANCH  15  16
ENDBRANCH  14  15
ENDBRANCH  13  14
ENDBRANCH  12  13
ENDBRANCH  10  11
ENDBRANCH   1  10
TORSDOF 13
ENDMDL
MODEL 7
REMARK VINA RESULT:    -3.529      2.107      3.961
REMARK INTER + INTRA:          -8.730
REMARK INTER:                  -6.812
REMARK INTRA:                  -1.919
REMARK UNBOUND:                -2.519
REMARK SMILES CCCCCCC=CCCCCCCCC(=O)[O-]
REMARK SMILES IDX 10 1 11 2 12 3 13 4 14 5 15 6 16 7 17 8 18 9 9 10 8 11 7 12
REMARK SMILES IDX 6 13 5 14 4 15 3 16 2 17 1 18
REMARK H PARENT
REMARK Flexibility Score: inf
ROOT
ATOM      1  C   UNL     1    -103.747  21.994  12.006  1.00  0.00     0.004 C 
ENDROOT
BRANCH   1   2
ATOM      2  C   UNL     1    -104.894  20.969  12.104  1.00  0.00     0.000 C 
BRANCH   2   3
ATOM      3  C   UNL     1    -104.426  19.522  11.875  1.00  0.00     0.000 C 
BRANCH   3   4
ATOM      4  C   UNL     1    -104.735  18.606  13.070  1.00  0.00     0.000 C 
BRANCH   4   5
ATOM      5  C   UNL     1    -105.046  19.394  14.355  1.00  0.00     0.006 C 
BRANCH   5   6
ATOM      6  C   UNL     1    -103.967  19.201  15.429  1.00  0.00     0.053 C 
BRANCH   6   7
ATOM      7  C   UNL     1    -103.641  17.753  15.635  1.00  0.00     0.041 C 
ATOM      8  O   UNL     1    -104.531  16.948  16.013  1.00  0.00    -0.550 OA
ATOM      9  O   UNL     1    -102.354  17.289  15.390  1.00  0.00    -0.550 OA
ENDBRANCH   6   7
ENDBRANCH   5   6
ENDBRANCH   4   5
ENDBRANCH   3   4
ENDBRANCH   2   3
ENDBRANCH   1   2
BRANCH   1  10
ATOM     10  C   UNL     1    -103.867  23.194  12.962  1.00  0.00     0.027 C 
BRANCH  10  11
ATOM     11  C   UNL     1    -105.262  23.331  13.526  1.00  0.00    -0.031 C 
ATOM     12  C   UNL     1    -105.600  23.175  14.821  1.00  0.00    -0.031 C 
BRANCH  12  13
ATOM     13  C   UNL     1    -104.639  22.883  15.946  1.00  0.00     0.027 C 
BRANCH  13  14
ATOM     14  C   UNL     1    -104.777  23.843  17.142  1.00  0.00     0.004 C 
BRANCH  14  15
ATOM     15  C   UNL     1    -103.471  24.580  17.500  1.00  0.00     0.000 C 
BRANCH  15  16
ATOM     16  C   UNL     1    -102.973  25.481  16.355  1.00  0.00    -0.000 C 
BRANCH  16  17
ATOM     17  C   UNL     1    -103.767  26.793  16.251  1.00  0.00    -0.003 C 
ATOM     18  C   UNL     1    -104.556  26.903  14.943  1.00  0.00     0.004 C 
ENDBRANCH  16  17
ENDBRANCH  15  16
ENDBRANCH  14  15
ENDBRANCH  13  14
ENDBRANCH  12  13
ENDBRANCH  10  11
ENDBRANCH   1  10
TORSDOF 13
ENDMDL
MODEL 8
REMARK VINA RESULT:    -3.508      6.298      8.896
REMARK INTER + INTRA:          -8.693
REMARK INTER:                  -6.479
REMARK INTRA:                  -2.214
REMARK UNBOUND:                -2.519
REMARK SMILES CCCCCCC=CCCCCCCCC(=O)[O-]
REMARK SMILES IDX 10 1 11 2 12 3 13 4 14 5 15 6 16 7 17 8 18 9 9 10 8 11 7 12
REMARK SMILES IDX 6 13 5 14 4 15 3 16 2 17 1 18
REMARK H PARENT
REMARK Flexibility Score: inf
ROOT
ATOM      1  C   UNL     1    -106.149  17.367  13.742  1.00  0.00     0.004 C 
ENDROOT
BRANCH   1   2
ATOM      2  C   UNL     1    -107.214  18.039  14.631  1.00  0.00     0.000 C 
BRANCH   2   3
ATOM      3  C   UNL     1    -107.609  17.181  15.845  1.00  0.00     0.000 C 
BRANCH   3   4
ATOM      4  C   UNL     1    -107.990  15.744  15.453  1.00  0.00     0.000 C 
BRANCH   4   5
ATOM      5  C   UNL     1    -107.228  14.685  16.270  1.00  0.00     0.006 C 
BRANCH   5   6
ATOM      6  C   UNL     1    -106.025  14.117  15.504  1.00  0.00     0.053 C 
BRANCH   6   7
ATOM      7  C   UNL     1    -106.412  12.949  14.649  1.00  0.00     0.041 C 
ATOM      8  O   UNL     1    -105.685  12.599  13.683  1.00  0.00    -0.550 OA
ATOM      9  O   UNL     1    -107.570  12.235  14.931  1.00  0.00    -0.550 OA
ENDBRANCH   6   7
ENDBRANCH   5   6
ENDBRANCH   4   5
ENDBRANCH   3   4
ENDBRANCH   2   3
ENDBRANCH   1   2
BRANCH   1  10
ATOM     10  C   UNL     1    -104.938  18.252  13.402  1.00  0.00     0.027 C 
BRANCH  10  11
ATOM     11  C   UNL     1    -104.582  19.185  14.536  1.00  0.00    -0.031 C 
ATOM     12  C   UNL     1    -103.801  18.874  15.588  1.00  0.00    -0.031 C 
BRANCH  12  13
ATOM     13  C   UNL     1    -103.103  17.553  15.799  1.00  0.00     0.027 C 
BRANCH  13  14
ATOM     14  C   UNL     1    -103.863  16.595  16.734  1.00  0.00     0.004 C 
BRANCH  14  15
ATOM     15  C   UNL     1    -104.644  17.312  17.854  1.00  0.00     0.000 C 
BRANCH  15  16
ATOM     16  C   UNL     1    -105.291  16.325  18.842  1.00  0.00    -0.000 C 
BRANCH  16  17
ATOM     17  C   UNL     1    -106.045  17.037  19.977  1.00  0.00    -0.003 C 
ATOM     18  C   UNL     1    -107.556  17.093  19.739  1.00  0.00     0.004 C 
ENDBRANCH  16  17
ENDBRANCH  15  16
ENDBRANCH  14  15
ENDBRANCH  13  14
ENDBRANCH  12  13
ENDBRANCH  10  11
ENDBRANCH   1  10
TORSDOF 13
ENDMDL
MODEL 9
REMARK VINA RESULT:    -3.415      1.294      2.858
REMARK INTER + INTRA:          -8.528
REMARK INTER:                  -5.850
REMARK INTRA:                  -2.678
REMARK UNBOUND:                -2.519
REMARK SMILES CCCCCCC=CCCCCCCCC(=O)[O-]
REMARK SMILES IDX 10 1 11 2 12 3 13 4 14 5 15 6 16 7 17 8 18 9 9 10 8 11 7 12
REMARK SMILES IDX 6 13 5 14 4 15 3 16 2 17 1 18
REMARK H PARENT
REMARK Flexibility Score: inf
ROOT
ATOM      1  C   UNL     1    -103.498  24.249  17.605  1.00  0.00     0.004 C 
ENDROOT
BRANCH   1   2
ATOM      2  C   UNL     1    -104.904  24.384  16.988  1.00  0.00     0.000 C 
BRANCH   2   3
ATOM      3  C   UNL     1    -105.465  23.046  16.475  1.00  0.00     0.000 C 
BRANCH   3   4
ATOM      4  C   UNL     1    -106.308  23.210  15.200  1.00  0.00     0.000 C 
BRANCH   4   5
ATOM      5  C   UNL     1    -105.736  22.423  14.007  1.00  0.00     0.006 C 
BRANCH   5   6
ATOM      6  C   UNL     1    -104.622  21.456  14.432  1.00  0.00     0.053 C 
BRANCH   6   7
ATOM      7  C   UNL     1    -104.991  20.030  14.159  1.00  0.00     0.041 C 
ATOM      8  O   UNL     1    -105.959  19.756  13.403  1.00  0.00    -0.550 OA
ATOM      9  O   UNL     1    -104.251  19.000  14.728  1.00  0.00    -0.550 OA
ENDBRANCH   6   7
ENDBRANCH   5   6
ENDBRANCH   4   5
ENDBRANCH   3   4
ENDBRANCH   2   3
ENDBRANCH   1   2
BRANCH   1  10
ATOM     10  C   UNL     1    -102.446  23.606  16.685  1.00  0.00     0.027 C 
BRANCH  10  11
ATOM     11  C   UNL     1    -101.569  24.639  16.018  1.00  0.00    -0.031 C 
ATOM     12  C   UNL     1    -101.631  24.997  14.721  1.00  0.00    -0.031 C 
BRANCH  12  13
ATOM     13  C   UNL     1    -102.619  24.465  13.713  1.00  0.00     0.027 C 
BRANCH  13  14
ATOM     14  C   UNL     1    -103.387  25.566  12.959  1.00  0.00     0.004 C 
BRANCH  14  15
ATOM     15  C   UNL     1    -104.595  26.124  13.739  1.00  0.00     0.000 C 
BRANCH  15  16
ATOM     16  C   UNL     1    -104.322  27.522  14.322  1.00  0.00    -0.000 C 
BRANCH  16  17
ATOM     17  C   UNL     1    -104.703  27.625  15.807  1.00  0.00    -0.003 C 
ATOM     18  C   UNL     1    -103.493  27.884  16.710  1.00  0.00     0.004 C 
ENDBRANCH  16  17
ENDBRANCH  15  16
ENDBRANCH  14  15
ENDBRANCH  13  14
ENDBRANCH  12  13
ENDBRANCH  10  11
ENDBRANCH   1  10
TORSDOF 13
ENDMDL
