MODEL 1
REMARK VINA RESULT:    -6.154      0.000      0.000
REMARK INTER + INTRA:          -8.610
REMARK INTER:                  -7.593
REMARK INTRA:                  -1.017
REMARK UNBOUND:                -1.017
REMARK SMILES CC(C)=CCC[C@H](C)c1ccc(C)cc1
REMARK SMILES IDX 6 1 7 2 8 3 9 4 13 5 12 6 11 7 14 8 10 9 15 10 5 11 4 12
REMARK SMILES IDX 2 13 1 14 3 15
REMARK H PARENT
REMARK Flexibility Score: inf
ROOT
ATOM      1  C   UNL     1     -33.478  37.948   8.980  1.00  0.00     0.012 C 
ENDROOT
BRANCH   1   2
ATOM      2  C   UNL     1     -33.319  38.039   7.446  1.00  0.00     0.016 C 
ATOM      3  C   UNL     1     -31.984  38.677   7.033  1.00  0.00     0.013 C 
BRANCH   2   4
ATOM      4  C   UNL     1     -34.481  38.804   6.838  1.00  0.00    -0.045 A 
ATOM      5  C   UNL     1     -37.767  40.965   5.051  1.00  0.00     0.044 C 
ATOM      6  C   UNL     1     -36.626  40.234   5.695  1.00  0.00    -0.051 A 
ATOM      7  C   UNL     1     -36.875  39.160   6.561  1.00  0.00     0.004 A 
ATOM      8  C   UNL     1     -35.302  40.574   5.381  1.00  0.00     0.004 A 
ATOM      9  C   UNL     1     -35.812  38.453   7.132  1.00  0.00     0.004 A 
ATOM     10  C   UNL     1     -34.238  39.868   5.952  1.00  0.00     0.004 A 
ENDBRANCH   2   4
ENDBRANCH   1   2
BRANCH   1  11
ATOM     11  C   UNL     1     -33.679  36.506   9.470  1.00  0.00     0.028 C 
BRANCH  11  12
ATOM     12  C   UNL     1     -35.073  36.317  10.015  1.00  0.00    -0.028 C 
ATOM     13  C   UNL     1     -36.022  35.551   9.434  1.00  0.00    -0.080 C 
ATOM     14  C   UNL     1     -37.386  35.490  10.072  1.00  0.00     0.039 C 
ATOM     15  C   UNL     1     -35.748  34.748   8.183  1.00  0.00     0.039 C 
ENDBRANCH  11  12
ENDBRANCH   1  11
TORSDOF 4
ENDMDL
MODEL 2
REMARK VINA RESULT:    -6.148      1.403      3.835
REMARK INTER + INTRA:          -8.603
REMARK INTER:                  -7.435
REMARK INTRA:                  -1.168
REMARK UNBOUND:                -1.017
REMARK SMILES CC(C)=CCC[C@H](C)c1ccc(C)cc1
REMARK SMILES IDX 6 1 7 2 8 3 9 4 13 5 12 6 11 7 14 8 10 9 15 10 5 11 4 12
REMARK SMILES IDX 2 13 1 14 3 15
REMARK H PARENT
REMARK Flexibility Score: inf
ROOT
ATOM      1  C   UNL     1     -34.380  36.494  10.074  1.00  0.00     0.012 C 
ENDROOT
BRANCH   1   2
ATOM      2  C   UNL     1     -35.881  36.858  10.019  1.00  0.00     0.016 C 
ATOM      3  C   UNL     1     -36.759  35.659   9.633  1.00  0.00     0.013 C 
BRANCH   2   4
ATOM      4  C   UNL     1     -36.110  38.013   9.060  1.00  0.00    -0.045 A 
ATOM      5  C   UNL     1     -36.704  41.315   6.340  1.00  0.00     0.044 C 
ATOM      6  C   UNL     1     -36.527  40.170   7.293  1.00  0.00    -0.051 A 
ATOM      7  C   UNL     1     -36.718  38.852   6.856  1.00  0.00     0.004 A 
ATOM      8  C   UNL     1     -36.102  40.405   8.608  1.00  0.00     0.004 A 
ATOM      9  C   UNL     1     -36.517  37.782   7.733  1.00  0.00     0.004 A 
ATOM     10  C   UNL     1     -35.900  39.336   9.487  1.00  0.00     0.004 A 
ENDBRANCH   2   4
ENDBRANCH   1   2
BRANCH   1  11
ATOM     11  C   UNL     1     -33.683  36.653   8.714  1.00  0.00     0.028 C 
BRANCH  11  12
ATOM     12  C   UNL     1     -32.529  37.618   8.816  1.00  0.00    -0.028 C 
ATOM     13  C   UNL     1     -32.234  38.557   7.889  1.00  0.00    -0.080 C 
ATOM     14  C   UNL     1     -31.021  39.426   8.107  1.00  0.00     0.039 C 
ATOM     15  C   UNL     1     -33.090  38.767   6.662  1.00  0.00     0.039 C 
ENDBRANCH  11  12
ENDBRANCH   1  11
TORSDOF 4
ENDMDL
MODEL 3
REMARK VINA RESULT:    -6.023      1.258      4.644
REMARK INTER + INTRA:          -8.449
REMARK INTER:                  -7.122
REMARK INTRA:                  -1.326
REMARK UNBOUND:                -1.017
REMARK SMILES CC(C)=CCC[C@H](C)c1ccc(C)cc1
REMARK SMILES IDX 6 1 7 2 8 3 9 4 13 5 12 6 11 7 14 8 10 9 15 10 5 11 4 12
REMARK SMILES IDX 2 13 1 14 3 15
REMARK H PARENT
REMARK Flexibility Score: inf
ROOT
ATOM      1  C   UNL     1     -33.434  38.801   6.197  1.00  0.00     0.012 C 
ENDROOT
BRANCH   1   2
ATOM      2  C   UNL     1     -33.169  38.581   7.703  1.00  0.00     0.016 C 
ATOM      3  C   UNL     1     -31.779  37.985   7.971  1.00  0.00     0.013 C 
BRANCH   2   4
ATOM      4  C   UNL     1     -34.248  37.700   8.307  1.00  0.00    -0.045 A 
ATOM      5  C   UNL     1     -37.359  35.241  10.019  1.00  0.00     0.044 C 
ATOM      6  C   UNL     1     -36.258  36.080   9.441  1.00  0.00    -0.051 A 
ATOM      7  C   UNL     1     -35.591  35.669   8.279  1.00  0.00     0.004 A 
ATOM      8  C   UNL     1     -35.935  37.316  10.019  1.00  0.00     0.004 A 
ATOM      9  C   UNL     1     -34.591  36.468   7.718  1.00  0.00     0.004 A 
ATOM     10  C   UNL     1     -34.935  38.117   9.461  1.00  0.00     0.004 A 
ENDBRANCH   2   4
ENDBRANCH   1   2
BRANCH   1  11
ATOM     11  C   UNL     1     -34.339  40.012   5.925  1.00  0.00     0.028 C 
BRANCH  11  12
ATOM     12  C   UNL     1     -35.793  39.622   6.015  1.00  0.00    -0.028 C 
ATOM     13  C   UNL     1     -36.665  40.127   6.915  1.00  0.00    -0.080 C 
ATOM     14  C   UNL     1     -38.082  39.610   6.912  1.00  0.00     0.039 C 
ATOM     15  C   UNL     1     -36.266  41.198   7.903  1.00  0.00     0.039 C 
ENDBRANCH  11  12
ENDBRANCH   1  11
TORSDOF 4
ENDMDL
MODEL 4
REMARK VINA RESULT:    -5.993      3.235      4.826
REMARK INTER + INTRA:          -8.412
REMARK INTER:                  -7.434
REMARK INTRA:                  -0.978
REMARK UNBOUND:                -1.017
REMARK SMILES CC(C)=CCC[C@H](C)c1ccc(C)cc1
REMARK SMILES IDX 6 1 7 2 8 3 9 4 13 5 12 6 11 7 14 8 10 9 15 10 5 11 4 12
REMARK SMILES IDX 2 13 1 14 3 15
REMARK H PARENT
REMARK Flexibility Score: inf
ROOT
ATOM      1  C   UNL     1     -34.813  39.348   7.955  1.00  0.00     0.012 C 
ENDROOT
BRANCH   1   2
ATOM      2  C   UNL     1     -36.190  39.043   8.585  1.00  0.00     0.016 C 
ATOM      3  C   UNL     1     -37.352  39.601   7.749  1.00  0.00     0.013 C 
BRANCH   2   4
ATOM      4  C   UNL     1     -36.254  39.582  10.003  1.00  0.00    -0.045 A 
ATOM      5  C   UNL     1     -36.378  41.086  14.051  1.00  0.00     0.044 C 
ATOM      6  C   UNL     1     -36.366  40.562  12.645  1.00  0.00    -0.051 A 
ATOM      7  C   UNL     1     -36.403  41.449  11.560  1.00  0.00     0.004 A 
ATOM      8  C   UNL     1     -36.246  39.186  12.406  1.00  0.00     0.004 A 
ATOM      9  C   UNL     1     -36.352  40.964  10.250  1.00  0.00     0.004 A 
ATOM     10  C   UNL     1     -36.196  38.699  11.096  1.00  0.00     0.004 A 
ENDBRANCH   2   4
ENDBRANCH   1   2
BRANCH   1  11
ATOM     11  C   UNL     1     -33.869  38.137   7.982  1.00  0.00     0.028 C 
BRANCH  11  12
ATOM     12  C   UNL     1     -34.617  36.870   7.649  1.00  0.00    -0.028 C 
ATOM     13  C   UNL     1     -34.821  35.854   8.516  1.00  0.00    -0.080 C 
ATOM     14  C   UNL     1     -35.552  34.629   8.029  1.00  0.00     0.039 C 
ATOM     15  C   UNL     1     -34.354  35.920   9.952  1.00  0.00     0.039 C 
ENDBRANCH  11  12
ENDBRANCH   1  11
TORSDOF 4
ENDMDL
MODEL 5
REMARK VINA RESULT:    -5.963      2.071      5.629
REMARK INTER + INTRA:          -8.375
REMARK INTER:                  -7.856
REMARK INTRA:                  -0.519
REMARK UNBOUND:                -1.017
REMARK SMILES CC(C)=CCC[C@H](C)c1ccc(C)cc1
REMARK SMILES IDX 6 1 7 2 8 3 9 4 13 5 12 6 11 7 14 8 10 9 15 10 5 11 4 12
REMARK SMILES IDX 2 13 1 14 3 15
REMARK H PARENT
REMARK Flexibility Score: inf
ROOT
ATOM      1  C   UNL     1     -32.532  38.618   7.977  1.00  0.00     0.012 C 
ENDROOT
BRANCH   1   2
ATOM      2  C   UNL     1     -33.540  37.861   7.083  1.00  0.00     0.016 C 
ATOM      3  C   UNL     1     -34.206  38.779   6.048  1.00  0.00     0.013 C 
BRANCH   2   4
ATOM      4  C   UNL     1     -34.592  37.175   7.936  1.00  0.00    -0.045 A 
ATOM      5  C   UNL     1     -37.628  35.264  10.342  1.00  0.00     0.044 C 
ATOM      6  C   UNL     1     -36.553  35.920   9.527  1.00  0.00    -0.051 A 
ATOM      7  C   UNL     1     -35.872  35.193   8.541  1.00  0.00     0.004 A 
ATOM      8  C   UNL     1     -36.269  37.282   9.698  1.00  0.00     0.004 A 
ATOM      9  C   UNL     1     -34.896  35.813   7.755  1.00  0.00     0.004 A 
ATOM     10  C   UNL     1     -35.293  37.904   8.913  1.00  0.00     0.004 A 
ENDBRANCH   2   4
ENDBRANCH   1   2
BRANCH   1  11
ATOM     11  C   UNL     1     -31.372  39.228   7.176  1.00  0.00     0.028 C 
BRANCH  11  12
ATOM     12  C   UNL     1     -31.357  40.730   7.318  1.00  0.00    -0.028 C 
ATOM     13  C   UNL     1     -30.676  41.399   8.274  1.00  0.00    -0.080 C 
ATOM     14  C   UNL     1     -30.789  42.902   8.318  1.00  0.00     0.039 C 
ATOM     15  C   UNL     1     -29.800  40.689   9.279  1.00  0.00     0.039 C 
ENDBRANCH  11  12
ENDBRANCH   1  11
TORSDOF 4
ENDMDL
MODEL 6
REMARK VINA RESULT:    -5.896      2.205      5.749
REMARK INTER + INTRA:          -8.291
REMARK INTER:                  -7.460
REMARK INTRA:                  -0.831
REMARK UNBOUND:                -1.017
REMARK SMILES CC(C)=CCC[C@H](C)c1ccc(C)cc1
REMARK SMILES IDX 6 1 7 2 8 3 9 4 13 5 12 6 11 7 14 8 10 9 15 10 5 11 4 12
REMARK SMILES IDX 2 13 1 14 3 15
REMARK H PARENT
REMARK Flexibility Score: inf
ROOT
ATOM      1  C   UNL     1     -33.153  39.370   6.330  1.00  0.00     0.012 C 
ENDROOT
BRANCH   1   2
ATOM      2  C   UNL     1     -32.761  38.890   7.745  1.00  0.00     0.016 C 
ATOM      3  C   UNL     1     -31.429  38.125   7.754  1.00  0.00     0.013 C 
BRANCH   2   4
ATOM      4  C   UNL     1     -33.866  38.035   8.339  1.00  0.00    -0.045 A 
ATOM      5  C   UNL     1     -37.034  35.595   9.971  1.00  0.00     0.044 C 
ATOM      6  C   UNL     1     -35.933  36.458   9.430  1.00  0.00    -0.051 A 
ATOM      7  C   UNL     1     -34.593  36.089   9.611  1.00  0.00     0.004 A 
ATOM      8  C   UNL     1     -36.238  37.603   8.680  1.00  0.00     0.004 A 
ATOM      9  C   UNL     1     -33.567  36.873   9.074  1.00  0.00     0.004 A 
ATOM     10  C   UNL     1     -35.213  38.388   8.143  1.00  0.00     0.004 A 
ENDBRANCH   2   4
ENDBRANCH   1   2
BRANCH   1  11
ATOM     11  C   UNL     1     -33.169  40.901   6.207  1.00  0.00     0.028 C 
BRANCH  11  12
ATOM     12  C   UNL     1     -32.453  41.537   7.373  1.00  0.00    -0.028 C 
ATOM     13  C   UNL     1     -31.309  42.248   7.270  1.00  0.00    -0.080 C 
ATOM     14  C   UNL     1     -30.684  42.790   8.531  1.00  0.00     0.039 C 
ATOM     15  C   UNL     1     -30.655  42.525   5.936  1.00  0.00     0.039 C 
ENDBRANCH  11  12
ENDBRANCH   1  11
TORSDOF 4
ENDMDL
MODEL 7
REMARK VINA RESULT:    -5.853      2.910      4.478
REMARK INTER + INTRA:          -8.239
REMARK INTER:                  -7.548
REMARK INTRA:                  -0.691
REMARK UNBOUND:                -1.017
REMARK SMILES CC(C)=CCC[C@H](C)c1ccc(C)cc1
REMARK SMILES IDX 6 1 7 2 8 3 9 4 13 5 12 6 11 7 14 8 10 9 15 10 5 11 4 12
REMARK SMILES IDX 2 13 1 14 3 15
REMARK H PARENT
REMARK Flexibility Score: inf
ROOT
ATOM      1  C   UNL     1     -33.165  38.781   6.772  1.00  0.00     0.012 C 
ENDROOT
BRANCH   1   2
ATOM      2  C   UNL     1     -31.687  38.991   7.167  1.00  0.00     0.016 C 
ATOM      3  C   UNL     1     -31.306  38.221   8.440  1.00  0.00     0.013 C 
BRANCH   2   4
ATOM      4  C   UNL     1     -31.390  40.471   7.335  1.00  0.00    -0.045 A 
ATOM      5  C   UNL     1     -30.485  44.666   7.822  1.00  0.00     0.044 C 
ATOM      6  C   UNL     1     -30.827  43.214   7.664  1.00  0.00    -0.051 A 
ATOM      7  C   UNL     1     -31.389  42.747   6.468  1.00  0.00     0.004 A 
ATOM      8  C   UNL     1     -30.523  42.302   8.685  1.00  0.00     0.004 A 
ATOM      9  C   UNL     1     -31.673  41.388   6.305  1.00  0.00     0.004 A 
ATOM     10  C   UNL     1     -30.807  40.942   8.524  1.00  0.00     0.004 A 
ENDBRANCH   2   4
ENDBRANCH   1   2
BRANCH   1  11
ATOM     11  C   UNL     1     -34.030  38.304   7.949  1.00  0.00     0.028 C 
BRANCH  11  12
ATOM     12  C   UNL     1     -34.694  36.989   7.626  1.00  0.00    -0.028 C 
ATOM     13  C   UNL     1     -34.821  35.963   8.496  1.00  0.00    -0.080 C 
ATOM     14  C   UNL     1     -35.473  34.691   8.016  1.00  0.00     0.039 C 
ATOM     15  C   UNL     1     -34.346  36.063   9.926  1.00  0.00     0.039 C 
ENDBRANCH  11  12
ENDBRANCH   1  11
TORSDOF 4
ENDMDL
MODEL 8
REMARK VINA RESULT:    -5.853      2.569      3.363
REMARK INTER + INTRA:          -8.239
REMARK INTER:                  -7.552
REMARK INTRA:                  -0.687
REMARK UNBOUND:                -1.017
REMARK SMILES CC(C)=CCC[C@H](C)c1ccc(C)cc1
REMARK SMILES IDX 6 1 7 2 8 3 9 4 13 5 12 6 11 7 14 8 10 9 15 10 5 11 4 12
REMARK SMILES IDX 2 13 1 14 3 15
REMARK H PARENT
REMARK Flexibility Score: inf
ROOT
ATOM      1  C   UNL     1     -33.869  37.996   7.364  1.00  0.00     0.012 C 
ENDROOT
BRANCH   1   2
ATOM      2  C   UNL     1     -32.671  38.937   7.105  1.00  0.00     0.016 C 
ATOM      3  C   UNL     1     -31.342  38.337   7.589  1.00  0.00     0.013 C 
BRANCH   2   4
ATOM      4  C   UNL     1     -32.910  40.288   7.756  1.00  0.00    -0.045 A 
ATOM      5  C   UNL     1     -33.616  44.102   9.657  1.00  0.00     0.044 C 
ATOM      6  C   UNL     1     -33.373  42.791   8.970  1.00  0.00    -0.051 A 
ATOM      7  C   UNL     1     -32.066  42.384   8.667  1.00  0.00     0.004 A 
ATOM      8  C   UNL     1     -34.445  41.932   8.689  1.00  0.00     0.004 A 
ATOM      9  C   UNL     1     -31.835  41.145   8.061  1.00  0.00     0.004 A 
ATOM     10  C   UNL     1     -34.216  40.693   8.082  1.00  0.00     0.004 A 
ENDBRANCH   2   4
ENDBRANCH   1   2
BRANCH   1  11
ATOM     11  C   UNL     1     -33.620  37.028   8.530  1.00  0.00     0.028 C 
BRANCH  11  12
ATOM     12  C   UNL     1     -34.884  36.815   9.325  1.00  0.00    -0.028 C 
ATOM     13  C   UNL     1     -35.749  35.796   9.125  1.00  0.00    -0.080 C 
ATOM     14  C   UNL     1     -36.996  35.735   9.971  1.00  0.00     0.039 C 
ATOM     15  C   UNL     1     -35.494  34.718   8.097  1.00  0.00     0.039 C 
ENDBRANCH  11  12
ENDBRANCH   1  11
TORSDOF 4
ENDMDL
MODEL 9
REMARK VINA RESULT:    -5.828      1.593      2.586
REMARK INTER + INTRA:          -8.208
REMARK INTER:                  -6.725
REMARK INTRA:                  -1.484
REMARK UNBOUND:                -1.017
REMARK SMILES CC(C)=CCC[C@H](C)c1ccc(C)cc1
REMARK SMILES IDX 6 1 7 2 8 3 9 4 13 5 12 6 11 7 14 8 10 9 15 10 5 11 4 12
REMARK SMILES IDX 2 13 1 14 3 15
REMARK H PARENT
REMARK Flexibility Score: inf
ROOT
ATOM      1  C   UNL     1     -31.408  39.609   7.986  1.00  0.00     0.012 C 
ENDROOT
BRANCH   1   2
ATOM      2  C   UNL     1     -32.015  40.570   6.939  1.00  0.00     0.016 C 
ATOM      3  C   UNL     1     -31.711  42.042   7.252  1.00  0.00     0.013 C 
BRANCH   2   4
ATOM      4  C   UNL     1     -33.513  40.351   6.826  1.00  0.00    -0.045 A 
ATOM      5  C   UNL     1     -37.785  39.789   6.521  1.00  0.00     0.044 C 
ATOM      6  C   UNL     1     -36.298  39.955   6.635  1.00  0.00    -0.051 A 
ATOM      7  C   UNL     1     -35.478  39.752   5.517  1.00  0.00     0.004 A 
ATOM      8  C   UNL     1     -35.726  40.382   7.841  1.00  0.00     0.004 A 
ATOM      9  C   UNL     1     -34.096  39.943   5.611  1.00  0.00     0.004 A 
ATOM     10  C   UNL     1     -34.344  40.573   7.938  1.00  0.00     0.004 A 
ENDBRANCH   2   4
ENDBRANCH   1   2
BRANCH   1  11
ATOM     11  C   UNL     1     -31.762  38.139   7.715  1.00  0.00     0.028 C 
BRANCH  11  12
ATOM     12  C   UNL     1     -32.511  37.546   8.882  1.00  0.00    -0.028 C 
ATOM     13  C   UNL     1     -33.731  36.972   8.794  1.00  0.00    -0.080 C 
ATOM     14  C   UNL     1     -34.377  36.459  10.056  1.00  0.00     0.039 C 
ATOM     15  C   UNL     1     -34.449  36.816   7.473  1.00  0.00     0.039 C 
ENDBRANCH  11  12
ENDBRANCH   1  11
TORSDOF 4
ENDMDL
