MODEL 1
REMARK VINA RESULT:    -5.186      0.000      0.000
REMARK INTER + INTRA:         -17.623
REMARK INTER:                 -13.068
REMARK INTRA:                  -4.554
REMARK UNBOUND:                -4.554
REMARK SMILES CCCCCCCCCCCCCCCCCCCCCCCCCCCC(=O)[O-]
REMARK SMILES IDX 15 1 16 2 17 3 18 4 19 5 20 6 21 7 22 8 23 9 24 10 25 11
REMARK SMILES IDX 26 12 27 13 28 14 29 15 30 16 14 17 13 18 12 19 11 20 10 21
REMARK SMILES IDX 9 22 8 23 7 24 6 25 5 26 4 27 3 28 2 29 1 30
REMARK H PARENT
REMARK Flexibility Score: inf
ROOT
ATOM      1  C   UNL     1      12.768 -29.527  22.974  1.00  0.00     0.000 C 
ENDROOT
BRANCH   1   2
ATOM      2  C   UNL     1      14.154 -28.930  23.297  1.00  0.00     0.000 C 
BRANCH   2   3
ATOM      3  C   UNL     1      14.994 -28.511  22.077  1.00  0.00     0.000 C 
BRANCH   3   4
ATOM      4  C   UNL     1      16.169 -29.462  21.797  1.00  0.00     0.000 C 
BRANCH   4   5
ATOM      5  C   UNL     1      16.589 -30.274  23.035  1.00  0.00     0.000 C 
BRANCH   5   6
ATOM      6  C   UNL     1      17.447 -31.514  22.707  1.00  0.00     0.000 C 
BRANCH   6   7
ATOM      7  C   UNL     1      17.769 -31.617  21.208  1.00  0.00     0.000 C 
BRANCH   7   8
ATOM      8  C   UNL     1      19.282 -31.753  20.974  1.00  0.00     0.000 C 
BRANCH   8   9
ATOM      9  C   UNL     1      20.106 -31.473  22.242  1.00  0.00     0.000 C 
BRANCH   9  10
ATOM     10  C   UNL     1      21.157 -30.371  22.039  1.00  0.00     0.000 C 
BRANCH  10  11
ATOM     11  C   UNL     1      20.603 -29.244  21.154  1.00  0.00     0.000 C 
BRANCH  11  12
ATOM     12  C   UNL     1      21.211 -27.873  21.490  1.00  0.00     0.006 C 
BRANCH  12  13
ATOM     13  C   UNL     1      22.081 -27.317  20.355  1.00  0.00     0.053 C 
BRANCH  13  14
ATOM     14  C   UNL     1      21.670 -25.919  20.014  1.00  0.00     0.041 C 
ATOM     15  O   UNL     1      20.455 -25.591  20.049  1.00  0.00    -0.550 OA
ATOM     16  O   UNL     1      22.623 -24.989  19.620  1.00  0.00    -0.550 OA
ENDBRANCH  13  14
ENDBRANCH  12  13
ENDBRANCH  11  12
ENDBRANCH  10  11
ENDBRANCH   9  10
ENDBRANCH   8   9
ENDBRANCH   7   8
ENDBRANCH   6   7
ENDBRANCH   5   6
ENDBRANCH   4   5
ENDBRANCH   3   4
ENDBRANCH   2   3
ENDBRANCH   1   2
BRANCH   1  17
ATOM     17  C   UNL     1      12.768 -31.011  22.565  1.00  0.00     0.000 C 
BRANCH  17  18
ATOM     18  C   UNL     1      12.778 -31.214  21.039  1.00  0.00     0.000 C 
BRANCH  18  19
ATOM     19  C   UNL     1      13.796 -32.278  20.597  1.00  0.00     0.000 C 
BRANCH  19  20
ATOM     20  C   UNL     1      14.427 -33.021  21.788  1.00  0.00     0.000 C 
BRANCH  20  21
ATOM     21  C   UNL     1      15.114 -34.331  21.371  1.00  0.00     0.000 C 
BRANCH  21  22
ATOM     22  C   UNL     1      15.409 -34.397  19.862  1.00  0.00    -0.000 C 
BRANCH  22  23
ATOM     23  C   UNL     1      16.506 -35.420  19.516  1.00  0.00    -0.000 C 
BRANCH  23  24
ATOM     24  C   UNL     1      17.914 -35.065  20.031  1.00  0.00    -0.000 C 
BRANCH  24  25
ATOM     25  C   UNL     1      18.406 -35.910  21.222  1.00  0.00    -0.000 C 
BRANCH  25  26
ATOM     26  C   UNL     1      19.473 -35.233  22.102  1.00  0.00    -0.000 C 
BRANCH  26  27
ATOM     27  C   UNL     1      19.061 -35.146  23.579  1.00  0.00    -0.000 C 
BRANCH  27  28
ATOM     28  C   UNL     1      17.534 -35.082  23.724  1.00  0.00    -0.000 C 
BRANCH  28  29
ATOM     29  C   UNL     1      17.047 -35.603  25.086  1.00  0.00    -0.003 C 
ATOM     30  C   UNL     1      17.922 -36.728  25.638  1.00  0.00     0.004 C 
ENDBRANCH  28  29
ENDBRANCH  27  28
ENDBRANCH  26  27
ENDBRANCH  25  26
ENDBRANCH  24  25
ENDBRANCH  23  24
ENDBRANCH  22  23
ENDBRANCH  21  22
ENDBRANCH  20  21
ENDBRANCH  19  20
ENDBRANCH  18  19
ENDBRANCH  17  18
ENDBRANCH   1  17
TORSDOF 26
ENDMDL
MODEL 2
REMARK VINA RESULT:    -5.121      2.871      7.429
REMARK INTER + INTRA:         -17.459
REMARK INTER:                 -13.373
REMARK INTRA:                  -4.086
REMARK UNBOUND:                -4.554
REMARK SMILES CCCCCCCCCCCCCCCCCCCCCCCCCCCC(=O)[O-]
REMARK SMILES IDX 15 1 16 2 17 3 18 4 19 5 20 6 21 7 22 8 23 9 24 10 25 11
REMARK SMILES IDX 26 12 27 13 28 14 29 15 30 16 14 17 13 18 12 19 11 20 10 21
REMARK SMILES IDX 9 22 8 23 7 24 6 25 5 26 4 27 3 28 2 29 1 30
REMARK H PARENT
REMARK Flexibility Score: inf
ROOT
ATOM      1  C   UNL     1      14.163 -30.361  23.479  1.00  0.00     0.000 C 
ENDROOT
BRANCH   1   2
ATOM      2  C   UNL     1      13.176 -31.353  22.827  1.00  0.00     0.000 C 
BRANCH   2   3
ATOM      3  C   UNL     1      13.005 -31.210  21.304  1.00  0.00     0.000 C 
BRANCH   3   4
ATOM      4  C   UNL     1      13.703 -32.327  20.511  1.00  0.00     0.000 C 
BRANCH   4   5
ATOM      5  C   UNL     1      14.532 -33.266  21.404  1.00  0.00     0.000 C 
BRANCH   5   6
ATOM      6  C   UNL     1      15.060 -34.518  20.673  1.00  0.00     0.000 C 
BRANCH   6   7
ATOM      7  C   UNL     1      15.910 -34.156  19.444  1.00  0.00     0.000 C 
BRANCH   7   8
ATOM      8  C   UNL     1      17.112 -35.105  19.303  1.00  0.00     0.000 C 
BRANCH   8   9
ATOM      9  C   UNL     1      16.817 -36.519  19.830  1.00  0.00     0.000 C 
BRANCH   9  10
ATOM     10  C   UNL     1      17.934 -37.063  20.734  1.00  0.00     0.000 C 
BRANCH  10  11
ATOM     11  C   UNL     1      18.570 -35.933  21.557  1.00  0.00     0.000 C 
BRANCH  11  12
ATOM     12  C   UNL     1      18.203 -36.006  23.048  1.00  0.00     0.006 C 
BRANCH  12  13
ATOM     13  C   UNL     1      17.222 -34.904  23.471  1.00  0.00     0.053 C 
BRANCH  13  14
ATOM     14  C   UNL     1      17.626 -34.317  24.786  1.00  0.00     0.041 C 
ATOM     15  O   UNL     1      17.972 -35.069  25.735  1.00  0.00    -0.550 OA
ATOM     16  O   UNL     1      17.584 -32.942  24.978  1.00  0.00    -0.550 OA
ENDBRANCH  13  14
ENDBRANCH  12  13
ENDBRANCH  11  12
ENDBRANCH  10  11
ENDBRANCH   9  10
ENDBRANCH   8   9
ENDBRANCH   7   8
ENDBRANCH   6   7
ENDBRANCH   5   6
ENDBRANCH   4   5
ENDBRANCH   3   4
ENDBRANCH   2   3
ENDBRANCH   1   2
BRANCH   1  17
ATOM     17  C   UNL     1      14.430 -29.074  22.679  1.00  0.00     0.000 C 
BRANCH  17  18
ATOM     18  C   UNL     1      15.800 -29.076  21.977  1.00  0.00     0.000 C 
BRANCH  18  19
ATOM     19  C   UNL     1      16.654 -30.294  22.363  1.00  0.00     0.000 C 
BRANCH  19  20
ATOM     20  C   UNL     1      17.261 -31.000  21.138  1.00  0.00     0.000 C 
BRANCH  20  21
ATOM     21  C   UNL     1      18.379 -31.985  21.518  1.00  0.00     0.000 C 
BRANCH  21  22
ATOM     22  C   UNL     1      19.760 -31.552  20.997  1.00  0.00    -0.000 C 
BRANCH  22  23
ATOM     23  C   UNL     1      20.285 -30.282  21.691  1.00  0.00    -0.000 C 
BRANCH  23  24
ATOM     24  C   UNL     1      20.707 -29.146  20.739  1.00  0.00    -0.000 C 
BRANCH  24  25
ATOM     25  C   UNL     1      19.762 -27.929  20.715  1.00  0.00    -0.000 C 
BRANCH  25  26
ATOM     26  C   UNL     1      20.445 -26.571  20.961  1.00  0.00    -0.000 C 
BRANCH  26  27
ATOM     27  C   UNL     1      21.531 -26.638  22.045  1.00  0.00    -0.000 C 
BRANCH  27  28
ATOM     28  C   UNL     1      22.829 -25.970  21.570  1.00  0.00    -0.000 C 
BRANCH  28  29
ATOM     29  C   UNL     1      23.116 -26.227  20.082  1.00  0.00    -0.003 C 
ATOM     30  C   UNL     1      23.295 -24.938  19.282  1.00  0.00     0.004 C 
ENDBRANCH  28  29
ENDBRANCH  27  28
ENDBRANCH  26  27
ENDBRANCH  25  26
ENDBRANCH  24  25
ENDBRANCH  23  24
ENDBRANCH  22  23
ENDBRANCH  21  22
ENDBRANCH  20  21
ENDBRANCH  19  20
ENDBRANCH  18  19
ENDBRANCH  17  18
ENDBRANCH   1  17
TORSDOF 26
ENDMDL
MODEL 3
REMARK VINA RESULT:    -5.106      1.272      1.878
REMARK INTER + INTRA:         -17.421
REMARK INTER:                 -13.541
REMARK INTRA:                  -3.880
REMARK UNBOUND:                -4.554
REMARK SMILES CCCCCCCCCCCCCCCCCCCCCCCCCCCC(=O)[O-]
REMARK SMILES IDX 15 1 16 2 17 3 18 4 19 5 20 6 21 7 22 8 23 9 24 10 25 11
REMARK SMILES IDX 26 12 27 13 28 14 29 15 30 16 14 17 13 18 12 19 11 20 10 21
REMARK SMILES IDX 9 22 8 23 7 24 6 25 5 26 4 27 3 28 2 29 1 30
REMARK H PARENT
REMARK Flexibility Score: inf
ROOT
ATOM      1  C   UNL     1      13.435 -31.368  23.144  1.00  0.00     0.000 C 
ENDROOT
BRANCH   1   2
ATOM      2  C   UNL     1      14.649 -30.477  23.479  1.00  0.00     0.000 C 
BRANCH   2   3
ATOM      3  C   UNL     1      15.969 -31.226  23.734  1.00  0.00     0.000 C 
BRANCH   3   4
ATOM      4  C   UNL     1      17.160 -30.629  22.968  1.00  0.00     0.000 C 
BRANCH   4   5
ATOM      5  C   UNL     1      17.060 -30.839  21.448  1.00  0.00     0.000 C 
BRANCH   5   6
ATOM      6  C   UNL     1      17.945 -31.986  20.915  1.00  0.00     0.000 C 
BRANCH   6   7
ATOM      7  C   UNL     1      19.344 -31.982  21.551  1.00  0.00     0.000 C 
BRANCH   7   8
ATOM      8  C   UNL     1      20.158 -30.762  21.090  1.00  0.00     0.000 C 
BRANCH   8   9
ATOM      9  C   UNL     1      21.159 -30.280  22.153  1.00  0.00     0.000 C 
BRANCH   9  10
ATOM     10  C   UNL     1      21.523 -28.794  21.999  1.00  0.00     0.000 C 
BRANCH  10  11
ATOM     11  C   UNL     1      20.999 -28.239  20.667  1.00  0.00     0.000 C 
BRANCH  11  12
ATOM     12  C   UNL     1      20.184 -26.947  20.842  1.00  0.00     0.006 C 
BRANCH  12  13
ATOM     13  C   UNL     1      20.884 -25.720  20.243  1.00  0.00     0.053 C 
BRANCH  13  14
ATOM     14  C   UNL     1      21.500 -24.886  21.323  1.00  0.00     0.041 C 
ATOM     15  O   UNL     1      22.722 -25.009  21.598  1.00  0.00    -0.550 OA
ATOM     16  O   UNL     1      20.715 -24.003  22.053  1.00  0.00    -0.550 OA
ENDBRANCH  13  14
ENDBRANCH  12  13
ENDBRANCH  11  12
ENDBRANCH  10  11
ENDBRANCH   9  10
ENDBRANCH   8   9
ENDBRANCH   7   8
ENDBRANCH   6   7
ENDBRANCH   5   6
ENDBRANCH   4   5
ENDBRANCH   3   4
ENDBRANCH   2   3
ENDBRANCH   1   2
BRANCH   1  17
ATOM     17  C   UNL     1      12.767 -31.088  21.785  1.00  0.00     0.000 C 
BRANCH  17  18
ATOM     18  C   UNL     1      13.526 -31.716  20.602  1.00  0.00     0.000 C 
BRANCH  18  19
ATOM     19  C   UNL     1      14.223 -33.031  20.986  1.00  0.00     0.000 C 
BRANCH  19  20
ATOM     20  C   UNL     1      14.573 -33.893  19.760  1.00  0.00     0.000 C 
BRANCH  20  21
ATOM     21  C   UNL     1      15.611 -34.981  20.079  1.00  0.00     0.000 C 
BRANCH  21  22
ATOM     22  C   UNL     1      16.840 -34.924  19.155  1.00  0.00    -0.000 C 
BRANCH  22  23
ATOM     23  C   UNL     1      17.915 -35.959  19.533  1.00  0.00    -0.000 C 
BRANCH  23  24
ATOM     24  C   UNL     1      17.547 -36.880  20.713  1.00  0.00    -0.000 C 
BRANCH  24  25
ATOM     25  C   UNL     1      18.533 -36.849  21.896  1.00  0.00    -0.000 C 
BRANCH  25  26
ATOM     26  C   UNL     1      18.664 -35.484  22.598  1.00  0.00    -0.000 C 
BRANCH  26  27
ATOM     27  C   UNL     1      17.327 -34.967  23.148  1.00  0.00    -0.000 C 
BRANCH  27  28
ATOM     28  C   UNL     1      17.128 -35.394  24.610  1.00  0.00    -0.000 C 
BRANCH  28  29
ATOM     29  C   UNL     1      17.004 -34.195  25.564  1.00  0.00    -0.003 C 
ATOM     30  C   UNL     1      18.272 -33.345  25.615  1.00  0.00     0.004 C 
ENDBRANCH  28  29
ENDBRANCH  27  28
ENDBRANCH  26  27
ENDBRANCH  25  26
ENDBRANCH  24  25
ENDBRANCH  23  24
ENDBRANCH  22  23
ENDBRANCH  21  22
ENDBRANCH  20  21
ENDBRANCH  19  20
ENDBRANCH  18  19
ENDBRANCH  17  18
ENDBRANCH   1  17
TORSDOF 26
ENDMDL
MODEL 4
REMARK VINA RESULT:    -5.057      1.645      2.940
REMARK INTER + INTRA:         -17.298
REMARK INTER:                 -13.504
REMARK INTRA:                  -3.794
REMARK UNBOUND:                -4.554
REMARK SMILES CCCCCCCCCCCCCCCCCCCCCCCCCCCC(=O)[O-]
REMARK SMILES IDX 15 1 16 2 17 3 18 4 19 5 20 6 21 7 22 8 23 9 24 10 25 11
REMARK SMILES IDX 26 12 27 13 28 14 29 15 30 16 14 17 13 18 12 19 11 20 10 21
REMARK SMILES IDX 9 22 8 23 7 24 6 25 5 26 4 27 3 28 2 29 1 30
REMARK H PARENT
REMARK Flexibility Score: inf
ROOT
ATOM      1  C   UNL     1      15.683 -29.870  23.303  1.00  0.00     0.000 C 
ENDROOT
BRANCH   1   2
ATOM      2  C   UNL     1      16.371 -29.621  21.944  1.00  0.00     0.000 C 
BRANCH   2   3
ATOM      3  C   UNL     1      16.941 -30.873  21.253  1.00  0.00     0.000 C 
BRANCH   3   4
ATOM      4  C   UNL     1      17.548 -31.884  22.239  1.00  0.00     0.000 C 
BRANCH   4   5
ATOM      5  C   UNL     1      18.958 -32.346  21.831  1.00  0.00     0.000 C 
BRANCH   5   6
ATOM      6  C   UNL     1      19.700 -31.351  20.914  1.00  0.00     0.000 C 
BRANCH   6   7
ATOM      7  C   UNL     1      20.521 -30.327  21.713  1.00  0.00     0.000 C 
BRANCH   7   8
ATOM      8  C   UNL     1      20.732 -29.035  20.906  1.00  0.00     0.000 C 
BRANCH   8   9
ATOM      9  C   UNL     1      19.477 -28.148  20.867  1.00  0.00     0.000 C 
BRANCH   9  10
ATOM     10  C   UNL     1      19.770 -26.686  21.239  1.00  0.00     0.000 C 
BRANCH  10  11
ATOM     11  C   UNL     1      20.552 -25.983  20.119  1.00  0.00     0.000 C 
BRANCH  11  12
ATOM     12  C   UNL     1      21.708 -25.122  20.653  1.00  0.00     0.006 C 
BRANCH  12  13
ATOM     13  C   UNL     1      23.000 -25.300  19.845  1.00  0.00     0.053 C 
BRANCH  13  14
ATOM     14  C   UNL     1      23.609 -26.640  20.114  1.00  0.00     0.041 C 
ATOM     15  O   UNL     1      24.104 -27.310  19.171  1.00  0.00    -0.550 OA
ATOM     16  O   UNL     1      23.594 -27.166  21.399  1.00  0.00    -0.550 OA
ENDBRANCH  13  14
ENDBRANCH  12  13
ENDBRANCH  11  12
ENDBRANCH  10  11
ENDBRANCH   9  10
ENDBRANCH   8   9
ENDBRANCH   7   8
ENDBRANCH   6   7
ENDBRANCH   5   6
ENDBRANCH   4   5
ENDBRANCH   3   4
ENDBRANCH   2   3
ENDBRANCH   1   2
BRANCH   1  17
ATOM     17  C   UNL     1      14.181 -29.535  23.354  1.00  0.00     0.000 C 
BRANCH  17  18
ATOM     18  C   UNL     1      13.283 -30.776  23.203  1.00  0.00     0.000 C 
BRANCH  18  19
ATOM     19  C   UNL     1      12.425 -30.727  21.928  1.00  0.00     0.000 C 
BRANCH  19  20
ATOM     20  C   UNL     1      13.099 -31.431  20.737  1.00  0.00     0.000 C 
BRANCH  20  21
ATOM     21  C   UNL     1      13.948 -32.638  21.168  1.00  0.00     0.000 C 
BRANCH  21  22
ATOM     22  C   UNL     1      14.379 -33.520  19.982  1.00  0.00    -0.000 C 
BRANCH  22  23
ATOM     23  C   UNL     1      15.635 -34.355  20.289  1.00  0.00    -0.000 C 
BRANCH  23  24
ATOM     24  C   UNL     1      16.734 -34.301  19.210  1.00  0.00    -0.000 C 
BRANCH  24  25
ATOM     25  C   UNL     1      17.940 -35.227  19.460  1.00  0.00    -0.000 C 
BRANCH  25  26
ATOM     26  C   UNL     1      17.609 -36.731  19.480  1.00  0.00    -0.000 C 
BRANCH  26  27
ATOM     27  C   UNL     1      17.878 -37.382  20.845  1.00  0.00    -0.000 C 
BRANCH  27  28
ATOM     28  C   UNL     1      18.346 -36.341  21.872  1.00  0.00    -0.000 C 
BRANCH  28  29
ATOM     29  C   UNL     1      19.685 -36.718  22.528  1.00  0.00    -0.003 C 
ATOM     30  C   UNL     1      20.667 -35.549  22.583  1.00  0.00     0.004 C 
ENDBRANCH  28  29
ENDBRANCH  27  28
ENDBRANCH  26  27
ENDBRANCH  25  26
ENDBRANCH  24  25
ENDBRANCH  23  24
ENDBRANCH  22  23
ENDBRANCH  21  22
ENDBRANCH  20  21
ENDBRANCH  19  20
ENDBRANCH  18  19
ENDBRANCH  17  18
ENDBRANCH   1  17
TORSDOF 26
ENDMDL
MODEL 5
REMARK VINA RESULT:    -5.030      1.525      2.759
REMARK INTER + INTRA:         -17.229
REMARK INTER:                 -12.055
REMARK INTRA:                  -5.174
REMARK UNBOUND:                -4.554
REMARK SMILES CCCCCCCCCCCCCCCCCCCCCCCCCCCC(=O)[O-]
REMARK SMILES IDX 15 1 16 2 17 3 18 4 19 5 20 6 21 7 22 8 23 9 24 10 25 11
REMARK SMILES IDX 26 12 27 13 28 14 29 15 30 16 14 17 13 18 12 19 11 20 10 21
REMARK SMILES IDX 9 22 8 23 7 24 6 25 5 26 4 27 3 28 2 29 1 30
REMARK H PARENT
REMARK Flexibility Score: inf
ROOT
ATOM      1  C   UNL     1      14.106 -31.154  23.871  1.00  0.00     0.000 C 
ENDROOT
BRANCH   1   2
ATOM      2  C   UNL     1      13.960 -32.650  24.219  1.00  0.00     0.000 C 
BRANCH   2   3
ATOM      3  C   UNL     1      14.962 -33.591  23.526  1.00  0.00     0.000 C 
BRANCH   3   4
ATOM      4  C   UNL     1      16.105 -34.043  24.449  1.00  0.00     0.000 C 
BRANCH   4   5
ATOM      5  C   UNL     1      17.463 -33.433  24.061  1.00  0.00     0.000 C 
BRANCH   5   6
ATOM      6  C   UNL     1      17.787 -32.112  24.791  1.00  0.00     0.000 C 
BRANCH   6   7
ATOM      7  C   UNL     1      19.170 -31.563  24.408  1.00  0.00     0.000 C 
BRANCH   7   8
ATOM      8  C   UNL     1      19.937 -32.559  23.523  1.00  0.00     0.000 C 
BRANCH   8   9
ATOM      9  C   UNL     1      21.126 -31.913  22.793  1.00  0.00     0.000 C 
BRANCH   9  10
ATOM     10  C   UNL     1      20.971 -30.393  22.632  1.00  0.00     0.000 C 
BRANCH  10  11
ATOM     11  C   UNL     1      20.647 -30.027  21.176  1.00  0.00     0.000 C 
BRANCH  11  12
ATOM     12  C   UNL     1      21.108 -28.608  20.805  1.00  0.00     0.006 C 
BRANCH  12  13
ATOM     13  C   UNL     1      19.935 -27.648  20.566  1.00  0.00     0.053 C 
BRANCH  13  14
ATOM     14  C   UNL     1      20.365 -26.230  20.771  1.00  0.00     0.041 C 
ATOM     15  O   UNL     1      20.815 -25.561  19.804  1.00  0.00    -0.550 OA
ATOM     16  O   UNL     1      20.307 -25.660  22.036  1.00  0.00    -0.550 OA
ENDBRANCH  13  14
ENDBRANCH  12  13
ENDBRANCH  11  12
ENDBRANCH  10  11
ENDBRANCH   9  10
ENDBRANCH   8   9
ENDBRANCH   7   8
ENDBRANCH   6   7
ENDBRANCH   5   6
ENDBRANCH   4   5
ENDBRANCH   3   4
ENDBRANCH   2   3
ENDBRANCH   1   2
BRANCH   1  17
ATOM     17  C   UNL     1      14.691 -30.854  22.479  1.00  0.00     0.000 C 
BRANCH  17  18
ATOM     18  C   UNL     1      15.840 -29.832  22.518  1.00  0.00     0.000 C 
BRANCH  18  19
ATOM     19  C   UNL     1      17.062 -30.293  21.706  1.00  0.00     0.000 C 
BRANCH  19  20
ATOM     20  C   UNL     1      16.790 -31.586  20.917  1.00  0.00     0.000 C 
BRANCH  20  21
ATOM     21  C   UNL     1      18.083 -32.318  20.520  1.00  0.00     0.000 C 
BRANCH  21  22
ATOM     22  C   UNL     1      17.818 -33.670  19.834  1.00  0.00    -0.000 C 
BRANCH  22  23
ATOM     23  C   UNL     1      16.524 -34.342  20.328  1.00  0.00    -0.000 C 
BRANCH  23  24
ATOM     24  C   UNL     1      16.385 -35.834  19.966  1.00  0.00    -0.000 C 
BRANCH  24  25
ATOM     25  C   UNL     1      17.638 -36.689  20.233  1.00  0.00    -0.000 C 
BRANCH  25  26
ATOM     26  C   UNL     1      18.020 -36.835  21.718  1.00  0.00    -0.000 C 
BRANCH  26  27
ATOM     27  C   UNL     1      19.416 -36.276  22.031  1.00  0.00    -0.000 C 
BRANCH  27  28
ATOM     28  C   UNL     1      19.682 -36.267  23.543  1.00  0.00    -0.000 C 
BRANCH  28  29
ATOM     29  C   UNL     1      19.310 -37.598  24.217  1.00  0.00    -0.003 C 
ATOM     30  C   UNL     1      18.441 -37.411  25.460  1.00  0.00     0.004 C 
ENDBRANCH  28  29
ENDBRANCH  27  28
ENDBRANCH  26  27
ENDBRANCH  25  26
ENDBRANCH  24  25
ENDBRANCH  23  24
ENDBRANCH  22  23
ENDBRANCH  21  22
ENDBRANCH  20  21
ENDBRANCH  19  20
ENDBRANCH  18  19
ENDBRANCH  17  18
ENDBRANCH   1  17
TORSDOF 26
ENDMDL
MODEL 6
REMARK VINA RESULT:    -4.972      2.668      7.193
REMARK INTER + INTRA:         -17.083
REMARK INTER:                 -13.281
REMARK INTRA:                  -3.802
REMARK UNBOUND:                -4.554
REMARK SMILES CCCCCCCCCCCCCCCCCCCCCCCCCCCC(=O)[O-]
REMARK SMILES IDX 15 1 16 2 17 3 18 4 19 5 20 6 21 7 22 8 23 9 24 10 25 11
REMARK SMILES IDX 26 12 27 13 28 14 29 15 30 16 14 17 13 18 12 19 11 20 10 21
REMARK SMILES IDX 9 22 8 23 7 24 6 25 5 26 4 27 3 28 2 29 1 30
REMARK H PARENT
REMARK Flexibility Score: inf
ROOT
ATOM      1  C   UNL     1      18.853 -35.125  24.631  1.00  0.00     0.000 C 
ENDROOT
BRANCH   1   2
ATOM      2  C   UNL     1      17.732 -34.075  24.779  1.00  0.00     0.000 C 
BRANCH   2   3
ATOM      3  C   UNL     1      16.324 -34.550  24.378  1.00  0.00     0.000 C 
BRANCH   3   4
ATOM      4  C   UNL     1      15.592 -33.561  23.458  1.00  0.00     0.000 C 
BRANCH   4   5
ATOM      5  C   UNL     1      15.924 -32.092  23.773  1.00  0.00     0.000 C 
BRANCH   5   6
ATOM      6  C   UNL     1      14.927 -31.081  23.169  1.00  0.00     0.000 C 
BRANCH   6   7
ATOM      7  C   UNL     1      14.866 -31.174  21.635  1.00  0.00     0.000 C 
BRANCH   7   8
ATOM      8  C   UNL     1      13.416 -31.083  21.132  1.00  0.00     0.000 C 
BRANCH   8   9
ATOM      9  C   UNL     1      12.395 -30.983  22.278  1.00  0.00     0.000 C 
BRANCH   9  10
ATOM     10  C   UNL     1      11.224 -30.043  21.951  1.00  0.00     0.000 C 
BRANCH  10  11
ATOM     11  C   UNL     1      11.240 -28.811  22.868  1.00  0.00     0.000 C 
BRANCH  11  12
ATOM     12  C   UNL     1      12.326 -28.893  23.952  1.00  0.00     0.006 C 
BRANCH  12  13
ATOM     13  C   UNL     1      12.296 -27.695  24.911  1.00  0.00     0.053 C 
BRANCH  13  14
ATOM     14  C   UNL     1      13.510 -26.840  24.723  1.00  0.00     0.041 C 
ATOM     15  O   UNL     1      14.281 -27.044  23.749  1.00  0.00    -0.550 OA
ATOM     16  O   UNL     1      13.811 -25.845  25.644  1.00  0.00    -0.550 OA
ENDBRANCH  13  14
ENDBRANCH  12  13
ENDBRANCH  11  12
ENDBRANCH  10  11
ENDBRANCH   9  10
ENDBRANCH   8   9
ENDBRANCH   7   8
ENDBRANCH   6   7
ENDBRANCH   5   6
ENDBRANCH   4   5
ENDBRANCH   3   4
ENDBRANCH   2   3
ENDBRANCH   1   2
BRANCH   1  17
ATOM     17  C   UNL     1      18.501 -36.348  23.765  1.00  0.00     0.000 C 
BRANCH  17  18
ATOM     18  C   UNL     1      19.008 -36.224  22.317  1.00  0.00     0.000 C 
BRANCH  18  19
ATOM     19  C   UNL     1      18.026 -36.828  21.300  1.00  0.00     0.000 C 
BRANCH  19  20
ATOM     20  C   UNL     1      17.067 -35.778  20.711  1.00  0.00     0.000 C 
BRANCH  20  21
ATOM     21  C   UNL     1      17.522 -35.267  19.335  1.00  0.00     0.000 C 
BRANCH  21  22
ATOM     22  C   UNL     1      18.155 -33.866  19.396  1.00  0.00    -0.000 C 
BRANCH  22  23
ATOM     23  C   UNL     1      17.773 -33.098  20.674  1.00  0.00    -0.000 C 
BRANCH  23  24
ATOM     24  C   UNL     1      18.964 -32.624  21.530  1.00  0.00    -0.000 C 
BRANCH  24  25
ATOM     25  C   UNL     1      19.497 -31.220  21.186  1.00  0.00    -0.000 C 
BRANCH  25  26
ATOM     26  C   UNL     1      18.435 -30.105  21.184  1.00  0.00    -0.000 C 
BRANCH  26  27
ATOM     27  C   UNL     1      19.014 -28.731  20.818  1.00  0.00    -0.000 C 
BRANCH  27  28
ATOM     28  C   UNL     1      20.549 -28.752  20.845  1.00  0.00    -0.000 C 
BRANCH  28  29
ATOM     29  C   UNL     1      21.150 -27.441  21.377  1.00  0.00    -0.003 C 
ATOM     30  C   UNL     1      20.283 -26.222  21.063  1.00  0.00     0.004 C 
ENDBRANCH  28  29
ENDBRANCH  27  28
ENDBRANCH  26  27
ENDBRANCH  25  26
ENDBRANCH  24  25
ENDBRANCH  23  24
ENDBRANCH  22  23
ENDBRANCH  21  22
ENDBRANCH  20  21
ENDBRANCH  19  20
ENDBRANCH  18  19
ENDBRANCH  17  18
ENDBRANCH   1  17
TORSDOF 26
ENDMDL
MODEL 7
REMARK VINA RESULT:    -4.941      3.011      4.001
REMARK INTER + INTRA:         -17.005
REMARK INTER:                 -11.972
REMARK INTRA:                  -5.033
REMARK UNBOUND:                -4.554
REMARK SMILES CCCCCCCCCCCCCCCCCCCCCCCCCCCC(=O)[O-]
REMARK SMILES IDX 15 1 16 2 17 3 18 4 19 5 20 6 21 7 22 8 23 9 24 10 25 11
REMARK SMILES IDX 26 12 27 13 28 14 29 15 30 16 14 17 13 18 12 19 11 20 10 21
REMARK SMILES IDX 9 22 8 23 7 24 6 25 5 26 4 27 3 28 2 29 1 30
REMARK H PARENT
REMARK Flexibility Score: inf
ROOT
ATOM      1  C   UNL     1      13.918 -30.153  23.674  1.00  0.00     0.000 C 
ENDROOT
BRANCH   1   2
ATOM      2  C   UNL     1      13.964 -28.877  22.806  1.00  0.00     0.000 C 
BRANCH   2   3
ATOM      3  C   UNL     1      15.258 -28.673  21.998  1.00  0.00     0.000 C 
BRANCH   3   4
ATOM      4  C   UNL     1      16.393 -29.618  22.427  1.00  0.00     0.000 C 
BRANCH   4   5
ATOM      5  C   UNL     1      16.867 -30.538  21.288  1.00  0.00     0.000 C 
BRANCH   5   6
ATOM      6  C   UNL     1      18.346 -30.336  20.896  1.00  0.00     0.000 C 
BRANCH   6   7
ATOM      7  C   UNL     1      18.720 -28.848  20.792  1.00  0.00     0.000 C 
BRANCH   7   8
ATOM      8  C   UNL     1      20.229 -28.641  20.996  1.00  0.00     0.000 C 
BRANCH   8   9
ATOM      9  C   UNL     1      20.981 -29.959  21.245  1.00  0.00     0.000 C 
BRANCH   9  10
ATOM     10  C   UNL     1      21.632 -30.019  22.636  1.00  0.00     0.000 C 
BRANCH  10  11
ATOM     11  C   UNL     1      20.924 -31.051  23.527  1.00  0.00     0.000 C 
BRANCH  11  12
ATOM     12  C   UNL     1      20.728 -32.405  22.826  1.00  0.00     0.006 C 
BRANCH  12  13
ATOM     13  C   UNL     1      21.813 -33.425  23.198  1.00  0.00     0.053 C 
BRANCH  13  14
ATOM     14  C   UNL     1      21.239 -34.516  24.048  1.00  0.00     0.041 C 
ATOM     15  O   UNL     1      20.548 -34.231  25.060  1.00  0.00    -0.550 OA
ATOM     16  O   UNL     1      21.501 -35.846  23.744  1.00  0.00    -0.550 OA
ENDBRANCH  13  14
ENDBRANCH  12  13
ENDBRANCH  11  12
ENDBRANCH  10  11
ENDBRANCH   9  10
ENDBRANCH   8   9
ENDBRANCH   7   8
ENDBRANCH   6   7
ENDBRANCH   5   6
ENDBRANCH   4   5
ENDBRANCH   3   4
ENDBRANCH   2   3
ENDBRANCH   1   2
BRANCH   1  17
ATOM     17  C   UNL     1      13.192 -31.354  23.042  1.00  0.00     0.000 C 
BRANCH  17  18
ATOM     18  C   UNL     1      12.479 -31.000  21.725  1.00  0.00     0.000 C 
BRANCH  18  19
ATOM     19  C   UNL     1      13.098 -31.716  20.514  1.00  0.00     0.000 C 
BRANCH  19  20
ATOM     20  C   UNL     1      14.141 -32.771  20.923  1.00  0.00     0.000 C 
BRANCH  20  21
ATOM     21  C   UNL     1      14.548 -33.683  19.754  1.00  0.00     0.000 C 
BRANCH  21  22
ATOM     22  C   UNL     1      15.271 -34.961  20.217  1.00  0.00    -0.000 C 
BRANCH  22  23
ATOM     23  C   UNL     1      16.543 -35.252  19.401  1.00  0.00    -0.000 C 
BRANCH  23  24
ATOM     24  C   UNL     1      17.729 -34.309  19.683  1.00  0.00    -0.000 C 
BRANCH  24  25
ATOM     25  C   UNL     1      18.102 -34.157  21.171  1.00  0.00    -0.000 C 
BRANCH  25  26
ATOM     26  C   UNL     1      18.341 -35.482  21.919  1.00  0.00    -0.000 C 
BRANCH  26  27
ATOM     27  C   UNL     1      17.687 -35.509  23.308  1.00  0.00    -0.000 C 
BRANCH  27  28
ATOM     28  C   UNL     1      16.695 -34.349  23.475  1.00  0.00    -0.000 C 
BRANCH  28  29
ATOM     29  C   UNL     1      16.898 -33.583  24.793  1.00  0.00    -0.003 C 
ATOM     30  C   UNL     1      17.530 -32.207  24.587  1.00  0.00     0.004 C 
ENDBRANCH  28  29
ENDBRANCH  27  28
ENDBRANCH  26  27
ENDBRANCH  25  26
ENDBRANCH  24  25
ENDBRANCH  23  24
ENDBRANCH  22  23
ENDBRANCH  21  22
ENDBRANCH  20  21
ENDBRANCH  19  20
ENDBRANCH  18  19
ENDBRANCH  17  18
ENDBRANCH   1  17
TORSDOF 26
ENDMDL
MODEL 8
REMARK VINA RESULT:    -4.940      2.566      5.400
REMARK INTER + INTRA:         -17.002
REMARK INTER:                 -11.313
REMARK INTRA:                  -5.689
REMARK UNBOUND:                -4.554
REMARK SMILES CCCCCCCCCCCCCCCCCCCCCCCCCCCC(=O)[O-]
REMARK SMILES IDX 15 1 16 2 17 3 18 4 19 5 20 6 21 7 22 8 23 9 24 10 25 11
REMARK SMILES IDX 26 12 27 13 28 14 29 15 30 16 14 17 13 18 12 19 11 20 10 21
REMARK SMILES IDX 9 22 8 23 7 24 6 25 5 26 4 27 3 28 2 29 1 30
REMARK H PARENT
REMARK Flexibility Score: inf
ROOT
ATOM      1  C   UNL     1      18.313 -33.200  20.683  1.00  0.00     0.000 C 
ENDROOT
BRANCH   1   2
ATOM      2  C   UNL     1      17.957 -33.936  19.374  1.00  0.00     0.000 C 
BRANCH   2   3
ATOM      3  C   UNL     1      16.482 -34.352  19.230  1.00  0.00     0.000 C 
BRANCH   3   4
ATOM      4  C   UNL     1      16.210 -35.787  19.711  1.00  0.00     0.000 C 
BRANCH   4   5
ATOM      5  C   UNL     1      17.369 -36.751  19.404  1.00  0.00     0.000 C 
BRANCH   5   6
ATOM      6  C   UNL     1      17.849 -37.560  20.627  1.00  0.00     0.000 C 
BRANCH   6   7
ATOM      7  C   UNL     1      18.042 -36.675  21.869  1.00  0.00     0.000 C 
BRANCH   7   8
ATOM      8  C   UNL     1      19.438 -36.875  22.481  1.00  0.00     0.000 C 
BRANCH   8   9
ATOM      9  C   UNL     1      20.247 -35.569  22.553  1.00  0.00     0.000 C 
BRANCH   9  10
ATOM     10  C   UNL     1      20.746 -35.256  23.972  1.00  0.00     0.000 C 
BRANCH  10  11
ATOM     11  C   UNL     1      21.397 -33.866  24.029  1.00  0.00     0.000 C 
BRANCH  11  12
ATOM     12  C   UNL     1      20.364 -32.730  24.097  1.00  0.00     0.006 C 
BRANCH  12  13
ATOM     13  C   UNL     1      20.928 -31.455  24.738  1.00  0.00     0.053 C 
BRANCH  13  14
ATOM     14  C   UNL     1      21.708 -30.663  23.736  1.00  0.00     0.041 C 
ATOM     15  O   UNL     1      22.680 -29.954  24.108  1.00  0.00    -0.550 OA
ATOM     16  O   UNL     1      21.340 -30.677  22.397  1.00  0.00    -0.550 OA
ENDBRANCH  13  14
ENDBRANCH  12  13
ENDBRANCH  11  12
ENDBRANCH  10  11
ENDBRANCH   9  10
ENDBRANCH   8   9
ENDBRANCH   7   8
ENDBRANCH   6   7
ENDBRANCH   5   6
ENDBRANCH   4   5
ENDBRANCH   3   4
ENDBRANCH   2   3
ENDBRANCH   1   2
BRANCH   1  17
ATOM     17  C   UNL     1      18.502 -31.677  20.553  1.00  0.00     0.000 C 
BRANCH  17  18
ATOM     18  C   UNL     1      17.429 -30.873  21.308  1.00  0.00     0.000 C 
BRANCH  18  19
ATOM     19  C   UNL     1      17.750 -30.731  22.805  1.00  0.00     0.000 C 
BRANCH  19  20
ATOM     20  C   UNL     1      16.574 -30.147  23.607  1.00  0.00     0.000 C 
BRANCH  20  21
ATOM     21  C   UNL     1      15.358 -29.824  22.723  1.00  0.00     0.000 C 
BRANCH  21  22
ATOM     22  C   UNL     1      14.017 -30.111  23.421  1.00  0.00    -0.000 C 
BRANCH  22  23
ATOM     23  C   UNL     1      13.679 -31.611  23.463  1.00  0.00    -0.000 C 
BRANCH  23  24
ATOM     24  C   UNL     1      14.145 -32.419  22.236  1.00  0.00    -0.000 C 
BRANCH  24  25
ATOM     25  C   UNL     1      15.048 -33.626  22.554  1.00  0.00    -0.000 C 
BRANCH  25  26
ATOM     26  C   UNL     1      15.522 -33.715  24.017  1.00  0.00    -0.000 C 
BRANCH  26  27
ATOM     27  C   UNL     1      17.005 -34.092  24.141  1.00  0.00    -0.000 C 
BRANCH  27  28
ATOM     28  C   UNL     1      17.319 -34.655  25.535  1.00  0.00    -0.000 C 
BRANCH  28  29
ATOM     29  C   UNL     1      17.243 -36.189  25.583  1.00  0.00    -0.003 C 
ATOM     30  C   UNL     1      18.377 -36.813  26.397  1.00  0.00     0.004 C 
ENDBRANCH  28  29
ENDBRANCH  27  28
ENDBRANCH  26  27
ENDBRANCH  25  26
ENDBRANCH  24  25
ENDBRANCH  23  24
ENDBRANCH  22  23
ENDBRANCH  21  22
ENDBRANCH  20  21
ENDBRANCH  19  20
ENDBRANCH  18  19
ENDBRANCH  17  18
ENDBRANCH   1  17
TORSDOF 26
ENDMDL
MODEL 9
REMARK VINA RESULT:    -4.838      3.165      6.767
REMARK INTER + INTRA:         -16.747
REMARK INTER:                 -11.192
REMARK INTRA:                  -5.555
REMARK UNBOUND:                -4.554
REMARK SMILES CCCCCCCCCCCCCCCCCCCCCCCCCCCC(=O)[O-]
REMARK SMILES IDX 15 1 16 2 17 3 18 4 19 5 20 6 21 7 22 8 23 9 24 10 25 11
REMARK SMILES IDX 26 12 27 13 28 14 29 15 30 16 14 17 13 18 12 19 11 20 10 21
REMARK SMILES IDX 9 22 8 23 7 24 6 25 5 26 4 27 3 28 2 29 1 30
REMARK H PARENT
REMARK Flexibility Score: inf
ROOT
ATOM      1  C   UNL     1      21.517 -32.029  23.617  1.00  0.00     0.000 C 
ENDROOT
BRANCH   1   2
ATOM      2  C   UNL     1      21.469 -33.338  22.802  1.00  0.00     0.000 C 
BRANCH   2   3
ATOM      3  C   UNL     1      20.680 -34.491  23.449  1.00  0.00     0.000 C 
BRANCH   3   4
ATOM      4  C   UNL     1      19.766 -35.228  22.457  1.00  0.00     0.000 C 
BRANCH   4   5
ATOM      5  C   UNL     1      18.811 -36.219  23.146  1.00  0.00     0.000 C 
BRANCH   5   6
ATOM      6  C   UNL     1      18.950 -36.254  24.682  1.00  0.00     0.000 C 
BRANCH   6   7
ATOM      7  C   UNL     1      17.598 -36.067  25.391  1.00  0.00     0.000 C 
BRANCH   7   8
ATOM      8  C   UNL     1      16.724 -35.040  24.653  1.00  0.00     0.000 C 
BRANCH   8   9
ATOM      9  C   UNL     1      16.883 -33.616  25.211  1.00  0.00     0.000 C 
BRANCH   9  10
ATOM     10  C   UNL     1      17.749 -32.718  24.314  1.00  0.00     0.000 C 
BRANCH  10  11
ATOM     11  C   UNL     1      18.010 -31.362  24.987  1.00  0.00     0.000 C 
BRANCH  11  12
ATOM     12  C   UNL     1      18.819 -31.491  26.287  1.00  0.00     0.006 C 
BRANCH  12  13
ATOM     13  C   UNL     1      19.844 -30.362  26.461  1.00  0.00     0.053 C 
BRANCH  13  14
ATOM     14  C   UNL     1      19.951 -29.966  27.900  1.00  0.00     0.041 C 
ATOM     15  O   UNL     1      20.711 -30.603  28.676  1.00  0.00    -0.550 OA
ATOM     16  O   UNL     1      19.183 -28.920  28.395  1.00  0.00    -0.550 OA
ENDBRANCH  13  14
ENDBRANCH  12  13
ENDBRANCH  11  12
ENDBRANCH  10  11
ENDBRANCH   9  10
ENDBRANCH   8   9
ENDBRANCH   7   8
ENDBRANCH   6   7
ENDBRANCH   5   6
ENDBRANCH   4   5
ENDBRANCH   3   4
ENDBRANCH   2   3
ENDBRANCH   1   2
BRANCH   1  17
ATOM     17  C   UNL     1      20.936 -30.791  22.911  1.00  0.00     0.000 C 
BRANCH  17  18
ATOM     18  C   UNL     1      20.216 -31.133  21.594  1.00  0.00     0.000 C 
BRANCH  18  19
ATOM     19  C   UNL     1      18.870 -30.404  21.456  1.00  0.00     0.000 C 
BRANCH  19  20
ATOM     20  C   UNL     1      17.763 -31.312  20.892  1.00  0.00     0.000 C 
BRANCH  20  21
ATOM     21  C   UNL     1      18.279 -32.712  20.522  1.00  0.00     0.000 C 
BRANCH  21  22
ATOM     22  C   UNL     1      17.153 -33.671  20.096  1.00  0.00    -0.000 C 
BRANCH  22  23
ATOM     23  C   UNL     1      16.061 -33.819  21.171  1.00  0.00    -0.000 C 
BRANCH  23  24
ATOM     24  C   UNL     1      14.655 -33.362  20.738  1.00  0.00    -0.000 C 
BRANCH  24  25
ATOM     25  C   UNL     1      14.057 -32.212  21.573  1.00  0.00    -0.000 C 
BRANCH  25  26
ATOM     26  C   UNL     1      14.294 -32.320  23.090  1.00  0.00    -0.000 C 
BRANCH  26  27
ATOM     27  C   UNL     1      13.940 -31.028  23.842  1.00  0.00    -0.000 C 
BRANCH  27  28
ATOM     28  C   UNL     1      14.766 -29.842  23.324  1.00  0.00    -0.000 C 
BRANCH  28  29
ATOM     29  C   UNL     1      13.915 -28.580  23.106  1.00  0.00    -0.003 C 
ATOM     30  C   UNL     1      12.416 -28.874  23.076  1.00  0.00     0.004 C 
ENDBRANCH  28  29
ENDBRANCH  27  28
ENDBRANCH  26  27
ENDBRANCH  25  26
ENDBRANCH  24  25
ENDBRANCH  23  24
ENDBRANCH  22  23
ENDBRANCH  21  22
ENDBRANCH  20  21
ENDBRANCH  19  20
ENDBRANCH  18  19
ENDBRANCH  17  18
ENDBRANCH   1  17
TORSDOF 26
ENDMDL
