MODEL 1
REMARK VINA RESULT:    -3.810      0.000      0.000
REMARK INTER + INTRA:          -5.478
REMARK INTER:                  -5.147
REMARK INTRA:                  -0.331
REMARK UNBOUND:                -0.331
REMARK SMILES CCCCCCCC(=O)[O-]
REMARK SMILES IDX 5 1 6 2 7 3 8 4 9 5 10 6 4 7 3 8 2 9 1 10
REMARK H PARENT
REMARK Flexibility Score: inf
ROOT
ATOM      1  C   UNL     1      -7.860  14.250 -13.210  1.00  0.00     0.000 C 
ENDROOT
BRANCH   1   2
ATOM      2  C   UNL     1      -7.329  15.468 -13.986  1.00  0.00     0.006 C 
BRANCH   2   3
ATOM      3  C   UNL     1      -8.458  16.408 -14.430  1.00  0.00     0.053 C 
BRANCH   3   4
ATOM      4  C   UNL     1      -9.224  16.951 -13.262  1.00  0.00     0.041 C 
ATOM      5  O   UNL     1      -8.729  17.861 -12.548  1.00  0.00    -0.550 OA
ATOM      6  O   UNL     1     -10.472  16.430 -12.946  1.00  0.00    -0.550 OA
ENDBRANCH   3   4
ENDBRANCH   2   3
ENDBRANCH   1   2
BRANCH   1   7
ATOM      7  C   UNL     1      -7.448  12.916 -13.852  1.00  0.00     0.000 C 
BRANCH   7   8
ATOM      8  C   UNL     1      -8.113  12.686 -15.221  1.00  0.00    -0.000 C 
BRANCH   8   9
ATOM      9  C   UNL     1      -9.633  12.899 -15.181  1.00  0.00    -0.003 C 
ATOM     10  C   UNL     1     -10.391  11.912 -16.070  1.00  0.00     0.004 C 
ENDBRANCH   8   9
ENDBRANCH   7   8
ENDBRANCH   1   7
TORSDOF 6
ENDMDL
MODEL 2
REMARK VINA RESULT:    -3.567      1.494      1.706
REMARK INTER + INTRA:          -5.149
REMARK INTER:                  -4.762
REMARK INTRA:                  -0.387
REMARK UNBOUND:                -0.331
REMARK SMILES CCCCCCCC(=O)[O-]
REMARK SMILES IDX 5 1 6 2 7 3 8 4 9 5 10 6 4 7 3 8 2 9 1 10
REMARK H PARENT
REMARK Flexibility Score: inf
ROOT
ATOM      1  C   UNL     1      -8.130  14.649 -12.572  1.00  0.00     0.000 C 
ENDROOT
BRANCH   1   2
ATOM      2  C   UNL     1      -8.953  15.944 -12.684  1.00  0.00     0.006 C 
BRANCH   2   3
ATOM      3  C   UNL     1      -8.765  16.634 -14.042  1.00  0.00     0.053 C 
BRANCH   3   4
ATOM      4  C   UNL     1      -7.924  17.868 -13.929  1.00  0.00     0.041 C 
ATOM      5  O   UNL     1      -6.690  17.775 -13.702  1.00  0.00    -0.550 OA
ATOM      6  O   UNL     1      -8.509  19.123 -14.046  1.00  0.00    -0.550 OA
ENDBRANCH   3   4
ENDBRANCH   2   3
ENDBRANCH   1   2
BRANCH   1   7
ATOM      7  C   UNL     1      -7.628  14.149 -13.935  1.00  0.00     0.000 C 
BRANCH   7   8
ATOM      8  C   UNL     1      -8.383  12.900 -14.424  1.00  0.00    -0.000 C 
BRANCH   8   9
ATOM      9  C   UNL     1      -9.267  13.188 -15.647  1.00  0.00    -0.003 C 
ATOM     10  C   UNL     1     -10.335  12.116 -15.868  1.00  0.00     0.004 C 
ENDBRANCH   8   9
ENDBRANCH   7   8
ENDBRANCH   1   7
TORSDOF 6
ENDMDL
MODEL 3
REMARK VINA RESULT:    -3.550      0.879      1.484
REMARK INTER + INTRA:          -5.126
REMARK INTER:                  -4.699
REMARK INTRA:                  -0.427
REMARK UNBOUND:                -0.331
REMARK SMILES CCCCCCCC(=O)[O-]
REMARK SMILES IDX 5 1 6 2 7 3 8 4 9 5 10 6 4 7 3 8 2 9 1 10
REMARK H PARENT
REMARK Flexibility Score: inf
ROOT
ATOM      1  C   UNL     1      -6.978  15.417 -14.510  1.00  0.00     0.000 C 
ENDROOT
BRANCH   1   2
ATOM      2  C   UNL     1      -8.090  16.102 -15.323  1.00  0.00     0.006 C 
BRANCH   2   3
ATOM      3  C   UNL     1      -8.626  17.359 -14.625  1.00  0.00     0.053 C 
BRANCH   3   4
ATOM      4  C   UNL     1      -9.173  17.053 -13.265  1.00  0.00     0.041 C 
ATOM      5  O   UNL     1     -10.187  16.318 -13.141  1.00  0.00    -0.550 OA
ATOM      6  O   UNL     1      -8.580  17.602 -12.136  1.00  0.00    -0.550 OA
ENDBRANCH   3   4
ENDBRANCH   2   3
ENDBRANCH   1   2
BRANCH   1   7
ATOM      7  C   UNL     1      -7.104  13.885 -14.510  1.00  0.00     0.000 C 
BRANCH   7   8
ATOM      8  C   UNL     1      -8.568  13.411 -14.483  1.00  0.00    -0.000 C 
BRANCH   8   9
ATOM      9  C   UNL     1      -8.905  12.472 -15.652  1.00  0.00    -0.003 C 
ATOM     10  C   UNL     1     -10.402  12.427 -15.960  1.00  0.00     0.004 C 
ENDBRANCH   8   9
ENDBRANCH   7   8
ENDBRANCH   1   7
TORSDOF 6
ENDMDL
MODEL 4
REMARK VINA RESULT:    -3.501      1.311      2.410
REMARK INTER + INTRA:          -5.059
REMARK INTER:                  -4.470
REMARK INTRA:                  -0.590
REMARK UNBOUND:                -0.331
REMARK SMILES CCCCCCCC(=O)[O-]
REMARK SMILES IDX 5 1 6 2 7 3 8 4 9 5 10 6 4 7 3 8 2 9 1 10
REMARK H PARENT
REMARK Flexibility Score: inf
ROOT
ATOM      1  C   UNL     1      -8.503  15.177 -16.011  1.00  0.00     0.000 C 
ENDROOT
BRANCH   1   2
ATOM      2  C   UNL     1      -7.516  16.111 -15.289  1.00  0.00     0.006 C 
BRANCH   2   3
ATOM      3  C   UNL     1      -8.230  17.102 -14.360  1.00  0.00     0.053 C 
BRANCH   3   4
ATOM      4  C   UNL     1      -8.711  16.441 -13.104  1.00  0.00     0.041 C 
ATOM      5  O   UNL     1      -9.944  16.313 -12.888  1.00  0.00    -0.550 OA
ATOM      6  O   UNL     1      -7.797  15.994 -12.159  1.00  0.00    -0.550 OA
ENDBRANCH   3   4
ENDBRANCH   2   3
ENDBRANCH   1   2
BRANCH   1   7
ATOM      7  C   UNL     1      -8.076  13.703 -15.945  1.00  0.00     0.000 C 
BRANCH   7   8
ATOM      8  C   UNL     1      -8.726  12.948 -14.772  1.00  0.00    -0.000 C 
BRANCH   8   9
ATOM      9  C   UNL     1      -7.774  12.784 -13.577  1.00  0.00    -0.003 C 
ATOM     10  C   UNL     1      -6.304  12.745 -13.995  1.00  0.00     0.004 C 
ENDBRANCH   8   9
ENDBRANCH   7   8
ENDBRANCH   1   7
TORSDOF 6
ENDMDL
MODEL 5
REMARK VINA RESULT:    -3.425      2.309      2.991
REMARK INTER + INTRA:          -4.957
REMARK INTER:                  -4.579
REMARK INTRA:                  -0.378
REMARK UNBOUND:                -0.331
REMARK SMILES CCCCCCCC(=O)[O-]
REMARK SMILES IDX 5 1 6 2 7 3 8 4 9 5 10 6 4 7 3 8 2 9 1 10
REMARK H PARENT
REMARK Flexibility Score: inf
ROOT
ATOM      1  C   UNL     1      -9.435  16.179 -12.691  1.00  0.00     0.000 C 
ENDROOT
BRANCH   1   2
ATOM      2  C   UNL     1      -9.104  17.679 -12.602  1.00  0.00     0.006 C 
BRANCH   2   3
ATOM      3  C   UNL     1      -8.448  18.204 -13.885  1.00  0.00     0.053 C 
BRANCH   3   4
ATOM      4  C   UNL     1      -7.997  19.625 -13.741  1.00  0.00     0.041 C 
ATOM      5  O   UNL     1      -7.423  20.004 -12.687  1.00  0.00    -0.550 OA
ATOM      6  O   UNL     1      -8.239  20.539 -14.759  1.00  0.00    -0.550 OA
ENDBRANCH   3   4
ENDBRANCH   2   3
ENDBRANCH   1   2
BRANCH   1   7
ATOM      7  C   UNL     1      -8.296  15.291 -12.167  1.00  0.00     0.000 C 
BRANCH   7   8
ATOM      8  C   UNL     1      -7.818  14.264 -13.208  1.00  0.00    -0.000 C 
BRANCH   8   9
ATOM      9  C   UNL     1      -8.850  14.029 -14.321  1.00  0.00    -0.003 C 
ATOM     10  C   UNL     1      -8.326  14.419 -15.703  1.00  0.00     0.004 C 
ENDBRANCH   8   9
ENDBRANCH   7   8
ENDBRANCH   1   7
TORSDOF 6
ENDMDL
MODEL 6
REMARK VINA RESULT:    -3.384      2.401      4.858
REMARK INTER + INTRA:          -4.902
REMARK INTER:                  -4.573
REMARK INTRA:                  -0.329
REMARK UNBOUND:                -0.331
REMARK SMILES CCCCCCCC(=O)[O-]
REMARK SMILES IDX 5 1 6 2 7 3 8 4 9 5 10 6 4 7 3 8 2 9 1 10
REMARK H PARENT
REMARK Flexibility Score: inf
ROOT
ATOM      1  C   UNL     1      -8.616  15.517 -12.373  1.00  0.00     0.000 C 
ENDROOT
BRANCH   1   2
ATOM      2  C   UNL     1      -7.742  14.929 -13.494  1.00  0.00     0.006 C 
BRANCH   2   3
ATOM      3  C   UNL     1      -8.253  13.562 -13.969  1.00  0.00     0.053 C 
BRANCH   3   4
ATOM      4  C   UNL     1      -9.196  13.690 -15.126  1.00  0.00     0.041 C 
ATOM      5  O   UNL     1     -10.070  12.809 -15.331  1.00  0.00    -0.550 OA
ATOM      6  O   UNL     1      -9.089  14.770 -15.994  1.00  0.00    -0.550 OA
ENDBRANCH   3   4
ENDBRANCH   2   3
ENDBRANCH   1   2
BRANCH   1   7
ATOM      7  C   UNL     1      -9.293  16.834 -12.782  1.00  0.00     0.000 C 
BRANCH   7   8
ATOM      8  C   UNL     1      -8.475  17.625 -13.818  1.00  0.00    -0.000 C 
BRANCH   8   9
ATOM      9  C   UNL     1      -8.426  19.128 -13.506  1.00  0.00    -0.003 C 
ATOM     10  C   UNL     1      -8.265  19.987 -14.761  1.00  0.00     0.004 C 
ENDBRANCH   8   9
ENDBRANCH   7   8
ENDBRANCH   1   7
TORSDOF 6
ENDMDL
MODEL 7
REMARK VINA RESULT:    -3.368      2.983      5.735
REMARK INTER + INTRA:          -4.880
REMARK INTER:                  -4.654
REMARK INTRA:                  -0.226
REMARK UNBOUND:                -0.331
REMARK SMILES CCCCCCCC(=O)[O-]
REMARK SMILES IDX 5 1 6 2 7 3 8 4 9 5 10 6 4 7 3 8 2 9 1 10
REMARK H PARENT
REMARK Flexibility Score: inf
ROOT
ATOM      1  C   UNL     1      -9.157  17.996 -12.701  1.00  0.00     0.000 C 
ENDROOT
BRANCH   1   2
ATOM      2  C   UNL     1      -9.587  16.519 -12.667  1.00  0.00     0.006 C 
BRANCH   2   3
ATOM      3  C   UNL     1      -8.437  15.590 -12.255  1.00  0.00     0.053 C 
BRANCH   3   4
ATOM      4  C   UNL     1      -8.184  14.528 -13.280  1.00  0.00     0.041 C 
ATOM      5  O   UNL     1      -9.031  14.305 -14.184  1.00  0.00    -0.550 OA
ATOM      6  O   UNL     1      -7.026  13.763 -13.218  1.00  0.00    -0.550 OA
ENDBRANCH   3   4
ENDBRANCH   2   3
ENDBRANCH   1   2
BRANCH   1   7
ATOM      7  C   UNL     1      -8.212  18.309 -13.871  1.00  0.00     0.000 C 
BRANCH   7   8
ATOM      8  C   UNL     1      -8.192  19.804 -14.236  1.00  0.00    -0.000 C 
BRANCH   8   9
ATOM      9  C   UNL     1      -7.527  20.666 -13.152  1.00  0.00    -0.003 C 
ATOM     10  C   UNL     1      -6.072  21.002 -13.477  1.00  0.00     0.004 C 
ENDBRANCH   8   9
ENDBRANCH   7   8
ENDBRANCH   1   7
TORSDOF 6
ENDMDL
MODEL 8
REMARK VINA RESULT:    -3.252      2.087      4.664
REMARK INTER + INTRA:          -4.723
REMARK INTER:                  -4.352
REMARK INTRA:                  -0.371
REMARK UNBOUND:                -0.331
REMARK SMILES CCCCCCCC(=O)[O-]
REMARK SMILES IDX 5 1 6 2 7 3 8 4 9 5 10 6 4 7 3 8 2 9 1 10
REMARK H PARENT
REMARK Flexibility Score: inf
ROOT
ATOM      1  C   UNL     1      -7.481  16.093 -15.522  1.00  0.00     0.000 C 
ENDROOT
BRANCH   1   2
ATOM      2  C   UNL     1      -8.502  15.005 -15.144  1.00  0.00     0.006 C 
BRANCH   2   3
ATOM      3  C   UNL     1      -8.334  14.533 -13.693  1.00  0.00     0.053 C 
BRANCH   3   4
ATOM      4  C   UNL     1      -8.660  15.617 -12.712  1.00  0.00     0.041 C 
ATOM      5  O   UNL     1      -7.841  15.920 -11.807  1.00  0.00    -0.550 OA
ATOM      6  O   UNL     1      -9.883  16.274 -12.781  1.00  0.00    -0.550 OA
ENDBRANCH   3   4
ENDBRANCH   2   3
ENDBRANCH   1   2
BRANCH   1   7
ATOM      7  C   UNL     1      -8.120  17.485 -15.642  1.00  0.00     0.000 C 
BRANCH   7   8
ATOM      8  C   UNL     1      -7.389  18.548 -14.804  1.00  0.00    -0.000 C 
BRANCH   8   9
ATOM      9  C   UNL     1      -8.345  19.359 -13.917  1.00  0.00    -0.003 C 
ATOM     10  C   UNL     1      -7.627  20.444 -13.113  1.00  0.00     0.004 C 
ENDBRANCH   8   9
ENDBRANCH   7   8
ENDBRANCH   1   7
TORSDOF 6
ENDMDL
MODEL 9
REMARK VINA RESULT:    -2.941      3.083      5.202
REMARK INTER + INTRA:          -4.304
REMARK INTER:                  -4.133
REMARK INTRA:                  -0.171
REMARK UNBOUND:                -0.331
REMARK SMILES CCCCCCCC(=O)[O-]
REMARK SMILES IDX 5 1 6 2 7 3 8 4 9 5 10 6 4 7 3 8 2 9 1 10
REMARK H PARENT
REMARK Flexibility Score: inf
ROOT
ATOM      1  C   UNL     1      -8.494  15.170 -13.104  1.00  0.00     0.000 C 
ENDROOT
BRANCH   1   2
ATOM      2  C   UNL     1      -8.558  14.244 -14.331  1.00  0.00     0.006 C 
BRANCH   2   3
ATOM      3  C   UNL     1      -8.054  12.830 -14.016  1.00  0.00     0.053 C 
BRANCH   3   4
ATOM      4  C   UNL     1      -6.559  12.745 -14.073  1.00  0.00     0.041 C 
ATOM      5  O   UNL     1      -5.875  12.898 -13.028  1.00  0.00    -0.550 OA
ATOM      6  O   UNL     1      -5.920  12.526 -15.287  1.00  0.00    -0.550 OA
ENDBRANCH   3   4
ENDBRANCH   2   3
ENDBRANCH   1   2
BRANCH   1   7
ATOM      7  C   UNL     1      -9.402  16.401 -13.245  1.00  0.00     0.000 C 
BRANCH   7   8
ATOM      8  C   UNL     1      -8.653  17.723 -13.002  1.00  0.00    -0.000 C 
BRANCH   8   9
ATOM      9  C   UNL     1      -8.243  18.416 -14.310  1.00  0.00    -0.003 C 
ATOM     10  C   UNL     1      -8.113  19.932 -14.158  1.00  0.00     0.004 C 
ENDBRANCH   8   9
ENDBRANCH   7   8
ENDBRANCH   1   7
TORSDOF 6
ENDMDL
