MODEL 1
REMARK VINA RESULT:    -3.682      0.000      0.000
REMARK INTER + INTRA:          -6.044
REMARK INTER:                  -5.188
REMARK INTRA:                  -0.855
REMARK UNBOUND:                -0.855
REMARK SMILES C=CCCCCCCC(=O)[O-]
REMARK SMILES IDX 6 1 7 2 8 3 9 4 10 5 11 6 5 7 4 8 3 9 2 10 1 11
REMARK H PARENT
REMARK Flexibility Score: inf
ROOT
ATOM      1  C   UNL     1      98.263   1.665 -26.703  1.00  0.00     0.000 C 
ENDROOT
BRANCH   1   2
ATOM      2  C   UNL     1      99.474   0.883 -27.249  1.00  0.00     0.006 C 
BRANCH   2   3
ATOM      3  C   UNL     1      99.965   1.355 -28.627  1.00  0.00     0.053 C 
BRANCH   3   4
ATOM      4  C   UNL     1      98.936   1.133 -29.693  1.00  0.00     0.041 C 
ATOM      5  O   UNL     1      98.416   2.114 -30.287  1.00  0.00    -0.550 OA
ATOM      6  O   UNL     1      98.578  -0.159 -30.056  1.00  0.00    -0.550 OA
ENDBRANCH   3   4
ENDBRANCH   2   3
ENDBRANCH   1   2
BRANCH   1   7
ATOM      7  C   UNL     1      98.595   2.716 -25.624  1.00  0.00     0.000 C 
BRANCH   7   8
ATOM      8  C   UNL     1      98.627   4.175 -26.122  1.00  0.00     0.004 C 
BRANCH   8   9
ATOM      9  C   UNL     1      97.855   4.415 -27.431  1.00  0.00     0.027 C 
BRANCH   9  10
ATOM     10  C   UNL     1      98.685   5.117 -28.472  1.00  0.00    -0.035 C 
ATOM     11  C   UNL     1     100.019   5.152 -28.404  1.00  0.00     0.004 C 
ENDBRANCH   9  10
ENDBRANCH   8   9
ENDBRANCH   7   8
ENDBRANCH   1   7
TORSDOF 7
ENDMDL
MODEL 2
REMARK VINA RESULT:    -3.518      1.657      3.506
REMARK INTER + INTRA:          -5.812
REMARK INTER:                  -5.187
REMARK INTRA:                  -0.625
REMARK UNBOUND:                -0.855
REMARK SMILES C=CCCCCCCC(=O)[O-]
REMARK SMILES IDX 6 1 7 2 8 3 9 4 10 5 11 6 5 7 4 8 3 9 2 10 1 11
REMARK H PARENT
REMARK Flexibility Score: inf
ROOT
ATOM      1  C   UNL     1      98.052   4.043 -26.434  1.00  0.00     0.000 C 
ENDROOT
BRANCH   1   2
ATOM      2  C   UNL     1      99.120   4.852 -27.197  1.00  0.00     0.006 C 
BRANCH   2   3
ATOM      3  C   UNL     1      98.716   5.246 -28.626  1.00  0.00     0.053 C 
BRANCH   3   4
ATOM      4  C   UNL     1      98.525   4.047 -29.504  1.00  0.00     0.041 C 
ATOM      5  O   UNL     1      97.371   3.720 -29.889  1.00  0.00    -0.550 OA
ATOM      6  O   UNL     1      99.625   3.311 -29.927  1.00  0.00    -0.550 OA
ENDBRANCH   3   4
ENDBRANCH   2   3
ENDBRANCH   1   2
BRANCH   1   7
ATOM      7  C   UNL     1      98.536   3.390 -25.124  1.00  0.00     0.000 C 
BRANCH   7   8
ATOM      8  C   UNL     1      98.385   1.857 -25.065  1.00  0.00     0.004 C 
BRANCH   8   9
ATOM      9  C   UNL     1      99.698   1.082 -25.279  1.00  0.00     0.027 C 
BRANCH   9  10
ATOM     10  C   UNL     1     100.027   0.892 -26.736  1.00  0.00    -0.035 C 
ATOM     11  C   UNL     1      99.084   0.606 -27.639  1.00  0.00     0.004 C 
ENDBRANCH   9  10
ENDBRANCH   8   9
ENDBRANCH   7   8
ENDBRANCH   1   7
TORSDOF 7
ENDMDL
MODEL 3
REMARK VINA RESULT:    -3.465      1.965      3.910
REMARK INTER + INTRA:          -5.739
REMARK INTER:                  -5.355
REMARK INTRA:                  -0.384
REMARK UNBOUND:                -0.855
REMARK SMILES C=CCCCCCCC(=O)[O-]
REMARK SMILES IDX 6 1 7 2 8 3 9 4 10 5 11 6 5 7 4 8 3 9 2 10 1 11
REMARK H PARENT
REMARK Flexibility Score: inf
ROOT
ATOM      1  C   UNL     1      98.121   3.675 -26.473  1.00  0.00     0.000 C 
ENDROOT
BRANCH   1   2
ATOM      2  C   UNL     1      99.005   4.781 -27.082  1.00  0.00     0.006 C 
BRANCH   2   3
ATOM      3  C   UNL     1      98.556   5.259 -28.472  1.00  0.00     0.053 C 
BRANCH   3   4
ATOM      4  C   UNL     1      98.496   4.133 -29.459  1.00  0.00     0.041 C 
ATOM      5  O   UNL     1      97.388   3.748 -29.916  1.00  0.00    -0.550 OA
ATOM      6  O   UNL     1      99.669   3.532 -29.899  1.00  0.00    -0.550 OA
ENDBRANCH   3   4
ENDBRANCH   2   3
ENDBRANCH   1   2
BRANCH   1   7
ATOM      7  C   UNL     1      98.480   3.269 -25.030  1.00  0.00     0.000 C 
BRANCH   7   8
ATOM      8  C   UNL     1      99.028   1.837 -24.872  1.00  0.00     0.004 C 
BRANCH   8   9
ATOM      9  C   UNL     1      99.565   1.217 -26.175  1.00  0.00     0.027 C 
BRANCH   9  10
ATOM     10  C   UNL     1      99.040  -0.174 -26.413  1.00  0.00    -0.035 C 
ATOM     11  C   UNL     1      98.769  -1.007 -25.404  1.00  0.00     0.004 C 
ENDBRANCH   9  10
ENDBRANCH   8   9
ENDBRANCH   7   8
ENDBRANCH   1   7
TORSDOF 7
ENDMDL
MODEL 4
REMARK VINA RESULT:    -3.384      1.855      2.688
REMARK INTER + INTRA:          -5.624
REMARK INTER:                  -5.245
REMARK INTRA:                  -0.379
REMARK UNBOUND:                -0.855
REMARK SMILES C=CCCCCCCC(=O)[O-]
REMARK SMILES IDX 6 1 7 2 8 3 9 4 10 5 11 6 5 7 4 8 3 9 2 10 1 11
REMARK H PARENT
REMARK Flexibility Score: inf
ROOT
ATOM      1  C   UNL     1      98.598   3.315 -24.888  1.00  0.00     0.000 C 
ENDROOT
BRANCH   1   2
ATOM      2  C   UNL     1      98.807   1.797 -24.718  1.00  0.00     0.006 C 
BRANCH   2   3
ATOM      3  C   UNL     1      99.771   1.171 -25.738  1.00  0.00     0.053 C 
BRANCH   3   4
ATOM      4  C   UNL     1      99.124   0.062 -26.511  1.00  0.00     0.041 C 
ATOM      5  O   UNL     1      98.776  -0.998 -25.929  1.00  0.00    -0.550 OA
ATOM      6  O   UNL     1      98.875   0.215 -27.869  1.00  0.00    -0.550 OA
ENDBRANCH   3   4
ENDBRANCH   2   3
ENDBRANCH   1   2
BRANCH   1   7
ATOM      7  C   UNL     1      98.074   3.752 -26.271  1.00  0.00     0.000 C 
BRANCH   7   8
ATOM      8  C   UNL     1      99.039   4.637 -27.085  1.00  0.00     0.004 C 
BRANCH   8   9
ATOM      9  C   UNL     1      98.414   5.265 -28.343  1.00  0.00     0.027 C 
BRANCH   9  10
ATOM     10  C   UNL     1      98.384   4.315 -29.511  1.00  0.00    -0.035 C 
ATOM     11  C   UNL     1      99.298   3.350 -29.657  1.00  0.00     0.004 C 
ENDBRANCH   9  10
ENDBRANCH   8   9
ENDBRANCH   7   8
ENDBRANCH   1   7
TORSDOF 7
ENDMDL
MODEL 5
REMARK VINA RESULT:    -3.354      2.648      4.137
REMARK INTER + INTRA:          -5.583
REMARK INTER:                  -4.910
REMARK INTRA:                  -0.672
REMARK UNBOUND:                -0.855
REMARK SMILES C=CCCCCCCC(=O)[O-]
REMARK SMILES IDX 6 1 7 2 8 3 9 4 10 5 11 6 5 7 4 8 3 9 2 10 1 11
REMARK H PARENT
REMARK Flexibility Score: inf
ROOT
ATOM      1  C   UNL     1      97.965   4.678 -27.354  1.00  0.00     0.000 C 
ENDROOT
BRANCH   1   2
ATOM      2  C   UNL     1      97.572   3.574 -26.352  1.00  0.00     0.006 C 
BRANCH   2   3
ATOM      3  C   UNL     1      98.479   3.490 -25.114  1.00  0.00     0.053 C 
BRANCH   3   4
ATOM      4  C   UNL     1      98.842   2.074 -24.781  1.00  0.00     0.041 C 
ATOM      5  O   UNL     1      99.629   1.828 -23.830  1.00  0.00    -0.550 OA
ATOM      6  O   UNL     1      98.282   1.025 -25.500  1.00  0.00    -0.550 OA
ENDBRANCH   3   4
ENDBRANCH   2   3
ENDBRANCH   1   2
BRANCH   1   7
ATOM      7  C   UNL     1      99.481   4.900 -27.523  1.00  0.00     0.000 C 
BRANCH   7   8
ATOM      8  C   UNL     1     100.036   4.569 -28.923  1.00  0.00     0.004 C 
BRANCH   8   9
ATOM      9  C   UNL     1      99.418   3.316 -29.570  1.00  0.00     0.027 C 
BRANCH   9  10
ATOM     10  C   UNL     1      99.906   2.039 -28.941  1.00  0.00    -0.035 C 
ATOM     11  C   UNL     1      99.161   0.929 -28.929  1.00  0.00     0.004 C 
ENDBRANCH   9  10
ENDBRANCH   8   9
ENDBRANCH   7   8
ENDBRANCH   1   7
TORSDOF 7
ENDMDL
MODEL 6
REMARK VINA RESULT:    -3.306      2.635      3.989
REMARK INTER + INTRA:          -5.514
REMARK INTER:                  -4.786
REMARK INTRA:                  -0.729
REMARK UNBOUND:                -0.855
REMARK SMILES C=CCCCCCCC(=O)[O-]
REMARK SMILES IDX 6 1 7 2 8 3 9 4 10 5 11 6 5 7 4 8 3 9 2 10 1 11
REMARK H PARENT
REMARK Flexibility Score: inf
ROOT
ATOM      1  C   UNL     1      98.538   4.259 -26.115  1.00  0.00     0.000 C 
ENDROOT
BRANCH   1   2
ATOM      2  C   UNL     1      97.910   2.852 -26.161  1.00  0.00     0.006 C 
BRANCH   2   3
ATOM      3  C   UNL     1      96.483   2.776 -25.594  1.00  0.00     0.053 C 
BRANCH   3   4
ATOM      4  C   UNL     1      95.490   3.459 -26.484  1.00  0.00     0.041 C 
ATOM      5  O   UNL     1      95.462   3.205 -27.716  1.00  0.00    -0.550 OA
ATOM      6  O   UNL     1      94.572   4.352 -25.944  1.00  0.00    -0.550 OA
ENDBRANCH   3   4
ENDBRANCH   2   3
ENDBRANCH   1   2
BRANCH   1   7
ATOM      7  C   UNL     1      99.364   4.648 -27.358  1.00  0.00     0.000 C 
BRANCH   7   8
ATOM      8  C   UNL     1      98.554   5.275 -28.510  1.00  0.00     0.004 C 
BRANCH   8   9
ATOM      9  C   UNL     1      98.091   4.270 -29.580  1.00  0.00     0.027 C 
BRANCH   9  10
ATOM     10  C   UNL     1      99.010   3.083 -29.694  1.00  0.00    -0.035 C 
ATOM     11  C   UNL     1      98.543   1.830 -29.710  1.00  0.00     0.004 C 
ENDBRANCH   9  10
ENDBRANCH   8   9
ENDBRANCH   7   8
ENDBRANCH   1   7
TORSDOF 7
ENDMDL
MODEL 7
REMARK VINA RESULT:    -3.256      2.050      3.445
REMARK INTER + INTRA:          -5.444
REMARK INTER:                  -4.797
REMARK INTRA:                  -0.648
REMARK UNBOUND:                -0.855
REMARK SMILES C=CCCCCCCC(=O)[O-]
REMARK SMILES IDX 6 1 7 2 8 3 9 4 10 5 11 6 5 7 4 8 3 9 2 10 1 11
REMARK H PARENT
REMARK Flexibility Score: inf
ROOT
ATOM      1  C   UNL     1      98.970   4.094 -26.748  1.00  0.00     0.000 C 
ENDROOT
BRANCH   1   2
ATOM      2  C   UNL     1      98.054   4.921 -27.673  1.00  0.00     0.006 C 
BRANCH   2   3
ATOM      3  C   UNL     1      98.341   4.744 -29.172  1.00  0.00     0.053 C 
BRANCH   3   4
ATOM      4  C   UNL     1      97.887   3.406 -29.673  1.00  0.00     0.041 C 
ATOM      5  O   UNL     1      96.679   3.216 -29.970  1.00  0.00    -0.550 OA
ATOM      6  O   UNL     1      98.808   2.380 -29.847  1.00  0.00    -0.550 OA
ENDBRANCH   3   4
ENDBRANCH   2   3
ENDBRANCH   1   2
BRANCH   1   7
ATOM      7  C   UNL     1      98.297   3.560 -25.467  1.00  0.00     0.000 C 
BRANCH   7   8
ATOM      8  C   UNL     1      97.087   2.634 -25.704  1.00  0.00     0.004 C 
BRANCH   8   9
ATOM      9  C   UNL     1      95.777   3.127 -25.064  1.00  0.00     0.027 C 
BRANCH   9  10
ATOM     10  C   UNL     1      94.879   3.828 -26.050  1.00  0.00    -0.035 C 
ATOM     11  C   UNL     1      94.558   3.277 -27.225  1.00  0.00     0.004 C 
ENDBRANCH   9  10
ENDBRANCH   8   9
ENDBRANCH   7   8
ENDBRANCH   1   7
TORSDOF 7
ENDMDL
MODEL 8
REMARK VINA RESULT:    -3.245      3.766      4.698
REMARK INTER + INTRA:          -5.428
REMARK INTER:                  -4.814
REMARK INTRA:                  -0.614
REMARK UNBOUND:                -0.855
REMARK SMILES C=CCCCCCCC(=O)[O-]
REMARK SMILES IDX 6 1 7 2 8 3 9 4 10 5 11 6 5 7 4 8 3 9 2 10 1 11
REMARK H PARENT
REMARK Flexibility Score: inf
ROOT
ATOM      1  C   UNL     1      96.987   2.928 -25.313  1.00  0.00     0.000 C 
ENDROOT
BRANCH   1   2
ATOM      2  C   UNL     1      96.068   3.127 -26.535  1.00  0.00     0.006 C 
BRANCH   2   3
ATOM      3  C   UNL     1      94.901   4.098 -26.299  1.00  0.00     0.053 C 
BRANCH   3   4
ATOM      4  C   UNL     1      93.817   3.480 -25.469  1.00  0.00     0.041 C 
ATOM      5  O   UNL     1      93.007   2.668 -25.988  1.00  0.00    -0.550 OA
ATOM      6  O   UNL     1      93.725   3.774 -24.115  1.00  0.00    -0.550 OA
ENDBRANCH   3   4
ENDBRANCH   2   3
ENDBRANCH   1   2
BRANCH   1   7
ATOM      7  C   UNL     1      98.389   3.560 -25.438  1.00  0.00     0.000 C 
BRANCH   7   8
ATOM      8  C   UNL     1      98.982   3.556 -26.861  1.00  0.00     0.004 C 
BRANCH   8   9
ATOM      9  C   UNL     1      99.276   4.956 -27.429  1.00  0.00     0.027 C 
BRANCH   9  10
ATOM     10  C   UNL     1      98.575   5.208 -28.738  1.00  0.00    -0.035 C 
ATOM     11  C   UNL     1      98.103   4.208 -29.488  1.00  0.00     0.004 C 
ENDBRANCH   9  10
ENDBRANCH   8   9
ENDBRANCH   7   8
ENDBRANCH   1   7
TORSDOF 7
ENDMDL
MODEL 9
REMARK VINA RESULT:    -3.243      1.859      3.749
REMARK INTER + INTRA:          -5.425
REMARK INTER:                  -4.787
REMARK INTRA:                  -0.639
REMARK UNBOUND:                -0.855
REMARK SMILES C=CCCCCCCC(=O)[O-]
REMARK SMILES IDX 6 1 7 2 8 3 9 4 10 5 11 6 5 7 4 8 3 9 2 10 1 11
REMARK H PARENT
REMARK Flexibility Score: inf
ROOT
ATOM      1  C   UNL     1      98.233   2.331 -25.253  1.00  0.00     0.000 C 
ENDROOT
BRANCH   1   2
ATOM      2  C   UNL     1      98.504   3.769 -25.738  1.00  0.00     0.006 C 
BRANCH   2   3
ATOM      3  C   UNL     1      97.747   4.160 -27.017  1.00  0.00     0.053 C 
BRANCH   3   4
ATOM      4  C   UNL     1      98.667   4.705 -28.067  1.00  0.00     0.041 C 
ATOM      5  O   UNL     1      99.783   5.190 -27.744  1.00  0.00    -0.550 OA
ATOM      6  O   UNL     1      98.306   4.643 -29.408  1.00  0.00    -0.550 OA
ENDBRANCH   3   4
ENDBRANCH   2   3
ENDBRANCH   1   2
BRANCH   1   7
ATOM      7  C   UNL     1      99.406   1.346 -25.437  1.00  0.00     0.000 C 
BRANCH   7   8
ATOM      8  C   UNL     1      99.359   0.511 -26.732  1.00  0.00     0.004 C 
BRANCH   8   9
ATOM      9  C   UNL     1     100.051   1.172 -27.937  1.00  0.00     0.027 C 
BRANCH   9  10
ATOM     10  C   UNL     1      99.224   1.094 -29.193  1.00  0.00    -0.035 C 
ATOM     11  C   UNL     1      99.756   1.307 -30.401  1.00  0.00     0.004 C 
ENDBRANCH   9  10
ENDBRANCH   8   9
ENDBRANCH   7   8
ENDBRANCH   1   7
TORSDOF 7
ENDMDL
