MODEL 1
REMARK VINA RESULT:    -7.611      0.000      0.000
REMARK INTER + INTRA:         -13.535
REMARK INTER:                 -11.838
REMARK INTRA:                  -1.697
REMARK UNBOUND:                -1.697
REMARK SMILES C[C@@]12C[C@@]3(O)O[C@@H](O1)[C@]1(COC(=O)c4ccccc4)[C@H]3C[C@@]12O[C@@H]1O[C@H](CO)[C@H](O)[C@@H](O)[C@H]1O
REMARK SMILES IDX 1 1 2 2 3 3 4 4 20 5 21 6 22 7 9 8 7 9 8 10 6 11 23 12 24 13
REMARK SMILES IDX 33 14 25 15 31 16 26 17 29 18 34 19 32 21 27 23 28 24 30 26
REMARK SMILES IDX 5 28 10 30 11 31 12 32 13 33 14 34 15 35 19 36 16 37 18 38
REMARK SMILES IDX 17 39
REMARK H PARENT 34 20 32 22 28 25 30 27 5 29
REMARK Flexibility Score: inf
ROOT
ATOM      1  C   UNL     1     165.799 145.952 148.928  1.00  0.00     0.046 C 
ATOM      2  C   UNL     1     166.638 147.224 148.655  1.00  0.00     0.104 C 
ATOM      3  C   UNL     1     165.671 148.454 148.476  1.00  0.00     0.104 C 
ATOM      4  C   UNL     1     166.605 149.646 148.129  1.00  0.00     0.175 C 
ATOM      5  C   UNL     1     167.584 149.219 146.971  1.00  0.00     0.070 C 
ATOM      6  C   UNL     1     167.160 147.934 146.225  1.00  0.00     0.050 C 
ATOM      7  C   UNL     1     167.671 147.152 147.454  1.00  0.00     0.115 C 
ATOM      8  C   UNL     1     168.550 148.376 147.806  1.00  0.00     0.096 C 
ATOM      9  C   UNL     1     168.252 148.671 149.258  1.00  0.00     0.267 C 
ATOM     10  O   UNL     1     167.457 147.595 149.754  1.00  0.00    -0.342 OA
ATOM     11  O   UNL     1     167.442 149.837 149.256  1.00  0.00    -0.320 OA
ENDROOT
BRANCH   7  12
ATOM     12  O   UNL     1     168.301 145.899 147.086  1.00  0.00    -0.339 OA
BRANCH  12  13
ATOM     13  C   UNL     1     168.356 144.934 148.144  1.00  0.00     0.282 C 
ATOM     14  C   UNL     1     168.453 143.473 147.605  1.00  0.00     0.202 C 
ATOM     15  O   UNL     1     169.498 145.162 148.959  1.00  0.00    -0.341 OA
ATOM     16  C   UNL     1     168.206 142.505 148.820  1.00  0.00     0.179 C 
ATOM     17  C   UNL     1     169.726 144.199 149.996  1.00  0.00     0.178 C 
ATOM     18  C   UNL     1     168.551 143.183 150.183  1.00  0.00     0.177 C 
BRANCH  14  19
ATOM     19  O   UNL     1     167.534 143.219 146.567  1.00  0.00    -0.385 OA
ATOM     20  H   UNL     1     168.023 142.725 145.863  1.00  0.00     0.211 HD
ENDBRANCH  14  19
BRANCH  16  21
ATOM     21  O   UNL     1     166.884 142.014 148.835  1.00  0.00    -0.387 OA
ATOM     22  H   UNL     1     166.801 141.379 149.586  1.00  0.00     0.211 HD
ENDBRANCH  16  21
BRANCH  17  23
ATOM     23  C   UNL     1     171.071 143.474 149.716  1.00  0.00     0.191 C 
BRANCH  23  24
ATOM     24  O   UNL     1     171.573 142.904 150.915  1.00  0.00    -0.394 OA
ATOM     25  H   UNL     1     172.415 142.401 150.720  1.00  0.00     0.210 HD
ENDBRANCH  23  24
ENDBRANCH  17  23
BRANCH  18  26
ATOM     26  O   UNL     1     168.807 142.213 151.170  1.00  0.00    -0.387 OA
ATOM     27  H   UNL     1     169.794 142.191 151.306  1.00  0.00     0.211 HD
ENDBRANCH  18  26
ENDBRANCH  12  13
ENDBRANCH   7  12
BRANCH   4  28
ATOM     28  O   UNL     1     165.873 150.837 147.866  1.00  0.00    -0.365 OA
ATOM     29  H   UNL     1     165.115 150.660 147.239  1.00  0.00     0.214 HD
ENDBRANCH   4  28
BRANCH   8  30
ATOM     30  C   UNL     1     170.033 148.497 147.358  1.00  0.00     0.249 C 
BRANCH  30  31
ATOM     31  O   UNL     1     170.723 149.383 148.250  1.00  0.00    -0.461 OA
BRANCH  31  32
ATOM     32  C   UNL     1     171.043 150.690 147.915  1.00  0.00     0.338 C 
ATOM     33  O   UNL     1     171.960 150.935 147.073  1.00  0.00    -0.246 OA
BRANCH  32  34
ATOM     34  C   UNL     1     170.209 151.759 148.455  1.00  0.00     0.060 A 
ATOM     35  C   UNL     1     170.305 152.105 149.808  1.00  0.00     0.015 A 
ATOM     36  C   UNL     1     169.250 152.366 147.652  1.00  0.00     0.015 A 
ATOM     37  C   UNL     1     169.414 153.032 150.356  1.00  0.00     0.001 A 
ATOM     38  C   UNL     1     168.356 153.303 148.197  1.00  0.00     0.001 A 
ATOM     39  C   UNL     1     168.445 153.635 149.554  1.00  0.00     0.000 A 
ENDBRANCH  32  34
ENDBRANCH  31  32
ENDBRANCH  30  31
ENDBRANCH   8  30
TORSDOF 12
ENDMDL
MODEL 2
REMARK VINA RESULT:    -7.303      2.698      8.131
REMARK INTER + INTRA:         -13.056
REMARK INTER:                 -12.450
REMARK INTRA:                  -0.606
REMARK UNBOUND:                -1.697
REMARK SMILES C[C@@]12C[C@@]3(O)O[C@@H](O1)[C@]1(COC(=O)c4ccccc4)[C@H]3C[C@@]12O[C@@H]1O[C@H](CO)[C@H](O)[C@@H](O)[C@H]1O
REMARK SMILES IDX 1 1 2 2 3 3 4 4 20 5 21 6 22 7 9 8 7 9 8 10 6 11 23 12 24 13
REMARK SMILES IDX 33 14 25 15 31 16 26 17 29 18 34 19 32 21 27 23 28 24 30 26
REMARK SMILES IDX 5 28 10 30 11 31 12 32 13 33 14 34 15 35 19 36 16 37 18 38
REMARK SMILES IDX 17 39
REMARK H PARENT 34 20 32 22 28 25 30 27 5 29
REMARK Flexibility Score: inf
ROOT
ATOM      1  C   UNL     1     170.766 147.421 149.048  1.00  0.00     0.046 C 
ATOM      2  C   UNL     1     169.526 146.570 148.681  1.00  0.00     0.104 C 
ATOM      3  C   UNL     1     169.840 145.727 147.390  1.00  0.00     0.104 C 
ATOM      4  C   UNL     1     168.514 144.982 147.070  1.00  0.00     0.175 C 
ATOM      5  C   UNL     1     167.322 146.013 147.087  1.00  0.00     0.070 C 
ATOM      6  C   UNL     1     167.764 147.492 147.031  1.00  0.00     0.050 C 
ATOM      7  C   UNL     1     168.153 147.346 148.517  1.00  0.00     0.115 C 
ATOM      8  C   UNL     1     167.176 146.149 148.604  1.00  0.00     0.096 C 
ATOM      9  C   UNL     1     167.979 145.029 149.227  1.00  0.00     0.267 C 
ATOM     10  O   UNL     1     169.218 145.588 149.661  1.00  0.00    -0.342 OA
ATOM     11  O   UNL     1     168.264 144.125 148.170  1.00  0.00    -0.320 OA
ENDROOT
BRANCH   7  12
ATOM     12  O   UNL     1     167.880 148.550 149.278  1.00  0.00    -0.339 OA
BRANCH  12  13
ATOM     13  C   UNL     1     168.265 149.764 148.621  1.00  0.00     0.282 C 
ATOM     14  C   UNL     1     167.100 150.800 148.567  1.00  0.00     0.202 C 
ATOM     15  O   UNL     1     169.346 150.376 149.312  1.00  0.00    -0.341 OA
ATOM     16  C   UNL     1     167.533 151.945 147.581  1.00  0.00     0.179 C 
ATOM     17  C   UNL     1     169.759 151.654 148.814  1.00  0.00     0.178 C 
ATOM     18  C   UNL     1     169.086 152.052 147.459  1.00  0.00     0.177 C 
BRANCH  14  19
ATOM     19  O   UNL     1     165.881 150.221 148.159  1.00  0.00    -0.385 OA
ATOM     20  H   UNL     1     165.255 150.965 147.976  1.00  0.00     0.211 HD
ENDBRANCH  14  19
BRANCH  16  21
ATOM     21  O   UNL     1     166.950 151.784 146.306  1.00  0.00    -0.387 OA
ATOM     22  H   UNL     1     165.996 152.031 146.372  1.00  0.00     0.211 HD
ENDBRANCH  16  21
BRANCH  17  23
ATOM     23  C   UNL     1     169.508 152.723 149.913  1.00  0.00     0.191 C 
BRANCH  23  24
ATOM     24  O   UNL     1     170.170 153.932 149.574  1.00  0.00    -0.394 OA
ATOM     25  H   UNL     1     169.777 154.306 148.734  1.00  0.00     0.210 HD
ENDBRANCH  23  24
ENDBRANCH  17  23
BRANCH  18  26
ATOM     26  O   UNL     1     169.463 153.329 147.005  1.00  0.00    -0.387 OA
ATOM     27  H   UNL     1     169.155 153.983 147.690  1.00  0.00     0.211 HD
ENDBRANCH  18  26
ENDBRANCH  12  13
ENDBRANCH   7  12
BRANCH   4  28
ATOM     28  O   UNL     1     168.608 144.216 145.875  1.00  0.00    -0.365 OA
ATOM     29  H   UNL     1     169.366 143.566 145.926  1.00  0.00     0.214 HD
ENDBRANCH   4  28
BRANCH   8  30
ATOM     30  C   UNL     1     165.705 146.302 149.079  1.00  0.00     0.249 C 
BRANCH  30  31
ATOM     31  O   UNL     1     165.219 145.027 149.522  1.00  0.00    -0.461 OA
BRANCH  31  32
ATOM     32  C   UNL     1     164.739 144.808 150.804  1.00  0.00     0.338 C 
ATOM     33  O   UNL     1     164.586 145.774 151.611  1.00  0.00    -0.246 OA
BRANCH  32  34
ATOM     34  C   UNL     1     164.290 143.461 151.146  1.00  0.00     0.060 A 
ATOM     35  C   UNL     1     163.355 143.276 152.170  1.00  0.00     0.015 A 
ATOM     36  C   UNL     1     164.864 142.358 150.524  1.00  0.00     0.015 A 
ATOM     37  C   UNL     1     163.027 141.983 152.590  1.00  0.00     0.001 A 
ATOM     38  C   UNL     1     164.532 141.056 150.938  1.00  0.00     0.001 A 
ATOM     39  C   UNL     1     163.608 140.875 151.973  1.00  0.00     0.000 A 
ENDBRANCH  32  34
ENDBRANCH  31  32
ENDBRANCH  30  31
ENDBRANCH   8  30
TORSDOF 12
ENDMDL
MODEL 3
REMARK VINA RESULT:    -7.178      2.081      3.751
REMARK INTER + INTRA:         -12.862
REMARK INTER:                 -11.585
REMARK INTRA:                  -1.277
REMARK UNBOUND:                -1.697
REMARK SMILES C[C@@]12C[C@@]3(O)O[C@@H](O1)[C@]1(COC(=O)c4ccccc4)[C@H]3C[C@@]12O[C@@H]1O[C@H](CO)[C@H](O)[C@@H](O)[C@H]1O
REMARK SMILES IDX 1 1 2 2 3 3 4 4 20 5 21 6 22 7 9 8 7 9 8 10 6 11 23 12 24 13
REMARK SMILES IDX 33 14 25 15 31 16 26 17 29 18 34 19 32 21 27 23 28 24 30 26
REMARK SMILES IDX 5 28 10 30 11 31 12 32 13 33 14 34 15 35 19 36 16 37 18 38
REMARK SMILES IDX 17 39
REMARK H PARENT 34 20 32 22 28 25 30 27 5 29
REMARK Flexibility Score: inf
ROOT
ATOM      1  C   UNL     1     170.002 145.547 147.044  1.00  0.00     0.046 C 
ATOM      2  C   UNL     1     169.673 147.054 147.177  1.00  0.00     0.104 C 
ATOM      3  C   UNL     1     170.726 147.733 148.129  1.00  0.00     0.104 C 
ATOM      4  C   UNL     1     170.256 149.208 148.254  1.00  0.00     0.175 C 
ATOM      5  C   UNL     1     168.720 149.236 148.605  1.00  0.00     0.070 C 
ATOM      6  C   UNL     1     168.160 147.884 149.100  1.00  0.00     0.050 C 
ATOM      7  C   UNL     1     168.198 147.423 147.628  1.00  0.00     0.115 C 
ATOM      8  C   UNL     1     168.175 148.914 147.213  1.00  0.00     0.096 C 
ATOM      9  C   UNL     1     169.323 149.071 146.242  1.00  0.00     0.267 C 
ATOM     10  O   UNL     1     169.816 147.762 145.954  1.00  0.00    -0.342 OA
ATOM     11  O   UNL     1     170.338 149.764 146.953  1.00  0.00    -0.320 OA
ENDROOT
BRANCH   7  12
ATOM     12  O   UNL     1     167.078 146.568 147.289  1.00  0.00    -0.339 OA
BRANCH  12  13
ATOM     13  C   UNL     1     166.783 145.565 148.270  1.00  0.00     0.282 C 
ATOM     14  C   UNL     1     165.287 145.593 148.712  1.00  0.00     0.202 C 
ATOM     15  O   UNL     1     167.047 144.271 147.744  1.00  0.00    -0.341 OA
ATOM     16  C   UNL     1     165.153 144.674 149.980  1.00  0.00     0.179 C 
ATOM     17  C   UNL     1     166.695 143.170 148.593  1.00  0.00     0.178 C 
ATOM     18  C   UNL     1     166.281 143.596 150.040  1.00  0.00     0.177 C 
BRANCH  14  19
ATOM     19  O   UNL     1     164.830 146.898 148.987  1.00  0.00    -0.385 OA
ATOM     20  H   UNL     1     165.439 147.279 149.668  1.00  0.00     0.211 HD
ENDBRANCH  14  19
BRANCH  16  21
ATOM     21  O   UNL     1     165.130 145.429 151.171  1.00  0.00    -0.387 OA
ATOM     22  H   UNL     1     164.567 144.952 151.827  1.00  0.00     0.211 HD
ENDBRANCH  16  21
BRANCH  17  23
ATOM     23  C   UNL     1     165.578 142.342 147.899  1.00  0.00     0.191 C 
BRANCH  23  24
ATOM     24  O   UNL     1     165.637 140.992 148.329  1.00  0.00    -0.394 OA
ATOM     25  H   UNL     1     165.868 140.403 147.554  1.00  0.00     0.210 HD
ENDBRANCH  23  24
ENDBRANCH  17  23
BRANCH  18  26
ATOM     26  O   UNL     1     165.892 142.512 150.848  1.00  0.00    -0.387 OA
ATOM     27  H   UNL     1     166.306 141.695 150.457  1.00  0.00     0.211 HD
ENDBRANCH  18  26
ENDBRANCH  12  13
ENDBRANCH   7  12
BRANCH   4  28
ATOM     28  O   UNL     1     171.074 149.954 149.148  1.00  0.00    -0.365 OA
ATOM     29  H   UNL     1     170.517 150.422 149.835  1.00  0.00     0.214 HD
ENDBRANCH   4  28
BRANCH   8  30
ATOM     30  C   UNL     1     166.860 149.665 146.867  1.00  0.00     0.249 C 
BRANCH  30  31
ATOM     31  O   UNL     1     167.183 150.953 146.322  1.00  0.00    -0.461 OA
BRANCH  31  32
ATOM     32  C   UNL     1     166.975 152.137 147.013  1.00  0.00     0.338 C 
ATOM     33  O   UNL     1     165.859 152.737 146.945  1.00  0.00    -0.246 OA
BRANCH  32  34
ATOM     34  C   UNL     1     168.024 152.595 147.918  1.00  0.00     0.060 A 
ATOM     35  C   UNL     1     169.324 152.792 147.438  1.00  0.00     0.015 A 
ATOM     36  C   UNL     1     167.758 152.739 149.275  1.00  0.00     0.015 A 
ATOM     37  C   UNL     1     170.357 153.099 148.328  1.00  0.00     0.001 A 
ATOM     38  C   UNL     1     168.793 153.053 150.173  1.00  0.00     0.001 A 
ATOM     39  C   UNL     1     170.094 153.235 149.691  1.00  0.00     0.000 A 
ENDBRANCH  32  34
ENDBRANCH  31  32
ENDBRANCH  30  31
ENDBRANCH   8  30
TORSDOF 12
ENDMDL
MODEL 4
REMARK VINA RESULT:    -7.160      2.089      7.598
REMARK INTER + INTRA:         -12.833
REMARK INTER:                 -11.696
REMARK INTRA:                  -1.137
REMARK UNBOUND:                -1.697
REMARK SMILES C[C@@]12C[C@@]3(O)O[C@@H](O1)[C@]1(COC(=O)c4ccccc4)[C@H]3C[C@@]12O[C@@H]1O[C@H](CO)[C@H](O)[C@@H](O)[C@H]1O
REMARK SMILES IDX 1 1 2 2 3 3 4 4 20 5 21 6 22 7 9 8 7 9 8 10 6 11 23 12 24 13
REMARK SMILES IDX 33 14 25 15 31 16 26 17 29 18 34 19 32 21 27 23 28 24 30 26
REMARK SMILES IDX 5 28 10 30 11 31 12 32 13 33 14 34 15 35 19 36 16 37 18 38
REMARK SMILES IDX 17 39
REMARK H PARENT 34 20 32 22 28 25 30 27 5 29
REMARK Flexibility Score: inf
ROOT
ATOM      1  C   UNL     1     164.205 149.062 149.251  1.00  0.00     0.046 C 
ATOM      2  C   UNL     1     165.071 147.847 148.837  1.00  0.00     0.104 C 
ATOM      3  C   UNL     1     165.126 146.820 150.029  1.00  0.00     0.104 C 
ATOM      4  C   UNL     1     166.077 145.694 149.539  1.00  0.00     0.175 C 
ATOM      5  C   UNL     1     167.399 146.340 148.973  1.00  0.00     0.070 C 
ATOM      6  C   UNL     1     167.600 147.820 149.369  1.00  0.00     0.050 C 
ATOM      7  C   UNL     1     166.533 148.163 148.309  1.00  0.00     0.115 C 
ATOM      8  C   UNL     1     166.849 146.811 147.626  1.00  0.00     0.096 C 
ATOM      9  C   UNL     1     165.507 146.140 147.438  1.00  0.00     0.267 C 
ATOM     10  O   UNL     1     164.504 147.099 147.771  1.00  0.00    -0.342 OA
ATOM     11  O   UNL     1     165.452 145.107 148.411  1.00  0.00    -0.320 OA
ENDROOT
BRANCH   7  12
ATOM     12  O   UNL     1     166.824 149.402 147.615  1.00  0.00    -0.339 OA
BRANCH  12  13
ATOM     13  C   UNL     1     167.790 150.233 148.271  1.00  0.00     0.282 C 
ATOM     14  C   UNL     1     168.857 150.792 147.280  1.00  0.00     0.202 C 
ATOM     15  O   UNL     1     167.149 151.347 148.878  1.00  0.00    -0.341 OA
ATOM     16  C   UNL     1     170.011 151.427 148.139  1.00  0.00     0.179 C 
ATOM     17  C   UNL     1     168.018 152.313 149.482  1.00  0.00     0.178 C 
ATOM     18  C   UNL     1     169.514 151.859 149.554  1.00  0.00     0.177 C 
BRANCH  14  19
ATOM     19  O   UNL     1     169.363 149.801 146.415  1.00  0.00    -0.385 OA
ATOM     20  H   UNL     1     169.699 150.266 145.609  1.00  0.00     0.211 HD
ENDBRANCH  14  19
BRANCH  16  21
ATOM     21  O   UNL     1     171.116 150.556 148.251  1.00  0.00    -0.387 OA
ATOM     22  H   UNL     1     170.995 149.822 147.602  1.00  0.00     0.211 HD
ENDBRANCH  16  21
BRANCH  17  23
ATOM     23  C   UNL     1     167.866 153.662 148.727  1.00  0.00     0.191 C 
BRANCH  23  24
ATOM     24  O   UNL     1     168.387 154.720 149.515  1.00  0.00    -0.394 OA
ATOM     25  H   UNL     1     168.548 154.397 150.447  1.00  0.00     0.210 HD
ENDBRANCH  23  24
ENDBRANCH  17  23
BRANCH  18  26
ATOM     26  O   UNL     1     170.364 152.835 150.104  1.00  0.00    -0.387 OA
ATOM     27  H   UNL     1     171.103 152.977 149.452  1.00  0.00     0.211 HD
ENDBRANCH  18  26
ENDBRANCH  12  13
ENDBRANCH   7  12
BRANCH   4  28
ATOM     28  O   UNL     1     166.292 144.705 150.539  1.00  0.00    -0.365 OA
ATOM     29  H   UNL     1     167.181 144.264 150.420  1.00  0.00     0.214 HD
ENDBRANCH   4  28
BRANCH   8  30
ATOM     30  C   UNL     1     167.864 146.681 146.457  1.00  0.00     0.249 C 
BRANCH  30  31
ATOM     31  O   UNL     1     167.748 145.375 145.875  1.00  0.00    -0.461 OA
BRANCH  31  32
ATOM     32  C   UNL     1     168.423 144.269 146.368  1.00  0.00     0.338 C 
ATOM     33  O   UNL     1     169.682 144.294 146.521  1.00  0.00    -0.246 OA
BRANCH  32  34
ATOM     34  C   UNL     1     167.630 143.133 146.829  1.00  0.00     0.060 A 
ATOM     35  C   UNL     1     166.532 142.698 146.077  1.00  0.00     0.015 A 
ATOM     36  C   UNL     1     167.903 142.547 148.059  1.00  0.00     0.015 A 
ATOM     37  C   UNL     1     165.692 141.701 146.583  1.00  0.00     0.001 A 
ATOM     38  C   UNL     1     167.065 141.539 148.569  1.00  0.00     0.001 A 
ATOM     39  C   UNL     1     165.959 141.118 147.821  1.00  0.00     0.000 A 
ENDBRANCH  32  34
ENDBRANCH  31  32
ENDBRANCH  30  31
ENDBRANCH   8  30
TORSDOF 12
ENDMDL
MODEL 5
REMARK VINA RESULT:    -7.130      2.349      7.909
REMARK INTER + INTRA:         -12.787
REMARK INTER:                 -11.824
REMARK INTRA:                  -0.963
REMARK UNBOUND:                -1.697
REMARK SMILES C[C@@]12C[C@@]3(O)O[C@@H](O1)[C@]1(COC(=O)c4ccccc4)[C@H]3C[C@@]12O[C@@H]1O[C@H](CO)[C@H](O)[C@@H](O)[C@H]1O
REMARK SMILES IDX 1 1 2 2 3 3 4 4 20 5 21 6 22 7 9 8 7 9 8 10 6 11 23 12 24 13
REMARK SMILES IDX 33 14 25 15 31 16 26 17 29 18 34 19 32 21 27 23 28 24 30 26
REMARK SMILES IDX 5 28 10 30 11 31 12 32 13 33 14 34 15 35 19 36 16 37 18 38
REMARK SMILES IDX 17 39
REMARK H PARENT 34 20 32 22 28 25 30 27 5 29
REMARK Flexibility Score: inf
ROOT
ATOM      1  C   UNL     1     170.416 148.092 148.934  1.00  0.00     0.046 C 
ATOM      2  C   UNL     1     169.467 146.873 148.845  1.00  0.00     0.104 C 
ATOM      3  C   UNL     1     170.171 145.620 149.488  1.00  0.00     0.104 C 
ATOM      4  C   UNL     1     169.173 144.450 149.273  1.00  0.00     0.175 C 
ATOM      5  C   UNL     1     168.714 144.429 147.765  1.00  0.00     0.070 C 
ATOM      6  C   UNL     1     169.602 145.271 146.822  1.00  0.00     0.050 C 
ATOM      7  C   UNL     1     168.901 146.514 147.408  1.00  0.00     0.115 C 
ATOM      8  C   UNL     1     167.727 145.595 147.823  1.00  0.00     0.096 C 
ATOM      9  C   UNL     1     167.487 145.898 149.285  1.00  0.00     0.267 C 
ATOM     10  O   UNL     1     168.286 147.032 149.619  1.00  0.00    -0.342 OA
ATOM     11  O   UNL     1     168.003 144.785 149.999  1.00  0.00    -0.320 OA
ENDROOT
BRANCH   7  12
ATOM     12  O   UNL     1     168.685 147.546 146.412  1.00  0.00    -0.339 OA
BRANCH  12  13
ATOM     13  C   UNL     1     168.601 148.873 146.946  1.00  0.00     0.282 C 
ATOM     14  C   UNL     1     169.470 149.889 146.143  1.00  0.00     0.202 C 
ATOM     15  O   UNL     1     167.258 149.336 146.903  1.00  0.00    -0.341 OA
ATOM     16  C   UNL     1     169.538 151.218 146.980  1.00  0.00     0.179 C 
ATOM     17  C   UNL     1     167.053 150.694 147.314  1.00  0.00     0.178 C 
ATOM     18  C   UNL     1     168.320 151.360 147.947  1.00  0.00     0.177 C 
BRANCH  14  19
ATOM     19  O   UNL     1     170.764 149.398 145.875  1.00  0.00    -0.385 OA
ATOM     20  H   UNL     1     170.654 148.528 145.416  1.00  0.00     0.211 HD
ENDBRANCH  14  19
BRANCH  16  21
ATOM     21  O   UNL     1     170.749 151.321 147.697  1.00  0.00    -0.387 OA
ATOM     22  H   UNL     1     170.663 152.066 148.339  1.00  0.00     0.211 HD
ENDBRANCH  16  21
BRANCH  17  23
ATOM     23  C   UNL     1     166.523 151.508 146.103  1.00  0.00     0.191 C 
BRANCH  23  24
ATOM     24  O   UNL     1     165.540 152.436 146.534  1.00  0.00    -0.394 OA
ATOM     25  H   UNL     1     165.328 153.071 145.791  1.00  0.00     0.210 HD
ENDBRANCH  23  24
ENDBRANCH  17  23
BRANCH  18  26
ATOM     26  O   UNL     1     168.121 152.706 148.302  1.00  0.00    -0.387 OA
ATOM     27  H   UNL     1     168.892 153.220 147.936  1.00  0.00     0.211 HD
ENDBRANCH  18  26
ENDBRANCH  12  13
ENDBRANCH   7  12
BRANCH   4  28
ATOM     28  O   UNL     1     169.693 143.212 149.743  1.00  0.00    -0.365 OA
ATOM     29  H   UNL     1     169.892 143.257 150.722  1.00  0.00     0.214 HD
ENDBRANCH   4  28
BRANCH   8  30
ATOM     30  C   UNL     1     166.468 145.394 146.936  1.00  0.00     0.249 C 
BRANCH  30  31
ATOM     31  O   UNL     1     165.397 144.890 147.746  1.00  0.00    -0.461 OA
BRANCH  31  32
ATOM     32  C   UNL     1     165.180 143.536 147.950  1.00  0.00     0.338 C 
ATOM     33  O   UNL     1     165.354 142.704 147.008  1.00  0.00    -0.246 OA
BRANCH  32  34
ATOM     34  C   UNL     1     164.879 143.088 149.307  1.00  0.00     0.060 A 
ATOM     35  C   UNL     1     164.996 141.733 149.636  1.00  0.00     0.015 A 
ATOM     36  C   UNL     1     164.383 143.988 150.243  1.00  0.00     0.015 A 
ATOM     37  C   UNL     1     164.579 141.282 150.893  1.00  0.00     0.001 A 
ATOM     38  C   UNL     1     163.968 143.540 151.509  1.00  0.00     0.001 A 
ATOM     39  C   UNL     1     164.072 142.182 151.830  1.00  0.00     0.000 A 
ENDBRANCH  32  34
ENDBRANCH  31  32
ENDBRANCH  30  31
ENDBRANCH   8  30
TORSDOF 12
ENDMDL
MODEL 6
REMARK VINA RESULT:    -7.098      2.059      7.601
REMARK INTER + INTRA:         -12.737
REMARK INTER:                 -12.230
REMARK INTRA:                  -0.507
REMARK UNBOUND:                -1.697
REMARK SMILES C[C@@]12C[C@@]3(O)O[C@@H](O1)[C@]1(COC(=O)c4ccccc4)[C@H]3C[C@@]12O[C@@H]1O[C@H](CO)[C@H](O)[C@@H](O)[C@H]1O
REMARK SMILES IDX 1 1 2 2 3 3 4 4 20 5 21 6 22 7 9 8 7 9 8 10 6 11 23 12 24 13
REMARK SMILES IDX 33 14 25 15 31 16 26 17 29 18 34 19 32 21 27 23 28 24 30 26
REMARK SMILES IDX 5 28 10 30 11 31 12 32 13 33 14 34 15 35 19 36 16 37 18 38
REMARK SMILES IDX 17 39
REMARK H PARENT 34 20 32 22 28 25 30 27 5 29
REMARK Flexibility Score: inf
ROOT
ATOM      1  C   UNL     1     166.155 146.243 146.100  1.00  0.00     0.046 C 
ATOM      2  C   UNL     1     166.790 145.465 147.279  1.00  0.00     0.104 C 
ATOM      3  C   UNL     1     165.646 144.910 148.208  1.00  0.00     0.104 C 
ATOM      4  C   UNL     1     166.391 144.225 149.387  1.00  0.00     0.175 C 
ATOM      5  C   UNL     1     167.482 145.210 149.956  1.00  0.00     0.070 C 
ATOM      6  C   UNL     1     167.308 146.677 149.501  1.00  0.00     0.050 C 
ATOM      7  C   UNL     1     167.878 146.235 148.137  1.00  0.00     0.115 C 
ATOM      8  C   UNL     1     168.530 145.029 148.856  1.00  0.00     0.096 C 
ATOM      9  C   UNL     1     168.118 143.819 148.048  1.00  0.00     0.267 C 
ATOM     10  O   UNL     1     167.483 144.297 146.863  1.00  0.00    -0.342 OA
ATOM     11  O   UNL     1     167.130 143.156 148.824  1.00  0.00    -0.320 OA
ENDROOT
BRANCH   7  12
ATOM     12  O   UNL     1     168.720 147.251 147.537  1.00  0.00    -0.339 OA
BRANCH  12  13
ATOM     13  C   UNL     1     168.452 148.584 147.991  1.00  0.00     0.282 C 
ATOM     14  C   UNL     1     169.614 149.567 147.652  1.00  0.00     0.202 C 
ATOM     15  O   UNL     1     167.276 149.087 147.372  1.00  0.00    -0.341 OA
ATOM     16  C   UNL     1     169.352 150.899 148.446  1.00  0.00     0.179 C 
ATOM     17  C   UNL     1     166.954 150.453 147.664  1.00  0.00     0.178 C 
ATOM     18  C   UNL     1     167.841 151.084 148.788  1.00  0.00     0.177 C 
BRANCH  14  19
ATOM     19  O   UNL     1     170.881 149.035 147.969  1.00  0.00    -0.385 OA
ATOM     20  H   UNL     1     171.226 148.603 147.148  1.00  0.00     0.211 HD
ENDBRANCH  14  19
BRANCH  16  21
ATOM     21  O   UNL     1     170.134 150.969 149.618  1.00  0.00    -0.387 OA
ATOM     22  H   UNL     1     169.657 151.535 150.271  1.00  0.00     0.211 HD
ENDBRANCH  16  21
BRANCH  17  23
ATOM     23  C   UNL     1     167.027 151.276 146.348  1.00  0.00     0.191 C 
BRANCH  23  24
ATOM     24  O   UNL     1     165.950 152.197 146.292  1.00  0.00    -0.394 OA
ATOM     25  H   UNL     1     166.256 153.045 145.858  1.00  0.00     0.210 HD
ENDBRANCH  23  24
ENDBRANCH  17  23
BRANCH  18  26
ATOM     26  O   UNL     1     167.548 152.438 149.032  1.00  0.00    -0.387 OA
ATOM     27  H   UNL     1     167.331 152.519 150.001  1.00  0.00     0.211 HD
ENDBRANCH  18  26
ENDBRANCH  12  13
ENDBRANCH   7  12
BRANCH   4  28
ATOM     28  O   UNL     1     165.490 143.724 150.367  1.00  0.00    -0.365 OA
ATOM     29  H   UNL     1     165.000 144.470 150.817  1.00  0.00     0.214 HD
ENDBRANCH   4  28
BRANCH   8  30
ATOM     30  C   UNL     1     169.993 145.056 149.376  1.00  0.00     0.249 C 
BRANCH  30  31
ATOM     31  O   UNL     1     170.476 143.710 149.494  1.00  0.00    -0.461 OA
BRANCH  31  32
ATOM     32  C   UNL     1     170.479 143.014 150.693  1.00  0.00     0.338 C 
ATOM     33  O   UNL     1     169.459 142.355 151.060  1.00  0.00    -0.246 OA
BRANCH  32  34
ATOM     34  C   UNL     1     171.728 142.953 151.445  1.00  0.00     0.060 A 
ATOM     35  C   UNL     1     172.658 141.943 151.174  1.00  0.00     0.015 A 
ATOM     36  C   UNL     1     171.951 143.836 152.496  1.00  0.00     0.015 A 
ATOM     37  C   UNL     1     173.790 141.802 151.983  1.00  0.00     0.001 A 
ATOM     38  C   UNL     1     173.091 143.702 153.308  1.00  0.00     0.001 A 
ATOM     39  C   UNL     1     174.011 142.681 153.043  1.00  0.00     0.000 A 
ENDBRANCH  32  34
ENDBRANCH  31  32
ENDBRANCH  30  31
ENDBRANCH   8  30
TORSDOF 12
ENDMDL
MODEL 7
REMARK VINA RESULT:    -7.076      1.941      7.387
REMARK INTER + INTRA:         -12.704
REMARK INTER:                 -11.723
REMARK INTRA:                  -0.980
REMARK UNBOUND:                -1.697
REMARK SMILES C[C@@]12C[C@@]3(O)O[C@@H](O1)[C@]1(COC(=O)c4ccccc4)[C@H]3C[C@@]12O[C@@H]1O[C@H](CO)[C@H](O)[C@@H](O)[C@H]1O
REMARK SMILES IDX 1 1 2 2 3 3 4 4 20 5 21 6 22 7 9 8 7 9 8 10 6 11 23 12 24 13
REMARK SMILES IDX 33 14 25 15 31 16 26 17 29 18 34 19 32 21 27 23 28 24 30 26
REMARK SMILES IDX 5 28 10 30 11 31 12 32 13 33 14 34 15 35 19 36 16 37 18 38
REMARK SMILES IDX 17 39
REMARK H PARENT 34 20 32 22 28 25 30 27 5 29
REMARK Flexibility Score: inf
ROOT
ATOM      1  C   UNL     1     166.920 148.904 145.980  1.00  0.00     0.046 C 
ATOM      2  C   UNL     1     167.537 147.654 146.654  1.00  0.00     0.104 C 
ATOM      3  C   UNL     1     167.078 146.365 145.875  1.00  0.00     0.104 C 
ATOM      4  C   UNL     1     167.682 145.180 146.677  1.00  0.00     0.175 C 
ATOM      5  C   UNL     1     167.343 145.360 148.205  1.00  0.00     0.070 C 
ATOM      6  C   UNL     1     166.228 146.391 148.489  1.00  0.00     0.050 C 
ATOM      7  C   UNL     1     167.281 147.484 148.209  1.00  0.00     0.115 C 
ATOM      8  C   UNL     1     168.377 146.439 148.531  1.00  0.00     0.096 C 
ATOM      9  C   UNL     1     169.335 146.500 147.363  1.00  0.00     0.267 C 
ATOM     10  O   UNL     1     168.954 147.618 146.561  1.00  0.00    -0.342 OA
ATOM     11  O   UNL     1     169.090 145.326 146.602  1.00  0.00    -0.320 OA
ENDROOT
BRANCH   7  12
ATOM     12  O   UNL     1     167.118 148.639 149.070  1.00  0.00    -0.339 OA
BRANCH  12  13
ATOM     13  C   UNL     1     167.677 149.850 148.544  1.00  0.00     0.282 C 
ATOM     14  C   UNL     1     166.795 151.095 148.866  1.00  0.00     0.202 C 
ATOM     15  O   UNL     1     168.962 150.082 149.106  1.00  0.00    -0.341 OA
ATOM     16  C   UNL     1     167.335 152.292 148.001  1.00  0.00     0.179 C 
ATOM     17  C   UNL     1     169.587 151.319 148.740  1.00  0.00     0.178 C 
ATOM     18  C   UNL     1     168.834 152.097 147.610  1.00  0.00     0.177 C 
BRANCH  14  19
ATOM     19  O   UNL     1     165.427 150.869 148.609  1.00  0.00    -0.385 OA
ATOM     20  H   UNL     1     165.306 150.918 147.628  1.00  0.00     0.211 HD
ENDBRANCH  14  19
BRANCH  16  21
ATOM     21  O   UNL     1     166.549 152.499 146.848  1.00  0.00    -0.387 OA
ATOM     22  H   UNL     1     166.727 151.760 146.219  1.00  0.00     0.211 HD
ENDBRANCH  16  21
BRANCH  17  23
ATOM     23  C   UNL     1     169.760 152.188 150.016  1.00  0.00     0.191 C 
BRANCH  23  24
ATOM     24  O   UNL     1     170.651 153.260 149.755  1.00  0.00    -0.394 OA
ATOM     25  H   UNL     1     171.390 153.255 150.430  1.00  0.00     0.210 HD
ENDBRANCH  23  24
ENDBRANCH  17  23
BRANCH  18  26
ATOM     26  O   UNL     1     169.431 153.331 147.293  1.00  0.00    -0.387 OA
ATOM     27  H   UNL     1     170.185 153.461 147.931  1.00  0.00     0.211 HD
ENDBRANCH  18  26
ENDBRANCH  12  13
ENDBRANCH   7  12
BRANCH   4  28
ATOM     28  O   UNL     1     167.299 143.921 146.137  1.00  0.00    -0.365 OA
ATOM     29  H   UNL     1     166.976 144.019 145.196  1.00  0.00     0.214 HD
ENDBRANCH   4  28
BRANCH   8  30
ATOM     30  C   UNL     1     169.007 146.296 149.944  1.00  0.00     0.249 C 
BRANCH  30  31
ATOM     31  O   UNL     1     170.263 145.612 149.831  1.00  0.00    -0.461 OA
BRANCH  31  32
ATOM     32  C   UNL     1     170.397 144.246 150.029  1.00  0.00     0.338 C 
ATOM     33  O   UNL     1     169.972 143.422 149.163  1.00  0.00    -0.246 OA
BRANCH  32  34
ATOM     34  C   UNL     1     171.155 143.795 151.192  1.00  0.00     0.060 A 
ATOM     35  C   UNL     1     171.766 144.732 152.034  1.00  0.00     0.015 A 
ATOM     36  C   UNL     1     171.354 142.436 151.408  1.00  0.00     0.015 A 
ATOM     37  C   UNL     1     172.603 144.300 153.067  1.00  0.00     0.001 A 
ATOM     38  C   UNL     1     172.191 141.997 152.450  1.00  0.00     0.001 A 
ATOM     39  C   UNL     1     172.811 142.937 153.280  1.00  0.00     0.000 A 
ENDBRANCH  32  34
ENDBRANCH  31  32
ENDBRANCH  30  31
ENDBRANCH   8  30
TORSDOF 12
ENDMDL
MODEL 8
REMARK VINA RESULT:    -7.075      2.503      6.045
REMARK INTER + INTRA:         -12.701
REMARK INTER:                 -12.269
REMARK INTRA:                  -0.432
REMARK UNBOUND:                -1.697
REMARK SMILES C[C@@]12C[C@@]3(O)O[C@@H](O1)[C@]1(COC(=O)c4ccccc4)[C@H]3C[C@@]12O[C@@H]1O[C@H](CO)[C@H](O)[C@@H](O)[C@H]1O
REMARK SMILES IDX 1 1 2 2 3 3 4 4 20 5 21 6 22 7 9 8 7 9 8 10 6 11 23 12 24 13
REMARK SMILES IDX 33 14 25 15 31 16 26 17 29 18 34 19 32 21 27 23 28 24 30 26
REMARK SMILES IDX 5 28 10 30 11 31 12 32 13 33 14 34 15 35 19 36 16 37 18 38
REMARK SMILES IDX 17 39
REMARK H PARENT 34 20 32 22 28 25 30 27 5 29
REMARK Flexibility Score: inf
ROOT
ATOM      1  C   UNL     1     169.561 147.599 145.875  1.00  0.00     0.046 C 
ATOM      2  C   UNL     1     168.385 147.577 146.882  1.00  0.00     0.104 C 
ATOM      3  C   UNL     1     167.646 148.966 146.845  1.00  0.00     0.104 C 
ATOM      4  C   UNL     1     166.549 148.861 147.940  1.00  0.00     0.175 C 
ATOM      5  C   UNL     1     167.197 148.331 149.276  1.00  0.00     0.070 C 
ATOM      6  C   UNL     1     168.740 148.407 149.304  1.00  0.00     0.050 C 
ATOM      7  C   UNL     1     168.735 147.174 148.376  1.00  0.00     0.115 C 
ATOM      8  C   UNL     1     167.310 146.855 148.889  1.00  0.00     0.096 C 
ATOM      9  C   UNL     1     166.476 146.660 147.643  1.00  0.00     0.267 C 
ATOM     10  O   UNL     1     167.373 146.645 146.532  1.00  0.00    -0.342 OA
ATOM     11  O   UNL     1     165.674 147.825 147.530  1.00  0.00    -0.320 OA
ENDROOT
BRANCH   7  12
ATOM     12  O   UNL     1     169.823 146.261 148.667  1.00  0.00    -0.339 OA
BRANCH  12  13
ATOM     13  C   UNL     1     169.405 144.995 149.195  1.00  0.00     0.282 C 
ATOM     14  C   UNL     1     169.459 143.863 148.124  1.00  0.00     0.202 C 
ATOM     15  O   UNL     1     170.253 144.606 150.267  1.00  0.00    -0.341 OA
ATOM     16  C   UNL     1     168.709 142.616 148.718  1.00  0.00     0.179 C 
ATOM     17  C   UNL     1     170.005 143.306 150.817  1.00  0.00     0.178 C 
ATOM     18  C   UNL     1     168.699 142.632 150.279  1.00  0.00     0.177 C 
BRANCH  14  19
ATOM     19  O   UNL     1     168.887 144.254 146.896  1.00  0.00    -0.385 OA
ATOM     20  H   UNL     1     169.209 143.616 146.211  1.00  0.00     0.211 HD
ENDBRANCH  14  19
BRANCH  16  21
ATOM     21  O   UNL     1     167.393 142.512 148.219  1.00  0.00    -0.387 OA
ATOM     22  H   UNL     1     167.421 141.978 147.389  1.00  0.00     0.211 HD
ENDBRANCH  16  21
BRANCH  17  23
ATOM     23  C   UNL     1     171.252 142.414 150.572  1.00  0.00     0.191 C 
BRANCH  23  24
ATOM     24  O   UNL     1     171.368 141.446 151.603  1.00  0.00    -0.394 OA
ATOM     25  H   UNL     1     171.994 141.779 152.308  1.00  0.00     0.210 HD
ENDBRANCH  23  24
ENDBRANCH  17  23
BRANCH  18  26
ATOM     26  O   UNL     1     168.492 141.337 150.789  1.00  0.00    -0.387 OA
ATOM     27  H   UNL     1     168.472 140.717 150.009  1.00  0.00     0.211 HD
ENDBRANCH  18  26
ENDBRANCH  12  13
ENDBRANCH   7  12
BRANCH   4  28
ATOM     28  O   UNL     1     165.822 150.076 148.086  1.00  0.00    -0.365 OA
ATOM     29  H   UNL     1     165.088 149.975 148.757  1.00  0.00     0.214 HD
ENDBRANCH   4  28
BRANCH   8  30
ATOM     30  C   UNL     1     167.045 145.878 150.067  1.00  0.00     0.249 C 
BRANCH  30  31
ATOM     31  O   UNL     1     165.776 145.238 149.871  1.00  0.00    -0.461 OA
BRANCH  31  32
ATOM     32  C   UNL     1     164.880 145.009 150.904  1.00  0.00     0.338 C 
ATOM     33  O   UNL     1     164.383 145.977 151.555  1.00  0.00    -0.246 OA
BRANCH  32  34
ATOM     34  C   UNL     1     164.429 143.639 151.127  1.00  0.00     0.060 A 
ATOM     35  C   UNL     1     163.358 143.389 151.992  1.00  0.00     0.015 A 
ATOM     36  C   UNL     1     165.123 142.576 150.559  1.00  0.00     0.015 A 
ATOM     37  C   UNL     1     163.012 142.073 152.312  1.00  0.00     0.001 A 
ATOM     38  C   UNL     1     164.774 141.251 150.873  1.00  0.00     0.001 A 
ATOM     39  C   UNL     1     163.713 141.005 151.751  1.00  0.00     0.000 A 
ENDBRANCH  32  34
ENDBRANCH  31  32
ENDBRANCH  30  31
ENDBRANCH   8  30
TORSDOF 12
ENDMDL
MODEL 9
REMARK VINA RESULT:    -6.918      1.908      5.333
REMARK INTER + INTRA:         -12.458
REMARK INTER:                 -11.670
REMARK INTRA:                  -0.788
REMARK UNBOUND:                -1.697
REMARK SMILES C[C@@]12C[C@@]3(O)O[C@@H](O1)[C@]1(COC(=O)c4ccccc4)[C@H]3C[C@@]12O[C@@H]1O[C@H](CO)[C@H](O)[C@@H](O)[C@H]1O
REMARK SMILES IDX 1 1 2 2 3 3 4 4 20 5 21 6 22 7 9 8 7 9 8 10 6 11 23 12 24 13
REMARK SMILES IDX 33 14 25 15 31 16 26 17 29 18 34 19 32 21 27 23 28 24 30 26
REMARK SMILES IDX 5 28 10 30 11 31 12 32 13 33 14 34 15 35 19 36 16 37 18 38
REMARK SMILES IDX 17 39
REMARK H PARENT 34 20 32 22 28 25 30 27 5 29
REMARK Flexibility Score: inf
ROOT
ATOM      1  C   UNL     1     170.742 149.929 145.875  1.00  0.00     0.046 C 
ATOM      2  C   UNL     1     169.381 149.913 146.612  1.00  0.00     0.104 C 
ATOM      3  C   UNL     1     168.774 151.366 146.609  1.00  0.00     0.104 C 
ATOM      4  C   UNL     1     167.463 151.249 147.435  1.00  0.00     0.175 C 
ATOM      5  C   UNL     1     167.768 150.508 148.792  1.00  0.00     0.070 C 
ATOM      6  C   UNL     1     169.271 150.423 149.143  1.00  0.00     0.050 C 
ATOM      7  C   UNL     1     169.371 149.310 148.079  1.00  0.00     0.115 C 
ATOM      8  C   UNL     1     167.850 149.082 148.245  1.00  0.00     0.096 C 
ATOM      9  C   UNL     1     167.289 149.115 146.841  1.00  0.00     0.267 C 
ATOM     10  O   UNL     1     168.399 149.134 145.944  1.00  0.00    -0.342 OA
ATOM     11  O   UNL     1     166.620 150.361 146.722  1.00  0.00    -0.320 OA
ENDROOT
BRANCH   7  12
ATOM     12  O   UNL     1     170.299 148.264 148.461  1.00  0.00    -0.339 OA
BRANCH  12  13
ATOM     13  C   UNL     1     169.735 146.946 148.462  1.00  0.00     0.282 C 
ATOM     14  C   UNL     1     170.292 146.065 147.302  1.00  0.00     0.202 C 
ATOM     15  O   UNL     1     170.037 146.283 149.682  1.00  0.00    -0.341 OA
ATOM     16  C   UNL     1     169.399 144.774 147.220  1.00  0.00     0.179 C 
ATOM     17  C   UNL     1     169.616 144.915 149.768  1.00  0.00     0.178 C 
ATOM     18  C   UNL     1     168.704 144.460 148.582  1.00  0.00     0.177 C 
BRANCH  14  19
ATOM     19  O   UNL     1     170.305 146.745 146.066  1.00  0.00    -0.385 OA
ATOM     20  H   UNL     1     170.406 147.709 146.269  1.00  0.00     0.211 HD
ENDBRANCH  14  19
BRANCH  16  21
ATOM     21  O   UNL     1     168.441 144.867 146.188  1.00  0.00    -0.387 OA
ATOM     22  H   UNL     1     167.698 144.253 146.404  1.00  0.00     0.211 HD
ENDBRANCH  16  21
BRANCH  17  23
ATOM     23  C   UNL     1     170.874 144.013 149.902  1.00  0.00     0.191 C 
BRANCH  23  24
ATOM     24  O   UNL     1     170.512 142.754 150.444  1.00  0.00    -0.394 OA
ATOM     25  H   UNL     1     171.184 142.480 151.133  1.00  0.00     0.210 HD
ENDBRANCH  23  24
ENDBRANCH  17  23
BRANCH  18  26
ATOM     26  O   UNL     1     168.337 143.103 148.652  1.00  0.00    -0.387 OA
ATOM     27  H   UNL     1     167.861 142.886 147.804  1.00  0.00     0.211 HD
ENDBRANCH  18  26
ENDBRANCH  12  13
ENDBRANCH   7  12
BRANCH   4  28
ATOM     28  O   UNL     1     166.817 152.507 147.589  1.00  0.00    -0.365 OA
ATOM     29  H   UNL     1     165.927 152.510 147.134  1.00  0.00     0.214 HD
ENDBRANCH   4  28
BRANCH   8  30
ATOM     30  C   UNL     1     167.265 148.010 149.206  1.00  0.00     0.249 C 
BRANCH  30  31
ATOM     31  O   UNL     1     165.969 147.612 148.735  1.00  0.00    -0.461 OA
BRANCH  31  32
ATOM     32  C   UNL     1     165.654 146.301 148.414  1.00  0.00     0.338 C 
ATOM     33  O   UNL     1     165.852 145.856 147.242  1.00  0.00    -0.246 OA
BRANCH  32  34
ATOM     34  C   UNL     1     165.218 145.419 149.492  1.00  0.00     0.060 A 
ATOM     35  C   UNL     1     165.033 144.054 149.246  1.00  0.00     0.015 A 
ATOM     36  C   UNL     1     164.891 145.949 150.735  1.00  0.00     0.015 A 
ATOM     37  C   UNL     1     164.487 143.234 150.238  1.00  0.00     0.001 A 
ATOM     38  C   UNL     1     164.347 145.127 151.738  1.00  0.00     0.001 A 
ATOM     39  C   UNL     1     164.150 143.765 151.482  1.00  0.00     0.000 A 
ENDBRANCH  32  34
ENDBRANCH  31  32
ENDBRANCH  30  31
ENDBRANCH   8  30
TORSDOF 12
ENDMDL
