MODEL 1
REMARK VINA RESULT:    -5.028      0.000      0.000
REMARK INTER + INTRA:          -5.686
REMARK INTER:                  -5.322
REMARK INTRA:                  -0.364
REMARK UNBOUND:                -0.364
REMARK SMILES CC1=CC[C@@H]2[C@H]3[C@H](C(C)C)CC[C@]2(C)[C@@H]13
REMARK SMILES IDX 1 1 2 2 3 3 4 4 5 5 6 6 15 7 13 8 12 9 11 10 7 11 14 12 8 13
REMARK SMILES IDX 9 14 10 15
REMARK H PARENT
REMARK Flexibility Score: inf
ROOT
ATOM      1  C   UNL     1      29.352  11.692  31.279  1.00  0.00     0.039 C 
ATOM      2  C   UNL     1      30.486  11.013  31.987  1.00  0.00    -0.073 C 
ATOM      3  C   UNL     1      31.670  11.649  32.193  1.00  0.00    -0.027 C 
ATOM      4  C   UNL     1      32.786  10.912  32.942  1.00  0.00     0.031 C 
ATOM      5  C   UNL     1      32.327   9.464  33.316  1.00  0.00     0.003 C 
ATOM      6  C   UNL     1      31.668   8.845  32.061  1.00  0.00     0.004 C 
ATOM      7  C   UNL     1      30.372   9.572  32.494  1.00  0.00     0.024 C 
ATOM      8  C   UNL     1      30.914   9.467  33.942  1.00  0.00    -0.022 C 
ATOM      9  C   UNL     1      30.635   8.058  34.541  1.00  0.00     0.008 C 
ATOM     10  C   UNL     1      30.674   6.942  33.467  1.00  0.00     0.005 C 
ATOM     11  C   UNL     1      31.555   7.295  32.222  1.00  0.00    -0.005 C 
ATOM     12  C   UNL     1      30.552  10.577  34.958  1.00  0.00     0.012 C 
ENDROOT
BRANCH  11  13
ATOM     13  C   UNL     1      31.022   6.593  30.930  1.00  0.00    -0.014 C 
ATOM     14  C   UNL     1      30.947   7.582  29.751  1.00  0.00     0.007 C 
ATOM     15  C   UNL     1      29.631   5.965  31.135  1.00  0.00     0.007 C 
ENDBRANCH  11  13
TORSDOF 1
ENDMDL
MODEL 2
REMARK VINA RESULT:    -4.950      1.772      4.342
REMARK INTER + INTRA:          -5.604
REMARK INTER:                  -5.407
REMARK INTRA:                  -0.197
REMARK UNBOUND:                -0.364
REMARK SMILES CC1=CC[C@@H]2[C@H]3[C@H](C(C)C)CC[C@]2(C)[C@@H]13
REMARK SMILES IDX 1 1 2 2 3 3 4 4 5 5 6 6 15 7 13 8 12 9 11 10 7 11 14 12 8 13
REMARK SMILES IDX 9 14 10 15
REMARK H PARENT
REMARK Flexibility Score: inf
ROOT
ATOM      1  C   UNL     1      33.125  11.150  32.914  1.00  0.00     0.039 C 
ATOM      2  C   UNL     1      31.855  10.387  33.144  1.00  0.00    -0.073 C 
ATOM      3  C   UNL     1      30.668  10.830  32.651  1.00  0.00    -0.027 C 
ATOM      4  C   UNL     1      29.406   9.996  32.900  1.00  0.00     0.031 C 
ATOM      5  C   UNL     1      29.746   8.735  33.760  1.00  0.00     0.003 C 
ATOM      6  C   UNL     1      30.637   9.200  34.936  1.00  0.00     0.004 C 
ATOM      7  C   UNL     1      31.830   9.089  33.957  1.00  0.00     0.024 C 
ATOM      8  C   UNL     1      30.999   8.008  33.220  1.00  0.00    -0.022 C 
ATOM      9  C   UNL     1      31.118   6.631  33.933  1.00  0.00     0.008 C 
ATOM     10  C   UNL     1      31.278   6.772  35.468  1.00  0.00     0.005 C 
ATOM     11  C   UNL     1      30.682   8.099  36.044  1.00  0.00    -0.005 C 
ATOM     12  C   UNL     1      31.167   7.851  31.689  1.00  0.00     0.012 C 
ENDROOT
BRANCH  11  13
ATOM     13  C   UNL     1      31.455   8.563  37.322  1.00  0.00    -0.014 C 
ATOM     14  C   UNL     1      30.558   8.489  38.572  1.00  0.00     0.007 C 
ATOM     15  C   UNL     1      31.999   9.998  37.190  1.00  0.00     0.007 C 
ENDBRANCH  11  13
TORSDOF 1
ENDMDL
MODEL 3
REMARK VINA RESULT:    -4.907      1.657      3.870
REMARK INTER + INTRA:          -5.558
REMARK INTER:                  -5.283
REMARK INTRA:                  -0.275
REMARK UNBOUND:                -0.364
REMARK SMILES CC1=CC[C@@H]2[C@H]3[C@H](C(C)C)CC[C@]2(C)[C@@H]13
REMARK SMILES IDX 1 1 2 2 3 3 4 4 5 5 6 6 15 7 13 8 12 9 11 10 7 11 14 12 8 13
REMARK SMILES IDX 9 14 10 15
REMARK H PARENT
REMARK Flexibility Score: inf
ROOT
ATOM      1  C   UNL     1      31.341   5.944  36.611  1.00  0.00     0.039 C 
ATOM      2  C   UNL     1      30.770   7.247  36.137  1.00  0.00    -0.073 C 
ATOM      3  C   UNL     1      29.617   7.742  36.659  1.00  0.00    -0.027 C 
ATOM      4  C   UNL     1      29.092   9.090  36.151  1.00  0.00     0.031 C 
ATOM      5  C   UNL     1      30.028   9.651  35.030  1.00  0.00     0.003 C 
ATOM      6  C   UNL     1      30.327   8.492  34.050  1.00  0.00     0.004 C 
ATOM      7  C   UNL     1      31.444   8.069  35.035  1.00  0.00     0.024 C 
ATOM      8  C   UNL     1      31.515   9.562  35.444  1.00  0.00    -0.022 C 
ATOM      9  C   UNL     1      32.362  10.380  34.426  1.00  0.00     0.008 C 
ATOM     10  C   UNL     1      32.238   9.832  32.981  1.00  0.00     0.005 C 
ATOM     11  C   UNL     1      30.906   9.056  32.713  1.00  0.00    -0.005 C 
ATOM     12  C   UNL     1      31.907   9.921  36.898  1.00  0.00     0.012 C 
ENDROOT
BRANCH  11  13
ATOM     13  C   UNL     1      31.102   7.948  31.627  1.00  0.00    -0.014 C 
ATOM     14  C   UNL     1      30.595   8.420  30.251  1.00  0.00     0.007 C 
ATOM     15  C   UNL     1      30.384   6.635  31.993  1.00  0.00     0.007 C 
ENDBRANCH  11  13
TORSDOF 1
ENDMDL
MODEL 4
REMARK VINA RESULT:    -4.766      1.790      4.168
REMARK INTER + INTRA:          -5.409
REMARK INTER:                  -4.974
REMARK INTRA:                  -0.435
REMARK UNBOUND:                -0.364
REMARK SMILES CC1=CC[C@@H]2[C@H]3[C@H](C(C)C)CC[C@]2(C)[C@@H]13
REMARK SMILES IDX 1 1 2 2 3 3 4 4 5 5 6 6 15 7 13 8 12 9 11 10 7 11 14 12 8 13
REMARK SMILES IDX 9 14 10 15
REMARK H PARENT
REMARK Flexibility Score: inf
ROOT
ATOM      1  C   UNL     1      29.064   9.711  36.940  1.00  0.00     0.039 C 
ATOM      2  C   UNL     1      29.911   8.580  36.440  1.00  0.00    -0.073 C 
ATOM      3  C   UNL     1      30.686   7.852  37.287  1.00  0.00    -0.027 C 
ATOM      4  C   UNL     1      31.514   6.692  36.721  1.00  0.00     0.031 C 
ATOM      5  C   UNL     1      31.321   6.590  35.172  1.00  0.00     0.003 C 
ATOM      6  C   UNL     1      31.451   8.018  34.591  1.00  0.00     0.004 C 
ATOM      7  C   UNL     1      29.958   8.203  34.956  1.00  0.00     0.024 C 
ATOM      8  C   UNL     1      29.827   6.669  34.785  1.00  0.00    -0.022 C 
ATOM      9  C   UNL     1      29.683   6.284  33.285  1.00  0.00     0.008 C 
ATOM     10  C   UNL     1      30.464   7.244  32.352  1.00  0.00     0.005 C 
ATOM     11  C   UNL     1      31.675   7.951  33.046  1.00  0.00    -0.005 C 
ATOM     12  C   UNL     1      28.793   5.906  35.650  1.00  0.00     0.012 C 
ENDROOT
BRANCH  11  13
ATOM     13  C   UNL     1      31.950   9.356  32.417  1.00  0.00    -0.014 C 
ATOM     14  C   UNL     1      32.536  10.327  33.460  1.00  0.00     0.007 C 
ATOM     15  C   UNL     1      30.681   9.987  31.813  1.00  0.00     0.007 C 
ENDBRANCH  11  13
TORSDOF 1
ENDMDL
MODEL 5
REMARK VINA RESULT:    -4.649      1.338      3.388
REMARK INTER + INTRA:          -5.285
REMARK INTER:                  -4.981
REMARK INTRA:                  -0.304
REMARK UNBOUND:                -0.364
REMARK SMILES CC1=CC[C@@H]2[C@H]3[C@H](C(C)C)CC[C@]2(C)[C@@H]13
REMARK SMILES IDX 1 1 2 2 3 3 4 4 5 5 6 6 15 7 13 8 12 9 11 10 7 11 14 12 8 13
REMARK SMILES IDX 9 14 10 15
REMARK H PARENT
REMARK Flexibility Score: inf
ROOT
ATOM      1  C   UNL     1      28.739   9.347  35.308  1.00  0.00     0.039 C 
ATOM      2  C   UNL     1      29.977   9.456  34.469  1.00  0.00    -0.073 C 
ATOM      3  C   UNL     1      31.124   9.984  34.971  1.00  0.00    -0.027 C 
ATOM      4  C   UNL     1      32.364  10.049  34.072  1.00  0.00     0.031 C 
ATOM      5  C   UNL     1      32.036   9.491  32.648  1.00  0.00     0.003 C 
ATOM      6  C   UNL     1      30.695  10.119  32.200  1.00  0.00     0.004 C 
ATOM      7  C   UNL     1      30.003   8.995  33.008  1.00  0.00     0.024 C 
ATOM      8  C   UNL     1      31.272   8.150  32.733  1.00  0.00    -0.022 C 
ATOM      9  C   UNL     1      31.223   7.517  31.312  1.00  0.00     0.008 C 
ATOM     10  C   UNL     1      30.485   8.418  30.290  1.00  0.00     0.005 C 
ATOM     11  C   UNL     1      30.505   9.938  30.660  1.00  0.00    -0.005 C 
ATOM     12  C   UNL     1      31.717   7.105  33.785  1.00  0.00     0.012 C 
ENDROOT
BRANCH  11  13
ATOM     13  C   UNL     1      29.233  10.671  30.121  1.00  0.00    -0.014 C 
ATOM     14  C   UNL     1      29.419  11.101  28.653  1.00  0.00     0.007 C 
ATOM     15  C   UNL     1      28.874  11.915  30.956  1.00  0.00     0.007 C 
ENDBRANCH  11  13
TORSDOF 1
ENDMDL
MODEL 6
REMARK VINA RESULT:    -4.624      1.930      3.930
REMARK INTER + INTRA:          -5.258
REMARK INTER:                  -4.830
REMARK INTRA:                  -0.428
REMARK UNBOUND:                -0.364
REMARK SMILES CC1=CC[C@@H]2[C@H]3[C@H](C(C)C)CC[C@]2(C)[C@@H]13
REMARK SMILES IDX 1 1 2 2 3 3 4 4 5 5 6 6 15 7 13 8 12 9 11 10 7 11 14 12 8 13
REMARK SMILES IDX 9 14 10 15
REMARK H PARENT
REMARK Flexibility Score: inf
ROOT
ATOM      1  C   UNL     1      31.240   7.382  31.874  1.00  0.00     0.039 C 
ATOM      2  C   UNL     1      31.328   8.400  32.971  1.00  0.00    -0.073 C 
ATOM      3  C   UNL     1      32.257   9.392  32.939  1.00  0.00    -0.027 C 
ATOM      4  C   UNL     1      32.285  10.418  34.077  1.00  0.00     0.031 C 
ATOM      5  C   UNL     1      31.190  10.080  35.142  1.00  0.00     0.003 C 
ATOM      6  C   UNL     1      31.278   8.564  35.435  1.00  0.00     0.004 C 
ATOM      7  C   UNL     1      30.391   8.363  34.182  1.00  0.00     0.024 C 
ATOM      8  C   UNL     1      29.830   9.778  34.472  1.00  0.00    -0.022 C 
ATOM      9  C   UNL     1      28.735   9.728  35.577  1.00  0.00     0.008 C 
ATOM     10  C   UNL     1      29.003   8.618  36.625  1.00  0.00     0.005 C 
ATOM     11  C   UNL     1      30.513   8.227  36.756  1.00  0.00    -0.005 C 
ATOM     12  C   UNL     1      29.372  10.659  33.285  1.00  0.00     0.012 C 
ENDROOT
BRANCH  11  13
ATOM     13  C   UNL     1      30.679   6.732  37.182  1.00  0.00    -0.014 C 
ATOM     14  C   UNL     1      31.901   6.090  36.498  1.00  0.00     0.007 C 
ATOM     15  C   UNL     1      29.432   5.887  36.855  1.00  0.00     0.007 C 
ENDBRANCH  11  13
TORSDOF 1
ENDMDL
MODEL 7
REMARK VINA RESULT:    -4.563      1.827      3.708
REMARK INTER + INTRA:          -5.194
REMARK INTER:                  -4.762
REMARK INTRA:                  -0.432
REMARK UNBOUND:                -0.364
REMARK SMILES CC1=CC[C@@H]2[C@H]3[C@H](C(C)C)CC[C@]2(C)[C@@H]13
REMARK SMILES IDX 1 1 2 2 3 3 4 4 5 5 6 6 15 7 13 8 12 9 11 10 7 11 14 12 8 13
REMARK SMILES IDX 9 14 10 15
REMARK H PARENT
REMARK Flexibility Score: inf
ROOT
ATOM      1  C   UNL     1      28.197  11.483  35.909  1.00  0.00     0.039 C 
ATOM      2  C   UNL     1      29.450  10.707  36.190  1.00  0.00    -0.073 C 
ATOM      3  C   UNL     1      30.170  10.919  37.323  1.00  0.00    -0.027 C 
ATOM      4  C   UNL     1      31.430  10.081  37.567  1.00  0.00     0.031 C 
ATOM      5  C   UNL     1      31.677   9.106  36.369  1.00  0.00     0.003 C 
ATOM      6  C   UNL     1      31.502   9.919  35.064  1.00  0.00     0.004 C 
ATOM      7  C   UNL     1      29.984   9.657  35.212  1.00  0.00     0.024 C 
ATOM      8  C   UNL     1      30.379   8.366  35.971  1.00  0.00    -0.022 C 
ATOM      9  C   UNL     1      30.745   7.225  34.979  1.00  0.00     0.008 C 
ATOM     10  C   UNL     1      31.402   7.759  33.681  1.00  0.00     0.005 C 
ATOM     11  C   UNL     1      32.119   9.139  33.859  1.00  0.00    -0.005 C 
ATOM     12  C   UNL     1      29.448   7.842  37.091  1.00  0.00     0.012 C 
ENDROOT
BRANCH  11  13
ATOM     13  C   UNL     1      32.097   9.967  32.532  1.00  0.00    -0.014 C 
ATOM     14  C   UNL     1      32.126  11.480  32.820  1.00  0.00     0.007 C 
ATOM     15  C   UNL     1      30.863   9.654  31.665  1.00  0.00     0.007 C 
ENDBRANCH  11  13
TORSDOF 1
ENDMDL
MODEL 8
REMARK VINA RESULT:    -4.490      5.536      8.226
REMARK INTER + INTRA:          -5.117
REMARK INTER:                  -4.837
REMARK INTRA:                  -0.280
REMARK UNBOUND:                -0.364
REMARK SMILES CC1=CC[C@@H]2[C@H]3[C@H](C(C)C)CC[C@]2(C)[C@@H]13
REMARK SMILES IDX 1 1 2 2 3 3 4 4 5 5 6 6 15 7 13 8 12 9 11 10 7 11 14 12 8 13
REMARK SMILES IDX 9 14 10 15
REMARK H PARENT
REMARK Flexibility Score: inf
ROOT
ATOM      1  C   UNL     1      29.724   7.174  21.797  1.00  0.00     0.039 C 
ATOM      2  C   UNL     1      30.104   8.237  22.784  1.00  0.00    -0.073 C 
ATOM      3  C   UNL     1      30.940   9.253  22.438  1.00  0.00    -0.027 C 
ATOM      4  C   UNL     1      31.275  10.323  23.483  1.00  0.00     0.031 C 
ATOM      5  C   UNL     1      30.572   9.998  24.842  1.00  0.00     0.003 C 
ATOM      6  C   UNL     1      30.805   8.497  25.138  1.00  0.00     0.004 C 
ATOM      7  C   UNL     1      29.586   8.222  24.225  1.00  0.00     0.024 C 
ATOM      8  C   UNL     1      29.086   9.631  24.632  1.00  0.00    -0.022 C 
ATOM      9  C   UNL     1      28.384   9.594  26.021  1.00  0.00     0.008 C 
ATOM     10  C   UNL     1      29.004   8.535  26.967  1.00  0.00     0.005 C 
ATOM     11  C   UNL     1      30.496   8.192  26.639  1.00  0.00    -0.005 C 
ATOM     12  C   UNL     1      28.252  10.450  23.618  1.00  0.00     0.012 C 
ENDROOT
BRANCH  11  13
ATOM     13  C   UNL     1      30.842   6.720  27.037  1.00  0.00    -0.014 C 
ATOM     14  C   UNL     1      29.564   5.883  27.240  1.00  0.00     0.007 C 
ATOM     15  C   UNL     1      31.690   6.643  28.321  1.00  0.00     0.007 C 
ENDBRANCH  11  13
TORSDOF 1
ENDMDL
