MODEL 1
REMARK VINA RESULT:    15.892      0.000      0.000
REMARK INTER + INTRA:          19.538
REMARK INTER:                  19.143
REMARK INTRA:                   0.395
REMARK UNBOUND:                 0.395
REMARK SMILES O=c1c(O)c(-c2ccc(O)c(O)c2)oc2cc(O)cc(O)c12
REMARK SMILES IDX 5 1 3 2 2 3 1 4 22 5 20 6 19 7 17 8 16 9 15 10 14 11 6 12
REMARK SMILES IDX 7 13 8 14 9 15 13 16 11 17 10 18 12 20 4 22 21 24 18 26
REMARK H PARENT 10 19 12 21 4 23 21 25 18 27
REMARK Flexibility Score: inf
ROOT
ATOM      1  C   UNL     1      13.620   7.284 127.413  1.00  0.00     0.180 A 
ATOM      2  C   UNL     1      14.059   8.475 128.017  1.00  0.00     0.208 A 
ATOM      3  C   UNL     1      14.373   8.469 129.385  1.00  0.00     0.238 A 
ATOM      4  O   UNL     1      14.816   9.525 129.907  1.00  0.00    -0.285 OA
ATOM      5  C   UNL     1      14.229   7.278 130.136  1.00  0.00     0.111 A 
ATOM      6  C   UNL     1      14.480   7.168 131.537  1.00  0.00     0.134 A 
ATOM      7  C   UNL     1      14.430   5.909 132.150  1.00  0.00     0.093 A 
ATOM      8  C   UNL     1      14.076   4.770 131.429  1.00  0.00     0.123 A 
ATOM      9  C   UNL     1      13.771   4.876 130.072  1.00  0.00     0.094 A 
ATOM     10  C   UNL     1      13.846   6.111 129.424  1.00  0.00     0.146 A 
ATOM     11  O   UNL     1      13.557   6.168 128.129  1.00  0.00    -0.452 OA
ENDROOT
BRANCH   1  12
ATOM     12  C   UNL     1      13.246   7.217 125.981  1.00  0.00     0.025 A 
ATOM     13  C   UNL     1      13.807   8.132 125.078  1.00  0.00     0.016 A 
ATOM     14  C   UNL     1      13.485   8.075 123.719  1.00  0.00     0.051 A 
ATOM     15  C   UNL     1      12.607   7.092 123.243  1.00  0.00     0.157 A 
ATOM     16  C   UNL     1      12.382   6.219 125.496  1.00  0.00     0.062 A 
ATOM     17  C   UNL     1      12.059   6.159 124.132  1.00  0.00     0.158 A 
BRANCH  15  18
ATOM     18  O   UNL     1      12.281   7.032 121.890  1.00  0.00    -0.504 OA
ATOM     19  H   UNL     1      12.429   6.191 121.345  1.00  0.00     0.293 HD
ENDBRANCH  15  18
BRANCH  17  20
ATOM     20  O   UNL     1      11.197   5.173 123.653  1.00  0.00    -0.504 OA
ATOM     21  H   UNL     1      11.190   4.240 124.047  1.00  0.00     0.293 HD
ENDBRANCH  17  20
ENDBRANCH   1  12
BRANCH   2  22
ATOM     22  O   UNL     1      14.214   9.635 127.252  1.00  0.00    -0.502 OA
ATOM     23  H   UNL     1      13.486   9.985 126.642  1.00  0.00     0.293 HD
ENDBRANCH   2  22
BRANCH   6  24
ATOM     24  O   UNL     1      14.753   8.257 132.369  1.00  0.00    -0.507 OA
ATOM     25  H   UNL     1      14.614   9.223 132.115  1.00  0.00     0.293 HD
ENDBRANCH   6  24
BRANCH   8  26
ATOM     26  O   UNL     1      14.023   3.537 132.075  1.00  0.00    -0.508 OA
ATOM     27  H   UNL     1      14.851   3.114 132.480  1.00  0.00     0.293 HD
ENDBRANCH   8  26
TORSDOF 6
ENDMDL
MODEL 2
REMARK VINA RESULT:    15.938      1.504      3.037
REMARK INTER + INTRA:          19.594
REMARK INTER:                  19.119
REMARK INTRA:                   0.475
REMARK UNBOUND:                 0.395
REMARK SMILES O=c1c(O)c(-c2ccc(O)c(O)c2)oc2cc(O)cc(O)c12
REMARK SMILES IDX 5 1 3 2 2 3 1 4 22 5 20 6 19 7 17 8 16 9 15 10 14 11 6 12
REMARK SMILES IDX 7 13 8 14 9 15 13 16 11 17 10 18 12 20 4 22 21 24 18 26
REMARK H PARENT 10 19 12 21 4 23 21 25 18 27
REMARK Flexibility Score: inf
ROOT
ATOM      1  C   UNL     1      13.791   7.440 128.042  1.00  0.00     0.180 A 
ATOM      2  C   UNL     1      13.366   6.432 128.924  1.00  0.00     0.208 A 
ATOM      3  C   UNL     1      13.790   6.474 130.262  1.00  0.00     0.238 A 
ATOM      4  O   UNL     1      13.363   5.599 131.059  1.00  0.00    -0.285 OA
ATOM      5  C   UNL     1      14.645   7.515 130.697  1.00  0.00     0.111 A 
ATOM      6  C   UNL     1      15.168   7.635 132.020  1.00  0.00     0.134 A 
ATOM      7  C   UNL     1      15.899   8.777 132.372  1.00  0.00     0.093 A 
ATOM      8  C   UNL     1      16.181   9.769 131.435  1.00  0.00     0.123 A 
ATOM      9  C   UNL     1      15.725   9.634 130.124  1.00  0.00     0.094 A 
ATOM     10  C   UNL     1      14.963   8.525 129.750  1.00  0.00     0.146 A 
ATOM     11  O   UNL     1      14.540   8.438 128.495  1.00  0.00    -0.452 OA
ENDROOT
BRANCH   1  12
ATOM     12  C   UNL     1      13.407   7.449 126.611  1.00  0.00     0.025 A 
ATOM     13  C   UNL     1      13.891   8.464 125.773  1.00  0.00     0.016 A 
ATOM     14  C   UNL     1      13.559   8.481 124.415  1.00  0.00     0.051 A 
ATOM     15  C   UNL     1      12.750   7.473 123.875  1.00  0.00     0.157 A 
ATOM     16  C   UNL     1      12.611   6.427 126.061  1.00  0.00     0.062 A 
ATOM     17  C   UNL     1      12.279   6.442 124.698  1.00  0.00     0.158 A 
BRANCH  15  18
ATOM     18  O   UNL     1      12.414   7.486 122.523  1.00  0.00    -0.504 OA
ATOM     19  H   UNL     1      12.991   7.026 121.828  1.00  0.00     0.293 HD
ENDBRANCH  15  18
BRANCH  17  20
ATOM     20  O   UNL     1      11.485   5.433 124.154  1.00  0.00    -0.504 OA
ATOM     21  H   UNL     1      11.602   4.464 124.426  1.00  0.00     0.293 HD
ENDBRANCH  17  20
ENDBRANCH   1  12
BRANCH   2  22
ATOM     22  O   UNL     1      12.504   5.425 128.479  1.00  0.00    -0.502 OA
ATOM     23  H   UNL     1      11.538   5.366 128.776  1.00  0.00     0.293 HD
ENDBRANCH   2  22
BRANCH   6  24
ATOM     24  O   UNL     1      15.023   6.657 133.008  1.00  0.00    -0.507 OA
ATOM     25  H   UNL     1      15.237   6.792 133.985  1.00  0.00     0.293 HD
ENDBRANCH   6  24
BRANCH   8  26
ATOM     26  O   UNL     1      16.924  10.885 131.818  1.00  0.00    -0.508 OA
ATOM     27  H   UNL     1      16.585  11.530 132.523  1.00  0.00     0.293 HD
ENDBRANCH   8  26
TORSDOF 6
ENDMDL
MODEL 3
REMARK VINA RESULT:    17.012      1.219      6.668
REMARK INTER + INTRA:          20.887
REMARK INTER:                  20.337
REMARK INTRA:                   0.551
REMARK UNBOUND:                 0.395
REMARK SMILES O=c1c(O)c(-c2ccc(O)c(O)c2)oc2cc(O)cc(O)c12
REMARK SMILES IDX 5 1 3 2 2 3 1 4 22 5 20 6 19 7 17 8 16 9 15 10 14 11 6 12
REMARK SMILES IDX 7 13 8 14 9 15 13 16 11 17 10 18 12 20 4 22 21 24 18 26
REMARK H PARENT 10 19 12 21 4 23 21 25 18 27
REMARK Flexibility Score: inf
ROOT
ATOM      1  C   UNL     1      13.685   7.531 127.279  1.00  0.00     0.180 A 
ATOM      2  C   UNL     1      13.995   8.697 126.557  1.00  0.00     0.208 A 
ATOM      3  C   UNL     1      13.710   8.743 125.183  1.00  0.00     0.238 A 
ATOM      4  O   UNL     1      13.941   9.808 124.554  1.00  0.00    -0.285 OA
ATOM      5  C   UNL     1      13.133   7.619 124.545  1.00  0.00     0.111 A 
ATOM      6  C   UNL     1      12.838   7.541 123.151  1.00  0.00     0.134 A 
ATOM      7  C   UNL     1      12.147   6.429 122.652  1.00  0.00     0.093 A 
ATOM      8  C   UNL     1      11.799   5.365 123.483  1.00  0.00     0.123 A 
ATOM      9  C   UNL     1      12.135   5.404 124.837  1.00  0.00     0.094 A 
ATOM     10  C   UNL     1      12.791   6.516 125.371  1.00  0.00     0.146 A 
ATOM     11  O   UNL     1      13.084   6.518 126.666  1.00  0.00    -0.452 OA
ENDROOT
BRANCH   1  12
ATOM     12  C   UNL     1      13.979   7.398 128.724  1.00  0.00     0.025 A 
ATOM     13  C   UNL     1      14.519   8.489 129.423  1.00  0.00     0.016 A 
ATOM     14  C   UNL     1      14.786   8.392 130.791  1.00  0.00     0.051 A 
ATOM     15  C   UNL     1      14.502   7.207 131.483  1.00  0.00     0.157 A 
ATOM     16  C   UNL     1      13.677   6.217 129.427  1.00  0.00     0.062 A 
ATOM     17  C   UNL     1      13.943   6.120 130.801  1.00  0.00     0.158 A 
BRANCH  15  18
ATOM     18  O   UNL     1      14.768   7.105 132.847  1.00  0.00    -0.504 OA
ATOM     19  H   UNL     1      15.488   6.487 133.202  1.00  0.00     0.293 HD
ENDBRANCH  15  18
BRANCH  17  20
ATOM     20  O   UNL     1      13.649   4.947 131.495  1.00  0.00    -0.504 OA
ATOM     21  H   UNL     1      14.124   4.077 131.289  1.00  0.00     0.293 HD
ENDBRANCH  17  20
ENDBRANCH   1  12
BRANCH   2  22
ATOM     22  O   UNL     1      14.545   9.803 127.211  1.00  0.00    -0.502 OA
ATOM     23  H   UNL     1      15.308  10.342 126.819  1.00  0.00     0.293 HD
ENDBRANCH   2  22
BRANCH   6  24
ATOM     24  O   UNL     1      13.223   8.507 122.216  1.00  0.00    -0.507 OA
ATOM     25  H   UNL     1      14.108   8.990 122.221  1.00  0.00     0.293 HD
ENDBRANCH   6  24
BRANCH   8  26
ATOM     26  O   UNL     1      11.126   4.268 122.949  1.00  0.00    -0.508 OA
ATOM     27  H   UNL     1      11.575   3.637 122.295  1.00  0.00     0.293 HD
ENDBRANCH   8  26
TORSDOF 6
ENDMDL
MODEL 4
REMARK VINA RESULT:    17.020      7.350     11.962
REMARK INTER + INTRA:          20.897
REMARK INTER:                  20.520
REMARK INTRA:                   0.377
REMARK UNBOUND:                 0.395
REMARK SMILES O=c1c(O)c(-c2ccc(O)c(O)c2)oc2cc(O)cc(O)c12
REMARK SMILES IDX 5 1 3 2 2 3 1 4 22 5 20 6 19 7 17 8 16 9 15 10 14 11 6 12
REMARK SMILES IDX 7 13 8 14 9 15 13 16 11 17 10 18 12 20 4 22 21 24 18 26
REMARK H PARENT 10 19 12 21 4 23 21 25 18 27
REMARK Flexibility Score: inf
ROOT
ATOM      1  C   UNL     1      19.855   7.620 135.791  1.00  0.00     0.180 A 
ATOM      2  C   UNL     1      18.893   8.600 135.492  1.00  0.00     0.208 A 
ATOM      3  C   UNL     1      18.541   8.823 134.151  1.00  0.00     0.238 A 
ATOM      4  O   UNL     1      17.640   9.663 133.895  1.00  0.00    -0.285 OA
ATOM      5  C   UNL     1      19.166   8.074 133.126  1.00  0.00     0.111 A 
ATOM      6  C   UNL     1      18.916   8.244 131.731  1.00  0.00     0.134 A 
ATOM      7  C   UNL     1      19.495   7.359 130.813  1.00  0.00     0.093 A 
ATOM      8  C   UNL     1      20.365   6.354 131.232  1.00  0.00     0.123 A 
ATOM      9  C   UNL     1      20.663   6.216 132.587  1.00  0.00     0.094 A 
ATOM     10  C   UNL     1      20.073   7.060 133.531  1.00  0.00     0.146 A 
ATOM     11  O   UNL     1      20.376   6.890 134.812  1.00  0.00    -0.452 OA
ENDROOT
BRANCH   1  12
ATOM     12  C   UNL     1      20.296   7.347 137.178  1.00  0.00     0.025 A 
ATOM     13  C   UNL     1      19.421   7.604 138.245  1.00  0.00     0.016 A 
ATOM     14  C   UNL     1      19.809   7.335 139.560  1.00  0.00     0.051 A 
ATOM     15  C   UNL     1      21.072   6.789 139.825  1.00  0.00     0.157 A 
ATOM     16  C   UNL     1      21.556   6.780 137.447  1.00  0.00     0.062 A 
ATOM     17  C   UNL     1      21.945   6.507 138.767  1.00  0.00     0.158 A 
BRANCH  15  18
ATOM     18  O   UNL     1      21.464   6.520 141.135  1.00  0.00    -0.504 OA
ATOM     19  H   UNL     1      22.430   6.604 141.428  1.00  0.00     0.293 HD
ENDBRANCH  15  18
BRANCH  17  20
ATOM     20  O   UNL     1      23.195   5.951 139.034  1.00  0.00    -0.504 OA
ATOM     21  H   UNL     1      23.603   5.251 138.426  1.00  0.00     0.293 HD
ENDBRANCH  17  20
ENDBRANCH   1  12
BRANCH   2  22
ATOM     22  O   UNL     1      18.272   9.313 136.522  1.00  0.00    -0.502 OA
ATOM     23  H   UNL     1      18.536  10.260 136.763  1.00  0.00     0.293 HD
ENDBRANCH   2  22
BRANCH   6  24
ATOM     24  O   UNL     1      18.135   9.273 131.197  1.00  0.00    -0.507 OA
ATOM     25  H   UNL     1      18.340  10.257 131.290  1.00  0.00     0.293 HD
ENDBRANCH   6  24
BRANCH   8  26
ATOM     26  O   UNL     1      20.935   5.500 130.288  1.00  0.00    -0.508 OA
ATOM     27  H   UNL     1      20.369   5.027 129.593  1.00  0.00     0.293 HD
ENDBRANCH   8  26
TORSDOF 6
ENDMDL
MODEL 5
REMARK VINA RESULT:    17.404      6.889     11.730
REMARK INTER + INTRA:          21.359
REMARK INTER:                  20.884
REMARK INTRA:                   0.475
REMARK UNBOUND:                 0.395
REMARK SMILES O=c1c(O)c(-c2ccc(O)c(O)c2)oc2cc(O)cc(O)c12
REMARK SMILES IDX 5 1 3 2 2 3 1 4 22 5 20 6 19 7 17 8 16 9 15 10 14 11 6 12
REMARK SMILES IDX 7 13 8 14 9 15 13 16 11 17 10 18 12 20 4 22 21 24 18 26
REMARK H PARENT 10 19 12 21 4 23 21 25 18 27
REMARK Flexibility Score: inf
ROOT
ATOM      1  C   UNL     1      19.688   7.778 135.476  1.00  0.00     0.180 A 
ATOM      2  C   UNL     1      20.490   7.345 134.406  1.00  0.00     0.208 A 
ATOM      3  C   UNL     1      20.050   7.570 133.092  1.00  0.00     0.238 A 
ATOM      4  O   UNL     1      20.797   7.229 132.138  1.00  0.00    -0.285 OA
ATOM      5  C   UNL     1      18.808   8.209 132.864  1.00  0.00     0.111 A 
ATOM      6  C   UNL     1      18.246   8.452 131.575  1.00  0.00     0.134 A 
ATOM      7  C   UNL     1      17.072   9.209 131.465  1.00  0.00     0.093 A 
ATOM      8  C   UNL     1      16.407   9.675 132.598  1.00  0.00     0.123 A 
ATOM      9  C   UNL     1      16.916   9.393 133.866  1.00  0.00     0.094 A 
ATOM     10  C   UNL     1      18.104   8.671 134.007  1.00  0.00     0.146 A 
ATOM     11  O   UNL     1      18.560   8.432 135.230  1.00  0.00    -0.452 OA
ENDROOT
BRANCH   1  12
ATOM     12  C   UNL     1      20.073   7.554 136.889  1.00  0.00     0.025 A 
ATOM     13  C   UNL     1      19.206   7.964 137.914  1.00  0.00     0.016 A 
ATOM     14  C   UNL     1      19.538   7.745 139.253  1.00  0.00     0.051 A 
ATOM     15  C   UNL     1      20.736   7.098 139.586  1.00  0.00     0.157 A 
ATOM     16  C   UNL     1      21.264   6.887 137.227  1.00  0.00     0.062 A 
ATOM     17  C   UNL     1      21.598   6.664 138.571  1.00  0.00     0.158 A 
BRANCH  15  18
ATOM     18  O   UNL     1      21.072   6.879 140.920  1.00  0.00    -0.504 OA
ATOM     19  H   UNL     1      21.319   5.957 141.261  1.00  0.00     0.293 HD
ENDBRANCH  15  18
BRANCH  17  20
ATOM     20  O   UNL     1      22.782   6.009 138.906  1.00  0.00    -0.504 OA
ATOM     21  H   UNL     1      22.852   4.999 138.885  1.00  0.00     0.293 HD
ENDBRANCH  17  20
ENDBRANCH   1  12
BRANCH   2  22
ATOM     22  O   UNL     1      21.724   6.735 134.653  1.00  0.00    -0.502 OA
ATOM     23  H   UNL     1      21.886   5.751 134.481  1.00  0.00     0.293 HD
ENDBRANCH   2  22
BRANCH   6  24
ATOM     24  O   UNL     1      18.780   7.954 130.383  1.00  0.00    -0.507 OA
ATOM     25  H   UNL     1      19.676   7.497 130.302  1.00  0.00     0.293 HD
ENDBRANCH   6  24
BRANCH   8  26
ATOM     26  O   UNL     1      15.233  10.413 132.451  1.00  0.00    -0.508 OA
ATOM     27  H   UNL     1      15.149  11.140 131.750  1.00  0.00     0.293 HD
ENDBRANCH   8  26
TORSDOF 6
ENDMDL
