MODEL 1
REMARK VINA RESULT:    -3.166      0.000      0.000
REMARK INTER + INTRA:          -6.807
REMARK INTER:                  -5.109
REMARK INTRA:                  -1.697
REMARK UNBOUND:                -1.697
REMARK SMILES CCCCCCCCCCCCO
REMARK SMILES IDX 7 1 6 2 5 3 4 4 3 5 2 6 1 7 8 8 9 9 10 10 11 11 12 12 13 13
REMARK H PARENT 13 14
REMARK Flexibility Score: inf
ROOT
ATOM      1  C   UNL     1     127.062 146.135 119.745  1.00  0.00     0.000 C 
ENDROOT
BRANCH   1   2
ATOM      2  C   UNL     1     127.017 145.739 121.226  1.00  0.00    -0.000 C 
BRANCH   2   3
ATOM      3  C   UNL     1     128.105 146.466 122.024  1.00  0.00    -0.000 C 
BRANCH   3   4
ATOM      4  C   UNL     1     129.001 145.469 122.769  1.00  0.00    -0.000 C 
BRANCH   4   5
ATOM      5  C   UNL     1     130.460 145.590 122.312  1.00  0.00    -0.000 C 
BRANCH   5   6
ATOM      6  C   UNL     1     130.562 146.376 121.001  1.00  0.00    -0.003 C 
ATOM      7  C   UNL     1     131.401 145.625 119.971  1.00  0.00     0.004 C 
ENDBRANCH   5   6
ENDBRANCH   4   5
ENDBRANCH   3   4
ENDBRANCH   2   3
ENDBRANCH   1   2
BRANCH   1   8
ATOM      8  C   UNL     1     127.701 145.025 118.898  1.00  0.00     0.000 C 
BRANCH   8   9
ATOM      9  C   UNL     1     127.585 143.638 119.549  1.00  0.00     0.000 C 
BRANCH   9  10
ATOM     10  C   UNL     1     128.955 142.985 119.798  1.00  0.00     0.002 C 
BRANCH  10  11
ATOM     11  C   UNL     1     129.014 142.230 121.137  1.00  0.00     0.028 C 
BRANCH  11  12
ATOM     12  C   UNL     1     127.626 141.849 121.667  1.00  0.00     0.156 C 
BRANCH  12  13
ATOM     13  O   UNL     1     127.502 142.228 123.010  1.00  0.00    -0.396 OA
ATOM     14  H   UNL     1     126.837 142.965 123.036  1.00  0.00     0.210 HD
ENDBRANCH  12  13
ENDBRANCH  11  12
ENDBRANCH  10  11
ENDBRANCH   9  10
ENDBRANCH   8   9
ENDBRANCH   1   8
TORSDOF 11
ENDMDL
MODEL 2
REMARK VINA RESULT:    -3.114      1.327      2.901
REMARK INTER + INTRA:          -6.723
REMARK INTER:                  -5.224
REMARK INTRA:                  -1.499
REMARK UNBOUND:                -1.697
REMARK SMILES CCCCCCCCCCCCO
REMARK SMILES IDX 7 1 6 2 5 3 4 4 3 5 2 6 1 7 8 8 9 9 10 10 11 11 12 12 13 13
REMARK H PARENT 13 14
REMARK Flexibility Score: inf
ROOT
ATOM      1  C   UNL     1     129.329 143.922 119.254  1.00  0.00     0.000 C 
ENDROOT
BRANCH   1   2
ATOM      2  C   UNL     1     127.876 144.083 118.794  1.00  0.00    -0.000 C 
BRANCH   2   3
ATOM      3  C   UNL     1     127.388 145.521 119.003  1.00  0.00    -0.000 C 
BRANCH   3   4
ATOM      4  C   UNL     1     127.942 146.108 120.307  1.00  0.00    -0.000 C 
BRANCH   4   5
ATOM      5  C   UNL     1     126.965 145.889 121.469  1.00  0.00    -0.000 C 
BRANCH   5   6
ATOM      6  C   UNL     1     127.715 145.741 122.797  1.00  0.00    -0.003 C 
ATOM      7  C   UNL     1     129.216 145.585 122.568  1.00  0.00     0.004 C 
ENDBRANCH   5   6
ENDBRANCH   4   5
ENDBRANCH   3   4
ENDBRANCH   2   3
ENDBRANCH   1   2
BRANCH   1   8
ATOM      8  C   UNL     1     129.481 142.710 120.185  1.00  0.00     0.000 C 
BRANCH   8   9
ATOM      9  C   UNL     1     128.155 141.968 120.416  1.00  0.00     0.000 C 
BRANCH   9  10
ATOM     10  C   UNL     1     127.594 142.187 121.832  1.00  0.00     0.002 C 
BRANCH  10  11
ATOM     11  C   UNL     1     128.358 141.386 122.899  1.00  0.00     0.028 C 
BRANCH  11  12
ATOM     12  C   UNL     1     128.501 142.143 124.225  1.00  0.00     0.156 C 
BRANCH  12  13
ATOM     13  O   UNL     1     127.241 142.538 124.693  1.00  0.00    -0.396 OA
ATOM     14  H   UNL     1     126.718 142.818 123.897  1.00  0.00     0.210 HD
ENDBRANCH  12  13
ENDBRANCH  11  12
ENDBRANCH  10  11
ENDBRANCH   9  10
ENDBRANCH   8   9
ENDBRANCH   1   8
TORSDOF 11
ENDMDL
MODEL 3
REMARK VINA RESULT:    -3.106      2.537      4.986
REMARK INTER + INTRA:          -6.709
REMARK INTER:                  -5.591
REMARK INTRA:                  -1.118
REMARK UNBOUND:                -1.697
REMARK SMILES CCCCCCCCCCCCO
REMARK SMILES IDX 7 1 6 2 5 3 4 4 3 5 2 6 1 7 8 8 9 9 10 10 11 11 12 12 13 13
REMARK H PARENT 13 14
REMARK Flexibility Score: inf
ROOT
ATOM      1  C   UNL     1     130.029 143.743 120.440  1.00  0.00     0.000 C 
ENDROOT
BRANCH   1   2
ATOM      2  C   UNL     1     128.971 143.382 119.390  1.00  0.00    -0.000 C 
BRANCH   2   3
ATOM      3  C   UNL     1     127.584 143.881 119.812  1.00  0.00    -0.000 C 
BRANCH   3   4
ATOM      4  C   UNL     1     127.280 145.253 119.196  1.00  0.00    -0.000 C 
BRANCH   4   5
ATOM      5  C   UNL     1     127.018 146.300 120.285  1.00  0.00    -0.000 C 
BRANCH   5   6
ATOM      6  C   UNL     1     127.190 145.694 121.683  1.00  0.00    -0.003 C 
ATOM      7  C   UNL     1     127.694 146.736 122.677  1.00  0.00     0.004 C 
ENDBRANCH   5   6
ENDBRANCH   4   5
ENDBRANCH   3   4
ENDBRANCH   2   3
ENDBRANCH   1   2
BRANCH   1   8
ATOM      8  C   UNL     1     131.046 144.745 119.873  1.00  0.00     0.000 C 
BRANCH   8   9
ATOM      9  C   UNL     1     130.713 146.201 120.235  1.00  0.00     0.000 C 
BRANCH   9  10
ATOM     10  C   UNL     1     131.943 147.123 120.169  1.00  0.00     0.002 C 
BRANCH  10  11
ATOM     11  C   UNL     1     133.258 146.342 120.007  1.00  0.00     0.028 C 
BRANCH  11  12
ATOM     12  C   UNL     1     134.186 146.480 121.219  1.00  0.00     0.156 C 
BRANCH  12  13
ATOM     13  O   UNL     1     133.518 147.125 122.268  1.00  0.00    -0.396 OA
ATOM     14  H   UNL     1     132.906 147.786 121.850  1.00  0.00     0.210 HD
ENDBRANCH  12  13
ENDBRANCH  11  12
ENDBRANCH  10  11
ENDBRANCH   9  10
ENDBRANCH   8   9
ENDBRANCH   1   8
TORSDOF 11
ENDMDL
MODEL 4
REMARK VINA RESULT:    -3.087      3.098      5.049
REMARK INTER + INTRA:          -6.678
REMARK INTER:                  -5.380
REMARK INTRA:                  -1.298
REMARK UNBOUND:                -1.697
REMARK SMILES CCCCCCCCCCCCO
REMARK SMILES IDX 7 1 6 2 5 3 4 4 3 5 2 6 1 7 8 8 9 9 10 10 11 11 12 12 13 13
REMARK H PARENT 13 14
REMARK Flexibility Score: inf
ROOT
ATOM      1  C   UNL     1     130.195 144.875 121.993  1.00  0.00     0.000 C 
ENDROOT
BRANCH   1   2
ATOM      2  C   UNL     1     129.503 146.226 122.208  1.00  0.00    -0.000 C 
BRANCH   2   3
ATOM      3  C   UNL     1     128.027 146.036 122.579  1.00  0.00    -0.000 C 
BRANCH   3   4
ATOM      4  C   UNL     1     127.257 145.349 121.445  1.00  0.00    -0.000 C 
BRANCH   4   5
ATOM      5  C   UNL     1     127.000 146.318 120.285  1.00  0.00    -0.000 C 
BRANCH   5   6
ATOM      6  C   UNL     1     127.139 145.609 118.934  1.00  0.00    -0.003 C 
ATOM      7  C   UNL     1     127.636 144.177 119.112  1.00  0.00     0.004 C 
ENDBRANCH   5   6
ENDBRANCH   4   5
ENDBRANCH   3   4
ENDBRANCH   2   3
ENDBRANCH   1   2
BRANCH   1   8
ATOM      8  C   UNL     1     130.931 144.842 120.644  1.00  0.00     0.000 C 
BRANCH   8   9
ATOM      9  C   UNL     1     130.776 146.149 119.851  1.00  0.00     0.000 C 
BRANCH   9  10
ATOM     10  C   UNL     1     132.109 146.899 119.682  1.00  0.00     0.002 C 
BRANCH  10  11
ATOM     11  C   UNL     1     133.311 146.087 120.191  1.00  0.00     0.028 C 
BRANCH  11  12
ATOM     12  C   UNL     1     134.388 145.882 119.119  1.00  0.00     0.156 C 
BRANCH  12  13
ATOM     13  O   UNL     1     134.492 147.025 118.315  1.00  0.00    -0.396 OA
ATOM     14  H   UNL     1     135.325 147.490 118.591  1.00  0.00     0.210 HD
ENDBRANCH  12  13
ENDBRANCH  11  12
ENDBRANCH  10  11
ENDBRANCH   9  10
ENDBRANCH   8   9
ENDBRANCH   1   8
TORSDOF 11
ENDMDL
MODEL 5
REMARK VINA RESULT:    -3.053      1.506      3.240
REMARK INTER + INTRA:          -6.624
REMARK INTER:                  -5.511
REMARK INTRA:                  -1.113
REMARK UNBOUND:                -1.697
REMARK SMILES CCCCCCCCCCCCO
REMARK SMILES IDX 7 1 6 2 5 3 4 4 3 5 2 6 1 7 8 8 9 9 10 10 11 11 12 12 13 13
REMARK H PARENT 13 14
REMARK Flexibility Score: inf
ROOT
ATOM      1  C   UNL     1     126.974 145.388 120.781  1.00  0.00     0.000 C 
ENDROOT
BRANCH   1   2
ATOM      2  C   UNL     1     127.171 145.665 119.286  1.00  0.00    -0.000 C 
BRANCH   2   3
ATOM      3  C   UNL     1     127.954 144.531 118.614  1.00  0.00    -0.000 C 
BRANCH   3   4
ATOM      4  C   UNL     1     128.708 143.690 119.652  1.00  0.00    -0.000 C 
BRANCH   4   5
ATOM      5  C   UNL     1     130.217 143.950 119.581  1.00  0.00    -0.000 C 
BRANCH   5   6
ATOM      6  C   UNL     1     130.654 144.951 120.656  1.00  0.00    -0.003 C 
ATOM      7  C   UNL     1     130.774 146.359 120.082  1.00  0.00     0.004 C 
ENDBRANCH   5   6
ENDBRANCH   4   5
ENDBRANCH   3   4
ENDBRANCH   2   3
ENDBRANCH   1   2
BRANCH   1   8
ATOM      8  C   UNL     1     126.955 146.697 121.585  1.00  0.00     0.000 C 
BRANCH   8   9
ATOM      9  C   UNL     1     127.101 146.468 123.097  1.00  0.00     0.000 C 
BRANCH   9  10
ATOM     10  C   UNL     1     128.147 145.390 123.434  1.00  0.00     0.002 C 
BRANCH  10  11
ATOM     11  C   UNL     1     127.985 144.837 124.859  1.00  0.00     0.028 C 
BRANCH  11  12
ATOM     12  C   UNL     1     128.365 143.355 124.971  1.00  0.00     0.156 C 
BRANCH  12  13
ATOM     13  O   UNL     1     127.261 142.550 124.663  1.00  0.00    -0.396 OA
ATOM     14  H   UNL     1     127.112 141.961 125.449  1.00  0.00     0.210 HD
ENDBRANCH  12  13
ENDBRANCH  11  12
ENDBRANCH  10  11
ENDBRANCH   9  10
ENDBRANCH   8   9
ENDBRANCH   1   8
TORSDOF 11
ENDMDL
MODEL 6
REMARK VINA RESULT:    -3.036      2.980      4.959
REMARK INTER + INTRA:          -6.596
REMARK INTER:                  -5.665
REMARK INTRA:                  -0.932
REMARK UNBOUND:                -1.697
REMARK SMILES CCCCCCCCCCCCO
REMARK SMILES IDX 7 1 6 2 5 3 4 4 3 5 2 6 1 7 8 8 9 9 10 10 11 11 12 12 13 13
REMARK H PARENT 13 14
REMARK Flexibility Score: inf
ROOT
ATOM      1  C   UNL     1     129.686 145.055 119.733  1.00  0.00     0.000 C 
ENDROOT
BRANCH   1   2
ATOM      2  C   UNL     1     128.349 144.913 118.996  1.00  0.00    -0.000 C 
BRANCH   2   3
ATOM      3  C   UNL     1     127.243 145.705 119.703  1.00  0.00    -0.000 C 
BRANCH   3   4
ATOM      4  C   UNL     1     127.237 145.418 121.210  1.00  0.00    -0.000 C 
BRANCH   4   5
ATOM      5  C   UNL     1     126.884 146.678 122.010  1.00  0.00    -0.000 C 
BRANCH   5   6
ATOM      6  C   UNL     1     127.802 146.832 123.227  1.00  0.00    -0.003 C 
ATOM      7  C   UNL     1     128.928 145.802 123.202  1.00  0.00     0.004 C 
ENDBRANCH   5   6
ENDBRANCH   4   5
ENDBRANCH   3   4
ENDBRANCH   2   3
ENDBRANCH   1   2
BRANCH   1   8
ATOM      8  C   UNL     1     130.268 146.465 119.550  1.00  0.00     0.000 C 
BRANCH   8   9
ATOM      9  C   UNL     1     131.452 146.745 120.488  1.00  0.00     0.000 C 
BRANCH   9  10
ATOM     10  C   UNL     1     132.567 145.692 120.363  1.00  0.00     0.002 C 
BRANCH  10  11
ATOM     11  C   UNL     1     133.863 146.273 119.773  1.00  0.00     0.028 C 
BRANCH  11  12
ATOM     12  C   UNL     1     135.010 146.327 120.791  1.00  0.00     0.156 C 
BRANCH  12  13
ATOM     13  O   UNL     1     134.643 147.115 121.890  1.00  0.00    -0.396 OA
ATOM     14  H   UNL     1     135.385 147.048 122.546  1.00  0.00     0.210 HD
ENDBRANCH  12  13
ENDBRANCH  11  12
ENDBRANCH  10  11
ENDBRANCH   9  10
ENDBRANCH   8   9
ENDBRANCH   1   8
TORSDOF 11
ENDMDL
MODEL 7
REMARK VINA RESULT:    -3.012      2.190      3.688
REMARK INTER + INTRA:          -6.559
REMARK INTER:                  -5.537
REMARK INTRA:                  -1.022
REMARK UNBOUND:                -1.697
REMARK SMILES CCCCCCCCCCCCO
REMARK SMILES IDX 7 1 6 2 5 3 4 4 3 5 2 6 1 7 8 8 9 9 10 10 11 11 12 12 13 13
REMARK H PARENT 13 14
REMARK Flexibility Score: inf
ROOT
ATOM      1  C   UNL     1     128.500 145.092 119.021  1.00  0.00     0.000 C 
ENDROOT
BRANCH   1   2
ATOM      2  C   UNL     1     129.530 144.118 119.606  1.00  0.00    -0.000 C 
BRANCH   2   3
ATOM      3  C   UNL     1     130.838 144.840 119.947  1.00  0.00    -0.000 C 
BRANCH   3   4
ATOM      4  C   UNL     1     130.687 146.358 119.794  1.00  0.00    -0.000 C 
BRANCH   4   5
ATOM      5  C   UNL     1     132.057 147.042 119.704  1.00  0.00    -0.000 C 
BRANCH   5   6
ATOM      6  C   UNL     1     133.191 146.017 119.802  1.00  0.00    -0.003 C 
ATOM      7  C   UNL     1     134.401 146.451 118.979  1.00  0.00     0.004 C 
ENDBRANCH   5   6
ENDBRANCH   4   5
ENDBRANCH   3   4
ENDBRANCH   2   3
ENDBRANCH   1   2
BRANCH   1   8
ATOM      8  C   UNL     1     127.156 144.980 119.757  1.00  0.00     0.000 C 
BRANCH   8   9
ATOM      9  C   UNL     1     126.928 146.125 120.755  1.00  0.00     0.000 C 
BRANCH   9  10
ATOM     10  C   UNL     1     127.267 145.725 122.202  1.00  0.00     0.002 C 
BRANCH  10  11
ATOM     11  C   UNL     1     128.194 146.740 122.892  1.00  0.00     0.028 C 
BRANCH  11  12
ATOM     12  C   UNL     1     129.401 146.080 123.569  1.00  0.00     0.156 C 
BRANCH  12  13
ATOM     13  O   UNL     1     130.577 146.760 123.229  1.00  0.00    -0.396 OA
ATOM     14  H   UNL     1     131.019 146.224 122.519  1.00  0.00     0.210 HD
ENDBRANCH  12  13
ENDBRANCH  11  12
ENDBRANCH  10  11
ENDBRANCH   9  10
ENDBRANCH   8   9
ENDBRANCH   1   8
TORSDOF 11
ENDMDL
MODEL 8
REMARK VINA RESULT:    -3.000      1.396      2.425
REMARK INTER + INTRA:          -6.538
REMARK INTER:                  -5.202
REMARK INTRA:                  -1.336
REMARK UNBOUND:                -1.697
REMARK SMILES CCCCCCCCCCCCO
REMARK SMILES IDX 7 1 6 2 5 3 4 4 3 5 2 6 1 7 8 8 9 9 10 10 11 11 12 12 13 13
REMARK H PARENT 13 14
REMARK Flexibility Score: inf
ROOT
ATOM      1  C   UNL     1     128.219 144.462 118.923  1.00  0.00     0.000 C 
ENDROOT
BRANCH   1   2
ATOM      2  C   UNL     1     128.308 145.879 119.503  1.00  0.00    -0.000 C 
BRANCH   2   3
ATOM      3  C   UNL     1     127.051 146.225 120.309  1.00  0.00    -0.000 C 
BRANCH   3   4
ATOM      4  C   UNL     1     127.187 145.764 121.766  1.00  0.00    -0.000 C 
BRANCH   4   5
ATOM      5  C   UNL     1     128.453 146.338 122.411  1.00  0.00    -0.000 C 
BRANCH   5   6
ATOM      6  C   UNL     1     129.424 145.221 122.806  1.00  0.00    -0.003 C 
ATOM      7  C   UNL     1     128.710 144.119 123.584  1.00  0.00     0.004 C 
ENDBRANCH   5   6
ENDBRANCH   4   5
ENDBRANCH   3   4
ENDBRANCH   2   3
ENDBRANCH   1   2
BRANCH   1   8
ATOM      8  C   UNL     1     129.397 143.598 119.398  1.00  0.00     0.000 C 
BRANCH   8   9
ATOM      9  C   UNL     1     128.952 142.409 120.263  1.00  0.00     0.000 C 
BRANCH   9  10
ATOM     10  C   UNL     1     127.429 142.374 120.481  1.00  0.00     0.002 C 
BRANCH  10  11
ATOM     11  C   UNL     1     126.876 140.940 120.546  1.00  0.00     0.028 C 
BRANCH  11  12
ATOM     12  C   UNL     1     127.713 140.019 121.442  1.00  0.00     0.156 C 
BRANCH  12  13
ATOM     13  O   UNL     1     127.645 140.449 122.774  1.00  0.00    -0.396 OA
ATOM     14  H   UNL     1     127.898 141.410 122.774  1.00  0.00     0.210 HD
ENDBRANCH  12  13
ENDBRANCH  11  12
ENDBRANCH  10  11
ENDBRANCH   9  10
ENDBRANCH   8   9
ENDBRANCH   1   8
TORSDOF 11
ENDMDL
MODEL 9
REMARK VINA RESULT:    -2.980      3.009      4.958
REMARK INTER + INTRA:          -6.506
REMARK INTER:                  -5.148
REMARK INTRA:                  -1.358
REMARK UNBOUND:                -1.697
REMARK SMILES CCCCCCCCCCCCO
REMARK SMILES IDX 7 1 6 2 5 3 4 4 3 5 2 6 1 7 8 8 9 9 10 10 11 11 12 12 13 13
REMARK H PARENT 13 14
REMARK Flexibility Score: inf
ROOT
ATOM      1  C   UNL     1     129.027 146.012 121.501  1.00  0.00     0.000 C 
ENDROOT
BRANCH   1   2
ATOM      2  C   UNL     1     128.306 146.056 120.148  1.00  0.00    -0.000 C 
BRANCH   2   3
ATOM      3  C   UNL     1     127.638 144.712 119.837  1.00  0.00    -0.000 C 
BRANCH   3   4
ATOM      4  C   UNL     1     128.601 143.775 119.097  1.00  0.00    -0.000 C 
BRANCH   4   5
ATOM      5  C   UNL     1     129.038 142.612 119.996  1.00  0.00    -0.000 C 
BRANCH   5   6
ATOM      6  C   UNL     1     130.496 142.777 120.437  1.00  0.00    -0.003 C 
ATOM      7  C   UNL     1     131.409 143.033 119.241  1.00  0.00     0.004 C 
ENDBRANCH   5   6
ENDBRANCH   4   5
ENDBRANCH   3   4
ENDBRANCH   2   3
ENDBRANCH   1   2
BRANCH   1   8
ATOM      8  C   UNL     1     130.514 146.366 121.344  1.00  0.00     0.000 C 
BRANCH   8   9
ATOM      9  C   UNL     1     130.909 146.639 119.884  1.00  0.00     0.000 C 
BRANCH   9  10
ATOM     10  C   UNL     1     132.434 146.661 119.679  1.00  0.00     0.002 C 
BRANCH  10  11
ATOM     11  C   UNL     1     133.200 146.102 120.890  1.00  0.00     0.028 C 
BRANCH  11  12
ATOM     12  C   UNL     1     134.710 146.357 120.810  1.00  0.00     0.156 C 
BRANCH  12  13
ATOM     13  O   UNL     1     135.138 147.074 121.934  1.00  0.00    -0.396 OA
ATOM     14  H   UNL     1     136.099 146.857 122.060  1.00  0.00     0.210 HD
ENDBRANCH  12  13
ENDBRANCH  11  12
ENDBRANCH  10  11
ENDBRANCH   9  10
ENDBRANCH   8   9
ENDBRANCH   1   8
TORSDOF 11
ENDMDL
