MODEL 1
REMARK VINA RESULT:    -3.779      0.000      0.000
REMARK INTER + INTRA:          -7.961
REMARK INTER:                  -6.651
REMARK INTRA:                  -1.311
REMARK UNBOUND:                -1.311
REMARK SMILES CCCCCCC=CCCCCCCCC(=O)[O-]
REMARK SMILES IDX 10 1 11 2 12 3 13 4 14 5 15 6 16 7 17 8 18 9 9 10 8 11 7 12
REMARK SMILES IDX 6 13 5 14 4 15 3 16 2 17 1 18
REMARK H PARENT
REMARK Flexibility Score: inf
ROOT
ATOM      1  C   UNL     1      -2.336 -50.672   1.498  1.00  0.00     0.004 C 
ENDROOT
BRANCH   1   2
ATOM      2  C   UNL     1      -2.004 -52.012   2.173  1.00  0.00     0.000 C 
BRANCH   2   3
ATOM      3  C   UNL     1      -2.248 -51.986   3.693  1.00  0.00     0.000 C 
BRANCH   3   4
ATOM      4  C   UNL     1      -3.735 -51.833   4.049  1.00  0.00     0.000 C 
BRANCH   4   5
ATOM      5  C   UNL     1      -3.970 -51.715   5.564  1.00  0.00     0.006 C 
BRANCH   5   6
ATOM      6  C   UNL     1      -2.741 -51.128   6.264  1.00  0.00     0.053 C 
BRANCH   6   7
ATOM      7  C   UNL     1      -2.947 -51.097   7.746  1.00  0.00     0.041 C 
ATOM      8  O   UNL     1      -2.005 -51.403   8.523  1.00  0.00    -0.550 OA
ATOM      9  O   UNL     1      -4.164 -50.678   8.269  1.00  0.00    -0.550 OA
ENDBRANCH   6   7
ENDBRANCH   5   6
ENDBRANCH   4   5
ENDBRANCH   3   4
ENDBRANCH   2   3
ENDBRANCH   1   2
BRANCH   1  10
ATOM     10  C   UNL     1      -3.038 -50.850   0.144  1.00  0.00     0.027 C 
BRANCH  10  11
ATOM     11  C   UNL     1      -4.522 -51.012   0.322  1.00  0.00    -0.031 C 
ATOM     12  C   UNL     1      -5.207 -51.973  -0.317  1.00  0.00    -0.031 C 
BRANCH  12  13
ATOM     13  C   UNL     1      -6.693 -52.124  -0.150  1.00  0.00     0.027 C 
BRANCH  13  14
ATOM     14  C   UNL     1      -7.085 -52.123   1.333  1.00  0.00     0.004 C 
BRANCH  14  15
ATOM     15  C   UNL     1      -8.497 -51.557   1.529  1.00  0.00     0.000 C 
BRANCH  15  16
ATOM     16  C   UNL     1      -8.653 -50.943   2.928  1.00  0.00    -0.000 C 
BRANCH  16  17
ATOM     17  C   UNL     1      -7.538 -51.379   3.891  1.00  0.00    -0.003 C 
ATOM     18  C   UNL     1      -8.010 -51.462   5.342  1.00  0.00     0.004 C 
ENDBRANCH  16  17
ENDBRANCH  15  16
ENDBRANCH  14  15
ENDBRANCH  13  14
ENDBRANCH  12  13
ENDBRANCH  10  11
ENDBRANCH   1  10
TORSDOF 13
ENDMDL
MODEL 2
REMARK VINA RESULT:    -3.377      2.167      5.396
REMARK INTER + INTRA:          -7.254
REMARK INTER:                  -6.389
REMARK INTRA:                  -0.865
REMARK UNBOUND:                -1.311
REMARK SMILES CCCCCCC=CCCCCCCCC(=O)[O-]
REMARK SMILES IDX 10 1 11 2 12 3 13 4 14 5 15 6 16 7 17 8 18 9 9 10 8 11 7 12
REMARK SMILES IDX 6 13 5 14 4 15 3 16 2 17 1 18
REMARK H PARENT
REMARK Flexibility Score: inf
ROOT
ATOM      1  C   UNL     1      -3.085 -50.722   0.495  1.00  0.00     0.004 C 
ENDROOT
BRANCH   1   2
ATOM      2  C   UNL     1      -4.307 -51.437  -0.102  1.00  0.00     0.000 C 
BRANCH   2   3
ATOM      3  C   UNL     1      -5.213 -52.062   0.975  1.00  0.00     0.000 C 
BRANCH   3   4
ATOM      4  C   UNL     1      -6.595 -51.395   1.045  1.00  0.00     0.000 C 
BRANCH   4   5
ATOM      5  C   UNL     1      -7.428 -51.887   2.239  1.00  0.00     0.006 C 
BRANCH   5   6
ATOM      6  C   UNL     1      -6.796 -51.450   3.563  1.00  0.00     0.053 C 
BRANCH   6   7
ATOM      7  C   UNL     1      -7.842 -50.924   4.495  1.00  0.00     0.041 C 
ATOM      8  O   UNL     1      -7.816 -51.231   5.716  1.00  0.00    -0.550 OA
ATOM      9  O   UNL     1      -8.818 -50.053   4.025  1.00  0.00    -0.550 OA
ENDBRANCH   6   7
ENDBRANCH   5   6
ENDBRANCH   4   5
ENDBRANCH   3   4
ENDBRANCH   2   3
ENDBRANCH   1   2
BRANCH   1  10
ATOM     10  C   UNL     1      -2.159 -51.678   1.263  1.00  0.00     0.027 C 
BRANCH  10  11
ATOM     11  C   UNL     1      -1.797 -51.114   2.608  1.00  0.00    -0.031 C 
ATOM     12  C   UNL     1      -1.308 -51.890   3.588  1.00  0.00    -0.031 C 
BRANCH  12  13
ATOM     13  C   UNL     1      -0.961 -51.327   4.938  1.00  0.00     0.027 C 
BRANCH  13  14
ATOM     14  C   UNL     1      -1.665 -52.103   6.058  1.00  0.00     0.004 C 
BRANCH  14  15
ATOM     15  C   UNL     1      -3.075 -51.552   6.307  1.00  0.00     0.000 C 
BRANCH  15  16
ATOM     16  C   UNL     1      -3.182 -50.930   7.707  1.00  0.00    -0.000 C 
BRANCH  16  17
ATOM     17  C   UNL     1      -3.963 -51.817   8.688  1.00  0.00    -0.003 C 
ATOM     18  C   UNL     1      -5.475 -51.617   8.591  1.00  0.00     0.004 C 
ENDBRANCH  16  17
ENDBRANCH  15  16
ENDBRANCH  14  15
ENDBRANCH  13  14
ENDBRANCH  12  13
ENDBRANCH  10  11
ENDBRANCH   1  10
TORSDOF 13
ENDMDL
MODEL 3
REMARK VINA RESULT:    -3.093      2.196      5.750
REMARK INTER + INTRA:          -6.754
REMARK INTER:                  -6.023
REMARK INTRA:                  -0.731
REMARK UNBOUND:                -1.311
REMARK SMILES CCCCCCC=CCCCCCCCC(=O)[O-]
REMARK SMILES IDX 10 1 11 2 12 3 13 4 14 5 15 6 16 7 17 8 18 9 9 10 8 11 7 12
REMARK SMILES IDX 6 13 5 14 4 15 3 16 2 17 1 18
REMARK H PARENT
REMARK Flexibility Score: inf
ROOT
ATOM      1  C   UNL     1      -4.105 -51.435  -0.091  1.00  0.00     0.004 C 
ENDROOT
BRANCH   1   2
ATOM      2  C   UNL     1      -5.177 -51.743   0.965  1.00  0.00     0.000 C 
BRANCH   2   3
ATOM      3  C   UNL     1      -6.505 -51.012   0.692  1.00  0.00     0.000 C 
BRANCH   3   4
ATOM      4  C   UNL     1      -7.678 -51.980   0.477  1.00  0.00     0.000 C 
BRANCH   4   5
ATOM      5  C   UNL     1      -8.561 -52.124   1.728  1.00  0.00     0.006 C 
BRANCH   5   6
ATOM      6  C   UNL     1      -8.550 -50.837   2.556  1.00  0.00     0.053 C 
BRANCH   6   7
ATOM      7  C   UNL     1      -8.248 -51.139   3.990  1.00  0.00     0.041 C 
ATOM      8  O   UNL     1      -7.282 -50.574   4.567  1.00  0.00    -0.550 OA
ATOM      9  O   UNL     1      -9.065 -52.007   4.705  1.00  0.00    -0.550 OA
ENDBRANCH   6   7
ENDBRANCH   5   6
ENDBRANCH   4   5
ENDBRANCH   3   4
ENDBRANCH   2   3
ENDBRANCH   1   2
BRANCH   1  10
ATOM     10  C   UNL     1      -2.932 -50.623   0.477  1.00  0.00     0.027 C 
BRANCH  10  11
ATOM     11  C   UNL     1      -2.145 -51.433   1.469  1.00  0.00    -0.031 C 
ATOM     12  C   UNL     1      -2.261 -51.231   2.792  1.00  0.00    -0.031 C 
BRANCH  12  13
ATOM     13  C   UNL     1      -1.462 -52.030   3.782  1.00  0.00     0.027 C 
BRANCH  13  14
ATOM     14  C   UNL     1      -2.187 -52.123   5.130  1.00  0.00     0.004 C 
BRANCH  14  15
ATOM     15  C   UNL     1      -1.318 -51.560   6.262  1.00  0.00     0.000 C 
BRANCH  15  16
ATOM     16  C   UNL     1      -2.136 -50.628   7.169  1.00  0.00    -0.000 C 
BRANCH  16  17
ATOM     17  C   UNL     1      -2.641 -51.333   8.437  1.00  0.00    -0.003 C 
ATOM     18  C   UNL     1      -4.150 -51.190   8.631  1.00  0.00     0.004 C 
ENDBRANCH  16  17
ENDBRANCH  15  16
ENDBRANCH  14  15
ENDBRANCH  13  14
ENDBRANCH  12  13
ENDBRANCH  10  11
ENDBRANCH   1  10
TORSDOF 13
ENDMDL
MODEL 4
REMARK VINA RESULT:    -2.620      1.159      1.537
REMARK INTER + INTRA:          -5.922
REMARK INTER:                  -5.403
REMARK INTRA:                  -0.519
REMARK UNBOUND:                -1.311
REMARK SMILES CCCCCCC=CCCCCCCCC(=O)[O-]
REMARK SMILES IDX 10 1 11 2 12 3 13 4 14 5 15 6 16 7 17 8 18 9 9 10 8 11 7 12
REMARK SMILES IDX 6 13 5 14 4 15 3 16 2 17 1 18
REMARK H PARENT
REMARK Flexibility Score: inf
ROOT
ATOM      1  C   UNL     1      -2.527 -50.417   1.205  1.00  0.00     0.004 C 
ENDROOT
BRANCH   1   2
ATOM      2  C   UNL     1      -1.117 -50.890   1.592  1.00  0.00     0.000 C 
BRANCH   2   3
ATOM      3  C   UNL     1      -0.871 -50.836   3.111  1.00  0.00     0.000 C 
BRANCH   3   4
ATOM      4  C   UNL     1      -1.310 -52.123   3.826  1.00  0.00     0.000 C 
BRANCH   4   5
ATOM      5  C   UNL     1      -2.235 -51.847   5.023  1.00  0.00     0.006 C 
BRANCH   5   6
ATOM      6  C   UNL     1      -1.441 -51.823   6.333  1.00  0.00     0.053 C 
BRANCH   6   7
ATOM      7  C   UNL     1      -2.215 -51.117   7.402  1.00  0.00     0.041 C 
ATOM      8  O   UNL     1      -3.140 -50.321   7.093  1.00  0.00    -0.550 OA
ATOM      9  O   UNL     1      -1.949 -51.379   8.740  1.00  0.00    -0.550 OA
ENDBRANCH   6   7
ENDBRANCH   5   6
ENDBRANCH   4   5
ENDBRANCH   3   4
ENDBRANCH   2   3
ENDBRANCH   1   2
BRANCH   1  10
ATOM     10  C   UNL     1      -3.632 -51.185   1.946  1.00  0.00     0.027 C 
BRANCH  10  11
ATOM     11  C   UNL     1      -4.523 -51.915   0.980  1.00  0.00    -0.031 C 
ATOM     12  C   UNL     1      -5.512 -51.288   0.324  1.00  0.00    -0.031 C 
BRANCH  12  13
ATOM     13  C   UNL     1      -6.412 -52.022  -0.630  1.00  0.00     0.027 C 
BRANCH  13  14
ATOM     14  C   UNL     1      -7.839 -52.125  -0.076  1.00  0.00     0.004 C 
BRANCH  14  15
ATOM     15  C   UNL     1      -8.112 -51.018   0.951  1.00  0.00     0.000 C 
BRANCH  15  16
ATOM     16  C   UNL     1      -8.624 -51.610   2.272  1.00  0.00    -0.000 C 
BRANCH  16  17
ATOM     17  C   UNL     1      -8.805 -50.545   3.365  1.00  0.00    -0.003 C 
ATOM     18  C   UNL     1      -7.888 -50.768   4.567  1.00  0.00     0.004 C 
ENDBRANCH  16  17
ENDBRANCH  15  16
ENDBRANCH  14  15
ENDBRANCH  13  14
ENDBRANCH  12  13
ENDBRANCH  10  11
ENDBRANCH   1  10
TORSDOF 13
ENDMDL
MODEL 5
REMARK VINA RESULT:    -2.609      2.167      4.355
REMARK INTER + INTRA:          -5.902
REMARK INTER:                  -4.869
REMARK INTRA:                  -1.033
REMARK UNBOUND:                -1.311
REMARK SMILES CCCCCCC=CCCCCCCCC(=O)[O-]
REMARK SMILES IDX 10 1 11 2 12 3 13 4 14 5 15 6 16 7 17 8 18 9 9 10 8 11 7 12
REMARK SMILES IDX 6 13 5 14 4 15 3 16 2 17 1 18
REMARK H PARENT
REMARK Flexibility Score: inf
ROOT
ATOM      1  C   UNL     1      -3.629 -50.893   5.781  1.00  0.00     0.004 C 
ENDROOT
BRANCH   1   2
ATOM      2  C   UNL     1      -2.820 -51.463   6.958  1.00  0.00     0.000 C 
BRANCH   2   3
ATOM      3  C   UNL     1      -3.403 -51.062   8.326  1.00  0.00     0.000 C 
BRANCH   3   4
ATOM      4  C   UNL     1      -4.358 -52.124   8.893  1.00  0.00     0.000 C 
BRANCH   4   5
ATOM      5  C   UNL     1      -5.172 -51.606  10.090  1.00  0.00     0.006 C 
BRANCH   5   6
ATOM      6  C   UNL     1      -5.962 -50.350   9.712  1.00  0.00     0.053 C 
BRANCH   6   7
ATOM      7  C   UNL     1      -7.316 -50.719   9.194  1.00  0.00     0.041 C 
ATOM      8  O   UNL     1      -8.311 -50.720   9.965  1.00  0.00    -0.550 OA
ATOM      9  O   UNL     1      -7.489 -51.011   7.846  1.00  0.00    -0.550 OA
ENDBRANCH   6   7
ENDBRANCH   5   6
ENDBRANCH   4   5
ENDBRANCH   3   4
ENDBRANCH   2   3
ENDBRANCH   1   2
BRANCH   1  10
ATOM     10  C   UNL     1      -4.179 -51.989   4.857  1.00  0.00     0.027 C 
BRANCH  10  11
ATOM     11  C   UNL     1      -4.095 -51.571   3.415  1.00  0.00    -0.031 C 
ATOM     12  C   UNL     1      -3.040 -51.892   2.650  1.00  0.00    -0.031 C 
BRANCH  12  13
ATOM     13  C   UNL     1      -2.950 -51.460   1.213  1.00  0.00     0.027 C 
BRANCH  13  14
ATOM     14  C   UNL     1      -4.095 -52.057   0.385  1.00  0.00     0.004 C 
BRANCH  14  15
ATOM     15  C   UNL     1      -4.945 -50.952  -0.255  1.00  0.00     0.000 C 
BRANCH  15  16
ATOM     16  C   UNL     1      -6.415 -51.383  -0.361  1.00  0.00    -0.000 C 
BRANCH  16  17
ATOM     17  C   UNL     1      -6.904 -52.125   0.893  1.00  0.00    -0.003 C 
ATOM     18  C   UNL     1      -7.934 -51.325   1.690  1.00  0.00     0.004 C 
ENDBRANCH  16  17
ENDBRANCH  15  16
ENDBRANCH  14  15
ENDBRANCH  13  14
ENDBRANCH  12  13
ENDBRANCH  10  11
ENDBRANCH   1  10
TORSDOF 13
ENDMDL
MODEL 6
REMARK VINA RESULT:    -2.491      2.753      6.188
REMARK INTER + INTRA:          -5.694
REMARK INTER:                  -4.723
REMARK INTRA:                  -0.971
REMARK UNBOUND:                -1.311
REMARK SMILES CCCCCCC=CCCCCCCCC(=O)[O-]
REMARK SMILES IDX 10 1 11 2 12 3 13 4 14 5 15 6 16 7 17 8 18 9 9 10 8 11 7 12
REMARK SMILES IDX 6 13 5 14 4 15 3 16 2 17 1 18
REMARK H PARENT
REMARK Flexibility Score: inf
ROOT
ATOM      1  C   UNL     1      -3.243 -51.249   4.120  1.00  0.00     0.004 C 
ENDROOT
BRANCH   1   2
ATOM      2  C   UNL     1      -3.752 -52.001   2.880  1.00  0.00     0.000 C 
BRANCH   2   3
ATOM      3  C   UNL     1      -3.594 -51.184   1.585  1.00  0.00     0.000 C 
BRANCH   3   4
ATOM      4  C   UNL     1      -4.691 -51.494   0.554  1.00  0.00     0.000 C 
BRANCH   4   5
ATOM      5  C   UNL     1      -5.939 -52.125   1.192  1.00  0.00     0.006 C 
BRANCH   5   6
ATOM      6  C   UNL     1      -7.029 -51.073   1.416  1.00  0.00     0.053 C 
BRANCH   6   7
ATOM      7  C   UNL     1      -7.852 -51.419   2.617  1.00  0.00     0.041 C 
ATOM      8  O   UNL     1      -9.092 -51.201   2.620  1.00  0.00    -0.550 OA
ATOM      9  O   UNL     1      -7.258 -52.030   3.715  1.00  0.00    -0.550 OA
ENDBRANCH   6   7
ENDBRANCH   5   6
ENDBRANCH   4   5
ENDBRANCH   3   4
ENDBRANCH   2   3
ENDBRANCH   1   2
BRANCH   1  10
ATOM     10  C   UNL     1      -1.755 -51.508   4.399  1.00  0.00     0.027 C 
BRANCH  10  11
ATOM     11  C   UNL     1      -1.534 -51.885   5.837  1.00  0.00    -0.031 C 
ATOM     12  C   UNL     1      -2.461 -51.646   6.778  1.00  0.00    -0.031 C 
BRANCH  12  13
ATOM     13  C   UNL     1      -2.232 -52.009   8.218  1.00  0.00     0.027 C 
BRANCH  13  14
ATOM     14  C   UNL     1      -3.320 -51.411   9.118  1.00  0.00     0.004 C 
BRANCH  14  15
ATOM     15  C   UNL     1      -4.720 -51.761   8.598  1.00  0.00     0.000 C 
BRANCH  15  16
ATOM     16  C   UNL     1      -5.765 -50.765   9.122  1.00  0.00    -0.000 C 
BRANCH  16  17
ATOM     17  C   UNL     1      -7.205 -51.223   8.847  1.00  0.00    -0.003 C 
ATOM     18  C   UNL     1      -7.343 -51.985   7.529  1.00  0.00     0.004 C 
ENDBRANCH  16  17
ENDBRANCH  15  16
ENDBRANCH  14  15
ENDBRANCH  13  14
ENDBRANCH  12  13
ENDBRANCH  10  11
ENDBRANCH   1  10
TORSDOF 13
ENDMDL
MODEL 7
REMARK VINA RESULT:    -2.354      3.652      6.690
REMARK INTER + INTRA:          -5.454
REMARK INTER:                  -5.177
REMARK INTRA:                  -0.278
REMARK UNBOUND:                -1.311
REMARK SMILES CCCCCCC=CCCCCCCCC(=O)[O-]
REMARK SMILES IDX 10 1 11 2 12 3 13 4 14 5 15 6 16 7 17 8 18 9 9 10 8 11 7 12
REMARK SMILES IDX 6 13 5 14 4 15 3 16 2 17 1 18
REMARK H PARENT
REMARK Flexibility Score: inf
ROOT
ATOM      1  C   UNL     1      -2.665 -52.125   3.600  1.00  0.00     0.004 C 
ENDROOT
BRANCH   1   2
ATOM      2  C   UNL     1      -3.302 -50.888   2.949  1.00  0.00     0.000 C 
BRANCH   2   3
ATOM      3  C   UNL     1      -2.596 -50.475   1.644  1.00  0.00     0.000 C 
BRANCH   3   4
ATOM      4  C   UNL     1      -2.454 -51.643   0.655  1.00  0.00     0.000 C 
BRANCH   4   5
ATOM      5  C   UNL     1      -3.731 -51.879  -0.167  1.00  0.00     0.006 C 
BRANCH   5   6
ATOM      6  C   UNL     1      -4.936 -52.112   0.750  1.00  0.00     0.053 C 
BRANCH   6   7
ATOM      7  C   UNL     1      -6.205 -52.110  -0.043  1.00  0.00     0.041 C 
ATOM      8  O   UNL     1      -7.319 -52.089   0.544  1.00  0.00    -0.550 OA
ATOM      9  O   UNL     1      -6.158 -52.081  -1.431  1.00  0.00    -0.550 OA
ENDBRANCH   6   7
ENDBRANCH   5   6
ENDBRANCH   4   5
ENDBRANCH   3   4
ENDBRANCH   2   3
ENDBRANCH   1   2
BRANCH   1  10
ATOM     10  C   UNL     1      -1.292 -51.825   4.221  1.00  0.00     0.027 C 
BRANCH  10  11
ATOM     11  C   UNL     1      -1.440 -51.195   5.578  1.00  0.00    -0.031 C 
ATOM     12  C   UNL     1      -1.805 -51.913   6.651  1.00  0.00    -0.031 C 
BRANCH  12  13
ATOM     13  C   UNL     1      -1.968 -51.279   8.004  1.00  0.00     0.027 C 
BRANCH  13  14
ATOM     14  C   UNL     1      -2.929 -52.090   8.883  1.00  0.00     0.004 C 
BRANCH  14  15
ATOM     15  C   UNL     1      -4.202 -51.290   9.188  1.00  0.00     0.000 C 
BRANCH  15  16
ATOM     16  C   UNL     1      -5.363 -51.744   8.291  1.00  0.00    -0.000 C 
BRANCH  16  17
ATOM     17  C   UNL     1      -6.697 -51.825   9.049  1.00  0.00    -0.003 C 
ATOM     18  C   UNL     1      -7.444 -50.492   9.076  1.00  0.00     0.004 C 
ENDBRANCH  16  17
ENDBRANCH  15  16
ENDBRANCH  14  15
ENDBRANCH  13  14
ENDBRANCH  12  13
ENDBRANCH  10  11
ENDBRANCH   1  10
TORSDOF 13
ENDMDL
MODEL 8
REMARK VINA RESULT:    -2.176      1.740      3.369
REMARK INTER + INTRA:          -5.140
REMARK INTER:                  -4.577
REMARK INTRA:                  -0.563
REMARK UNBOUND:                -1.311
REMARK SMILES CCCCCCC=CCCCCCCCC(=O)[O-]
REMARK SMILES IDX 10 1 11 2 12 3 13 4 14 5 15 6 16 7 17 8 18 9 9 10 8 11 7 12
REMARK SMILES IDX 6 13 5 14 4 15 3 16 2 17 1 18
REMARK H PARENT
REMARK Flexibility Score: inf
ROOT
ATOM      1  C   UNL     1      -3.768 -51.018   0.185  1.00  0.00     0.004 C 
ENDROOT
BRANCH   1   2
ATOM      2  C   UNL     1      -2.322 -50.769   0.642  1.00  0.00     0.000 C 
BRANCH   2   3
ATOM      3  C   UNL     1      -1.857 -51.777   1.710  1.00  0.00     0.000 C 
BRANCH   3   4
ATOM      4  C   UNL     1      -2.154 -51.300   3.140  1.00  0.00     0.000 C 
BRANCH   4   5
ATOM      5  C   UNL     1      -1.362 -52.084   4.200  1.00  0.00     0.006 C 
BRANCH   5   6
ATOM      6  C   UNL     1      -0.946 -51.171   5.357  1.00  0.00     0.053 C 
BRANCH   6   7
ATOM      7  C   UNL     1      -1.886 -51.327   6.511  1.00  0.00     0.041 C 
ATOM      8  O   UNL     1      -3.130 -51.255   6.330  1.00  0.00    -0.550 OA
ATOM      9  O   UNL     1      -1.389 -51.603   7.779  1.00  0.00    -0.550 OA
ENDBRANCH   6   7
ENDBRANCH   5   6
ENDBRANCH   4   5
ENDBRANCH   3   4
ENDBRANCH   2   3
ENDBRANCH   1   2
BRANCH   1  10
ATOM     10  C   UNL     1      -4.461 -52.125   0.994  1.00  0.00     0.027 C 
BRANCH  10  11
ATOM     11  C   UNL     1      -5.424 -51.542   1.991  1.00  0.00    -0.031 C 
ATOM     12  C   UNL     1      -5.414 -51.915   3.280  1.00  0.00    -0.031 C 
BRANCH  12  13
ATOM     13  C   UNL     1      -6.387 -51.343   4.272  1.00  0.00     0.027 C 
BRANCH  13  14
ATOM     14  C   UNL     1      -6.298 -52.073   5.618  1.00  0.00     0.004 C 
BRANCH  14  15
ATOM     15  C   UNL     1      -7.596 -51.912   6.419  1.00  0.00     0.000 C 
BRANCH  15  16
ATOM     16  C   UNL     1      -7.323 -51.991   7.928  1.00  0.00    -0.000 C 
BRANCH  16  17
ATOM     17  C   UNL     1      -5.826 -52.125   8.250  1.00  0.00    -0.003 C 
ATOM     18  C   UNL     1      -5.341 -51.079   9.253  1.00  0.00     0.004 C 
ENDBRANCH  16  17
ENDBRANCH  15  16
ENDBRANCH  14  15
ENDBRANCH  13  14
ENDBRANCH  12  13
ENDBRANCH  10  11
ENDBRANCH   1  10
TORSDOF 13
ENDMDL
