MODEL 1
REMARK VINA RESULT:    -4.838      0.000      0.000
REMARK INTER + INTRA:          -7.562
REMARK INTER:                  -6.817
REMARK INTRA:                  -0.745
REMARK UNBOUND:                -0.745
REMARK SMILES CCCCCCCCC(=O)[O-]
REMARK SMILES IDX 6 1 7 2 8 3 9 4 10 5 11 6 5 7 4 8 3 9 2 10 1 11
REMARK H PARENT
REMARK Flexibility Score: inf
ROOT
ATOM      1  C   UNL     1     220.818  -6.868  23.941  1.00  0.00     0.000 C 
ENDROOT
BRANCH   1   2
ATOM      2  C   UNL     1     220.381  -7.851  22.845  1.00  0.00     0.006 C 
BRANCH   2   3
ATOM      3  C   UNL     1     221.089  -9.208  22.966  1.00  0.00     0.053 C 
BRANCH   3   4
ATOM      4  C   UNL     1     220.459 -10.073  24.014  1.00  0.00     0.041 C 
ATOM      5  O   UNL     1     219.296 -10.527  23.845  1.00  0.00    -0.550 OA
ATOM      6  O   UNL     1     221.141 -10.352  25.191  1.00  0.00    -0.550 OA
ENDBRANCH   3   4
ENDBRANCH   2   3
ENDBRANCH   1   2
BRANCH   1   7
ATOM      7  C   UNL     1     219.642  -6.520  24.867  1.00  0.00     0.000 C 
BRANCH   7   8
ATOM      8  C   UNL     1     218.281  -6.923  24.277  1.00  0.00    -0.000 C 
BRANCH   8   9
ATOM      9  C   UNL     1     217.406  -7.694  25.281  1.00  0.00    -0.000 C 
BRANCH   9  10
ATOM     10  C   UNL     1     218.218  -8.248  26.464  1.00  0.00    -0.003 C 
ATOM     11  C   UNL     1     217.354  -8.994  27.480  1.00  0.00     0.004 C 
ENDBRANCH   9  10
ENDBRANCH   8   9
ENDBRANCH   7   8
ENDBRANCH   1   7
TORSDOF 7
ENDMDL
MODEL 2
REMARK VINA RESULT:    -4.761      1.328      1.846
REMARK INTER + INTRA:          -7.455
REMARK INTER:                  -6.551
REMARK INTRA:                  -0.904
REMARK UNBOUND:                -0.745
REMARK SMILES CCCCCCCCC(=O)[O-]
REMARK SMILES IDX 6 1 7 2 8 3 9 4 10 5 11 6 5 7 4 8 3 9 2 10 1 11
REMARK H PARENT
REMARK Flexibility Score: inf
ROOT
ATOM      1  C   UNL     1     221.662  -8.026  24.231  1.00  0.00     0.000 C 
ENDROOT
BRANCH   1   2
ATOM      2  C   UNL     1     221.388  -9.281  23.388  1.00  0.00     0.006 C 
BRANCH   2   3
ATOM      3  C   UNL     1     220.353 -10.206  24.043  1.00  0.00     0.053 C 
BRANCH   3   4
ATOM      4  C   UNL     1     219.072 -10.244  23.268  1.00  0.00     0.041 C 
ATOM      5  O   UNL     1     219.027  -9.784  22.096  1.00  0.00    -0.550 OA
ATOM      6  O   UNL     1     217.919 -10.755  23.851  1.00  0.00    -0.550 OA
ENDBRANCH   3   4
ENDBRANCH   2   3
ENDBRANCH   1   2
BRANCH   1   7
ATOM      7  C   UNL     1     220.728  -6.877  23.822  1.00  0.00     0.000 C 
BRANCH   7   8
ATOM      8  C   UNL     1     219.699  -6.531  24.910  1.00  0.00    -0.000 C 
BRANCH   8   9
ATOM      9  C   UNL     1     218.266  -6.928  24.516  1.00  0.00    -0.000 C 
BRANCH   9  10
ATOM     10  C   UNL     1     217.535  -7.682  25.639  1.00  0.00    -0.003 C 
ATOM     11  C   UNL     1     218.491  -8.394  26.596  1.00  0.00     0.004 C 
ENDBRANCH   9  10
ENDBRANCH   8   9
ENDBRANCH   7   8
ENDBRANCH   1   7
TORSDOF 7
ENDMDL
MODEL 3
REMARK VINA RESULT:    -4.758      1.975      2.747
REMARK INTER + INTRA:          -7.450
REMARK INTER:                  -6.792
REMARK INTRA:                  -0.658
REMARK UNBOUND:                -0.745
REMARK SMILES CCCCCCCCC(=O)[O-]
REMARK SMILES IDX 6 1 7 2 8 3 9 4 10 5 11 6 5 7 4 8 3 9 2 10 1 11
REMARK H PARENT
REMARK Flexibility Score: inf
ROOT
ATOM      1  C   UNL     1     219.217  -6.412  24.987  1.00  0.00     0.000 C 
ENDROOT
BRANCH   1   2
ATOM      2  C   UNL     1     220.496  -7.252  24.841  1.00  0.00     0.006 C 
BRANCH   2   3
ATOM      3  C   UNL     1     221.050  -7.219  23.410  1.00  0.00     0.053 C 
BRANCH   3   4
ATOM      4  C   UNL     1     221.642  -8.537  23.013  1.00  0.00     0.041 C 
ATOM      5  O   UNL     1     222.371  -8.621  21.989  1.00  0.00    -0.550 OA
ATOM      6  O   UNL     1     221.363  -9.679  23.754  1.00  0.00    -0.550 OA
ENDBRANCH   3   4
ENDBRANCH   2   3
ENDBRANCH   1   2
BRANCH   1   7
ATOM      7  C   UNL     1     217.973  -7.313  25.035  1.00  0.00     0.000 C 
BRANCH   7   8
ATOM      8  C   UNL     1     217.257  -7.411  23.678  1.00  0.00    -0.000 C 
BRANCH   8   9
ATOM      9  C   UNL     1     217.663  -8.667  22.886  1.00  0.00    -0.000 C 
BRANCH   9  10
ATOM     10  C   UNL     1     217.889  -9.887  23.794  1.00  0.00    -0.003 C 
ATOM     11  C   UNL     1     217.885 -11.208  23.025  1.00  0.00     0.004 C 
ENDBRANCH   9  10
ENDBRANCH   8   9
ENDBRANCH   7   8
ENDBRANCH   1   7
TORSDOF 7
ENDMDL
MODEL 4
REMARK VINA RESULT:    -4.719      1.461      2.255
REMARK INTER + INTRA:          -7.395
REMARK INTER:                  -6.765
REMARK INTRA:                  -0.631
REMARK UNBOUND:                -0.745
REMARK SMILES CCCCCCCCC(=O)[O-]
REMARK SMILES IDX 6 1 7 2 8 3 9 4 10 5 11 6 5 7 4 8 3 9 2 10 1 11
REMARK H PARENT
REMARK Flexibility Score: inf
ROOT
ATOM      1  C   UNL     1     219.008  -6.475  25.099  1.00  0.00     0.000 C 
ENDROOT
BRANCH   1   2
ATOM      2  C   UNL     1     220.365  -7.184  24.971  1.00  0.00     0.006 C 
BRANCH   2   3
ATOM      3  C   UNL     1     220.892  -7.173  23.530  1.00  0.00     0.053 C 
BRANCH   3   4
ATOM      4  C   UNL     1     221.156  -8.559  23.024  1.00  0.00     0.041 C 
ATOM      5  O   UNL     1     220.212  -9.387  22.926  1.00  0.00    -0.550 OA
ATOM      6  O   UNL     1     222.448  -8.946  22.693  1.00  0.00    -0.550 OA
ENDBRANCH   3   4
ENDBRANCH   2   3
ENDBRANCH   1   2
BRANCH   1   7
ATOM      7  C   UNL     1     217.854  -7.489  25.058  1.00  0.00     0.000 C 
BRANCH   7   8
ATOM      8  C   UNL     1     218.136  -8.746  25.896  1.00  0.00    -0.000 C 
BRANCH   8   9
ATOM      9  C   UNL     1     217.256  -8.824  27.156  1.00  0.00    -0.000 C 
BRANCH   9  10
ATOM     10  C   UNL     1     218.076  -8.719  28.453  1.00  0.00    -0.003 C 
ATOM     11  C   UNL     1     218.526  -7.290  28.756  1.00  0.00     0.004 C 
ENDBRANCH   9  10
ENDBRANCH   8   9
ENDBRANCH   7   8
ENDBRANCH   1   7
TORSDOF 7
ENDMDL
MODEL 5
REMARK VINA RESULT:    -4.683      2.114      3.784
REMARK INTER + INTRA:          -7.345
REMARK INTER:                  -6.481
REMARK INTRA:                  -0.863
REMARK UNBOUND:                -0.745
REMARK SMILES CCCCCCCCC(=O)[O-]
REMARK SMILES IDX 6 1 7 2 8 3 9 4 10 5 11 6 5 7 4 8 3 9 2 10 1 11
REMARK H PARENT
REMARK Flexibility Score: inf
ROOT
ATOM      1  C   UNL     1     221.363  -7.813  24.222  1.00  0.00     0.000 C 
ENDROOT
BRANCH   1   2
ATOM      2  C   UNL     1     220.537  -6.545  23.957  1.00  0.00     0.006 C 
BRANCH   2   3
ATOM      3  C   UNL     1     219.447  -6.330  25.015  1.00  0.00     0.053 C 
BRANCH   3   4
ATOM      4  C   UNL     1     218.251  -7.197  24.767  1.00  0.00     0.041 C 
ATOM      5  O   UNL     1     218.020  -8.185  25.514  1.00  0.00    -0.550 OA
ATOM      6  O   UNL     1     217.411  -6.936  23.692  1.00  0.00    -0.550 OA
ENDBRANCH   3   4
ENDBRANCH   2   3
ENDBRANCH   1   2
BRANCH   1   7
ATOM      7  C   UNL     1     221.297  -8.771  23.022  1.00  0.00     0.000 C 
BRANCH   7   8
ATOM      8  C   UNL     1     220.502  -8.192  21.841  1.00  0.00    -0.000 C 
BRANCH   8   9
ATOM      9  C   UNL     1     219.237  -9.009  21.524  1.00  0.00    -0.000 C 
BRANCH   9  10
ATOM     10  C   UNL     1     218.945 -10.079  22.588  1.00  0.00    -0.003 C 
ATOM     11  C   UNL     1     217.458 -10.411  22.704  1.00  0.00     0.004 C 
ENDBRANCH   9  10
ENDBRANCH   8   9
ENDBRANCH   7   8
ENDBRANCH   1   7
TORSDOF 7
ENDMDL
MODEL 6
REMARK VINA RESULT:    -4.668      1.606      2.578
REMARK INTER + INTRA:          -7.323
REMARK INTER:                  -6.847
REMARK INTRA:                  -0.476
REMARK UNBOUND:                -0.745
REMARK SMILES CCCCCCCCC(=O)[O-]
REMARK SMILES IDX 6 1 7 2 8 3 9 4 10 5 11 6 5 7 4 8 3 9 2 10 1 11
REMARK H PARENT
REMARK Flexibility Score: inf
ROOT
ATOM      1  C   UNL     1     218.848  -6.641  24.947  1.00  0.00     0.000 C 
ENDROOT
BRANCH   1   2
ATOM      2  C   UNL     1     217.783  -7.240  24.016  1.00  0.00     0.006 C 
BRANCH   2   3
ATOM      3  C   UNL     1     218.401  -8.093  22.900  1.00  0.00     0.053 C 
BRANCH   3   4
ATOM      4  C   UNL     1     218.751  -9.468  23.381  1.00  0.00     0.041 C 
ATOM      5  O   UNL     1     219.933  -9.892  23.280  1.00  0.00    -0.550 OA
ATOM      6  O   UNL     1     217.767 -10.295  23.909  1.00  0.00    -0.550 OA
ENDBRANCH   3   4
ENDBRANCH   2   3
ENDBRANCH   1   2
BRANCH   1   7
ATOM      7  C   UNL     1     218.730  -7.226  26.363  1.00  0.00     0.000 C 
BRANCH   7   8
ATOM      8  C   UNL     1     217.444  -8.044  26.563  1.00  0.00    -0.000 C 
BRANCH   8   9
ATOM      9  C   UNL     1     217.542  -9.019  27.750  1.00  0.00    -0.000 C 
BRANCH   9  10
ATOM     10  C   UNL     1     218.147  -8.362  29.001  1.00  0.00    -0.003 C 
ATOM     11  C   UNL     1     218.557  -9.380  30.066  1.00  0.00     0.004 C 
ENDBRANCH   9  10
ENDBRANCH   8   9
ENDBRANCH   7   8
ENDBRANCH   1   7
TORSDOF 7
ENDMDL
MODEL 7
REMARK VINA RESULT:    -4.615      2.779      4.235
REMARK INTER + INTRA:          -7.248
REMARK INTER:                  -6.523
REMARK INTRA:                  -0.725
REMARK UNBOUND:                -0.745
REMARK SMILES CCCCCCCCC(=O)[O-]
REMARK SMILES IDX 6 1 7 2 8 3 9 4 10 5 11 6 5 7 4 8 3 9 2 10 1 11
REMARK H PARENT
REMARK Flexibility Score: inf
ROOT
ATOM      1  C   UNL     1     218.234  -7.103  25.208  1.00  0.00     0.000 C 
ENDROOT
BRANCH   1   2
ATOM      2  C   UNL     1     217.497  -7.886  26.306  1.00  0.00     0.006 C 
BRANCH   2   3
ATOM      3  C   UNL     1     218.438  -8.809  27.092  1.00  0.00     0.053 C 
BRANCH   3   4
ATOM      4  C   UNL     1     218.400  -8.522  28.562  1.00  0.00     0.041 C 
ATOM      5  O   UNL     1     218.304  -7.335  28.973  1.00  0.00    -0.550 OA
ATOM      6  O   UNL     1     218.504  -9.561  29.478  1.00  0.00    -0.550 OA
ENDBRANCH   3   4
ENDBRANCH   2   3
ENDBRANCH   1   2
BRANCH   1   7
ATOM      7  C   UNL     1     217.499  -7.220  23.864  1.00  0.00     0.000 C 
BRANCH   7   8
ATOM      8  C   UNL     1     218.223  -8.140  22.868  1.00  0.00    -0.000 C 
BRANCH   8   9
ATOM      9  C   UNL     1     217.481  -9.469  22.643  1.00  0.00    -0.000 C 
BRANCH   9  10
ATOM     10  C   UNL     1     217.974 -10.583  23.581  1.00  0.00    -0.003 C 
ATOM     11  C   UNL     1     219.480 -10.524  23.832  1.00  0.00     0.004 C 
ENDBRANCH   9  10
ENDBRANCH   8   9
ENDBRANCH   7   8
ENDBRANCH   1   7
TORSDOF 7
ENDMDL
MODEL 8
REMARK VINA RESULT:    -4.571      2.487      3.577
REMARK INTER + INTRA:          -7.186
REMARK INTER:                  -6.436
REMARK INTRA:                  -0.750
REMARK UNBOUND:                -0.745
REMARK SMILES CCCCCCCCC(=O)[O-]
REMARK SMILES IDX 6 1 7 2 8 3 9 4 10 5 11 6 5 7 4 8 3 9 2 10 1 11
REMARK H PARENT
REMARK Flexibility Score: inf
ROOT
ATOM      1  C   UNL     1     221.528  -9.089  22.973  1.00  0.00     0.000 C 
ENDROOT
BRANCH   1   2
ATOM      2  C   UNL     1     221.661  -8.076  24.120  1.00  0.00     0.006 C 
BRANCH   2   3
ATOM      3  C   UNL     1     220.813  -6.818  23.885  1.00  0.00     0.053 C 
BRANCH   3   4
ATOM      4  C   UNL     1     219.736  -6.673  24.917  1.00  0.00     0.041 C 
ATOM      5  O   UNL     1     218.541  -6.490  24.564  1.00  0.00    -0.550 OA
ATOM      6  O   UNL     1     220.056  -6.706  26.268  1.00  0.00    -0.550 OA
ENDBRANCH   3   4
ENDBRANCH   2   3
ENDBRANCH   1   2
BRANCH   1   7
ATOM      7  C   UNL     1     221.059  -8.398  21.682  1.00  0.00     0.000 C 
BRANCH   7   8
ATOM      8  C   UNL     1     219.808  -9.055  21.077  1.00  0.00    -0.000 C 
BRANCH   8   9
ATOM      9  C   UNL     1     218.552  -8.838  21.939  1.00  0.00    -0.000 C 
BRANCH   9  10
ATOM     10  C   UNL     1     218.035 -10.144  22.564  1.00  0.00    -0.003 C 
ATOM     11  C   UNL     1     217.987 -10.093  24.091  1.00  0.00     0.004 C 
ENDBRANCH   9  10
ENDBRANCH   8   9
ENDBRANCH   7   8
ENDBRANCH   1   7
TORSDOF 7
ENDMDL
MODEL 9
REMARK VINA RESULT:    -4.520      1.588      2.315
REMARK INTER + INTRA:          -7.115
REMARK INTER:                  -6.259
REMARK INTRA:                  -0.856
REMARK UNBOUND:                -0.745
REMARK SMILES CCCCCCCCC(=O)[O-]
REMARK SMILES IDX 6 1 7 2 8 3 9 4 10 5 11 6 5 7 4 8 3 9 2 10 1 11
REMARK H PARENT
REMARK Flexibility Score: inf
ROOT
ATOM      1  C   UNL     1     219.708  -8.335  21.670  1.00  0.00     0.000 C 
ENDROOT
BRANCH   1   2
ATOM      2  C   UNL     1     221.095  -8.721  22.206  1.00  0.00     0.006 C 
BRANCH   2   3
ATOM      3  C   UNL     1     221.476  -7.923  23.460  1.00  0.00     0.053 C 
BRANCH   3   4
ATOM      4  C   UNL     1     221.497  -8.787  24.685  1.00  0.00     0.041 C 
ATOM      5  O   UNL     1     220.972  -9.932  24.661  1.00  0.00    -0.550 OA
ATOM      6  O   UNL     1     222.066  -8.315  25.861  1.00  0.00    -0.550 OA
ENDBRANCH   3   4
ENDBRANCH   2   3
ENDBRANCH   1   2
BRANCH   1   7
ATOM      7  C   UNL     1     218.668  -9.412  22.015  1.00  0.00     0.000 C 
BRANCH   7   8
ATOM      8  C   UNL     1     217.806  -9.039  23.232  1.00  0.00    -0.000 C 
BRANCH   8   9
ATOM      9  C   UNL     1     217.694  -7.517  23.431  1.00  0.00    -0.000 C 
BRANCH   9  10
ATOM     10  C   UNL     1     218.138  -7.074  24.835  1.00  0.00    -0.003 C 
ATOM     11  C   UNL     1     217.765  -8.083  25.921  1.00  0.00     0.004 C 
ENDBRANCH   9  10
ENDBRANCH   8   9
ENDBRANCH   7   8
ENDBRANCH   1   7
TORSDOF 7
ENDMDL
