MODEL 1
REMARK VINA RESULT:    -3.210      0.000      0.000
REMARK INTER + INTRA:          -4.891
REMARK INTER:                  -4.524
REMARK INTRA:                  -0.367
REMARK UNBOUND:                -0.367
REMARK SMILES CCCCCCCCC(=O)[O-]
REMARK SMILES IDX 6 1 7 2 8 3 9 4 10 5 11 6 5 7 4 8 3 9 2 10 1 11
REMARK H PARENT
REMARK Flexibility Score: inf
ROOT
ATOM      1  C   UNL     1      49.262  44.526  14.959  1.00  0.00     0.000 C 
ENDROOT
BRANCH   1   2
ATOM      2  C   UNL     1      50.206  45.445  14.176  1.00  0.00     0.006 C 
BRANCH   2   3
ATOM      3  C   UNL     1      49.907  46.918  14.468  1.00  0.00     0.053 C 
BRANCH   3   4
ATOM      4  C   UNL     1      50.825  47.804  13.688  1.00  0.00     0.041 C 
ATOM      5  O   UNL     1      50.860  49.042  13.919  1.00  0.00    -0.550 OA
ATOM      6  O   UNL     1      51.681  47.257  12.740  1.00  0.00    -0.550 OA
ENDBRANCH   3   4
ENDBRANCH   2   3
ENDBRANCH   1   2
BRANCH   1   7
ATOM      7  C   UNL     1      47.851  45.122  15.038  1.00  0.00     0.000 C 
BRANCH   7   8
ATOM      8  C   UNL     1      46.785  44.051  14.786  1.00  0.00    -0.000 C 
BRANCH   8   9
ATOM      9  C   UNL     1      47.427  42.714  14.394  1.00  0.00    -0.000 C 
BRANCH   9  10
ATOM     10  C   UNL     1      46.473  41.545  14.663  1.00  0.00    -0.003 C 
ATOM     11  C   UNL     1      45.164  42.032  15.277  1.00  0.00     0.004 C 
ENDBRANCH   9  10
ENDBRANCH   8   9
ENDBRANCH   7   8
ENDBRANCH   1   7
TORSDOF 7
ENDMDL
MODEL 2
REMARK VINA RESULT:    -3.180      3.242      6.107
REMARK INTER + INTRA:          -4.849
REMARK INTER:                  -4.525
REMARK INTRA:                  -0.324
REMARK UNBOUND:                -0.367
REMARK SMILES CCCCCCCCC(=O)[O-]
REMARK SMILES IDX 6 1 7 2 8 3 9 4 10 5 11 6 5 7 4 8 3 9 2 10 1 11
REMARK H PARENT
REMARK Flexibility Score: inf
ROOT
ATOM      1  C   UNL     1      50.193  45.057  14.604  1.00  0.00     0.000 C 
ENDROOT
BRANCH   1   2
ATOM      2  C   UNL     1      48.735  44.788  14.994  1.00  0.00     0.006 C 
BRANCH   2   3
ATOM      3  C   UNL     1      48.454  43.284  15.063  1.00  0.00     0.053 C 
BRANCH   3   4
ATOM      4  C   UNL     1      47.124  42.971  14.453  1.00  0.00     0.041 C 
ATOM      5  O   UNL     1      46.919  41.848  13.919  1.00  0.00    -0.550 OA
ATOM      6  O   UNL     1      46.093  43.900  14.519  1.00  0.00    -0.550 OA
ENDBRANCH   3   4
ENDBRANCH   2   3
ENDBRANCH   1   2
BRANCH   1   7
ATOM      7  C   UNL     1      50.375  46.497  14.110  1.00  0.00     0.000 C 
BRANCH   7   8
ATOM      8  C   UNL     1      49.298  47.420  14.693  1.00  0.00    -0.000 C 
BRANCH   8   9
ATOM      9  C   UNL     1      49.131  48.681  13.836  1.00  0.00    -0.000 C 
BRANCH   9  10
ATOM     10  C   UNL     1      50.489  49.194  13.343  1.00  0.00    -0.003 C 
ATOM     11  C   UNL     1      50.401  49.690  11.903  1.00  0.00     0.004 C 
ENDBRANCH   9  10
ENDBRANCH   8   9
ENDBRANCH   7   8
ENDBRANCH   1   7
TORSDOF 7
ENDMDL
MODEL 3
REMARK VINA RESULT:    -3.163      0.984      1.409
REMARK INTER + INTRA:          -4.825
REMARK INTER:                  -4.492
REMARK INTRA:                  -0.333
REMARK UNBOUND:                -0.367
REMARK SMILES CCCCCCCCC(=O)[O-]
REMARK SMILES IDX 6 1 7 2 8 3 9 4 10 5 11 6 5 7 4 8 3 9 2 10 1 11
REMARK H PARENT
REMARK Flexibility Score: inf
ROOT
ATOM      1  C   UNL     1      49.803  45.116  14.497  1.00  0.00     0.000 C 
ENDROOT
BRANCH   1   2
ATOM      2  C   UNL     1      50.650  46.220  13.854  1.00  0.00     0.006 C 
BRANCH   2   3
ATOM      3  C   UNL     1      50.196  47.606  14.323  1.00  0.00     0.053 C 
BRANCH   3   4
ATOM      4  C   UNL     1      50.362  48.610  13.227  1.00  0.00     0.041 C 
ATOM      5  O   UNL     1      51.365  48.559  12.466  1.00  0.00    -0.550 OA
ATOM      6  O   UNL     1      49.384  49.574  13.013  1.00  0.00    -0.550 OA
ENDBRANCH   3   4
ENDBRANCH   2   3
ENDBRANCH   1   2
BRANCH   1   7
ATOM      7  C   UNL     1      48.452  45.664  14.972  1.00  0.00     0.000 C 
BRANCH   7   8
ATOM      8  C   UNL     1      47.448  44.530  15.204  1.00  0.00    -0.000 C 
BRANCH   8   9
ATOM      9  C   UNL     1      48.045  43.175  14.803  1.00  0.00    -0.000 C 
BRANCH   9  10
ATOM     10  C   UNL     1      47.039  42.348  13.994  1.00  0.00    -0.003 C 
ATOM     11  C   UNL     1      46.166  41.494  14.908  1.00  0.00     0.004 C 
ENDBRANCH   9  10
ENDBRANCH   8   9
ENDBRANCH   7   8
ENDBRANCH   1   7
TORSDOF 7
ENDMDL
MODEL 4
REMARK VINA RESULT:    -3.147     12.688     14.482
REMARK INTER + INTRA:          -4.802
REMARK INTER:                  -4.371
REMARK INTRA:                  -0.431
REMARK UNBOUND:                -0.367
REMARK SMILES CCCCCCCCC(=O)[O-]
REMARK SMILES IDX 6 1 7 2 8 3 9 4 10 5 11 6 5 7 4 8 3 9 2 10 1 11
REMARK H PARENT
REMARK Flexibility Score: inf
ROOT
ATOM      1  C   UNL     1      63.234  45.045  15.964  1.00  0.00     0.000 C 
ENDROOT
BRANCH   1   2
ATOM      2  C   UNL     1      62.116  44.384  16.778  1.00  0.00     0.006 C 
BRANCH   2   3
ATOM      3  C   UNL     1      61.160  45.434  17.353  1.00  0.00     0.053 C 
BRANCH   3   4
ATOM      4  C   UNL     1      59.765  44.899  17.407  1.00  0.00     0.041 C 
ATOM      5  O   UNL     1      58.856  45.426  16.711  1.00  0.00    -0.550 OA
ATOM      6  O   UNL     1      59.476  43.785  18.186  1.00  0.00    -0.550 OA
ENDBRANCH   3   4
ENDBRANCH   2   3
ENDBRANCH   1   2
BRANCH   1   7
ATOM      7  C   UNL     1      63.790  44.084  14.907  1.00  0.00     0.000 C 
BRANCH   7   8
ATOM      8  C   UNL     1      64.683  43.016  15.548  1.00  0.00    -0.000 C 
BRANCH   8   9
ATOM      9  C   UNL     1      64.175  41.606  15.226  1.00  0.00    -0.000 C 
BRANCH   9  10
ATOM     10  C   UNL     1      64.444  40.645  16.389  1.00  0.00    -0.003 C 
ATOM     11  C   UNL     1      63.641  41.036  17.625  1.00  0.00     0.004 C 
ENDBRANCH   9  10
ENDBRANCH   8   9
ENDBRANCH   7   8
ENDBRANCH   1   7
TORSDOF 7
ENDMDL
MODEL 5
REMARK VINA RESULT:    -3.145     14.407     15.429
REMARK INTER + INTRA:          -4.800
REMARK INTER:                  -4.090
REMARK INTRA:                  -0.709
REMARK UNBOUND:                -0.367
REMARK SMILES CCCCCCCCC(=O)[O-]
REMARK SMILES IDX 6 1 7 2 8 3 9 4 10 5 11 6 5 7 4 8 3 9 2 10 1 11
REMARK H PARENT
REMARK Flexibility Score: inf
ROOT
ATOM      1  C   UNL     1      64.756  42.985  15.339  1.00  0.00     0.000 C 
ENDROOT
BRANCH   1   2
ATOM      2  C   UNL     1      63.782  44.044  14.811  1.00  0.00     0.006 C 
BRANCH   2   3
ATOM      3  C   UNL     1      62.864  44.552  15.927  1.00  0.00     0.053 C 
BRANCH   3   4
ATOM      4  C   UNL     1      63.535  45.640  16.704  1.00  0.00     0.041 C 
ATOM      5  O   UNL     1      63.775  46.751  16.161  1.00  0.00    -0.550 OA
ATOM      6  O   UNL     1      63.851  45.445  18.043  1.00  0.00    -0.550 OA
ENDBRANCH   3   4
ENDBRANCH   2   3
ENDBRANCH   1   2
BRANCH   1   7
ATOM      7  C   UNL     1      64.148  41.581  15.247  1.00  0.00     0.000 C 
BRANCH   7   8
ATOM      8  C   UNL     1      64.536  40.730  16.461  1.00  0.00    -0.000 C 
BRANCH   8   9
ATOM      9  C   UNL     1      64.239  41.471  17.771  1.00  0.00    -0.000 C 
BRANCH   9  10
ATOM     10  C   UNL     1      62.847  41.110  18.303  1.00  0.00    -0.003 C 
ATOM     11  C   UNL     1      62.065  42.360  18.694  1.00  0.00     0.004 C 
ENDBRANCH   9  10
ENDBRANCH   8   9
ENDBRANCH   7   8
ENDBRANCH   1   7
TORSDOF 7
ENDMDL
MODEL 6
REMARK VINA RESULT:    -3.144     10.809     13.021
REMARK INTER + INTRA:          -4.798
REMARK INTER:                  -4.529
REMARK INTRA:                  -0.269
REMARK UNBOUND:                -0.367
REMARK SMILES CCCCCCCCC(=O)[O-]
REMARK SMILES IDX 6 1 7 2 8 3 9 4 10 5 11 6 5 7 4 8 3 9 2 10 1 11
REMARK H PARENT
REMARK Flexibility Score: inf
ROOT
ATOM      1  C   UNL     1      60.603  45.279  17.443  1.00  0.00     0.000 C 
ENDROOT
BRANCH   1   2
ATOM      2  C   UNL     1      59.305  44.639  16.938  1.00  0.00     0.006 C 
BRANCH   2   3
ATOM      3  C   UNL     1      58.232  45.700  16.681  1.00  0.00     0.053 C 
BRANCH   3   4
ATOM      4  C   UNL     1      57.358  45.295  15.536  1.00  0.00     0.041 C 
ATOM      5  O   UNL     1      57.012  46.144  14.672  1.00  0.00    -0.550 OA
ATOM      6  O   UNL     1      56.968  43.970  15.394  1.00  0.00    -0.550 OA
ENDBRANCH   3   4
ENDBRANCH   2   3
ENDBRANCH   1   2
BRANCH   1   7
ATOM      7  C   UNL     1      61.830  44.603  16.820  1.00  0.00     0.000 C 
BRANCH   7   8
ATOM      8  C   UNL     1      62.921  45.630  16.498  1.00  0.00    -0.000 C 
BRANCH   8   9
ATOM      9  C   UNL     1      64.091  44.976  15.752  1.00  0.00    -0.000 C 
BRANCH   9  10
ATOM     10  C   UNL     1      63.594  43.873  14.811  1.00  0.00    -0.003 C 
ATOM     11  C   UNL     1      64.390  42.586  15.001  1.00  0.00     0.004 C 
ENDBRANCH   9  10
ENDBRANCH   8   9
ENDBRANCH   7   8
ENDBRANCH   1   7
TORSDOF 7
ENDMDL
MODEL 7
REMARK VINA RESULT:    -3.100      3.735      6.144
REMARK INTER + INTRA:          -4.737
REMARK INTER:                  -4.437
REMARK INTRA:                  -0.300
REMARK UNBOUND:                -0.367
REMARK SMILES CCCCCCCCC(=O)[O-]
REMARK SMILES IDX 6 1 7 2 8 3 9 4 10 5 11 6 5 7 4 8 3 9 2 10 1 11
REMARK H PARENT
REMARK Flexibility Score: inf
ROOT
ATOM      1  C   UNL     1      48.494  44.537  15.011  1.00  0.00     0.000 C 
ENDROOT
BRANCH   1   2
ATOM      2  C   UNL     1      48.234  43.031  15.122  1.00  0.00     0.006 C 
BRANCH   2   3
ATOM      3  C   UNL     1      47.142  42.588  14.144  1.00  0.00     0.053 C 
BRANCH   3   4
ATOM      4  C   UNL     1      45.817  42.516  14.835  1.00  0.00     0.041 C 
ATOM      5  O   UNL     1      45.197  43.573  15.127  1.00  0.00    -0.550 OA
ATOM      6  O   UNL     1      45.242  41.281  15.111  1.00  0.00    -0.550 OA
ENDBRANCH   3   4
ENDBRANCH   2   3
ENDBRANCH   1   2
BRANCH   1   7
ATOM      7  C   UNL     1      49.989  44.828  14.834  1.00  0.00     0.000 C 
BRANCH   7   8
ATOM      8  C   UNL     1      50.216  46.247  14.301  1.00  0.00    -0.000 C 
BRANCH   8   9
ATOM      9  C   UNL     1      49.029  47.158  14.639  1.00  0.00    -0.000 C 
BRANCH   9  10
ATOM     10  C   UNL     1      49.259  48.579  14.111  1.00  0.00    -0.003 C 
ATOM     11  C   UNL     1      50.402  48.614  13.102  1.00  0.00     0.004 C 
ENDBRANCH   9  10
ENDBRANCH   8   9
ENDBRANCH   7   8
ENDBRANCH   1   7
TORSDOF 7
ENDMDL
MODEL 8
REMARK VINA RESULT:    -3.080     13.526     15.107
REMARK INTER + INTRA:          -4.708
REMARK INTER:                  -4.068
REMARK INTRA:                  -0.640
REMARK UNBOUND:                -0.367
REMARK SMILES CCCCCCCCC(=O)[O-]
REMARK SMILES IDX 6 1 7 2 8 3 9 4 10 5 11 6 5 7 4 8 3 9 2 10 1 11
REMARK H PARENT
REMARK Flexibility Score: inf
ROOT
ATOM      1  C   UNL     1      61.821  44.805  16.659  1.00  0.00     0.000 C 
ENDROOT
BRANCH   1   2
ATOM      2  C   UNL     1      61.339  44.197  17.981  1.00  0.00     0.006 C 
BRANCH   2   3
ATOM      3  C   UNL     1      62.171  42.968  18.358  1.00  0.00     0.053 C 
BRANCH   3   4
ATOM      4  C   UNL     1      61.303  41.915  18.971  1.00  0.00     0.041 C 
ATOM      5  O   UNL     1      60.055  41.946  18.805  1.00  0.00    -0.550 OA
ATOM      6  O   UNL     1      61.877  40.870  19.685  1.00  0.00    -0.550 OA
ENDBRANCH   3   4
ENDBRANCH   2   3
ENDBRANCH   1   2
BRANCH   1   7
ATOM      7  C   UNL     1      63.214  45.425  16.813  1.00  0.00     0.000 C 
BRANCH   7   8
ATOM      8  C   UNL     1      64.091  45.118  15.594  1.00  0.00    -0.000 C 
BRANCH   8   9
ATOM      9  C   UNL     1      63.683  43.792  14.941  1.00  0.00    -0.000 C 
BRANCH   9  10
ATOM     10  C   UNL     1      64.768  42.726  15.135  1.00  0.00    -0.003 C 
ATOM     11  C   UNL     1      64.171  41.419  15.646  1.00  0.00     0.004 C 
ENDBRANCH   9  10
ENDBRANCH   8   9
ENDBRANCH   7   8
ENDBRANCH   1   7
TORSDOF 7
ENDMDL
MODEL 9
REMARK VINA RESULT:    -3.074     14.276     15.872
REMARK INTER + INTRA:          -4.700
REMARK INTER:                  -4.156
REMARK INTRA:                  -0.543
REMARK UNBOUND:                -0.367
REMARK SMILES CCCCCCCCC(=O)[O-]
REMARK SMILES IDX 6 1 7 2 8 3 9 4 10 5 11 6 5 7 4 8 3 9 2 10 1 11
REMARK H PARENT
REMARK Flexibility Score: inf
ROOT
ATOM      1  C   UNL     1      64.745  42.616  15.020  1.00  0.00     0.000 C 
ENDROOT
BRANCH   1   2
ATOM      2  C   UNL     1      64.075  41.338  15.538  1.00  0.00     0.006 C 
BRANCH   2   3
ATOM      3  C   UNL     1      64.714  40.876  16.851  1.00  0.00     0.053 C 
BRANCH   3   4
ATOM      4  C   UNL     1      63.940  41.394  18.022  1.00  0.00     0.041 C 
ATOM      5  O   UNL     1      62.798  40.929  18.283  1.00  0.00    -0.550 OA
ATOM      6  O   UNL     1      64.499  42.354  18.856  1.00  0.00    -0.550 OA
ENDBRANCH   3   4
ENDBRANCH   2   3
ENDBRANCH   1   2
BRANCH   1   7
ATOM      7  C   UNL     1      63.714  43.730  14.805  1.00  0.00     0.000 C 
BRANCH   7   8
ATOM      8  C   UNL     1      63.612  44.633  16.040  1.00  0.00    -0.000 C 
BRANCH   8   9
ATOM      9  C   UNL     1      62.233  44.511  16.699  1.00  0.00    -0.000 C 
BRANCH   9  10
ATOM     10  C   UNL     1      61.821  45.832  17.360  1.00  0.00    -0.003 C 
ATOM     11  C   UNL     1      62.922  46.878  17.234  1.00  0.00     0.004 C 
ENDBRANCH   9  10
ENDBRANCH   8   9
ENDBRANCH   7   8
ENDBRANCH   1   7
TORSDOF 7
ENDMDL
