MODEL 1
REMARK VINA RESULT:    -4.981      0.000      0.000
REMARK INTER + INTRA:          -6.466
REMARK INTER:                  -6.145
REMARK INTRA:                  -0.321
REMARK UNBOUND:                -0.321
REMARK SMILES C=CC[C@H](C)C(=O)CC
REMARK SMILES IDX 4 1 5 2 6 3 7 4 8 5 9 6 3 7 2 8 1 9
REMARK H PARENT
REMARK Flexibility Score: inf
ROOT
ATOM      1  C   UNL     1       6.382  31.512  28.421  1.00  0.00     0.057 C 
ATOM      2  C   UNL     1       5.903  31.423  26.968  1.00  0.00     0.016 C 
ENDROOT
BRANCH   1   3
ATOM      3  C   UNL     1       7.726  32.208  28.482  1.00  0.00     0.135 C 
ATOM      4  O   UNL     1       7.774  33.421  28.634  1.00  0.00    -0.299 OA
BRANCH   3   5
ATOM      5  C   UNL     1       9.010  31.435  28.343  1.00  0.00     0.072 C 
ATOM      6  C   UNL     1       9.889  32.038  27.253  1.00  0.00     0.012 C 
ENDBRANCH   3   5
ENDBRANCH   1   3
BRANCH   1   7
ATOM      7  C   UNL     1       6.453  30.108  29.055  1.00  0.00     0.038 C 
BRANCH   7   8
ATOM      8  C   UNL     1       6.380  29.014  28.021  1.00  0.00    -0.034 C 
ATOM      9  C   UNL     1       7.066  27.875  28.152  1.00  0.00     0.004 C 
ENDBRANCH   7   8
ENDBRANCH   1   7
TORSDOF 4
ENDMDL
MODEL 2
REMARK VINA RESULT:    -4.821      1.630      3.805
REMARK INTER + INTRA:          -6.268
REMARK INTER:                  -6.062
REMARK INTRA:                  -0.206
REMARK UNBOUND:                -0.321
REMARK SMILES C=CC[C@H](C)C(=O)CC
REMARK SMILES IDX 4 1 5 2 6 3 7 4 8 5 9 6 3 7 2 8 1 9
REMARK H PARENT
REMARK Flexibility Score: inf
ROOT
ATOM      1  C   UNL     1       7.099  31.594  27.977  1.00  0.00     0.057 C 
ATOM      2  C   UNL     1       5.609  31.577  28.336  1.00  0.00     0.016 C 
ENDROOT
BRANCH   1   3
ATOM      3  C   UNL     1       7.717  30.242  28.267  1.00  0.00     0.135 C 
ATOM      4  O   UNL     1       8.890  30.037  27.984  1.00  0.00    -0.299 OA
BRANCH   3   5
ATOM      5  C   UNL     1       6.908  29.133  28.885  1.00  0.00     0.072 C 
ATOM      6  C   UNL     1       6.724  27.983  27.900  1.00  0.00     0.012 C 
ENDBRANCH   3   5
ENDBRANCH   1   3
BRANCH   1   7
ATOM      7  C   UNL     1       7.829  32.716  28.743  1.00  0.00     0.038 C 
BRANCH   7   8
ATOM      8  C   UNL     1       8.803  33.461  27.866  1.00  0.00    -0.034 C 
ATOM      9  C   UNL     1      10.124  33.340  28.021  1.00  0.00     0.004 C 
ENDBRANCH   7   8
ENDBRANCH   1   7
TORSDOF 4
ENDMDL
MODEL 3
REMARK VINA RESULT:    -4.794     15.767     16.431
REMARK INTER + INTRA:          -6.236
REMARK INTER:                  -5.960
REMARK INTRA:                  -0.276
REMARK UNBOUND:                -0.321
REMARK SMILES C=CC[C@H](C)C(=O)CC
REMARK SMILES IDX 4 1 5 2 6 3 7 4 8 5 9 6 3 7 2 8 1 9
REMARK H PARENT
REMARK Flexibility Score: inf
ROOT
ATOM      1  C   UNL     1      -7.360  31.420  23.245  1.00  0.00     0.057 C 
ATOM      2  C   UNL     1      -8.309  31.204  24.429  1.00  0.00     0.016 C 
ENDROOT
BRANCH   1   3
ATOM      3  C   UNL     1      -7.851  32.570  22.390  1.00  0.00     0.135 C 
ATOM      4  O   UNL     1      -8.027  33.670  22.895  1.00  0.00    -0.299 OA
BRANCH   3   5
ATOM      5  C   UNL     1      -8.143  32.380  20.926  1.00  0.00     0.072 C 
ATOM      6  C   UNL     1      -7.103  33.094  20.069  1.00  0.00     0.012 C 
ENDBRANCH   3   5
ENDBRANCH   1   3
BRANCH   1   7
ATOM      7  C   UNL     1      -7.224  30.127  22.416  1.00  0.00     0.038 C 
BRANCH   7   8
ATOM      8  C   UNL     1      -8.329  29.145  22.711  1.00  0.00    -0.034 C 
ATOM      9  C   UNL     1      -8.403  27.962  22.094  1.00  0.00     0.004 C 
ENDBRANCH   7   8
ENDBRANCH   1   7
TORSDOF 4
ENDMDL
MODEL 4
REMARK VINA RESULT:    -4.776     15.979     17.039
REMARK INTER + INTRA:          -6.213
REMARK INTER:                  -5.793
REMARK INTRA:                  -0.420
REMARK UNBOUND:                -0.321
REMARK SMILES C=CC[C@H](C)C(=O)CC
REMARK SMILES IDX 4 1 5 2 6 3 7 4 8 5 9 6 3 7 2 8 1 9
REMARK H PARENT
REMARK Flexibility Score: inf
ROOT
ATOM      1  C   UNL     1      -7.472  33.032  21.414  1.00  0.00     0.057 C 
ATOM      2  C   UNL     1      -7.125  33.112  19.924  1.00  0.00     0.016 C 
ENDROOT
BRANCH   1   3
ATOM      3  C   UNL     1      -8.573  32.015  21.635  1.00  0.00     0.135 C 
ATOM      4  O   UNL     1      -9.743  32.351  21.511  1.00  0.00    -0.299 OA
BRANCH   3   5
ATOM      5  C   UNL     1      -8.256  30.595  22.023  1.00  0.00     0.072 C 
ATOM      6  C   UNL     1      -7.283  30.560  23.197  1.00  0.00     0.012 C 
ENDBRANCH   3   5
ENDBRANCH   1   3
BRANCH   1   7
ATOM      7  C   UNL     1      -7.878  34.418  21.953  1.00  0.00     0.038 C 
BRANCH   7   8
ATOM      8  C   UNL     1      -7.565  34.572  23.418  1.00  0.00    -0.034 C 
ATOM      9  C   UNL     1      -8.527  34.601  24.345  1.00  0.00     0.004 C 
ENDBRANCH   7   8
ENDBRANCH   1   7
TORSDOF 4
ENDMDL
MODEL 5
REMARK VINA RESULT:    -4.770     15.446     16.209
REMARK INTER + INTRA:          -6.207
REMARK INTER:                  -5.826
REMARK INTRA:                  -0.381
REMARK UNBOUND:                -0.321
REMARK SMILES C=CC[C@H](C)C(=O)CC
REMARK SMILES IDX 4 1 5 2 6 3 7 4 8 5 9 6 3 7 2 8 1 9
REMARK H PARENT
REMARK Flexibility Score: inf
ROOT
ATOM      1  C   UNL     1      -7.476  33.180  23.574  1.00  0.00     0.057 C 
ATOM      2  C   UNL     1      -7.872  34.083  24.747  1.00  0.00     0.016 C 
ENDROOT
BRANCH   1   3
ATOM      3  C   UNL     1      -7.863  33.834  22.263  1.00  0.00     0.135 C 
ATOM      4  O   UNL     1      -7.887  35.054  22.178  1.00  0.00    -0.299 OA
BRANCH   3   5
ATOM      5  C   UNL     1      -8.237  33.007  21.062  1.00  0.00     0.072 C 
ATOM      6  C   UNL     1      -7.070  32.913  20.085  1.00  0.00     0.012 C 
ENDBRANCH   3   5
ENDBRANCH   1   3
BRANCH   1   7
ATOM      7  C   UNL     1      -8.127  31.789  23.716  1.00  0.00     0.038 C 
BRANCH   7   8
ATOM      8  C   UNL     1      -7.104  30.683  23.732  1.00  0.00    -0.034 C 
ATOM      9  C   UNL     1      -7.010  29.796  22.738  1.00  0.00     0.004 C 
ENDBRANCH   7   8
ENDBRANCH   1   7
TORSDOF 4
ENDMDL
MODEL 6
REMARK VINA RESULT:    -4.751     15.640     16.728
REMARK INTER + INTRA:          -6.183
REMARK INTER:                  -5.708
REMARK INTRA:                  -0.475
REMARK UNBOUND:                -0.321
REMARK SMILES C=CC[C@H](C)C(=O)CC
REMARK SMILES IDX 4 1 5 2 6 3 7 4 8 5 9 6 3 7 2 8 1 9
REMARK H PARENT
REMARK Flexibility Score: inf
ROOT
ATOM      1  C   UNL     1      -8.716  33.010  23.155  1.00  0.00     0.057 C 
ATOM      2  C   UNL     1      -7.542  33.892  23.595  1.00  0.00     0.016 C 
ENDROOT
BRANCH   1   3
ATOM      3  C   UNL     1      -8.522  31.597  23.667  1.00  0.00     0.135 C 
ATOM      4  O   UNL     1      -9.478  30.975  24.109  1.00  0.00    -0.299 OA
BRANCH   3   5
ATOM      5  C   UNL     1      -7.165  30.946  23.658  1.00  0.00     0.072 C 
ATOM      6  C   UNL     1      -7.139  29.763  22.696  1.00  0.00     0.012 C 
ENDBRANCH   3   5
ENDBRANCH   1   3
BRANCH   1   7
ATOM      7  C   UNL     1      -8.865  33.030  21.621  1.00  0.00     0.038 C 
BRANCH   7   8
ATOM      8  C   UNL     1      -7.629  33.556  20.938  1.00  0.00    -0.034 C 
ATOM      9  C   UNL     1      -6.931  32.812  20.075  1.00  0.00     0.004 C 
ENDBRANCH   7   8
ENDBRANCH   1   7
TORSDOF 4
ENDMDL
MODEL 7
REMARK VINA RESULT:    -4.704     15.494     16.601
REMARK INTER + INTRA:          -6.125
REMARK INTER:                  -5.711
REMARK INTRA:                  -0.414
REMARK UNBOUND:                -0.321
REMARK SMILES C=CC[C@H](C)C(=O)CC
REMARK SMILES IDX 4 1 5 2 6 3 7 4 8 5 9 6 3 7 2 8 1 9
REMARK H PARENT
REMARK Flexibility Score: inf
ROOT
ATOM      1  C   UNL     1      -8.356  32.085  21.781  1.00  0.00     0.057 C 
ATOM      2  C   UNL     1      -9.516  31.617  20.895  1.00  0.00     0.016 C 
ENDROOT
BRANCH   1   3
ATOM      3  C   UNL     1      -7.618  33.224  21.108  1.00  0.00     0.135 C 
ATOM      4  O   UNL     1      -7.040  33.030  20.047  1.00  0.00    -0.299 OA
BRANCH   3   5
ATOM      5  C   UNL     1      -7.567  34.594  21.730  1.00  0.00     0.072 C 
ATOM      6  C   UNL     1      -7.865  34.520  23.224  1.00  0.00     0.012 C 
ENDBRANCH   3   5
ENDBRANCH   1   3
BRANCH   1   7
ATOM      7  C   UNL     1      -7.405  30.912  22.093  1.00  0.00     0.038 C 
BRANCH   7   8
ATOM      8  C   UNL     1      -7.093  30.812  23.564  1.00  0.00    -0.034 C 
ATOM      9  C   UNL     1      -8.021  30.459  24.458  1.00  0.00     0.004 C 
ENDBRANCH   7   8
ENDBRANCH   1   7
TORSDOF 4
ENDMDL
MODEL 8
REMARK VINA RESULT:    -4.578     15.487     16.680
REMARK INTER + INTRA:          -5.969
REMARK INTER:                  -5.492
REMARK INTRA:                  -0.477
REMARK UNBOUND:                -0.321
REMARK SMILES C=CC[C@H](C)C(=O)CC
REMARK SMILES IDX 4 1 5 2 6 3 7 4 8 5 9 6 3 7 2 8 1 9
REMARK H PARENT
REMARK Flexibility Score: inf
ROOT
ATOM      1  C   UNL     1      -7.562  31.713  23.069  1.00  0.00     0.057 C 
ATOM      2  C   UNL     1      -7.011  30.494  23.817  1.00  0.00     0.016 C 
ENDROOT
BRANCH   1   3
ATOM      3  C   UNL     1      -8.700  32.332  23.854  1.00  0.00     0.135 C 
ATOM      4  O   UNL     1      -9.679  31.656  24.139  1.00  0.00    -0.299 OA
BRANCH   3   5
ATOM      5  C   UNL     1      -8.658  33.775  24.279  1.00  0.00     0.072 C 
ATOM      6  C   UNL     1      -7.306  34.399  23.945  1.00  0.00     0.012 C 
ENDBRANCH   3   5
ENDBRANCH   1   3
BRANCH   1   7
ATOM      7  C   UNL     1      -8.014  31.319  21.649  1.00  0.00     0.038 C 
BRANCH   7   8
ATOM      8  C   UNL     1      -8.205  32.520  20.760  1.00  0.00    -0.034 C 
ATOM      9  C   UNL     1      -7.178  33.104  20.135  1.00  0.00     0.004 C 
ENDBRANCH   7   8
ENDBRANCH   1   7
TORSDOF 4
ENDMDL
MODEL 9
REMARK VINA RESULT:    -4.569     16.100     16.493
REMARK INTER + INTRA:          -5.957
REMARK INTER:                  -5.816
REMARK INTRA:                  -0.141
REMARK UNBOUND:                -0.321
REMARK SMILES C=CC[C@H](C)C(=O)CC
REMARK SMILES IDX 4 1 5 2 6 3 7 4 8 5 9 6 3 7 2 8 1 9
REMARK H PARENT
REMARK Flexibility Score: inf
ROOT
ATOM      1  C   UNL     1      -7.965  31.959  21.750  1.00  0.00     0.057 C 
ATOM      2  C   UNL     1      -7.223  32.568  20.555  1.00  0.00     0.016 C 
ENDROOT
BRANCH   1   3
ATOM      3  C   UNL     1      -7.840  32.869  22.955  1.00  0.00     0.135 C 
ATOM      4  O   UNL     1      -7.688  32.384  24.068  1.00  0.00    -0.299 OA
BRANCH   3   5
ATOM      5  C   UNL     1      -7.917  34.365  22.811  1.00  0.00     0.072 C 
ATOM      6  C   UNL     1      -8.360  35.012  24.119  1.00  0.00     0.012 C 
ENDBRANCH   3   5
ENDBRANCH   1   3
BRANCH   1   7
ATOM      7  C   UNL     1      -7.426  30.547  22.060  1.00  0.00     0.038 C 
BRANCH   7   8
ATOM      8  C   UNL     1      -8.518  29.509  22.049  1.00  0.00    -0.034 C 
ATOM      9  C   UNL     1      -8.246  28.201  22.071  1.00  0.00     0.004 C 
ENDBRANCH   7   8
ENDBRANCH   1   7
TORSDOF 4
ENDMDL
