MODEL 1
REMARK VINA RESULT:    -3.761      0.000      0.000
REMARK INTER + INTRA:          -4.428
REMARK INTER:                  -4.201
REMARK INTRA:                  -0.227
REMARK UNBOUND:                -0.227
REMARK SMILES O=C([O-])c1ccccc1C(=O)[O-]
REMARK SMILES IDX 4 1 9 2 5 3 8 4 6 5 7 6 2 7 1 8 3 9 10 10 11 11 12 12
REMARK H PARENT
REMARK Flexibility Score: inf
ROOT
ATOM      1  C   UNL     1      -5.727  -8.877  -1.000  1.00  0.00     0.006 A 
ATOM      2  C   UNL     1      -7.028  -9.446  -1.039  1.00  0.00     0.006 A 
ATOM      3  C   UNL     1      -4.992  -8.930   0.199  1.00  0.00     0.010 A 
ATOM      4  C   UNL     1      -7.523 -10.103   0.103  1.00  0.00     0.010 A 
ATOM      5  C   UNL     1      -5.510  -9.568   1.326  1.00  0.00     0.001 A 
ATOM      6  C   UNL     1      -6.769 -10.164   1.276  1.00  0.00     0.001 A 
ENDROOT
BRANCH   1   7
ATOM      7  C   UNL     1      -5.074  -8.291  -2.194  1.00  0.00     0.072 C 
ATOM      8  O   UNL     1      -4.998  -7.040  -2.326  1.00  0.00    -0.545 OA
ATOM      9  O   UNL     1      -4.481  -9.108  -3.150  1.00  0.00    -0.545 OA
ENDBRANCH   1   7
BRANCH   2  10
ATOM     10  C   UNL     1      -7.924  -9.311  -2.211  1.00  0.00     0.072 C 
ATOM     11  O   UNL     1      -8.669  -8.302  -2.326  1.00  0.00    -0.545 OA
ATOM     12  O   UNL     1      -7.909 -10.258  -3.228  1.00  0.00    -0.545 OA
ENDBRANCH   2  10
TORSDOF 2
ENDMDL
MODEL 2
REMARK VINA RESULT:    -3.759      0.082      2.860
REMARK INTER + INTRA:          -4.426
REMARK INTER:                  -4.200
REMARK INTRA:                  -0.226
REMARK UNBOUND:                -0.227
REMARK SMILES O=C([O-])c1ccccc1C(=O)[O-]
REMARK SMILES IDX 4 1 9 2 5 3 8 4 6 5 7 6 2 7 1 8 3 9 10 10 11 11 12 12
REMARK H PARENT
REMARK Flexibility Score: inf
ROOT
ATOM      1  C   UNL     1      -7.030  -9.447  -1.101  1.00  0.00     0.006 A 
ATOM      2  C   UNL     1      -5.732  -8.872  -1.023  1.00  0.00     0.006 A 
ATOM      3  C   UNL     1      -7.540 -10.142   0.011  1.00  0.00     0.010 A 
ATOM      4  C   UNL     1      -5.017  -8.959   0.186  1.00  0.00     0.010 A 
ATOM      5  C   UNL     1      -6.804 -10.234   1.193  1.00  0.00     0.001 A 
ATOM      6  C   UNL     1      -5.550  -9.634   1.285  1.00  0.00     0.001 A 
ENDROOT
BRANCH   1   7
ATOM      7  C   UNL     1      -7.906  -9.282  -2.285  1.00  0.00     0.072 C 
ATOM      8  O   UNL     1      -8.676  -8.288  -2.371  1.00  0.00    -0.545 OA
ATOM      9  O   UNL     1      -7.846 -10.183  -3.342  1.00  0.00    -0.545 OA
ENDBRANCH   1   7
BRANCH   2  10
ATOM     10  C   UNL     1      -5.064  -8.248  -2.188  1.00  0.00     0.072 C 
ATOM     11  O   UNL     1      -4.989  -6.994  -2.279  1.00  0.00    -0.545 OA
ATOM     12  O   UNL     1      -4.456  -9.032  -3.161  1.00  0.00    -0.545 OA
ENDBRANCH   2  10
TORSDOF 2
ENDMDL
MODEL 3
REMARK VINA RESULT:    -3.744      9.454     11.214
REMARK INTER + INTRA:          -4.409
REMARK INTER:                  -4.191
REMARK INTRA:                  -0.218
REMARK UNBOUND:                -0.227
REMARK SMILES O=C([O-])c1ccccc1C(=O)[O-]
REMARK SMILES IDX 4 1 9 2 5 3 8 4 6 5 7 6 2 7 1 8 3 9 10 10 11 11 12 12
REMARK H PARENT
REMARK Flexibility Score: inf
ROOT
ATOM      1  C   UNL     1      -0.874  -9.766   7.139  1.00  0.00     0.006 A 
ATOM      2  C   UNL     1      -0.554  -9.750   8.523  1.00  0.00     0.006 A 
ATOM      3  C   UNL     1      -2.023 -10.456   6.708  1.00  0.00     0.010 A 
ATOM      4  C   UNL     1      -1.429 -10.371   9.435  1.00  0.00     0.010 A 
ATOM      5  C   UNL     1      -2.865 -11.082   7.627  1.00  0.00     0.001 A 
ATOM      6  C   UNL     1      -2.576 -11.031   8.989  1.00  0.00     0.001 A 
ENDROOT
BRANCH   1   7
ATOM      7  C   UNL     1      -0.086  -9.021   6.128  1.00  0.00     0.072 C 
ATOM      8  O   UNL     1       0.649  -9.641   5.315  1.00  0.00    -0.545 OA
ATOM      9  O   UNL     1      -0.197  -7.639   6.022  1.00  0.00    -0.545 OA
ENDBRANCH   1   7
BRANCH   2  10
ATOM     10  C   UNL     1       0.705  -9.172   9.046  1.00  0.00     0.072 C 
ATOM     11  O   UNL     1       1.750  -9.873   9.097  1.00  0.00    -0.545 OA
ATOM     12  O   UNL     1       0.769  -7.837   9.426  1.00  0.00    -0.545 OA
ENDBRANCH   2  10
TORSDOF 2
ENDMDL
MODEL 4
REMARK VINA RESULT:    -3.742      9.422     11.090
REMARK INTER + INTRA:          -4.407
REMARK INTER:                  -4.191
REMARK INTRA:                  -0.216
REMARK UNBOUND:                -0.227
REMARK SMILES O=C([O-])c1ccccc1C(=O)[O-]
REMARK SMILES IDX 4 1 9 2 5 3 8 4 6 5 7 6 2 7 1 8 3 9 10 10 11 11 12 12
REMARK H PARENT
REMARK Flexibility Score: inf
ROOT
ATOM      1  C   UNL     1      -0.589  -9.752   8.505  1.00  0.00     0.006 A 
ATOM      2  C   UNL     1      -0.907  -9.779   7.120  1.00  0.00     0.006 A 
ATOM      3  C   UNL     1      -1.469 -10.355   9.422  1.00  0.00     0.010 A 
ATOM      4  C   UNL     1      -2.062 -10.464   6.696  1.00  0.00     0.010 A 
ATOM      5  C   UNL     1      -2.619 -11.011   8.982  1.00  0.00     0.001 A 
ATOM      6  C   UNL     1      -2.909 -11.076   7.621  1.00  0.00     0.001 A 
ENDROOT
BRANCH   1   7
ATOM      7  C   UNL     1       0.674  -9.176   9.023  1.00  0.00     0.072 C 
ATOM      8  O   UNL     1       1.715  -9.883   9.086  1.00  0.00    -0.545 OA
ATOM      9  O   UNL     1       0.746  -7.835   9.384  1.00  0.00    -0.545 OA
ENDBRANCH   1   7
BRANCH   2  10
ATOM     10  C   UNL     1      -0.115  -9.050   6.104  1.00  0.00     0.072 C 
ATOM     11  O   UNL     1       0.609  -9.684   5.290  1.00  0.00    -0.545 OA
ATOM     12  O   UNL     1      -0.205  -7.668   5.991  1.00  0.00    -0.545 OA
ENDBRANCH   2  10
TORSDOF 2
ENDMDL
MODEL 5
REMARK VINA RESULT:    -3.676      8.010      9.351
REMARK INTER + INTRA:          -4.332
REMARK INTER:                  -4.105
REMARK INTRA:                  -0.227
REMARK UNBOUND:                -0.227
REMARK SMILES O=C([O-])c1ccccc1C(=O)[O-]
REMARK SMILES IDX 4 1 9 2 5 3 8 4 6 5 7 6 2 7 1 8 3 9 10 10 11 11 12 12
REMARK H PARENT
REMARK Flexibility Score: inf
ROOT
ATOM      1  C   UNL     1      -0.720  -9.789   6.952  1.00  0.00     0.006 A 
ATOM      2  C   UNL     1      -2.085 -10.061   6.665  1.00  0.00     0.006 A 
ATOM      3  C   UNL     1      -0.196 -10.157   8.206  1.00  0.00     0.010 A 
ATOM      4  C   UNL     1      -2.861 -10.747   7.618  1.00  0.00     0.010 A 
ATOM      5  C   UNL     1      -0.990 -10.818   9.144  1.00  0.00     0.001 A 
ATOM      6  C   UNL     1      -2.316 -11.123   8.847  1.00  0.00     0.001 A 
ENDROOT
BRANCH   1   7
ATOM      7  C   UNL     1       0.203  -9.198   5.955  1.00  0.00     0.072 C 
ATOM      8  O   UNL     1       0.489  -7.972   6.004  1.00  0.00    -0.545 OA
ATOM      9  O   UNL     1       0.816  -9.997   4.995  1.00  0.00    -0.545 OA
ENDBRANCH   1   7
BRANCH   2  10
ATOM     10  C   UNL     1      -2.753  -9.585   5.432  1.00  0.00     0.072 C 
ATOM     11  O   UNL     1      -3.292  -8.447   5.403  1.00  0.00    -0.545 OA
ATOM     12  O   UNL     1      -2.739 -10.354   4.275  1.00  0.00    -0.545 OA
ENDBRANCH   2  10
TORSDOF 2
ENDMDL
MODEL 6
REMARK VINA RESULT:    -3.651      9.128     10.806
REMARK INTER + INTRA:          -4.304
REMARK INTER:                  -4.322
REMARK INTRA:                   0.017
REMARK UNBOUND:                -0.227
REMARK SMILES O=C([O-])c1ccccc1C(=O)[O-]
REMARK SMILES IDX 4 1 9 2 5 3 8 4 6 5 7 6 2 7 1 8 3 9 10 10 11 11 12 12
REMARK H PARENT
REMARK Flexibility Score: inf
ROOT
ATOM      1  C   UNL     1      -6.897  -3.363  -9.420  1.00  0.00     0.006 A 
ATOM      2  C   UNL     1      -5.499  -3.275  -9.664  1.00  0.00     0.006 A 
ATOM      3  C   UNL     1      -7.680  -2.196  -9.493  1.00  0.00     0.010 A 
ATOM      4  C   UNL     1      -4.946  -2.035 -10.035  1.00  0.00     0.010 A 
ATOM      5  C   UNL     1      -7.107  -0.973  -9.843  1.00  0.00     0.001 A 
ATOM      6  C   UNL     1      -5.745  -0.894 -10.125  1.00  0.00     0.001 A 
ENDROOT
BRANCH   1   7
ATOM      7  C   UNL     1      -7.583  -4.650  -9.161  1.00  0.00     0.072 C 
ATOM      8  O   UNL     1      -8.088  -5.303 -10.114  1.00  0.00    -0.545 OA
ATOM      9  O   UNL     1      -7.623  -5.187  -7.879  1.00  0.00    -0.545 OA
ENDBRANCH   1   7
BRANCH   2  10
ATOM     10  C   UNL     1      -4.581  -4.421  -9.470  1.00  0.00     0.072 C 
ATOM     11  O   UNL     1      -4.754  -5.488 -10.118  1.00  0.00    -0.545 OA
ATOM     12  O   UNL     1      -3.484  -4.316  -8.625  1.00  0.00    -0.545 OA
ENDBRANCH   2  10
TORSDOF 2
ENDMDL
MODEL 7
REMARK VINA RESULT:    -3.620      7.891      9.687
REMARK INTER + INTRA:          -4.270
REMARK INTER:                  -4.051
REMARK INTRA:                  -0.219
REMARK UNBOUND:                -0.227
REMARK SMILES O=C([O-])c1ccccc1C(=O)[O-]
REMARK SMILES IDX 4 1 9 2 5 3 8 4 6 5 7 6 2 7 1 8 3 9 10 10 11 11 12 12
REMARK H PARENT
REMARK Flexibility Score: inf
ROOT
ATOM      1  C   UNL     1      -2.286 -10.047   6.601  1.00  0.00     0.006 A 
ATOM      2  C   UNL     1      -0.935  -9.778   6.951  1.00  0.00     0.006 A 
ATOM      3  C   UNL     1      -3.105 -10.741   7.511  1.00  0.00     0.010 A 
ATOM      4  C   UNL     1      -0.470 -10.156   8.225  1.00  0.00     0.010 A 
ATOM      5  C   UNL     1      -2.617 -11.125   8.761  1.00  0.00     0.001 A 
ATOM      6  C   UNL     1      -1.305 -10.824   9.122  1.00  0.00     0.001 A 
ENDROOT
BRANCH   1   7
ATOM      7  C   UNL     1      -2.896  -9.562   5.341  1.00  0.00     0.072 C 
ATOM      8  O   UNL     1      -3.008 -10.334   4.352  1.00  0.00    -0.545 OA
ATOM      9  O   UNL     1      -3.412  -8.274   5.254  1.00  0.00    -0.545 OA
ENDBRANCH   1   7
BRANCH   2  10
ATOM     10  C   UNL     1       0.032  -9.181   6.002  1.00  0.00     0.072 C 
ATOM     11  O   UNL     1       0.238  -7.939   6.004  1.00  0.00    -0.545 OA
ATOM     12  O   UNL     1       0.771  -9.985   5.143  1.00  0.00    -0.545 OA
ENDBRANCH   2  10
TORSDOF 2
ENDMDL
MODEL 8
REMARK VINA RESULT:    -3.556      8.152      9.901
REMARK INTER + INTRA:          -4.199
REMARK INTER:                  -3.973
REMARK INTRA:                  -0.226
REMARK UNBOUND:                -0.227
REMARK SMILES O=C([O-])c1ccccc1C(=O)[O-]
REMARK SMILES IDX 4 1 9 2 5 3 8 4 6 5 7 6 2 7 1 8 3 9 10 10 11 11 12 12
REMARK H PARENT
REMARK Flexibility Score: inf
ROOT
ATOM      1  C   UNL     1      -2.111 -10.240   7.138  1.00  0.00     0.006 A 
ATOM      2  C   UNL     1      -1.617  -9.833   5.868  1.00  0.00     0.006 A 
ATOM      3  C   UNL     1      -3.402 -10.792   7.226  1.00  0.00     0.010 A 
ATOM      4  C   UNL     1      -2.407 -10.051   4.725  1.00  0.00     0.010 A 
ATOM      5  C   UNL     1      -4.177 -10.980   6.081  1.00  0.00     0.001 A 
ATOM      6  C   UNL     1      -3.677 -10.621   4.831  1.00  0.00     0.001 A 
ENDROOT
BRANCH   1   7
ATOM      7  C   UNL     1      -1.292 -10.176   8.371  1.00  0.00     0.072 C 
ATOM      8  O   UNL     1      -0.517 -11.124   8.668  1.00  0.00    -0.545 OA
ATOM      9  O   UNL     1      -1.318  -9.047   9.181  1.00  0.00    -0.545 OA
ENDBRANCH   1   7
BRANCH   2  10
ATOM     10  C   UNL     1      -0.331  -9.116   5.704  1.00  0.00     0.072 C 
ATOM     11  O   UNL     1       0.679  -9.721   5.258  1.00  0.00    -0.545 OA
ATOM     12  O   UNL     1      -0.237  -7.757   5.977  1.00  0.00    -0.545 OA
ENDBRANCH   2  10
TORSDOF 2
ENDMDL
MODEL 9
REMARK VINA RESULT:    -3.520      8.228      9.819
REMARK INTER + INTRA:          -4.158
REMARK INTER:                  -3.932
REMARK INTRA:                  -0.226
REMARK UNBOUND:                -0.227
REMARK SMILES O=C([O-])c1ccccc1C(=O)[O-]
REMARK SMILES IDX 4 1 9 2 5 3 8 4 6 5 7 6 2 7 1 8 3 9 10 10 11 11 12 12
REMARK H PARENT
REMARK Flexibility Score: inf
ROOT
ATOM      1  C   UNL     1      -1.620  -9.812   5.964  1.00  0.00     0.006 A 
ATOM      2  C   UNL     1      -2.077 -10.191   7.255  1.00  0.00     0.006 A 
ATOM      3  C   UNL     1      -2.454 -10.028   4.851  1.00  0.00     0.010 A 
ATOM      4  C   UNL     1      -3.376 -10.713   7.395  1.00  0.00     0.010 A 
ATOM      5  C   UNL     1      -3.731 -10.566   5.010  1.00  0.00     0.001 A 
ATOM      6  C   UNL     1      -4.196 -10.898   6.281  1.00  0.00     0.001 A 
ENDROOT
BRANCH   1   7
ATOM      7  C   UNL     1      -0.324  -9.128   5.744  1.00  0.00     0.072 C 
ATOM      8  O   UNL     1       0.668  -9.772   5.309  1.00  0.00    -0.545 OA
ATOM      9  O   UNL     1      -0.202  -7.759   5.951  1.00  0.00    -0.545 OA
ENDBRANCH   1   7
BRANCH   2  10
ATOM     10  C   UNL     1      -1.214 -10.131   8.457  1.00  0.00     0.072 C 
ATOM     11  O   UNL     1      -0.509 -11.124   8.781  1.00  0.00    -0.545 OA
ATOM     12  O   UNL     1      -1.120  -8.965   9.206  1.00  0.00    -0.545 OA
ENDBRANCH   2  10
TORSDOF 2
ENDMDL
