MODEL 1
REMARK VINA RESULT:    -3.526      0.000      0.000
REMARK INTER + INTRA:          -4.247
REMARK INTER:                  -4.145
REMARK INTRA:                  -0.103
REMARK UNBOUND:                -0.103
REMARK SMILES O=C([O-])CCC(=O)[O-]
REMARK SMILES IDX 4 1 2 2 1 3 3 4 5 5 6 6 7 7 8 8
REMARK H PARENT
REMARK Flexibility Score: inf
ROOT
ATOM      1  C   UNL     1      18.555  24.654   8.373  1.00  0.00     0.059 C 
ENDROOT
BRANCH   1   2
ATOM      2  C   UNL     1      18.322  26.075   8.792  1.00  0.00     0.042 C 
ATOM      3  O   UNL     1      19.272  26.899   8.791  1.00  0.00    -0.550 OA
ATOM      4  O   UNL     1      17.063  26.475   9.221  1.00  0.00    -0.550 OA
ENDBRANCH   1   2
BRANCH   1   5
ATOM      5  C   UNL     1      19.973  24.190   8.720  1.00  0.00     0.059 C 
BRANCH   5   6
ATOM      6  C   UNL     1      20.032  23.569  10.082  1.00  0.00     0.042 C 
ATOM      7  O   UNL     1      21.128  23.488  10.696  1.00  0.00    -0.550 OA
ATOM      8  O   UNL     1      18.881  23.046  10.658  1.00  0.00    -0.550 OA
ENDBRANCH   5   6
ENDBRANCH   1   5
TORSDOF 3
ENDMDL
MODEL 2
REMARK VINA RESULT:    -3.520      0.983      1.690
REMARK INTER + INTRA:          -4.240
REMARK INTER:                  -4.130
REMARK INTRA:                  -0.111
REMARK UNBOUND:                -0.103
REMARK SMILES O=C([O-])CCC(=O)[O-]
REMARK SMILES IDX 4 1 2 2 1 3 3 4 5 5 6 6 7 7 8 8
REMARK H PARENT
REMARK Flexibility Score: inf
ROOT
ATOM      1  C   UNL     1      19.205  25.707   9.077  1.00  0.00     0.059 C 
ENDROOT
BRANCH   1   2
ATOM      2  C   UNL     1      17.741  25.763   8.761  1.00  0.00     0.042 C 
ATOM      3  O   UNL     1      17.024  26.680   9.237  1.00  0.00    -0.550 OA
ATOM      4  O   UNL     1      17.164  24.776   7.973  1.00  0.00    -0.550 OA
ENDBRANCH   1   2
BRANCH   1   5
ATOM      5  C   UNL     1      19.796  24.326   8.774  1.00  0.00     0.059 C 
BRANCH   5   6
ATOM      6  C   UNL     1      20.031  23.541  10.028  1.00  0.00     0.042 C 
ATOM      7  O   UNL     1      19.067  22.988  10.621  1.00  0.00    -0.550 OA
ATOM      8  O   UNL     1      21.310  23.452  10.564  1.00  0.00    -0.550 OA
ENDBRANCH   5   6
ENDBRANCH   1   5
TORSDOF 3
ENDMDL
MODEL 3
REMARK VINA RESULT:    -3.489      1.308      3.605
REMARK INTER + INTRA:          -4.203
REMARK INTER:                  -4.084
REMARK INTRA:                  -0.119
REMARK UNBOUND:                -0.103
REMARK SMILES O=C([O-])CCC(=O)[O-]
REMARK SMILES IDX 4 1 2 2 1 3 3 4 5 5 6 6 7 7 8 8
REMARK H PARENT
REMARK Flexibility Score: inf
ROOT
ATOM      1  C   UNL     1      20.006  24.141   8.768  1.00  0.00     0.059 C 
ENDROOT
BRANCH   1   2
ATOM      2  C   UNL     1      20.213  23.379  10.043  1.00  0.00     0.042 C 
ATOM      3  O   UNL     1      21.230  23.593  10.751  1.00  0.00    -0.550 OA
ATOM      4  O   UNL     1      19.301  22.403  10.424  1.00  0.00    -0.550 OA
ENDBRANCH   1   2
BRANCH   1   5
ATOM      5  C   UNL     1      19.211  25.429   9.005  1.00  0.00     0.059 C 
BRANCH   5   6
ATOM      6  C   UNL     1      17.736  25.194   8.892  1.00  0.00     0.042 C 
ATOM      7  O   UNL     1      16.990  25.343   9.896  1.00  0.00    -0.550 OA
ATOM      8  O   UNL     1      17.189  24.773   7.686  1.00  0.00    -0.550 OA
ENDBRANCH   5   6
ENDBRANCH   1   5
TORSDOF 3
ENDMDL
MODEL 4
REMARK VINA RESULT:    -3.479      0.168      3.806
REMARK INTER + INTRA:          -4.191
REMARK INTER:                  -4.079
REMARK INTRA:                  -0.112
REMARK UNBOUND:                -0.103
REMARK SMILES O=C([O-])CCC(=O)[O-]
REMARK SMILES IDX 4 1 2 2 1 3 3 4 5 5 6 6 7 7 8 8
REMARK H PARENT
REMARK Flexibility Score: inf
ROOT
ATOM      1  C   UNL     1      19.810  24.083   8.561  1.00  0.00     0.059 C 
ENDROOT
BRANCH   1   2
ATOM      2  C   UNL     1      19.917  23.539   9.954  1.00  0.00     0.042 C 
ATOM      3  O   UNL     1      18.921  23.000  10.501  1.00  0.00    -0.550 OA
ATOM      4  O   UNL     1      21.107  23.665  10.659  1.00  0.00    -0.550 OA
ENDBRANCH   1   2
BRANCH   1   5
ATOM      5  C   UNL     1      18.400  24.605   8.267  1.00  0.00     0.059 C 
BRANCH   5   6
ATOM      6  C   UNL     1      18.206  25.994   8.793  1.00  0.00     0.042 C 
ATOM      7  O   UNL     1      17.076  26.364   9.209  1.00  0.00    -0.550 OA
ATOM      8  O   UNL     1      19.265  26.894   8.789  1.00  0.00    -0.550 OA
ENDBRANCH   5   6
ENDBRANCH   1   5
TORSDOF 3
ENDMDL
MODEL 5
REMARK VINA RESULT:    -3.453      1.399      1.557
REMARK INTER + INTRA:          -4.161
REMARK INTER:                  -4.046
REMARK INTRA:                  -0.115
REMARK UNBOUND:                -0.103
REMARK SMILES O=C([O-])CCC(=O)[O-]
REMARK SMILES IDX 4 1 2 2 1 3 3 4 5 5 6 6 7 7 8 8
REMARK H PARENT
REMARK Flexibility Score: inf
ROOT
ATOM      1  C   UNL     1      19.123  25.189   8.936  1.00  0.00     0.059 C 
ENDROOT
BRANCH   1   2
ATOM      2  C   UNL     1      17.641  24.985   8.843  1.00  0.00     0.042 C 
ATOM      3  O   UNL     1      16.922  25.083   9.871  1.00  0.00    -0.550 OA
ATOM      4  O   UNL     1      17.062  24.645   7.627  1.00  0.00    -0.550 OA
ENDBRANCH   1   2
BRANCH   1   5
ATOM      5  C   UNL     1      19.886  23.872   8.758  1.00  0.00     0.059 C 
BRANCH   5   6
ATOM      6  C   UNL     1      20.229  23.252  10.078  1.00  0.00     0.042 C 
ATOM      7  O   UNL     1      21.347  23.477  10.613  1.00  0.00    -0.550 OA
ATOM      8  O   UNL     1      19.330  22.395  10.699  1.00  0.00    -0.550 OA
ENDBRANCH   5   6
ENDBRANCH   1   5
TORSDOF 3
ENDMDL
MODEL 6
REMARK VINA RESULT:    -3.327      1.603      2.204
REMARK INTER + INTRA:          -4.014
REMARK INTER:                  -3.920
REMARK INTRA:                  -0.094
REMARK UNBOUND:                -0.103
REMARK SMILES O=C([O-])CCC(=O)[O-]
REMARK SMILES IDX 4 1 2 2 1 3 3 4 5 5 6 6 7 7 8 8
REMARK H PARENT
REMARK Flexibility Score: inf
ROOT
ATOM      1  C   UNL     1      19.486  25.019   8.786  1.00  0.00     0.059 C 
ENDROOT
BRANCH   1   2
ATOM      2  C   UNL     1      18.215  25.042   9.580  1.00  0.00     0.042 C 
ATOM      3  O   UNL     1      18.051  24.241  10.536  1.00  0.00    -0.550 OA
ATOM      4  O   UNL     1      17.197  25.922   9.236  1.00  0.00    -0.550 OA
ENDBRANCH   1   2
BRANCH   1   5
ATOM      5  C   UNL     1      19.728  23.646   8.150  1.00  0.00     0.059 C 
BRANCH   5   6
ATOM      6  C   UNL     1      21.102  23.133   8.455  1.00  0.00     0.042 C 
ATOM      7  O   UNL     1      21.795  22.597   7.550  1.00  0.00    -0.550 OA
ATOM      8  O   UNL     1      21.603  23.211   9.748  1.00  0.00    -0.550 OA
ENDBRANCH   5   6
ENDBRANCH   1   5
TORSDOF 3
ENDMDL
MODEL 7
REMARK VINA RESULT:    -3.315      1.572      2.101
REMARK INTER + INTRA:          -3.999
REMARK INTER:                  -3.820
REMARK INTRA:                  -0.179
REMARK UNBOUND:                -0.103
REMARK SMILES O=C([O-])CCC(=O)[O-]
REMARK SMILES IDX 4 1 2 2 1 3 3 4 5 5 6 6 7 7 8 8
REMARK H PARENT
REMARK Flexibility Score: inf
ROOT
ATOM      1  C   UNL     1      20.364  23.951   8.748  1.00  0.00     0.059 C 
ENDROOT
BRANCH   1   2
ATOM      2  C   UNL     1      19.178  24.857   8.891  1.00  0.00     0.042 C 
ATOM      3  O   UNL     1      18.221  24.781   8.078  1.00  0.00    -0.550 OA
ATOM      4  O   UNL     1      19.150  25.810   9.901  1.00  0.00    -0.550 OA
ENDBRANCH   1   2
BRANCH   1   5
ATOM      5  C   UNL     1      20.607  23.134  10.022  1.00  0.00     0.059 C 
BRANCH   5   6
ATOM      6  C   UNL     1      19.482  22.181  10.287  1.00  0.00     0.042 C 
ATOM      7  O   UNL     1      18.865  22.217  11.384  1.00  0.00    -0.550 OA
ATOM      8  O   UNL     1      19.141  21.226   9.337  1.00  0.00    -0.550 OA
ENDBRANCH   5   6
ENDBRANCH   1   5
TORSDOF 3
ENDMDL
MODEL 8
REMARK VINA RESULT:    -3.313      1.126      3.809
REMARK INTER + INTRA:          -3.996
REMARK INTER:                  -3.875
REMARK INTRA:                  -0.121
REMARK UNBOUND:                -0.103
REMARK SMILES O=C([O-])CCC(=O)[O-]
REMARK SMILES IDX 4 1 2 2 1 3 3 4 5 5 6 6 7 7 8 8
REMARK H PARENT
REMARK Flexibility Score: inf
ROOT
ATOM      1  C   UNL     1      19.802  23.918   9.952  1.00  0.00     0.059 C 
ENDROOT
BRANCH   1   2
ATOM      2  C   UNL     1      18.932  22.743  10.282  1.00  0.00     0.042 C 
ATOM      3  O   UNL     1      19.165  22.048  11.304  1.00  0.00    -0.550 OA
ATOM      4  O   UNL     1      17.888  22.393   9.434  1.00  0.00    -0.550 OA
ENDBRANCH   1   2
BRANCH   1   5
ATOM      5  C   UNL     1      19.321  24.640   8.689  1.00  0.00     0.059 C 
BRANCH   5   6
ATOM      6  C   UNL     1      18.519  25.860   9.024  1.00  0.00     0.042 C 
ATOM      7  O   UNL     1      17.270  25.782   9.158  1.00  0.00    -0.550 OA
ATOM      8  O   UNL     1      19.148  27.092   9.150  1.00  0.00    -0.550 OA
ENDBRANCH   5   6
ENDBRANCH   1   5
TORSDOF 3
ENDMDL
MODEL 9
REMARK VINA RESULT:    -3.238      2.024      2.627
REMARK INTER + INTRA:          -3.908
REMARK INTER:                  -3.741
REMARK INTRA:                  -0.167
REMARK UNBOUND:                -0.103
REMARK SMILES O=C([O-])CCC(=O)[O-]
REMARK SMILES IDX 4 1 2 2 1 3 3 4 5 5 6 6 7 7 8 8
REMARK H PARENT
REMARK Flexibility Score: inf
ROOT
ATOM      1  C   UNL     1      17.368  25.215   8.972  1.00  0.00     0.059 C 
ENDROOT
BRANCH   1   2
ATOM      2  C   UNL     1      18.682  25.854   9.306  1.00  0.00     0.042 C 
ATOM      3  O   UNL     1      19.388  25.399  10.242  1.00  0.00    -0.550 OA
ATOM      4  O   UNL     1      19.105  26.977   8.606  1.00  0.00    -0.550 OA
ENDBRANCH   1   2
BRANCH   1   5
ATOM      5  C   UNL     1      17.393  24.564   7.586  1.00  0.00     0.059 C 
BRANCH   5   6
ATOM      6  C   UNL     1      18.326  23.392   7.545  1.00  0.00     0.042 C 
ATOM      7  O   UNL     1      19.151  23.270   6.601  1.00  0.00    -0.550 OA
ATOM      8  O   UNL     1      18.256  22.413   8.528  1.00  0.00    -0.550 OA
ENDBRANCH   5   6
ENDBRANCH   1   5
TORSDOF 3
ENDMDL
