MODEL 1
REMARK VINA RESULT:    -4.278      0.000      0.000
REMARK INTER + INTRA:          -9.271
REMARK INTER:                  -7.780
REMARK INTRA:                  -1.492
REMARK UNBOUND:                -1.492
REMARK SMILES CCCCCCCCCCCCCC[C@H](C)C(=O)[O-]
REMARK SMILES IDX 9 1 10 2 11 3 12 4 13 5 14 6 15 7 16 8 17 9 18 10 19 11 8 12
REMARK SMILES IDX 7 13 6 14 5 15 4 16 3 17 2 18 1 19
REMARK H PARENT
REMARK Flexibility Score: inf
ROOT
ATOM      1  C   UNL     1      -6.765  -5.585 -14.439  1.00  0.00     0.000 C 
ENDROOT
BRANCH   1   2
ATOM      2  C   UNL     1      -8.280  -5.733 -14.206  1.00  0.00     0.000 C 
BRANCH   2   3
ATOM      3  C   UNL     1      -8.735  -7.201 -14.159  1.00  0.00     0.000 C 
BRANCH   3   4
ATOM      4  C   UNL     1     -10.264  -7.355 -14.238  1.00  0.00     0.000 C 
BRANCH   4   5
ATOM      5  C   UNL     1     -10.989  -7.430 -12.878  1.00  0.00     0.001 C 
BRANCH   5   6
ATOM      6  C   UNL     1     -10.196  -8.114 -11.746  1.00  0.00     0.009 C 
BRANCH   6   7
ATOM      7  C   UNL     1      -9.474  -7.147 -10.780  1.00  0.00     0.032 C 
ATOM      8  C   UNL     1      -8.137  -7.710 -10.282  1.00  0.00     0.014 C 
BRANCH   7   9
ATOM      9  C   UNL     1     -10.367  -6.853  -9.605  1.00  0.00     0.044 C 
ATOM     10  O   UNL     1     -10.645  -5.662  -9.305  1.00  0.00    -0.550 OA
ATOM     11  O   UNL     1     -10.905  -7.891  -8.854  1.00  0.00    -0.550 OA
ENDBRANCH   7   9
ENDBRANCH   6   7
ENDBRANCH   5   6
ENDBRANCH   4   5
ENDBRANCH   3   4
ENDBRANCH   2   3
ENDBRANCH   1   2
BRANCH   1  12
ATOM     12  C   UNL     1      -6.026  -4.704 -13.410  1.00  0.00     0.000 C 
BRANCH  12  13
ATOM     13  C   UNL     1      -6.750  -3.399 -13.022  1.00  0.00    -0.000 C 
BRANCH  13  14
ATOM     14  C   UNL     1      -6.682  -3.034 -11.528  1.00  0.00    -0.000 C 
BRANCH  14  15
ATOM     15  C   UNL     1      -7.319  -4.103 -10.625  1.00  0.00    -0.000 C 
BRANCH  15  16
ATOM     16  C   UNL     1      -6.346  -4.627  -9.556  1.00  0.00    -0.000 C 
BRANCH  16  17
ATOM     17  C   UNL     1      -5.977  -3.558  -8.513  1.00  0.00    -0.000 C 
BRANCH  17  18
ATOM     18  C   UNL     1      -4.761  -3.960  -7.663  1.00  0.00    -0.003 C 
ATOM     19  C   UNL     1      -4.607  -5.474  -7.533  1.00  0.00     0.004 C 
ENDBRANCH  17  18
ENDBRANCH  16  17
ENDBRANCH  15  16
ENDBRANCH  14  15
ENDBRANCH  13  14
ENDBRANCH  12  13
ENDBRANCH   1  12
TORSDOF 14
ENDMDL
MODEL 2
REMARK VINA RESULT:    -4.237      2.333      4.080
REMARK INTER + INTRA:          -9.197
REMARK INTER:                  -7.260
REMARK INTRA:                  -1.937
REMARK UNBOUND:                -1.492
REMARK SMILES CCCCCCCCCCCCCC[C@H](C)C(=O)[O-]
REMARK SMILES IDX 9 1 10 2 11 3 12 4 13 5 14 6 15 7 16 8 17 9 18 10 19 11 8 12
REMARK SMILES IDX 7 13 6 14 5 15 4 16 3 17 2 18 1 19
REMARK H PARENT
REMARK Flexibility Score: inf
ROOT
ATOM      1  C   UNL     1     -10.040  -7.191  -9.929  1.00  0.00     0.000 C 
ENDROOT
BRANCH   1   2
ATOM      2  C   UNL     1     -11.015  -7.459 -11.091  1.00  0.00     0.000 C 
BRANCH   2   3
ATOM      3  C   UNL     1     -10.335  -8.125 -12.299  1.00  0.00     0.000 C 
BRANCH   3   4
ATOM      4  C   UNL     1     -10.307  -7.219 -13.542  1.00  0.00     0.000 C 
BRANCH   4   5
ATOM      5  C   UNL     1      -8.909  -6.975 -14.147  1.00  0.00     0.001 C 
BRANCH   5   6
ATOM      6  C   UNL     1      -8.421  -5.512 -14.110  1.00  0.00     0.009 C 
BRANCH   6   7
ATOM      7  C   UNL     1      -6.888  -5.335 -14.191  1.00  0.00     0.032 C 
ATOM      8  C   UNL     1      -6.131  -6.500 -13.541  1.00  0.00     0.014 C 
BRANCH   7   9
ATOM      9  C   UNL     1      -6.497  -4.044 -13.525  1.00  0.00     0.044 C 
ATOM     10  O   UNL     1      -5.341  -3.906 -13.042  1.00  0.00    -0.550 OA
ATOM     11  O   UNL     1      -7.399  -2.989 -13.452  1.00  0.00    -0.550 OA
ENDBRANCH   7   9
ENDBRANCH   6   7
ENDBRANCH   5   6
ENDBRANCH   4   5
ENDBRANCH   3   4
ENDBRANCH   2   3
ENDBRANCH   1   2
BRANCH   1  12
ATOM     12  C   UNL     1      -8.613  -7.739 -10.132  1.00  0.00     0.000 C 
BRANCH  12  13
ATOM     13  C   UNL     1      -7.515  -6.669 -10.296  1.00  0.00    -0.000 C 
BRANCH  13  14
ATOM     14  C   UNL     1      -8.026  -5.254 -10.625  1.00  0.00    -0.000 C 
BRANCH  14  15
ATOM     15  C   UNL     1      -7.193  -4.149  -9.952  1.00  0.00    -0.000 C 
BRANCH  15  16
ATOM     16  C   UNL     1      -6.011  -4.712  -9.146  1.00  0.00    -0.000 C 
BRANCH  16  17
ATOM     17  C   UNL     1      -5.413  -3.682  -8.171  1.00  0.00    -0.000 C 
BRANCH  17  18
ATOM     18  C   UNL     1      -4.421  -4.315  -7.182  1.00  0.00    -0.003 C 
ATOM     19  C   UNL     1      -4.476  -5.842  -7.188  1.00  0.00     0.004 C 
ENDBRANCH  17  18
ENDBRANCH  16  17
ENDBRANCH  15  16
ENDBRANCH  14  15
ENDBRANCH  13  14
ENDBRANCH  12  13
ENDBRANCH   1  12
TORSDOF 14
ENDMDL
MODEL 3
REMARK VINA RESULT:    -4.073     14.172     16.398
REMARK INTER + INTRA:          -8.897
REMARK INTER:                  -7.792
REMARK INTRA:                  -1.105
REMARK UNBOUND:                -1.492
REMARK SMILES CCCCCCCCCCCCCC[C@H](C)C(=O)[O-]
REMARK SMILES IDX 9 1 10 2 11 3 12 4 13 5 14 6 15 7 16 8 17 9 18 10 19 11 8 12
REMARK SMILES IDX 7 13 6 14 5 15 4 16 3 17 2 18 1 19
REMARK H PARENT
REMARK Flexibility Score: inf
ROOT
ATOM      1  C   UNL     1       3.970  -1.486 -13.480  1.00  0.00     0.000 C 
ENDROOT
BRANCH   1   2
ATOM      2  C   UNL     1       4.552  -2.486 -14.496  1.00  0.00     0.000 C 
BRANCH   2   3
ATOM      3  C   UNL     1       5.347  -3.620 -13.828  1.00  0.00     0.000 C 
BRANCH   3   4
ATOM      4  C   UNL     1       5.979  -3.199 -12.489  1.00  0.00     0.000 C 
BRANCH   4   5
ATOM      5  C   UNL     1       7.183  -4.048 -12.034  1.00  0.00     0.001 C 
BRANCH   5   6
ATOM      6  C   UNL     1       8.024  -3.441 -10.892  1.00  0.00     0.009 C 
BRANCH   6   7
ATOM      7  C   UNL     1       8.920  -4.448 -10.136  1.00  0.00     0.032 C 
ATOM      8  C   UNL     1       8.471  -5.900 -10.347  1.00  0.00     0.014 C 
BRANCH   7   9
ATOM      9  C   UNL     1       8.909  -4.124  -8.667  1.00  0.00     0.044 C 
ATOM     10  O   UNL     1       8.719  -5.036  -7.819  1.00  0.00    -0.550 OA
ATOM     11  O   UNL     1       9.125  -2.821  -8.233  1.00  0.00    -0.550 OA
ENDBRANCH   7   9
ENDBRANCH   6   7
ENDBRANCH   5   6
ENDBRANCH   4   5
ENDBRANCH   3   4
ENDBRANCH   2   3
ENDBRANCH   1   2
BRANCH   1  12
ATOM     12  C   UNL     1       4.398  -0.019 -13.684  1.00  0.00     0.000 C 
BRANCH  12  13
ATOM     13  C   UNL     1       5.825   0.179 -14.235  1.00  0.00    -0.000 C 
BRANCH  13  14
ATOM     14  C   UNL     1       6.935   0.234 -13.168  1.00  0.00    -0.000 C 
BRANCH  14  15
ATOM     15  C   UNL     1       7.890   1.424 -13.365  1.00  0.00    -0.000 C 
BRANCH  15  16
ATOM     16  C   UNL     1       8.773   1.680 -12.133  1.00  0.00    -0.000 C 
BRANCH  16  17
ATOM     17  C   UNL     1       8.809   3.164 -11.726  1.00  0.00    -0.000 C 
BRANCH  17  18
ATOM     18  C   UNL     1       8.266   3.397 -10.307  1.00  0.00    -0.003 C 
ATOM     19  C   UNL     1       8.877   2.448  -9.278  1.00  0.00     0.004 C 
ENDBRANCH  17  18
ENDBRANCH  16  17
ENDBRANCH  15  16
ENDBRANCH  14  15
ENDBRANCH  13  14
ENDBRANCH  12  13
ENDBRANCH   1  12
TORSDOF 14
ENDMDL
MODEL 4
REMARK VINA RESULT:    -3.764     14.403     17.059
REMARK INTER + INTRA:          -8.336
REMARK INTER:                  -7.273
REMARK INTRA:                  -1.063
REMARK UNBOUND:                -1.492
REMARK SMILES CCCCCCCCCCCCCC[C@H](C)C(=O)[O-]
REMARK SMILES IDX 9 1 10 2 11 3 12 4 13 5 14 6 15 7 16 8 17 9 18 10 19 11 8 12
REMARK SMILES IDX 7 13 6 14 5 15 4 16 3 17 2 18 1 19
REMARK H PARENT
REMARK Flexibility Score: inf
ROOT
ATOM      1  C   UNL     1       4.056  -1.565 -14.105  1.00  0.00     0.000 C 
ENDROOT
BRANCH   1   2
ATOM      2  C   UNL     1       4.723  -0.266 -13.615  1.00  0.00     0.000 C 
BRANCH   2   3
ATOM      3  C   UNL     1       6.259  -0.336 -13.646  1.00  0.00     0.000 C 
BRANCH   3   4
ATOM      4  C   UNL     1       6.925   0.991 -13.240  1.00  0.00     0.000 C 
BRANCH   4   5
ATOM      5  C   UNL     1       8.441   0.910 -12.968  1.00  0.00     0.001 C 
BRANCH   5   6
ATOM      6  C   UNL     1       8.867   1.201 -11.514  1.00  0.00     0.009 C 
BRANCH   6   7
ATOM      7  C   UNL     1       8.188   2.431 -10.871  1.00  0.00     0.032 C 
ATOM      8  C   UNL     1       8.413   3.713 -11.683  1.00  0.00     0.014 C 
BRANCH   7   9
ATOM      9  C   UNL     1       8.713   2.619  -9.473  1.00  0.00     0.044 C 
ATOM     10  O   UNL     1       8.768   3.772  -8.968  1.00  0.00    -0.550 OA
ATOM     11  O   UNL     1       9.125   1.524  -8.724  1.00  0.00    -0.550 OA
ENDBRANCH   7   9
ENDBRANCH   6   7
ENDBRANCH   5   6
ENDBRANCH   4   5
ENDBRANCH   3   4
ENDBRANCH   2   3
ENDBRANCH   1   2
BRANCH   1  12
ATOM     12  C   UNL     1       4.988  -2.792 -14.180  1.00  0.00     0.000 C 
BRANCH  12  13
ATOM     13  C   UNL     1       5.023  -3.669 -12.912  1.00  0.00    -0.000 C 
BRANCH  13  14
ATOM     14  C   UNL     1       6.410  -4.230 -12.544  1.00  0.00    -0.000 C 
BRANCH  14  15
ATOM     15  C   UNL     1       7.289  -3.206 -11.806  1.00  0.00    -0.000 C 
BRANCH  15  16
ATOM     16  C   UNL     1       8.495  -3.858 -11.111  1.00  0.00    -0.000 C 
BRANCH  16  17
ATOM     17  C   UNL     1       8.413  -3.777  -9.577  1.00  0.00    -0.000 C 
BRANCH  17  18
ATOM     18  C   UNL     1       8.525  -5.155  -8.908  1.00  0.00    -0.003 C 
ATOM     19  C   UNL     1       8.433  -6.306  -9.908  1.00  0.00     0.004 C 
ENDBRANCH  17  18
ENDBRANCH  16  17
ENDBRANCH  15  16
ENDBRANCH  14  15
ENDBRANCH  13  14
ENDBRANCH  12  13
ENDBRANCH   1  12
TORSDOF 14
ENDMDL
MODEL 5
REMARK VINA RESULT:    -3.706     14.291     16.796
REMARK INTER + INTRA:          -8.230
REMARK INTER:                  -6.972
REMARK INTRA:                  -1.258
REMARK UNBOUND:                -1.492
REMARK SMILES CCCCCCCCCCCCCC[C@H](C)C(=O)[O-]
REMARK SMILES IDX 9 1 10 2 11 3 12 4 13 5 14 6 15 7 16 8 17 9 18 10 19 11 8 12
REMARK SMILES IDX 7 13 6 14 5 15 4 16 3 17 2 18 1 19
REMARK H PARENT
REMARK Flexibility Score: inf
ROOT
ATOM      1  C   UNL     1       4.465  -2.660 -14.064  1.00  0.00     0.000 C 
ENDROOT
BRANCH   1   2
ATOM      2  C   UNL     1       4.207  -1.525 -13.056  1.00  0.00     0.000 C 
BRANCH   2   3
ATOM      3  C   UNL     1       4.404  -0.128 -13.667  1.00  0.00     0.000 C 
BRANCH   3   4
ATOM      4  C   UNL     1       5.808   0.070 -14.265  1.00  0.00     0.000 C 
BRANCH   4   5
ATOM      5  C   UNL     1       6.950   0.189 -13.235  1.00  0.00     0.001 C 
BRANCH   5   6
ATOM      6  C   UNL     1       7.747   1.509 -13.283  1.00  0.00     0.009 C 
BRANCH   6   7
ATOM      7  C   UNL     1       8.858   1.639 -12.217  1.00  0.00     0.032 C 
ATOM      8  C   UNL     1       9.013   0.363 -11.379  1.00  0.00     0.014 C 
BRANCH   7   9
ATOM      9  C   UNL     1       8.551   2.802 -11.313  1.00  0.00     0.044 C 
ATOM     10  O   UNL     1       8.118   3.882 -11.797  1.00  0.00    -0.550 OA
ATOM     11  O   UNL     1       8.727   2.691  -9.939  1.00  0.00    -0.550 OA
ENDBRANCH   7   9
ENDBRANCH   6   7
ENDBRANCH   5   6
ENDBRANCH   4   5
ENDBRANCH   3   4
ENDBRANCH   2   3
ENDBRANCH   1   2
BRANCH   1  12
ATOM     12  C   UNL     1       5.747  -3.480 -13.815  1.00  0.00     0.000 C 
BRANCH  12  13
ATOM     13  C   UNL     1       6.111  -3.696 -12.332  1.00  0.00    -0.000 C 
BRANCH  13  14
ATOM     14  C   UNL     1       7.539  -3.272 -11.942  1.00  0.00    -0.000 C 
BRANCH  14  15
ATOM     15  C   UNL     1       8.322  -4.394 -11.238  1.00  0.00    -0.000 C 
BRANCH  15  16
ATOM     16  C   UNL     1       8.345  -4.225  -9.710  1.00  0.00    -0.000 C 
BRANCH  16  17
ATOM     17  C   UNL     1       8.436  -5.569  -8.966  1.00  0.00    -0.000 C 
BRANCH  17  18
ATOM     18  C   UNL     1       8.570  -6.764  -9.923  1.00  0.00    -0.003 C 
ATOM     19  C   UNL     1       7.918  -8.033  -9.378  1.00  0.00     0.004 C 
ENDBRANCH  17  18
ENDBRANCH  16  17
ENDBRANCH  15  16
ENDBRANCH  14  15
ENDBRANCH  13  14
ENDBRANCH  12  13
ENDBRANCH   1  12
TORSDOF 14
ENDMDL
MODEL 6
REMARK VINA RESULT:    -3.230      1.491      4.608
REMARK INTER + INTRA:          -7.364
REMARK INTER:                  -5.661
REMARK INTRA:                  -1.703
REMARK UNBOUND:                -1.492
REMARK SMILES CCCCCCCCCCCCCC[C@H](C)C(=O)[O-]
REMARK SMILES IDX 9 1 10 2 11 3 12 4 13 5 14 6 15 7 16 8 17 9 18 10 19 11 8 12
REMARK SMILES IDX 7 13 6 14 5 15 4 16 3 17 2 18 1 19
REMARK H PARENT
REMARK Flexibility Score: inf
ROOT
ATOM      1  C   UNL     1      -6.509  -4.422 -10.020  1.00  0.00     0.000 C 
ENDROOT
BRANCH   1   2
ATOM      2  C   UNL     1      -7.585  -5.452  -9.629  1.00  0.00     0.000 C 
BRANCH   2   3
ATOM      3  C   UNL     1      -7.099  -6.904  -9.768  1.00  0.00     0.000 C 
BRANCH   3   4
ATOM      4  C   UNL     1      -7.690  -7.616 -10.997  1.00  0.00     0.000 C 
BRANCH   4   5
ATOM      5  C   UNL     1      -9.226  -7.762 -10.998  1.00  0.00     0.001 C 
BRANCH   5   6
ATOM      6  C   UNL     1      -9.855  -8.119  -9.636  1.00  0.00     0.009 C 
BRANCH   6   7
ATOM      7  C   UNL     1     -11.096  -7.282  -9.251  1.00  0.00     0.032 C 
ATOM      8  C   UNL     1     -11.122  -5.920  -9.957  1.00  0.00     0.014 C 
BRANCH   7   9
ATOM      9  C   UNL     1     -11.122  -7.080  -7.761  1.00  0.00     0.044 C 
ATOM     10  O   UNL     1     -11.125  -8.074  -6.987  1.00  0.00    -0.550 OA
ATOM     11  O   UNL     1     -11.125  -5.797  -7.226  1.00  0.00    -0.550 OA
ENDBRANCH   7   9
ENDBRANCH   6   7
ENDBRANCH   5   6
ENDBRANCH   4   5
ENDBRANCH   3   4
ENDBRANCH   2   3
ENDBRANCH   1   2
BRANCH   1  12
ATOM     12  C   UNL     1      -7.011  -3.240 -10.874  1.00  0.00     0.000 C 
BRANCH  12  13
ATOM     13  C   UNL     1      -6.257  -3.022 -12.202  1.00  0.00    -0.000 C 
BRANCH  13  14
ATOM     14  C   UNL     1      -6.835  -3.776 -13.413  1.00  0.00    -0.000 C 
BRANCH  14  15
ATOM     15  C   UNL     1      -6.375  -5.243 -13.475  1.00  0.00    -0.000 C 
BRANCH  15  16
ATOM     16  C   UNL     1      -7.115  -6.046 -14.557  1.00  0.00    -0.000 C 
BRANCH  16  17
ATOM     17  C   UNL     1      -8.614  -6.216 -14.250  1.00  0.00    -0.000 C 
BRANCH  17  18
ATOM     18  C   UNL     1      -9.108  -7.648 -14.510  1.00  0.00    -0.003 C 
ATOM     19  C   UNL     1     -10.628  -7.734 -14.635  1.00  0.00     0.004 C 
ENDBRANCH  17  18
ENDBRANCH  16  17
ENDBRANCH  15  16
ENDBRANCH  14  15
ENDBRANCH  13  14
ENDBRANCH  12  13
ENDBRANCH   1  12
TORSDOF 14
ENDMDL
MODEL 7
REMARK VINA RESULT:    -3.190      2.243      5.209
REMARK INTER + INTRA:          -7.292
REMARK INTER:                  -5.448
REMARK INTRA:                  -1.844
REMARK UNBOUND:                -1.492
REMARK SMILES CCCCCCCCCCCCCC[C@H](C)C(=O)[O-]
REMARK SMILES IDX 9 1 10 2 11 3 12 4 13 5 14 6 15 7 16 8 17 9 18 10 19 11 8 12
REMARK SMILES IDX 7 13 6 14 5 15 4 16 3 17 2 18 1 19
REMARK H PARENT
REMARK Flexibility Score: inf
ROOT
ATOM      1  C   UNL     1     -10.511  -7.041 -12.374  1.00  0.00     0.000 C 
ENDROOT
BRANCH   1   2
ATOM      2  C   UNL     1     -11.002  -7.676 -11.059  1.00  0.00     0.000 C 
BRANCH   2   3
ATOM      3  C   UNL     1      -9.864  -7.917 -10.053  1.00  0.00     0.000 C 
BRANCH   3   4
ATOM      4  C   UNL     1      -8.957  -6.687  -9.872  1.00  0.00     0.000 C 
BRANCH   4   5
ATOM      5  C   UNL     1      -7.462  -6.924 -10.172  1.00  0.00     0.001 C 
BRANCH   5   6
ATOM      6  C   UNL     1      -6.613  -5.647 -10.339  1.00  0.00     0.009 C 
BRANCH   6   7
ATOM      7  C   UNL     1      -6.713  -4.640  -9.171  1.00  0.00     0.032 C 
ATOM      8  C   UNL     1      -6.990  -3.211  -9.655  1.00  0.00     0.014 C 
BRANCH   7   9
ATOM      9  C   UNL     1      -5.436  -4.666  -8.376  1.00  0.00     0.044 C 
ATOM     10  O   UNL     1      -4.767  -3.610  -8.219  1.00  0.00    -0.550 OA
ATOM     11  O   UNL     1      -4.993  -5.848  -7.795  1.00  0.00    -0.550 OA
ENDBRANCH   7   9
ENDBRANCH   6   7
ENDBRANCH   5   6
ENDBRANCH   4   5
ENDBRANCH   3   4
ENDBRANCH   2   3
ENDBRANCH   1   2
BRANCH   1  12
ATOM     12  C   UNL     1     -10.379  -8.015 -13.562  1.00  0.00     0.000 C 
BRANCH  12  13
ATOM     13  C   UNL     1      -8.965  -8.125 -14.168  1.00  0.00    -0.000 C 
BRANCH  13  14
ATOM     14  C   UNL     1      -7.810  -7.881 -13.179  1.00  0.00    -0.000 C 
BRANCH  14  15
ATOM     15  C   UNL     1      -6.613  -7.164 -13.827  1.00  0.00    -0.000 C 
BRANCH  15  16
ATOM     16  C   UNL     1      -7.026  -5.880 -14.564  1.00  0.00    -0.000 C 
BRANCH  16  17
ATOM     17  C   UNL     1      -7.994  -5.008 -13.744  1.00  0.00    -0.000 C 
BRANCH  17  18
ATOM     18  C   UNL     1      -7.352  -3.691 -13.283  1.00  0.00    -0.003 C 
ATOM     19  C   UNL     1      -5.828  -3.706 -13.394  1.00  0.00     0.004 C 
ENDBRANCH  17  18
ENDBRANCH  16  17
ENDBRANCH  15  16
ENDBRANCH  14  15
ENDBRANCH  13  14
ENDBRANCH  12  13
ENDBRANCH   1  12
TORSDOF 14
ENDMDL
MODEL 8
REMARK VINA RESULT:    -2.882      2.289      5.426
REMARK INTER + INTRA:          -6.732
REMARK INTER:                  -4.993
REMARK INTRA:                  -1.739
REMARK UNBOUND:                -1.492
REMARK SMILES CCCCCCCCCCCCCC[C@H](C)C(=O)[O-]
REMARK SMILES IDX 9 1 10 2 11 3 12 4 13 5 14 6 15 7 16 8 17 9 18 10 19 11 8 12
REMARK SMILES IDX 7 13 6 14 5 15 4 16 3 17 2 18 1 19
REMARK H PARENT
REMARK Flexibility Score: inf
ROOT
ATOM      1  C   UNL     1      -6.537  -5.850 -13.482  1.00  0.00     0.000 C 
ENDROOT
BRANCH   1   2
ATOM      2  C   UNL     1      -7.288  -4.604 -12.978  1.00  0.00     0.000 C 
BRANCH   2   3
ATOM      3  C   UNL     1      -6.362  -3.394 -12.768  1.00  0.00     0.000 C 
BRANCH   3   4
ATOM      4  C   UNL     1      -6.811  -2.493 -11.604  1.00  0.00     0.000 C 
BRANCH   4   5
ATOM      5  C   UNL     1      -7.467  -3.230 -10.418  1.00  0.00     0.001 C 
BRANCH   5   6
ATOM      6  C   UNL     1      -6.574  -3.402  -9.173  1.00  0.00     0.009 C 
BRANCH   6   7
ATOM      7  C   UNL     1      -5.705  -4.681  -9.166  1.00  0.00     0.032 C 
ATOM      8  C   UNL     1      -6.534  -5.950  -9.400  1.00  0.00     0.014 C 
BRANCH   7   9
ATOM      9  C   UNL     1      -4.979  -4.786  -7.853  1.00  0.00     0.044 C 
ATOM     10  O   UNL     1      -4.702  -5.917  -7.372  1.00  0.00    -0.550 OA
ATOM     11  O   UNL     1      -4.593  -3.639  -7.169  1.00  0.00    -0.550 OA
ENDBRANCH   7   9
ENDBRANCH   6   7
ENDBRANCH   5   6
ENDBRANCH   4   5
ENDBRANCH   3   4
ENDBRANCH   2   3
ENDBRANCH   1   2
BRANCH   1  12
ATOM     12  C   UNL     1      -7.126  -6.504 -14.748  1.00  0.00     0.000 C 
BRANCH  12  13
ATOM     13  C   UNL     1      -8.134  -7.642 -14.492  1.00  0.00    -0.000 C 
BRANCH  13  14
ATOM     14  C   UNL     1      -9.605  -7.199 -14.379  1.00  0.00    -0.000 C 
BRANCH  14  15
ATOM     15  C   UNL     1     -10.437  -8.124 -13.474  1.00  0.00    -0.000 C 
BRANCH  15  16
ATOM     16  C   UNL     1     -10.841  -7.448 -12.154  1.00  0.00    -0.000 C 
BRANCH  16  17
ATOM     17  C   UNL     1      -9.628  -7.078 -11.281  1.00  0.00    -0.000 C 
BRANCH  17  18
ATOM     18  C   UNL     1      -9.985  -6.978  -9.790  1.00  0.00    -0.003 C 
ATOM     19  C   UNL     1     -10.701  -5.675  -9.440  1.00  0.00     0.004 C 
ENDBRANCH  17  18
ENDBRANCH  16  17
ENDBRANCH  15  16
ENDBRANCH  14  15
ENDBRANCH  13  14
ENDBRANCH  12  13
ENDBRANCH   1  12
TORSDOF 14
ENDMDL
MODEL 9
REMARK VINA RESULT:    -2.655     13.985     16.314
REMARK INTER + INTRA:          -6.320
REMARK INTER:                  -5.042
REMARK INTRA:                  -1.278
REMARK UNBOUND:                -1.492
REMARK SMILES CCCCCCCCCCCCCC[C@H](C)C(=O)[O-]
REMARK SMILES IDX 9 1 10 2 11 3 12 4 13 5 14 6 15 7 16 8 17 9 18 10 19 11 8 12
REMARK SMILES IDX 7 13 6 14 5 15 4 16 3 17 2 18 1 19
REMARK H PARENT
REMARK Flexibility Score: inf
ROOT
ATOM      1  C   UNL     1       4.238  -3.154 -12.658  1.00  0.00     0.000 C 
ENDROOT
BRANCH   1   2
ATOM      2  C   UNL     1       5.409  -3.910 -13.315  1.00  0.00     0.000 C 
BRANCH   2   3
ATOM      3  C   UNL     1       6.600  -4.107 -12.363  1.00  0.00     0.000 C 
BRANCH   3   4
ATOM      4  C   UNL     1       7.366  -2.801 -12.088  1.00  0.00     0.000 C 
BRANCH   4   5
ATOM      5  C   UNL     1       8.607  -2.944 -11.183  1.00  0.00     0.001 C 
BRANCH   5   6
ATOM      6  C   UNL     1       9.066  -4.392 -10.917  1.00  0.00     0.009 C 
BRANCH   6   7
ATOM      7  C   UNL     1       8.352  -5.096  -9.741  1.00  0.00     0.032 C 
ATOM      8  C   UNL     1       8.676  -4.446  -8.389  1.00  0.00     0.014 C 
BRANCH   7   9
ATOM      9  C   UNL     1       8.748  -6.547  -9.711  1.00  0.00     0.044 C 
ATOM     10  O   UNL     1       9.104  -7.084  -8.628  1.00  0.00    -0.550 OA
ATOM     11  O   UNL     1       8.707  -7.311 -10.871  1.00  0.00    -0.550 OA
ENDBRANCH   7   9
ENDBRANCH   6   7
ENDBRANCH   5   6
ENDBRANCH   4   5
ENDBRANCH   3   4
ENDBRANCH   2   3
ENDBRANCH   1   2
BRANCH   1  12
ATOM     12  C   UNL     1       3.932  -1.769 -13.261  1.00  0.00     0.000 C 
BRANCH  12  13
ATOM     13  C   UNL     1       4.805  -1.369 -14.468  1.00  0.00    -0.000 C 
BRANCH  13  14
ATOM     14  C   UNL     1       5.220   0.113 -14.512  1.00  0.00    -0.000 C 
BRANCH  14  15
ATOM     15  C   UNL     1       6.023   0.544 -13.273  1.00  0.00    -0.000 C 
BRANCH  15  16
ATOM     16  C   UNL     1       7.515   0.750 -13.581  1.00  0.00    -0.000 C 
BRANCH  16  17
ATOM     17  C   UNL     1       8.393   0.716 -12.318  1.00  0.00    -0.000 C 
BRANCH  17  18
ATOM     18  C   UNL     1       9.087   2.060 -12.047  1.00  0.00    -0.003 C 
ATOM     19  C   UNL     1       8.108   3.157 -11.634  1.00  0.00     0.004 C 
ENDBRANCH  17  18
ENDBRANCH  16  17
ENDBRANCH  15  16
ENDBRANCH  14  15
ENDBRANCH  13  14
ENDBRANCH  12  13
ENDBRANCH   1  12
TORSDOF 14
ENDMDL
