MODEL 1
REMARK VINA RESULT:    -2.439      0.000      0.000
REMARK INTER + INTRA:          -2.439
REMARK INTER:                  -2.439
REMARK INTRA:                   0.000
REMARK UNBOUND:                 0.000
REMARK SMILES CC(=O)[O-]
REMARK SMILES IDX 1 1 2 2 3 3 4 4
REMARK H PARENT
REMARK Flexibility Score: inf
ROOT
ATOM      1  C   UNL     1      66.359  41.132  28.021  1.00  0.00     0.063 C 
ATOM      2  C   UNL     1      65.222  41.535  27.144  1.00  0.00     0.038 C 
ATOM      3  O   UNL     1      64.770  40.733  26.285  1.00  0.00    -0.550 OA
ATOM      4  O   UNL     1      64.621  42.777  27.309  1.00  0.00    -0.550 OA
ENDROOT
TORSDOF 0
ENDMDL
MODEL 2
REMARK VINA RESULT:    -2.412      1.355      2.099
REMARK INTER + INTRA:          -2.412
REMARK INTER:                  -2.412
REMARK INTRA:                   0.000
REMARK UNBOUND:                 0.000
REMARK SMILES CC(=O)[O-]
REMARK SMILES IDX 1 1 2 2 3 3 4 4
REMARK H PARENT
REMARK Flexibility Score: inf
ROOT
ATOM      1  C   UNL     1      64.529  42.998  27.274  1.00  0.00     0.063 C 
ATOM      2  C   UNL     1      65.164  41.653  27.166  1.00  0.00     0.038 C 
ATOM      3  O   UNL     1      66.082  41.322  27.961  1.00  0.00    -0.550 OA
ATOM      4  O   UNL     1      64.708  40.741  26.222  1.00  0.00    -0.550 OA
ENDROOT
TORSDOF 0
ENDMDL
MODEL 3
REMARK VINA RESULT:    -2.298      1.369      2.036
REMARK INTER + INTRA:          -2.298
REMARK INTER:                  -2.298
REMARK INTRA:                   0.000
REMARK UNBOUND:                 0.000
REMARK SMILES CC(=O)[O-]
REMARK SMILES IDX 1 1 2 2 3 3 4 4
REMARK H PARENT
REMARK Flexibility Score: inf
ROOT
ATOM      1  C   UNL     1      64.758  40.660  26.149  1.00  0.00     0.063 C 
ATOM      2  C   UNL     1      65.188  41.652  27.177  1.00  0.00     0.038 C 
ATOM      3  O   UNL     1      64.647  42.788  27.223  1.00  0.00    -0.550 OA
ATOM      4  O   UNL     1      66.147  41.307  28.121  1.00  0.00    -0.550 OA
ENDROOT
TORSDOF 0
ENDMDL
MODEL 4
REMARK VINA RESULT:    -2.283      8.489      8.934
REMARK INTER + INTRA:          -2.283
REMARK INTER:                  -2.283
REMARK INTRA:                   0.000
REMARK UNBOUND:                 0.000
REMARK SMILES CC(=O)[O-]
REMARK SMILES IDX 1 1 2 2 3 3 4 4
REMARK H PARENT
REMARK Flexibility Score: inf
ROOT
ATOM      1  C   UNL     1      62.250  48.255  26.750  1.00  0.00     0.063 C 
ATOM      2  C   UNL     1      61.932  49.712  26.787  1.00  0.00     0.038 C 
ATOM      3  O   UNL     1      62.624  50.492  27.493  1.00  0.00    -0.550 OA
ATOM      4  O   UNL     1      60.908  50.222  25.999  1.00  0.00    -0.550 OA
ENDROOT
TORSDOF 0
ENDMDL
MODEL 5
REMARK VINA RESULT:    -2.251      8.261      9.107
REMARK INTER + INTRA:          -2.251
REMARK INTER:                  -2.251
REMARK INTRA:                   0.000
REMARK UNBOUND:                 0.000
REMARK SMILES CC(=O)[O-]
REMARK SMILES IDX 1 1 2 2 3 3 4 4
REMARK H PARENT
REMARK Flexibility Score: inf
ROOT
ATOM      1  C   UNL     1      60.586  50.074  26.149  1.00  0.00     0.063 C 
ATOM      2  C   UNL     1      61.915  49.665  26.690  1.00  0.00     0.038 C 
ATOM      3  O   UNL     1      62.630  50.497  27.307  1.00  0.00    -0.550 OA
ATOM      4  O   UNL     1      62.343  48.349  26.562  1.00  0.00    -0.550 OA
ENDROOT
TORSDOF 0
ENDMDL
MODEL 6
REMARK VINA RESULT:    -2.219      8.061      8.765
REMARK INTER + INTRA:          -2.219
REMARK INTER:                  -2.219
REMARK INTRA:                   0.000
REMARK UNBOUND:                 0.000
REMARK SMILES CC(=O)[O-]
REMARK SMILES IDX 1 1 2 2 3 3 4 4
REMARK H PARENT
REMARK Flexibility Score: inf
ROOT
ATOM      1  C   UNL     1      60.611  49.771  26.216  1.00  0.00     0.063 C 
ATOM      2  C   UNL     1      61.947  49.410  26.772  1.00  0.00     0.038 C 
ATOM      3  O   UNL     1      62.403  48.247  26.618  1.00  0.00    -0.550 OA
ATOM      4  O   UNL     1      62.717  50.373  27.414  1.00  0.00    -0.550 OA
ENDROOT
TORSDOF 0
ENDMDL
MODEL 7
REMARK VINA RESULT:    -2.174      9.965     10.303
REMARK INTER + INTRA:          -2.174
REMARK INTER:                  -2.174
REMARK INTRA:                   0.000
REMARK UNBOUND:                 0.000
REMARK SMILES CC(=O)[O-]
REMARK SMILES IDX 1 1 2 2 3 3 4 4
REMARK H PARENT
REMARK Flexibility Score: inf
ROOT
ATOM      1  C   UNL     1      69.414  50.601  21.458  1.00  0.00     0.063 C 
ATOM      2  C   UNL     1      69.327  49.421  22.367  1.00  0.00     0.038 C 
ATOM      3  O   UNL     1      68.410  48.572  22.215  1.00  0.00    -0.550 OA
ATOM      4  O   UNL     1      70.289  49.228  23.351  1.00  0.00    -0.550 OA
ENDROOT
TORSDOF 0
ENDMDL
MODEL 8
REMARK VINA RESULT:    -2.036     13.222     13.685
REMARK INTER + INTRA:          -2.036
REMARK INTER:                  -2.036
REMARK INTRA:                   0.000
REMARK UNBOUND:                 0.000
REMARK SMILES CC(=O)[O-]
REMARK SMILES IDX 1 1 2 2 3 3 4 4
REMARK H PARENT
REMARK Flexibility Score: inf
ROOT
ATOM      1  C   UNL     1      65.946  51.304  18.643  1.00  0.00     0.063 C 
ATOM      2  C   UNL     1      67.247  52.009  18.836  1.00  0.00     0.038 C 
ATOM      3  O   UNL     1      67.871  51.896  19.923  1.00  0.00    -0.550 OA
ATOM      4  O   UNL     1      67.800  52.747  17.797  1.00  0.00    -0.550 OA
ENDROOT
TORSDOF 0
ENDMDL
MODEL 9
REMARK VINA RESULT:    -2.025     10.576     10.991
REMARK INTER + INTRA:          -2.025
REMARK INTER:                  -2.025
REMARK INTRA:                   0.000
REMARK UNBOUND:                 0.000
REMARK SMILES CC(=O)[O-]
REMARK SMILES IDX 1 1 2 2 3 3 4 4
REMARK H PARENT
REMARK Flexibility Score: inf
ROOT
ATOM      1  C   UNL     1      68.660  48.942  22.325  1.00  0.00     0.063 C 
ATOM      2  C   UNL     1      69.499  50.161  22.133  1.00  0.00     0.038 C 
ATOM      3  O   UNL     1      70.193  50.606  23.084  1.00  0.00    -0.550 OA
ATOM      4  O   UNL     1      69.558  50.777  20.889  1.00  0.00    -0.550 OA
ENDROOT
TORSDOF 0
ENDMDL
