MODEL 1
REMARK VINA RESULT:    -4.315      0.000      0.000
REMARK INTER + INTRA:          -5.117
REMARK INTER:                  -5.072
REMARK INTRA:                  -0.045
REMARK UNBOUND:                -0.045
REMARK SMILES CCCCC(=O)[O-]
REMARK SMILES IDX 4 1 5 2 6 3 7 4 3 5 2 6 1 7
REMARK H PARENT
REMARK Flexibility Score: inf
ROOT
ATOM      1  C   UNL     1      19.777  -8.315  21.764  1.00  0.00     0.053 C 
ENDROOT
BRANCH   1   2
ATOM      2  C   UNL     1      19.921  -8.052  23.229  1.00  0.00     0.041 C 
ATOM      3  O   UNL     1      21.042  -7.737  23.711  1.00  0.00    -0.550 OA
ATOM      4  O   UNL     1      18.827  -8.202  24.073  1.00  0.00    -0.550 OA
ENDBRANCH   1   2
BRANCH   1   5
ATOM      5  C   UNL     1      18.565  -7.561  21.202  1.00  0.00     0.006 C 
BRANCH   5   6
ATOM      6  C   UNL     1      18.912  -6.131  20.761  1.00  0.00    -0.003 C 
ATOM      7  C   UNL     1      18.649  -5.094  21.854  1.00  0.00     0.004 C 
ENDBRANCH   5   6
ENDBRANCH   1   5
TORSDOF 3
ENDMDL
MODEL 2
REMARK VINA RESULT:    -4.240      1.219      1.847
REMARK INTER + INTRA:          -5.029
REMARK INTER:                  -4.928
REMARK INTRA:                  -0.101
REMARK UNBOUND:                -0.045
REMARK SMILES CCCCC(=O)[O-]
REMARK SMILES IDX 4 1 5 2 6 3 7 4 3 5 2 6 1 7
REMARK H PARENT
REMARK Flexibility Score: inf
ROOT
ATOM      1  C   UNL     1      19.248  -6.097  23.612  1.00  0.00     0.053 C 
ENDROOT
BRANCH   1   2
ATOM      2  C   UNL     1      19.093  -7.584  23.576  1.00  0.00     0.041 C 
ATOM      3  O   UNL     1      20.109  -8.327  23.526  1.00  0.00    -0.550 OA
ATOM      4  O   UNL     1      17.825  -8.151  23.549  1.00  0.00    -0.550 OA
ENDBRANCH   1   2
BRANCH   1   5
ATOM      5  C   UNL     1      18.580  -5.460  22.387  1.00  0.00     0.006 C 
BRANCH   5   6
ATOM      6  C   UNL     1      19.313  -5.789  21.077  1.00  0.00    -0.003 C 
ATOM      7  C   UNL     1      18.513  -6.725  20.171  1.00  0.00     0.004 C 
ENDBRANCH   5   6
ENDBRANCH   1   5
TORSDOF 3
ENDMDL
MODEL 3
REMARK VINA RESULT:    -4.144      1.279      1.774
REMARK INTER + INTRA:          -4.916
REMARK INTER:                  -4.945
REMARK INTRA:                   0.028
REMARK UNBOUND:                -0.045
REMARK SMILES CCCCC(=O)[O-]
REMARK SMILES IDX 4 1 5 2 6 3 7 4 3 5 2 6 1 7
REMARK H PARENT
REMARK Flexibility Score: inf
ROOT
ATOM      1  C   UNL     1      18.472  -7.709  22.324  1.00  0.00     0.053 C 
ENDROOT
BRANCH   1   2
ATOM      2  C   UNL     1      19.869  -8.229  22.441  1.00  0.00     0.041 C 
ATOM      3  O   UNL     1      20.369  -8.919  21.513  1.00  0.00    -0.550 OA
ATOM      4  O   UNL     1      20.605  -7.992  23.595  1.00  0.00    -0.550 OA
ENDBRANCH   1   2
BRANCH   1   5
ATOM      5  C   UNL     1      18.403  -6.250  22.794  1.00  0.00     0.006 C 
BRANCH   5   6
ATOM      6  C   UNL     1      18.980  -5.270  21.761  1.00  0.00    -0.003 C 
ATOM      7  C   UNL     1      18.866  -5.788  20.326  1.00  0.00     0.004 C 
ENDBRANCH   5   6
ENDBRANCH   1   5
TORSDOF 3
ENDMDL
MODEL 4
REMARK VINA RESULT:    -4.089      2.464      3.488
REMARK INTER + INTRA:          -4.851
REMARK INTER:                  -4.742
REMARK INTRA:                  -0.110
REMARK UNBOUND:                -0.045
REMARK SMILES CCCCC(=O)[O-]
REMARK SMILES IDX 4 1 5 2 6 3 7 4 3 5 2 6 1 7
REMARK H PARENT
REMARK Flexibility Score: inf
ROOT
ATOM      1  C   UNL     1      18.613  -5.690  22.580  1.00  0.00     0.053 C 
ENDROOT
BRANCH   1   2
ATOM      2  C   UNL     1      19.135  -5.839  21.186  1.00  0.00     0.041 C 
ATOM      3  O   UNL     1      20.188  -5.242  20.836  1.00  0.00    -0.550 OA
ATOM      4  O   UNL     1      18.434  -6.598  20.258  1.00  0.00    -0.550 OA
ENDBRANCH   1   2
BRANCH   1   5
ATOM      5  C   UNL     1      19.555  -6.374  23.579  1.00  0.00     0.006 C 
BRANCH   5   6
ATOM      6  C   UNL     1      19.254  -7.872  23.744  1.00  0.00    -0.003 C 
ATOM      7  C   UNL     1      17.755  -8.174  23.773  1.00  0.00     0.004 C 
ENDBRANCH   5   6
ENDBRANCH   1   5
TORSDOF 3
ENDMDL
MODEL 5
REMARK VINA RESULT:    -3.925      2.390      3.325
REMARK INTER + INTRA:          -4.659
REMARK INTER:                  -4.547
REMARK INTRA:                  -0.112
REMARK UNBOUND:                -0.045
REMARK SMILES CCCCC(=O)[O-]
REMARK SMILES IDX 4 1 5 2 6 3 7 4 3 5 2 6 1 7
REMARK H PARENT
REMARK Flexibility Score: inf
ROOT
ATOM      1  C   UNL     1      18.286  -6.337  22.491  1.00  0.00     0.053 C 
ENDROOT
BRANCH   1   2
ATOM      2  C   UNL     1      18.817  -6.155  21.105  1.00  0.00     0.041 C 
ATOM      3  O   UNL     1      19.731  -5.317  20.881  1.00  0.00    -0.550 OA
ATOM      4  O   UNL     1      18.271  -6.876  20.051  1.00  0.00    -0.550 OA
ENDBRANCH   1   2
BRANCH   1   5
ATOM      5  C   UNL     1      18.475  -7.790  22.949  1.00  0.00     0.006 C 
BRANCH   5   6
ATOM      6  C   UNL     1      19.937  -8.251  22.859  1.00  0.00    -0.003 C 
ATOM      7  C   UNL     1      20.857  -7.492  23.817  1.00  0.00     0.004 C 
ENDBRANCH   5   6
ENDBRANCH   1   5
TORSDOF 3
ENDMDL
MODEL 6
REMARK VINA RESULT:    -3.667      1.615      2.365
REMARK INTER + INTRA:          -4.356
REMARK INTER:                  -4.314
REMARK INTRA:                  -0.042
REMARK UNBOUND:                -0.045
REMARK SMILES CCCCC(=O)[O-]
REMARK SMILES IDX 4 1 5 2 6 3 7 4 3 5 2 6 1 7
REMARK H PARENT
REMARK Flexibility Score: inf
ROOT
ATOM      1  C   UNL     1      19.943  -8.252  21.870  1.00  0.00     0.053 C 
ENDROOT
BRANCH   1   2
ATOM      2  C   UNL     1      20.829  -7.253  22.542  1.00  0.00     0.041 C 
ATOM      3  O   UNL     1      21.230  -7.451  23.720  1.00  0.00    -0.550 OA
ATOM      4  O   UNL     1      21.175  -6.078  21.886  1.00  0.00    -0.550 OA
ENDBRANCH   1   2
BRANCH   1   5
ATOM      5  C   UNL     1      18.521  -7.694  21.724  1.00  0.00     0.006 C 
BRANCH   5   6
ATOM      6  C   UNL     1      17.997  -7.070  23.027  1.00  0.00    -0.003 C 
ATOM      7  C   UNL     1      17.656  -8.117  24.088  1.00  0.00     0.004 C 
ENDBRANCH   5   6
ENDBRANCH   1   5
TORSDOF 3
ENDMDL
MODEL 7
REMARK VINA RESULT:    -3.572      1.502      2.133
REMARK INTER + INTRA:          -4.243
REMARK INTER:                  -4.314
REMARK INTRA:                   0.071
REMARK UNBOUND:                -0.045
REMARK SMILES CCCCC(=O)[O-]
REMARK SMILES IDX 4 1 5 2 6 3 7 4 3 5 2 6 1 7
REMARK H PARENT
REMARK Flexibility Score: inf
ROOT
ATOM      1  C   UNL     1      19.865  -8.033  23.308  1.00  0.00     0.053 C 
ENDROOT
BRANCH   1   2
ATOM      2  C   UNL     1      18.848  -7.065  23.824  1.00  0.00     0.041 C 
ATOM      3  O   UNL     1      17.644  -7.415  23.947  1.00  0.00    -0.550 OA
ATOM      4  O   UNL     1      19.220  -5.761  24.124  1.00  0.00    -0.550 OA
ENDBRANCH   1   2
BRANCH   1   5
ATOM      5  C   UNL     1      19.800  -8.111  21.777  1.00  0.00     0.006 C 
BRANCH   5   6
ATOM      6  C   UNL     1      19.479  -6.755  21.130  1.00  0.00    -0.003 C 
ATOM      7  C   UNL     1      18.325  -6.834  20.131  1.00  0.00     0.004 C 
ENDBRANCH   5   6
ENDBRANCH   1   5
TORSDOF 3
ENDMDL
MODEL 8
REMARK VINA RESULT:    -3.245      2.483      3.600
REMARK INTER + INTRA:          -3.860
REMARK INTER:                  -3.828
REMARK INTRA:                  -0.032
REMARK UNBOUND:                -0.045
REMARK SMILES CCCCC(=O)[O-]
REMARK SMILES IDX 4 1 5 2 6 3 7 4 3 5 2 6 1 7
REMARK H PARENT
REMARK Flexibility Score: inf
ROOT
ATOM      1  C   UNL     1      18.528  -6.421  22.955  1.00  0.00     0.053 C 
ENDROOT
BRANCH   1   2
ATOM      2  C   UNL     1      18.707  -5.321  21.957  1.00  0.00     0.041 C 
ATOM      3  O   UNL     1      19.062  -5.586  20.778  1.00  0.00    -0.550 OA
ATOM      4  O   UNL     1      18.529  -3.998  22.342  1.00  0.00    -0.550 OA
ENDBRANCH   1   2
BRANCH   1   5
ATOM      5  C   UNL     1      19.873  -6.783  23.599  1.00  0.00     0.006 C 
BRANCH   5   6
ATOM      6  C   UNL     1      20.286  -8.238  23.325  1.00  0.00    -0.003 C 
ATOM      7  C   UNL     1      20.211  -8.605  21.842  1.00  0.00     0.004 C 
ENDBRANCH   5   6
ENDBRANCH   1   5
TORSDOF 3
ENDMDL
MODEL 9
REMARK VINA RESULT:    -2.917     20.446     21.662
REMARK INTER + INTRA:          -3.474
REMARK INTER:                  -3.419
REMARK INTRA:                  -0.055
REMARK UNBOUND:                -0.045
REMARK SMILES CCCCC(=O)[O-]
REMARK SMILES IDX 4 1 5 2 6 3 7 4 3 5 2 6 1 7
REMARK H PARENT
REMARK Flexibility Score: inf
ROOT
ATOM      1  C   UNL     1       3.522   7.499  21.461  1.00  0.00     0.053 C 
ENDROOT
BRANCH   1   2
ATOM      2  C   UNL     1       4.052   8.751  22.085  1.00  0.00     0.041 C 
ATOM      3  O   UNL     1       3.262   9.668  22.436  1.00  0.00    -0.550 OA
ATOM      4  O   UNL     1       5.421   8.927  22.237  1.00  0.00    -0.550 OA
ENDBRANCH   1   2
BRANCH   1   5
ATOM      5  C   UNL     1       2.996   6.544  22.541  1.00  0.00     0.006 C 
BRANCH   5   6
ATOM      6  C   UNL     1       4.127   5.880  23.342  1.00  0.00    -0.003 C 
ATOM      7  C   UNL     1       3.656   4.653  24.125  1.00  0.00     0.004 C 
ENDBRANCH   5   6
ENDBRANCH   1   5
TORSDOF 3
ENDMDL
