MODEL 1
REMARK VINA RESULT:    -4.698      0.000      0.000
REMARK INTER + INTRA:         -13.491
REMARK INTER:                 -10.739
REMARK INTRA:                  -2.752
REMARK UNBOUND:                -2.752
REMARK SMILES CCCCCCCCCCCCCCCCCCCCCCCC(=O)[O-]
REMARK SMILES IDX 13 1 14 2 15 3 16 4 17 5 18 6 19 7 20 8 21 9 22 10 23 11
REMARK SMILES IDX 24 12 25 13 26 14 12 15 11 16 10 17 9 18 8 19 7 20 6 21 5 22
REMARK SMILES IDX 4 23 3 24 2 25 1 26
REMARK H PARENT
REMARK Flexibility Score: inf
ROOT
ATOM      1  C   UNL     1     193.813   2.210 102.490  1.00  0.00     0.000 C 
ENDROOT
BRANCH   1   2
ATOM      2  C   UNL     1     193.125   1.019 101.793  1.00  0.00     0.000 C 
BRANCH   2   3
ATOM      3  C   UNL     1     192.126   1.395 100.680  1.00  0.00     0.000 C 
BRANCH   3   4
ATOM      4  C   UNL     1     192.687   2.310  99.576  1.00  0.00     0.000 C 
BRANCH   4   5
ATOM      5  C   UNL     1     191.610   2.788  98.589  1.00  0.00     0.000 C 
BRANCH   5   6
ATOM      6  C   UNL     1     191.413   4.311  98.626  1.00  0.00     0.000 C 
BRANCH   6   7
ATOM      7  C   UNL     1     190.104   4.761  97.953  1.00  0.00     0.000 C 
BRANCH   7   8
ATOM      8  C   UNL     1     189.562   3.724  96.957  1.00  0.00     0.000 C 
BRANCH   8   9
ATOM      9  C   UNL     1     189.180   4.350  95.604  1.00  0.00     0.000 C 
BRANCH   9  10
ATOM     10  C   UNL     1     190.106   3.903  94.458  1.00  0.00     0.006 C 
BRANCH  10  11
ATOM     11  C   UNL     1     191.527   3.520  94.904  1.00  0.00     0.053 C 
BRANCH  11  12
ATOM     12  C   UNL     1     191.864   2.104  94.551  1.00  0.00     0.041 C 
ATOM     13  O   UNL     1     191.578   1.649  93.412  1.00  0.00    -0.550 OA
ATOM     14  O   UNL     1     192.532   1.299  95.466  1.00  0.00    -0.550 OA
ENDBRANCH  11  12
ENDBRANCH  10  11
ENDBRANCH   9  10
ENDBRANCH   8   9
ENDBRANCH   7   8
ENDBRANCH   6   7
ENDBRANCH   5   6
ENDBRANCH   4   5
ENDBRANCH   3   4
ENDBRANCH   2   3
ENDBRANCH   1   2
BRANCH   1  15
ATOM     15  C   UNL     1     193.533   2.327 103.998  1.00  0.00     0.000 C 
BRANCH  15  16
ATOM     16  C   UNL     1     192.030   2.397 104.320  1.00  0.00     0.000 C 
BRANCH  16  17
ATOM     17  C   UNL     1     191.572   1.238 105.219  1.00  0.00     0.000 C 
BRANCH  17  18
ATOM     18  C   UNL     1     192.755   0.422 105.770  1.00  0.00    -0.000 C 
BRANCH  18  19
ATOM     19  C   UNL     1     192.511  -1.097 105.711  1.00  0.00    -0.000 C 
BRANCH  19  20
ATOM     20  C   UNL     1     193.245  -1.835 104.572  1.00  0.00    -0.000 C 
BRANCH  20  21
ATOM     21  C   UNL     1     194.599  -1.226 104.163  1.00  0.00    -0.000 C 
BRANCH  21  22
ATOM     22  C   UNL     1     195.260  -1.880 102.934  1.00  0.00    -0.000 C 
BRANCH  22  23
ATOM     23  C   UNL     1     194.412  -3.002 102.298  1.00  0.00    -0.000 C 
BRANCH  23  24
ATOM     24  C   UNL     1     193.759  -2.568 100.974  1.00  0.00    -0.000 C 
BRANCH  24  25
ATOM     25  C   UNL     1     192.224  -2.569 101.046  1.00  0.00    -0.003 C 
ATOM     26  C   UNL     1     191.628  -3.972 100.929  1.00  0.00     0.004 C 
ENDBRANCH  24  25
ENDBRANCH  23  24
ENDBRANCH  22  23
ENDBRANCH  21  22
ENDBRANCH  20  21
ENDBRANCH  19  20
ENDBRANCH  18  19
ENDBRANCH  17  18
ENDBRANCH  16  17
ENDBRANCH  15  16
ENDBRANCH   1  15
TORSDOF 22
ENDMDL
MODEL 2
REMARK VINA RESULT:    -4.466      1.530      2.757
REMARK INTER + INTRA:         -12.961
REMARK INTER:                 -10.649
REMARK INTRA:                  -2.312
REMARK UNBOUND:                -2.752
REMARK SMILES CCCCCCCCCCCCCCCCCCCCCCCC(=O)[O-]
REMARK SMILES IDX 13 1 14 2 15 3 16 4 17 5 18 6 19 7 20 8 21 9 22 10 23 11
REMARK SMILES IDX 24 12 25 13 26 14 12 15 11 16 10 17 9 18 8 19 7 20 6 21 5 22
REMARK SMILES IDX 4 23 3 24 2 25 1 26
REMARK H PARENT
REMARK Flexibility Score: inf
ROOT
ATOM      1  C   UNL     1     193.226   2.452 104.178  1.00  0.00     0.000 C 
ENDROOT
BRANCH   1   2
ATOM      2  C   UNL     1     193.504   2.634 102.672  1.00  0.00     0.000 C 
BRANCH   2   3
ATOM      3  C   UNL     1     193.808   1.336 101.896  1.00  0.00     0.000 C 
BRANCH   3   4
ATOM      4  C   UNL     1     192.580   0.627 101.297  1.00  0.00     0.000 C 
BRANCH   4   5
ATOM      5  C   UNL     1     191.677   1.573 100.488  1.00  0.00     0.000 C 
BRANCH   5   6
ATOM      6  C   UNL     1     192.352   2.072  99.201  1.00  0.00     0.000 C 
BRANCH   6   7
ATOM      7  C   UNL     1     191.848   3.457  98.761  1.00  0.00     0.000 C 
BRANCH   7   8
ATOM      8  C   UNL     1     190.376   3.441  98.320  1.00  0.00     0.000 C 
BRANCH   8   9
ATOM      9  C   UNL     1     189.860   4.838  97.932  1.00  0.00     0.000 C 
BRANCH   9  10
ATOM     10  C   UNL     1     189.599   4.977  96.421  1.00  0.00     0.006 C 
BRANCH  10  11
ATOM     11  C   UNL     1     189.836   3.689  95.615  1.00  0.00     0.053 C 
BRANCH  11  12
ATOM     12  C   UNL     1     191.094   3.756  94.806  1.00  0.00     0.041 C 
ATOM     13  O   UNL     1     191.164   4.515  93.804  1.00  0.00    -0.550 OA
ATOM     14  O   UNL     1     192.204   3.009  95.182  1.00  0.00    -0.550 OA
ENDBRANCH  11  12
ENDBRANCH  10  11
ENDBRANCH   9  10
ENDBRANCH   8   9
ENDBRANCH   7   8
ENDBRANCH   6   7
ENDBRANCH   5   6
ENDBRANCH   4   5
ENDBRANCH   3   4
ENDBRANCH   2   3
ENDBRANCH   1   2
BRANCH   1  15
ATOM     15  C   UNL     1     191.786   2.033 104.523  1.00  0.00     0.000 C 
BRANCH  15  16
ATOM     16  C   UNL     1     191.729   0.905 105.568  1.00  0.00     0.000 C 
BRANCH  16  17
ATOM     17  C   UNL     1     192.907  -0.073 105.436  1.00  0.00     0.000 C 
BRANCH  17  18
ATOM     18  C   UNL     1     192.481  -1.426 104.841  1.00  0.00    -0.000 C 
BRANCH  18  19
ATOM     19  C   UNL     1     193.426  -1.914 103.728  1.00  0.00    -0.000 C 
BRANCH  19  20
ATOM     20  C   UNL     1     192.958  -3.179 102.979  1.00  0.00    -0.000 C 
BRANCH  20  21
ATOM     21  C   UNL     1     191.882  -2.945 101.903  1.00  0.00    -0.000 C 
BRANCH  21  22
ATOM     22  C   UNL     1     191.645  -4.133 100.952  1.00  0.00    -0.000 C 
BRANCH  22  23
ATOM     23  C   UNL     1     192.300  -5.448 101.428  1.00  0.00    -0.000 C 
BRANCH  23  24
ATOM     24  C   UNL     1     191.263  -6.542 101.741  1.00  0.00    -0.000 C 
BRANCH  24  25
ATOM     25  C   UNL     1     190.247  -6.103 102.808  1.00  0.00    -0.003 C 
ATOM     26  C   UNL     1     188.799  -6.338 102.378  1.00  0.00     0.004 C 
ENDBRANCH  24  25
ENDBRANCH  23  24
ENDBRANCH  22  23
ENDBRANCH  21  22
ENDBRANCH  20  21
ENDBRANCH  19  20
ENDBRANCH  18  19
ENDBRANCH  17  18
ENDBRANCH  16  17
ENDBRANCH  15  16
ENDBRANCH   1  15
TORSDOF 22
ENDMDL
MODEL 3
REMARK VINA RESULT:    -4.426      5.281      9.683
REMARK INTER + INTRA:         -12.869
REMARK INTER:                  -9.539
REMARK INTRA:                  -3.330
REMARK UNBOUND:                -2.752
REMARK SMILES CCCCCCCCCCCCCCCCCCCCCCCC(=O)[O-]
REMARK SMILES IDX 13 1 14 2 15 3 16 4 17 5 18 6 19 7 20 8 21 9 22 10 23 11
REMARK SMILES IDX 24 12 25 13 26 14 12 15 11 16 10 17 9 18 8 19 7 20 6 21 5 22
REMARK SMILES IDX 4 23 3 24 2 25 1 26
REMARK H PARENT
REMARK Flexibility Score: inf
ROOT
ATOM      1  C   UNL     1     191.230  -4.365 103.489  1.00  0.00     0.000 C 
ENDROOT
BRANCH   1   2
ATOM      2  C   UNL     1     191.189  -4.794 102.008  1.00  0.00     0.000 C 
BRANCH   2   3
ATOM      3  C   UNL     1     190.759  -6.254 101.757  1.00  0.00     0.000 C 
BRANCH   3   4
ATOM      4  C   UNL     1     189.329  -6.432 101.214  1.00  0.00     0.000 C 
BRANCH   4   5
ATOM      5  C   UNL     1     188.290  -6.661 102.325  1.00  0.00     0.000 C 
BRANCH   5   6
ATOM      6  C   UNL     1     188.676  -7.817 103.261  1.00  0.00     0.000 C 
BRANCH   6   7
ATOM      7  C   UNL     1     188.581  -7.436 104.749  1.00  0.00     0.000 C 
BRANCH   7   8
ATOM      8  C   UNL     1     188.309  -5.939 104.963  1.00  0.00     0.000 C 
BRANCH   8   9
ATOM      9  C   UNL     1     188.437  -5.522 106.439  1.00  0.00     0.000 C 
BRANCH   9  10
ATOM     10  C   UNL     1     189.004  -4.100 106.609  1.00  0.00     0.006 C 
BRANCH  10  11
ATOM     11  C   UNL     1     190.003  -3.951 107.768  1.00  0.00     0.053 C 
BRANCH  11  12
ATOM     12  C   UNL     1     191.054  -2.924 107.476  1.00  0.00     0.041 C 
ATOM     13  O   UNL     1     190.734  -1.717 107.316  1.00  0.00    -0.550 OA
ATOM     14  O   UNL     1     192.392  -3.294 107.420  1.00  0.00    -0.550 OA
ENDBRANCH  11  12
ENDBRANCH  10  11
ENDBRANCH   9  10
ENDBRANCH   8   9
ENDBRANCH   7   8
ENDBRANCH   6   7
ENDBRANCH   5   6
ENDBRANCH   4   5
ENDBRANCH   3   4
ENDBRANCH   2   3
ENDBRANCH   1   2
BRANCH   1  15
ATOM     15  C   UNL     1     192.461  -3.533 103.887  1.00  0.00     0.000 C 
BRANCH  15  16
ATOM     16  C   UNL     1     192.173  -2.023 103.925  1.00  0.00     0.000 C 
BRANCH  16  17
ATOM     17  C   UNL     1     192.467  -1.340 102.580  1.00  0.00     0.000 C 
BRANCH  17  18
ATOM     18  C   UNL     1     191.284  -0.491 102.083  1.00  0.00    -0.000 C 
BRANCH  18  19
ATOM     19  C   UNL     1     191.715   0.897 101.578  1.00  0.00    -0.000 C 
BRANCH  19  20
ATOM     20  C   UNL     1     193.205   1.239 101.793  1.00  0.00    -0.000 C 
BRANCH  20  21
ATOM     21  C   UNL     1     193.478   2.400 102.767  1.00  0.00    -0.000 C 
BRANCH  21  22
ATOM     22  C   UNL     1     194.006   1.976 104.151  1.00  0.00    -0.000 C 
BRANCH  22  23
ATOM     23  C   UNL     1     193.060   2.342 105.315  1.00  0.00    -0.000 C 
BRANCH  23  24
ATOM     24  C   UNL     1     192.176   1.158 105.748  1.00  0.00    -0.000 C 
BRANCH  24  25
ATOM     25  C   UNL     1     190.693   1.543 105.864  1.00  0.00    -0.003 C 
ATOM     26  C   UNL     1     190.194   2.344 104.662  1.00  0.00     0.004 C 
ENDBRANCH  24  25
ENDBRANCH  23  24
ENDBRANCH  22  23
ENDBRANCH  21  22
ENDBRANCH  20  21
ENDBRANCH  19  20
ENDBRANCH  18  19
ENDBRANCH  17  18
ENDBRANCH  16  17
ENDBRANCH  15  16
ENDBRANCH   1  15
TORSDOF 22
ENDMDL
MODEL 4
REMARK VINA RESULT:    -4.420      1.435      2.514
REMARK INTER + INTRA:         -12.855
REMARK INTER:                 -10.502
REMARK INTRA:                  -2.353
REMARK UNBOUND:                -2.752
REMARK SMILES CCCCCCCCCCCCCCCCCCCCCCCC(=O)[O-]
REMARK SMILES IDX 13 1 14 2 15 3 16 4 17 5 18 6 19 7 20 8 21 9 22 10 23 11
REMARK SMILES IDX 24 12 25 13 26 14 12 15 11 16 10 17 9 18 8 19 7 20 6 21 5 22
REMARK SMILES IDX 4 23 3 24 2 25 1 26
REMARK H PARENT
REMARK Flexibility Score: inf
ROOT
ATOM      1  C   UNL     1     192.958   2.582 104.098  1.00  0.00     0.000 C 
ENDROOT
BRANCH   1   2
ATOM      2  C   UNL     1     193.400   2.500 102.623  1.00  0.00     0.000 C 
BRANCH   2   3
ATOM      3  C   UNL     1     193.529   1.072 102.053  1.00  0.00     0.000 C 
BRANCH   3   4
ATOM      4  C   UNL     1     192.349   0.605 101.181  1.00  0.00     0.000 C 
BRANCH   4   5
ATOM      5  C   UNL     1     191.656   1.762 100.442  1.00  0.00     0.000 C 
BRANCH   5   6
ATOM      6  C   UNL     1     192.388   2.156  99.150  1.00  0.00     0.000 C 
BRANCH   6   7
ATOM      7  C   UNL     1     191.849   3.458  98.532  1.00  0.00     0.000 C 
BRANCH   7   8
ATOM      8  C   UNL     1     190.322   3.448  98.363  1.00  0.00     0.000 C 
BRANCH   8   9
ATOM      9  C   UNL     1     189.767   4.817  97.932  1.00  0.00     0.000 C 
BRANCH   9  10
ATOM     10  C   UNL     1     189.585   4.932  96.408  1.00  0.00     0.006 C 
BRANCH  10  11
ATOM     11  C   UNL     1     189.813   3.619  95.641  1.00  0.00     0.053 C 
BRANCH  11  12
ATOM     12  C   UNL     1     191.092   3.637  94.863  1.00  0.00     0.041 C 
ATOM     13  O   UNL     1     191.941   2.719  95.017  1.00  0.00    -0.550 OA
ATOM     14  O   UNL     1     191.330   4.645  93.937  1.00  0.00    -0.550 OA
ENDBRANCH  11  12
ENDBRANCH  10  11
ENDBRANCH   9  10
ENDBRANCH   8   9
ENDBRANCH   7   8
ENDBRANCH   6   7
ENDBRANCH   5   6
ENDBRANCH   4   5
ENDBRANCH   3   4
ENDBRANCH   2   3
ENDBRANCH   1   2
BRANCH   1  15
ATOM     15  C   UNL     1     191.560   2.008 104.387  1.00  0.00     0.000 C 
BRANCH  15  16
ATOM     16  C   UNL     1     191.525   1.137 105.654  1.00  0.00     0.000 C 
BRANCH  16  17
ATOM     17  C   UNL     1     192.733   0.192 105.747  1.00  0.00     0.000 C 
BRANCH  17  18
ATOM     18  C   UNL     1     192.458  -1.177 105.099  1.00  0.00    -0.000 C 
BRANCH  18  19
ATOM     19  C   UNL     1     193.664  -1.719 104.312  1.00  0.00    -0.000 C 
BRANCH  19  20
ATOM     20  C   UNL     1     193.334  -2.830 103.293  1.00  0.00    -0.000 C 
BRANCH  20  21
ATOM     21  C   UNL     1     191.957  -2.712 102.615  1.00  0.00    -0.000 C 
BRANCH  21  22
ATOM     22  C   UNL     1     191.778  -3.574 101.351  1.00  0.00    -0.000 C 
BRANCH  22  23
ATOM     23  C   UNL     1     192.635  -3.105 100.155  1.00  0.00    -0.000 C 
BRANCH  23  24
ATOM     24  C   UNL     1     193.622  -4.186  99.679  1.00  0.00    -0.000 C 
BRANCH  24  25
ATOM     25  C   UNL     1     194.666  -3.638  98.694  1.00  0.00    -0.003 C 
ATOM     26  C   UNL     1     194.164  -3.620  97.250  1.00  0.00     0.004 C 
ENDBRANCH  24  25
ENDBRANCH  23  24
ENDBRANCH  22  23
ENDBRANCH  21  22
ENDBRANCH  20  21
ENDBRANCH  19  20
ENDBRANCH  18  19
ENDBRANCH  17  18
ENDBRANCH  16  17
ENDBRANCH  15  16
ENDBRANCH   1  15
TORSDOF 22
ENDMDL
MODEL 5
REMARK VINA RESULT:    -4.417      1.994      3.753
REMARK INTER + INTRA:         -12.850
REMARK INTER:                  -9.793
REMARK INTRA:                  -3.057
REMARK UNBOUND:                -2.752
REMARK SMILES CCCCCCCCCCCCCCCCCCCCCCCC(=O)[O-]
REMARK SMILES IDX 13 1 14 2 15 3 16 4 17 5 18 6 19 7 20 8 21 9 22 10 23 11
REMARK SMILES IDX 24 12 25 13 26 14 12 15 11 16 10 17 9 18 8 19 7 20 6 21 5 22
REMARK SMILES IDX 4 23 3 24 2 25 1 26
REMARK H PARENT
REMARK Flexibility Score: inf
ROOT
ATOM      1  C   UNL     1     191.487   1.267 104.940  1.00  0.00     0.000 C 
ENDROOT
BRANCH   1   2
ATOM      2  C   UNL     1     192.293   2.407 104.283  1.00  0.00     0.000 C 
BRANCH   2   3
ATOM      3  C   UNL     1     193.729   2.037 103.857  1.00  0.00     0.000 C 
BRANCH   3   4
ATOM      4  C   UNL     1     193.877   1.552 102.403  1.00  0.00     0.000 C 
BRANCH   4   5
ATOM      5  C   UNL     1     193.133   2.445 101.396  1.00  0.00     0.000 C 
BRANCH   5   6
ATOM      6  C   UNL     1     192.260   1.634 100.426  1.00  0.00     0.000 C 
BRANCH   6   7
ATOM      7  C   UNL     1     192.239   2.225  99.005  1.00  0.00     0.000 C 
BRANCH   7   8
ATOM      8  C   UNL     1     192.381   3.755  98.996  1.00  0.00     0.000 C 
BRANCH   8   9
ATOM      9  C   UNL     1     191.295   4.443  98.151  1.00  0.00     0.000 C 
BRANCH   9  10
ATOM     10  C   UNL     1     190.284   3.446  97.555  1.00  0.00     0.006 C 
BRANCH  10  11
ATOM     11  C   UNL     1     188.852   3.596  98.094  1.00  0.00     0.053 C 
BRANCH  11  12
ATOM     12  C   UNL     1     187.855   3.797  96.995  1.00  0.00     0.041 C 
ATOM     13  O   UNL     1     186.631   3.923  97.264  1.00  0.00    -0.550 OA
ATOM     14  O   UNL     1     188.283   3.887  95.676  1.00  0.00    -0.550 OA
ENDBRANCH  11  12
ENDBRANCH  10  11
ENDBRANCH   9  10
ENDBRANCH   8   9
ENDBRANCH   7   8
ENDBRANCH   6   7
ENDBRANCH   5   6
ENDBRANCH   4   5
ENDBRANCH   3   4
ENDBRANCH   2   3
ENDBRANCH   1   2
BRANCH   1  15
ATOM     15  C   UNL     1     192.335   0.221 105.683  1.00  0.00     0.000 C 
BRANCH  15  16
ATOM     16  C   UNL     1     192.493  -1.089 104.893  1.00  0.00     0.000 C 
BRANCH  16  17
ATOM     17  C   UNL     1     193.826  -1.793 105.190  1.00  0.00     0.000 C 
BRANCH  17  18
ATOM     18  C   UNL     1     194.877  -1.543 104.094  1.00  0.00    -0.000 C 
BRANCH  18  19
ATOM     19  C   UNL     1     194.693  -2.457 102.870  1.00  0.00    -0.000 C 
BRANCH  19  20
ATOM     20  C   UNL     1     194.635  -1.729 101.511  1.00  0.00    -0.000 C 
BRANCH  20  21
ATOM     21  C   UNL     1     193.314  -1.892 100.735  1.00  0.00    -0.000 C 
BRANCH  21  22
ATOM     22  C   UNL     1     192.158  -2.511 101.544  1.00  0.00    -0.000 C 
BRANCH  22  23
ATOM     23  C   UNL     1     191.634  -3.840 100.958  1.00  0.00    -0.000 C 
BRANCH  23  24
ATOM     24  C   UNL     1     191.372  -4.899 102.044  1.00  0.00    -0.000 C 
BRANCH  24  25
ATOM     25  C   UNL     1     191.732  -4.399 103.452  1.00  0.00    -0.003 C 
ATOM     26  C   UNL     1     190.542  -4.427 104.411  1.00  0.00     0.004 C 
ENDBRANCH  24  25
ENDBRANCH  23  24
ENDBRANCH  22  23
ENDBRANCH  21  22
ENDBRANCH  20  21
ENDBRANCH  19  20
ENDBRANCH  18  19
ENDBRANCH  17  18
ENDBRANCH  16  17
ENDBRANCH  15  16
ENDBRANCH   1  15
TORSDOF 22
ENDMDL
MODEL 6
REMARK VINA RESULT:    -4.411      4.247      9.623
REMARK INTER + INTRA:         -12.836
REMARK INTER:                 -10.698
REMARK INTRA:                  -2.138
REMARK UNBOUND:                -2.752
REMARK SMILES CCCCCCCCCCCCCCCCCCCCCCCC(=O)[O-]
REMARK SMILES IDX 13 1 14 2 15 3 16 4 17 5 18 6 19 7 20 8 21 9 22 10 23 11
REMARK SMILES IDX 24 12 25 13 26 14 12 15 11 16 10 17 9 18 8 19 7 20 6 21 5 22
REMARK SMILES IDX 4 23 3 24 2 25 1 26
REMARK H PARENT
REMARK Flexibility Score: inf
ROOT
ATOM      1  C   UNL     1     192.991   1.079 102.460  1.00  0.00     0.000 C 
ENDROOT
BRANCH   1   2
ATOM      2  C   UNL     1     193.828  -0.209 102.601  1.00  0.00     0.000 C 
BRANCH   2   3
ATOM      3  C   UNL     1     193.033  -1.470 103.001  1.00  0.00     0.000 C 
BRANCH   3   4
ATOM      4  C   UNL     1     191.987  -1.939 101.975  1.00  0.00     0.000 C 
BRANCH   4   5
ATOM      5  C   UNL     1     192.611  -2.658 100.768  1.00  0.00     0.000 C 
BRANCH   5   6
ATOM      6  C   UNL     1     191.954  -4.019 100.491  1.00  0.00     0.000 C 
BRANCH   6   7
ATOM      7  C   UNL     1     191.527  -4.748 101.777  1.00  0.00     0.000 C 
BRANCH   7   8
ATOM      8  C   UNL     1     190.976  -6.157 101.507  1.00  0.00     0.000 C 
BRANCH   8   9
ATOM      9  C   UNL     1     189.454  -6.161 101.279  1.00  0.00     0.000 C 
BRANCH   9  10
ATOM     10  C   UNL     1     188.690  -6.919 102.380  1.00  0.00     0.006 C 
BRANCH  10  11
ATOM     11  C   UNL     1     189.538  -7.268 103.615  1.00  0.00     0.053 C 
BRANCH  11  12
ATOM     12  C   UNL     1     188.835  -6.928 104.893  1.00  0.00     0.041 C 
ATOM     13  O   UNL     1     188.830  -7.746 105.851  1.00  0.00    -0.550 OA
ATOM     14  O   UNL     1     188.221  -5.691 105.042  1.00  0.00    -0.550 OA
ENDBRANCH  11  12
ENDBRANCH  10  11
ENDBRANCH   9  10
ENDBRANCH   8   9
ENDBRANCH   7   8
ENDBRANCH   6   7
ENDBRANCH   5   6
ENDBRANCH   4   5
ENDBRANCH   3   4
ENDBRANCH   2   3
ENDBRANCH   1   2
BRANCH   1  15
ATOM     15  C   UNL     1     193.123   1.790 101.102  1.00  0.00     0.000 C 
BRANCH  15  16
ATOM     16  C   UNL     1     191.870   1.635 100.224  1.00  0.00     0.000 C 
BRANCH  16  17
ATOM     17  C   UNL     1     192.047   2.273  98.837  1.00  0.00     0.000 C 
BRANCH  17  18
ATOM     18  C   UNL     1     192.066   3.811  98.899  1.00  0.00    -0.000 C 
BRANCH  18  19
ATOM     19  C   UNL     1     190.802   4.448  98.294  1.00  0.00    -0.000 C 
BRANCH  19  20
ATOM     20  C   UNL     1     189.553   3.542  98.283  1.00  0.00    -0.000 C 
BRANCH  20  21
ATOM     21  C   UNL     1     188.793   3.490  96.945  1.00  0.00    -0.000 C 
BRANCH  21  22
ATOM     22  C   UNL     1     189.203   4.568  95.923  1.00  0.00    -0.000 C 
BRANCH  22  23
ATOM     23  C   UNL     1     189.891   3.998  94.663  1.00  0.00    -0.000 C 
BRANCH  23  24
ATOM     24  C   UNL     1     191.346   4.479  94.519  1.00  0.00    -0.000 C 
BRANCH  24  25
ATOM     25  C   UNL     1     192.343   3.566  95.249  1.00  0.00    -0.003 C 
ATOM     26  C   UNL     1     191.986   2.084  95.127  1.00  0.00     0.004 C 
ENDBRANCH  24  25
ENDBRANCH  23  24
ENDBRANCH  22  23
ENDBRANCH  21  22
ENDBRANCH  20  21
ENDBRANCH  19  20
ENDBRANCH  18  19
ENDBRANCH  17  18
ENDBRANCH  16  17
ENDBRANCH  15  16
ENDBRANCH   1  15
TORSDOF 22
ENDMDL
MODEL 7
REMARK VINA RESULT:    -4.358      3.178      8.464
REMARK INTER + INTRA:         -12.715
REMARK INTER:                 -10.433
REMARK INTRA:                  -2.282
REMARK UNBOUND:                -2.752
REMARK SMILES CCCCCCCCCCCCCCCCCCCCCCCC(=O)[O-]
REMARK SMILES IDX 13 1 14 2 15 3 16 4 17 5 18 6 19 7 20 8 21 9 22 10 23 11
REMARK SMILES IDX 24 12 25 13 26 14 12 15 11 16 10 17 9 18 8 19 7 20 6 21 5 22
REMARK SMILES IDX 4 23 3 24 2 25 1 26
REMARK H PARENT
REMARK Flexibility Score: inf
ROOT
ATOM      1  C   UNL     1     192.891   2.181 103.784  1.00  0.00     0.000 C 
ENDROOT
BRANCH   1   2
ATOM      2  C   UNL     1     193.361   1.430 105.046  1.00  0.00     0.000 C 
BRANCH   2   3
ATOM      3  C   UNL     1     192.624   0.106 105.337  1.00  0.00     0.000 C 
BRANCH   3   4
ATOM      4  C   UNL     1     193.507  -1.155 105.307  1.00  0.00     0.000 C 
BRANCH   4   5
ATOM      5  C   UNL     1     193.134  -2.121 104.169  1.00  0.00     0.000 C 
BRANCH   5   6
ATOM      6  C   UNL     1     191.809  -1.744 103.490  1.00  0.00     0.000 C 
BRANCH   6   7
ATOM      7  C   UNL     1     191.968  -1.459 101.987  1.00  0.00     0.000 C 
BRANCH   7   8
ATOM      8  C   UNL     1     193.089  -2.288 101.340  1.00  0.00     0.000 C 
BRANCH   8   9
ATOM      9  C   UNL     1     192.550  -3.344 100.359  1.00  0.00     0.000 C 
BRANCH   9  10
ATOM     10  C   UNL     1     192.466  -4.749 100.983  1.00  0.00     0.006 C 
BRANCH  10  11
ATOM     11  C   UNL     1     191.147  -5.038 101.719  1.00  0.00     0.053 C 
BRANCH  11  12
ATOM     12  C   UNL     1     190.827  -6.500 101.743  1.00  0.00     0.041 C 
ATOM     13  O   UNL     1     191.004  -7.206 100.715  1.00  0.00    -0.550 OA
ATOM     14  O   UNL     1     190.371  -7.093 102.915  1.00  0.00    -0.550 OA
ENDBRANCH  11  12
ENDBRANCH  10  11
ENDBRANCH   9  10
ENDBRANCH   8   9
ENDBRANCH   7   8
ENDBRANCH   6   7
ENDBRANCH   5   6
ENDBRANCH   4   5
ENDBRANCH   3   4
ENDBRANCH   2   3
ENDBRANCH   1   2
BRANCH   1  15
ATOM     15  C   UNL     1     193.803   2.016 102.556  1.00  0.00     0.000 C 
BRANCH  15  16
ATOM     16  C   UNL     1     193.014   1.805 101.252  1.00  0.00     0.000 C 
BRANCH  16  17
ATOM     17  C   UNL     1     193.116   3.012 100.307  1.00  0.00     0.000 C 
BRANCH  17  18
ATOM     18  C   UNL     1     192.183   2.883  99.090  1.00  0.00    -0.000 C 
BRANCH  18  19
ATOM     19  C   UNL     1     191.996   4.213  98.337  1.00  0.00    -0.000 C 
BRANCH  19  20
ATOM     20  C   UNL     1     190.537   4.705  98.229  1.00  0.00    -0.000 C 
BRANCH  20  21
ATOM     21  C   UNL     1     189.506   3.622  97.863  1.00  0.00    -0.000 C 
BRANCH  21  22
ATOM     22  C   UNL     1     189.226   3.475  96.355  1.00  0.00    -0.000 C 
BRANCH  22  23
ATOM     23  C   UNL     1     189.918   4.549  95.489  1.00  0.00    -0.000 C 
BRANCH  23  24
ATOM     24  C   UNL     1     191.244   4.052  94.884  1.00  0.00    -0.000 C 
BRANCH  24  25
ATOM     25  C   UNL     1     191.212   2.553  94.547  1.00  0.00    -0.003 C 
ATOM     26  C   UNL     1     192.331   1.768  95.232  1.00  0.00     0.004 C 
ENDBRANCH  24  25
ENDBRANCH  23  24
ENDBRANCH  22  23
ENDBRANCH  21  22
ENDBRANCH  20  21
ENDBRANCH  19  20
ENDBRANCH  18  19
ENDBRANCH  17  18
ENDBRANCH  16  17
ENDBRANCH  15  16
ENDBRANCH   1  15
TORSDOF 22
ENDMDL
MODEL 8
REMARK VINA RESULT:    -4.317      3.441      6.892
REMARK INTER + INTRA:         -12.620
REMARK INTER:                  -8.271
REMARK INTRA:                  -4.349
REMARK UNBOUND:                -2.752
REMARK SMILES CCCCCCCCCCCCCCCCCCCCCCCC(=O)[O-]
REMARK SMILES IDX 13 1 14 2 15 3 16 4 17 5 18 6 19 7 20 8 21 9 22 10 23 11
REMARK SMILES IDX 24 12 25 13 26 14 12 15 11 16 10 17 9 18 8 19 7 20 6 21 5 22
REMARK SMILES IDX 4 23 3 24 2 25 1 26
REMARK H PARENT
REMARK Flexibility Score: inf
ROOT
ATOM      1  C   UNL     1     195.254  -3.366 103.193  1.00  0.00     0.000 C 
ENDROOT
BRANCH   1   2
ATOM      2  C   UNL     1     195.360  -3.441 101.656  1.00  0.00     0.000 C 
BRANCH   2   3
ATOM      3  C   UNL     1     194.799  -2.221 100.896  1.00  0.00     0.000 C 
BRANCH   3   4
ATOM      4  C   UNL     1     193.471  -2.463 100.157  1.00  0.00     0.000 C 
BRANCH   4   5
ATOM      5  C   UNL     1     192.280  -2.657 101.110  1.00  0.00     0.000 C 
BRANCH   5   6
ATOM      6  C   UNL     1     191.599  -4.022 100.930  1.00  0.00     0.000 C 
BRANCH   6   7
ATOM      7  C   UNL     1     191.977  -5.028 102.030  1.00  0.00     0.000 C 
BRANCH   7   8
ATOM      8  C   UNL     1     192.970  -6.095 101.544  1.00  0.00     0.000 C 
BRANCH   8   9
ATOM      9  C   UNL     1     192.837  -6.382 100.039  1.00  0.00     0.000 C 
BRANCH   9  10
ATOM     10  C   UNL     1     194.127  -6.070  99.257  1.00  0.00     0.006 C 
BRANCH  10  11
ATOM     11  C   UNL     1     193.904  -5.283  97.955  1.00  0.00     0.053 C 
BRANCH  11  12
ATOM     12  C   UNL     1     195.193  -4.823  97.349  1.00  0.00     0.041 C 
ATOM     13  O   UNL     1     195.616  -5.346  96.284  1.00  0.00    -0.550 OA
ATOM     14  O   UNL     1     195.908  -3.787  97.937  1.00  0.00    -0.550 OA
ENDBRANCH  11  12
ENDBRANCH  10  11
ENDBRANCH   9  10
ENDBRANCH   8   9
ENDBRANCH   7   8
ENDBRANCH   6   7
ENDBRANCH   5   6
ENDBRANCH   4   5
ENDBRANCH   3   4
ENDBRANCH   2   3
ENDBRANCH   1   2
BRANCH   1  15
ATOM     15  C   UNL     1     195.728  -2.038 103.809  1.00  0.00     0.000 C 
BRANCH  15  16
ATOM     16  C   UNL     1     194.651  -1.368 104.679  1.00  0.00     0.000 C 
BRANCH  16  17
ATOM     17  C   UNL     1     193.266  -2.005 104.486  1.00  0.00     0.000 C 
BRANCH  17  18
ATOM     18  C   UNL     1     192.123  -1.045 104.861  1.00  0.00    -0.000 C 
BRANCH  18  19
ATOM     19  C   UNL     1     192.513  -0.056 105.974  1.00  0.00    -0.000 C 
BRANCH  19  20
ATOM     20  C   UNL     1     192.176   1.422 105.685  1.00  0.00    -0.000 C 
BRANCH  20  21
ATOM     21  C   UNL     1     193.389   2.328 105.404  1.00  0.00    -0.000 C 
BRANCH  21  22
ATOM     22  C   UNL     1     193.942   2.247 103.969  1.00  0.00    -0.000 C 
BRANCH  22  23
ATOM     23  C   UNL     1     192.849   2.065 102.893  1.00  0.00    -0.000 C 
BRANCH  23  24
ATOM     24  C   UNL     1     193.159   0.905 101.930  1.00  0.00    -0.000 C 
BRANCH  24  25
ATOM     25  C   UNL     1     192.602   1.145 100.519  1.00  0.00    -0.003 C 
ATOM     26  C   UNL     1     192.871   2.562 100.011  1.00  0.00     0.004 C 
ENDBRANCH  24  25
ENDBRANCH  23  24
ENDBRANCH  22  23
ENDBRANCH  21  22
ENDBRANCH  20  21
ENDBRANCH  19  20
ENDBRANCH  18  19
ENDBRANCH  17  18
ENDBRANCH  16  17
ENDBRANCH  15  16
ENDBRANCH   1  15
TORSDOF 22
ENDMDL
MODEL 9
REMARK VINA RESULT:    -4.298      4.118      9.982
REMARK INTER + INTRA:         -12.578
REMARK INTER:                 -10.062
REMARK INTRA:                  -2.516
REMARK UNBOUND:                -2.752
REMARK SMILES CCCCCCCCCCCCCCCCCCCCCCCC(=O)[O-]
REMARK SMILES IDX 13 1 14 2 15 3 16 4 17 5 18 6 19 7 20 8 21 9 22 10 23 11
REMARK SMILES IDX 24 12 25 13 26 14 12 15 11 16 10 17 9 18 8 19 7 20 6 21 5 22
REMARK SMILES IDX 4 23 3 24 2 25 1 26
REMARK H PARENT
REMARK Flexibility Score: inf
ROOT
ATOM      1  C   UNL     1     188.219   5.207  98.141  1.00  0.00     0.000 C 
ENDROOT
BRANCH   1   2
ATOM      2  C   UNL     1     189.066   5.341  96.860  1.00  0.00     0.000 C 
BRANCH   2   3
ATOM      3  C   UNL     1     190.111   4.227  96.641  1.00  0.00     0.000 C 
BRANCH   3   4
ATOM      4  C   UNL     1     190.632   3.556  97.925  1.00  0.00     0.000 C 
BRANCH   4   5
ATOM      5  C   UNL     1     191.873   4.254  98.505  1.00  0.00     0.000 C 
BRANCH   5   6
ATOM      6  C   UNL     1     192.713   3.320  99.389  1.00  0.00     0.000 C 
BRANCH   6   7
ATOM      7  C   UNL     1     192.069   1.934  99.574  1.00  0.00     0.000 C 
BRANCH   7   8
ATOM      8  C   UNL     1     192.221   1.394 101.004  1.00  0.00     0.000 C 
BRANCH   8   9
ATOM      9  C   UNL     1     193.452   1.971 101.725  1.00  0.00     0.000 C 
BRANCH   9  10
ATOM     10  C   UNL     1     193.238   2.118 103.243  1.00  0.00     0.006 C 
BRANCH  10  11
ATOM     11  C   UNL     1     193.515   0.838 104.049  1.00  0.00     0.053 C 
BRANCH  11  12
ATOM     12  C   UNL     1     192.492   0.616 105.120  1.00  0.00     0.041 C 
ATOM     13  O   UNL     1     191.371   1.188 105.055  1.00  0.00    -0.550 OA
ATOM     14  O   UNL     1     192.760  -0.254 106.169  1.00  0.00    -0.550 OA
ENDBRANCH  11  12
ENDBRANCH  10  11
ENDBRANCH   9  10
ENDBRANCH   8   9
ENDBRANCH   7   8
ENDBRANCH   6   7
ENDBRANCH   5   6
ENDBRANCH   4   5
ENDBRANCH   3   4
ENDBRANCH   2   3
ENDBRANCH   1   2
BRANCH   1  15
ATOM     15  C   UNL     1     186.917   6.026  98.145  1.00  0.00     0.000 C 
BRANCH  15  16
ATOM     16  C   UNL     1     185.793   5.355  98.953  1.00  0.00     0.000 C 
BRANCH  16  17
ATOM     17  C   UNL     1     184.460   5.332  98.189  1.00  0.00     0.000 C 
BRANCH  17  18
ATOM     18  C   UNL     1     183.827   3.930  98.156  1.00  0.00    -0.000 C 
BRANCH  18  19
ATOM     19  C   UNL     1     184.850   2.821  97.850  1.00  0.00    -0.000 C 
BRANCH  19  20
ATOM     20  C   UNL     1     185.049   2.509  96.351  1.00  0.00    -0.000 C 
BRANCH  20  21
ATOM     21  C   UNL     1     186.071   3.403  95.626  1.00  0.00    -0.000 C 
BRANCH  21  22
ATOM     22  C   UNL     1     185.460   4.430  94.653  1.00  0.00    -0.000 C 
BRANCH  22  23
ATOM     23  C   UNL     1     186.492   5.415  94.062  1.00  0.00    -0.000 C 
BRANCH  23  24
ATOM     24  C   UNL     1     187.718   4.698  93.471  1.00  0.00    -0.000 C 
BRANCH  24  25
ATOM     25  C   UNL     1     187.786   4.813  91.939  1.00  0.00    -0.003 C 
ATOM     26  C   UNL     1     187.098   3.647  91.229  1.00  0.00     0.004 C 
ENDBRANCH  24  25
ENDBRANCH  23  24
ENDBRANCH  22  23
ENDBRANCH  21  22
ENDBRANCH  20  21
ENDBRANCH  19  20
ENDBRANCH  18  19
ENDBRANCH  17  18
ENDBRANCH  16  17
ENDBRANCH  15  16
ENDBRANCH   1  15
TORSDOF 22
ENDMDL
