MODEL 1
REMARK VINA RESULT:    -3.866      0.000      0.000
REMARK INTER + INTRA:          -8.450
REMARK INTER:                  -6.578
REMARK INTRA:                  -1.872
REMARK UNBOUND:                -1.872
REMARK SMILES CCCCCCCCCCCCCC(=O)[O-]
REMARK SMILES IDX 8 1 9 2 10 3 11 4 12 5 13 6 14 7 15 8 16 9 7 10 6 11 5 12
REMARK SMILES IDX 4 13 3 14 2 15 1 16
REMARK H PARENT
REMARK Flexibility Score: inf
ROOT
ATOM      1  C   UNL     1     105.971 100.118  89.761  1.00  0.00     0.000 C 
ENDROOT
BRANCH   1   2
ATOM      2  C   UNL     1     105.162  98.857  89.422  1.00  0.00     0.000 C 
BRANCH   2   3
ATOM      3  C   UNL     1     105.962  97.832  88.596  1.00  0.00     0.000 C 
BRANCH   3   4
ATOM      4  C   UNL     1     105.397  96.400  88.610  1.00  0.00     0.000 C 
BRANCH   4   5
ATOM      5  C   UNL     1     105.589  95.693  89.963  1.00  0.00     0.006 C 
BRANCH   5   6
ATOM      6  C   UNL     1     104.543  94.596  90.196  1.00  0.00     0.053 C 
BRANCH   6   7
ATOM      7  C   UNL     1     103.660  94.908  91.365  1.00  0.00     0.041 C 
ATOM      8  O   UNL     1     104.057  94.685  92.539  1.00  0.00    -0.550 OA
ATOM      9  O   UNL     1     102.407  95.471  91.158  1.00  0.00    -0.550 OA
ENDBRANCH   6   7
ENDBRANCH   5   6
ENDBRANCH   4   5
ENDBRANCH   3   4
ENDBRANCH   2   3
ENDBRANCH   1   2
BRANCH   1  10
ATOM     10  C   UNL     1     107.325 100.112  89.035  1.00  0.00     0.000 C 
BRANCH  10  11
ATOM     11  C   UNL     1     108.518 100.180  90.001  1.00  0.00    -0.000 C 
BRANCH  11  12
ATOM     12  C   UNL     1     108.150  99.736  91.427  1.00  0.00    -0.000 C 
BRANCH  12  13
ATOM     13  C   UNL     1     108.419  98.241  91.667  1.00  0.00    -0.000 C 
BRANCH  13  14
ATOM     14  C   UNL     1     107.291  97.552  92.453  1.00  0.00    -0.000 C 
BRANCH  14  15
ATOM     15  C   UNL     1     106.334  98.556  93.113  1.00  0.00    -0.003 C 
ATOM     16  C   UNL     1     104.864  98.187  92.919  1.00  0.00     0.004 C 
ENDBRANCH  14  15
ENDBRANCH  13  14
ENDBRANCH  12  13
ENDBRANCH  11  12
ENDBRANCH  10  11
ENDBRANCH   1  10
TORSDOF 12
ENDMDL
MODEL 2
REMARK VINA RESULT:    -3.839      3.251      6.437
REMARK INTER + INTRA:          -8.404
REMARK INTER:                  -6.742
REMARK INTRA:                  -1.662
REMARK UNBOUND:                -1.872
REMARK SMILES CCCCCCCCCCCCCC(=O)[O-]
REMARK SMILES IDX 8 1 9 2 10 3 11 4 12 5 13 6 14 7 15 8 16 9 7 10 6 11 5 12
REMARK SMILES IDX 4 13 3 14 2 15 1 16
REMARK H PARENT
REMARK Flexibility Score: inf
ROOT
ATOM      1  C   UNL     1     102.360  93.154  89.736  1.00  0.00     0.000 C 
ENDROOT
BRANCH   1   2
ATOM      2  C   UNL     1     103.725  93.823  89.959  1.00  0.00     0.000 C 
BRANCH   2   3
ATOM      3  C   UNL     1     103.929  95.078  89.090  1.00  0.00     0.000 C 
BRANCH   3   4
ATOM      4  C   UNL     1     105.141  95.946  89.474  1.00  0.00     0.000 C 
BRANCH   4   5
ATOM      5  C   UNL     1     105.794  95.514  90.797  1.00  0.00     0.006 C 
BRANCH   5   6
ATOM      6  C   UNL     1     105.842  96.656  91.819  1.00  0.00     0.053 C 
BRANCH   6   7
ATOM      7  C   UNL     1     107.193  97.300  91.871  1.00  0.00     0.041 C 
ATOM      8  O   UNL     1     108.002  97.006  92.790  1.00  0.00    -0.550 OA
ATOM      9  O   UNL     1     107.570  98.205  90.887  1.00  0.00    -0.550 OA
ENDBRANCH   6   7
ENDBRANCH   5   6
ENDBRANCH   4   5
ENDBRANCH   3   4
ENDBRANCH   2   3
ENDBRANCH   1   2
BRANCH   1  10
ATOM     10  C   UNL     1     101.474  94.009  88.817  1.00  0.00     0.000 C 
BRANCH  10  11
ATOM     11  C   UNL     1      99.992  93.608  88.878  1.00  0.00    -0.000 C 
BRANCH  11  12
ATOM     12  C   UNL     1      99.176  94.502  89.827  1.00  0.00    -0.000 C 
BRANCH  12  13
ATOM     13  C   UNL     1      99.750  95.925  89.933  1.00  0.00    -0.000 C 
BRANCH  13  14
ATOM     14  C   UNL     1     100.028  96.348  91.385  1.00  0.00    -0.000 C 
BRANCH  14  15
ATOM     15  C   UNL     1     101.526  96.334  91.726  1.00  0.00    -0.003 C 
ATOM     16  C   UNL     1     102.235  97.625  91.322  1.00  0.00     0.004 C 
ENDBRANCH  14  15
ENDBRANCH  13  14
ENDBRANCH  12  13
ENDBRANCH  11  12
ENDBRANCH  10  11
ENDBRANCH   1  10
TORSDOF 12
ENDMDL
MODEL 3
REMARK VINA RESULT:    -3.804     12.926     15.005
REMARK INTER + INTRA:          -8.344
REMARK INTER:                  -6.347
REMARK INTRA:                  -1.998
REMARK UNBOUND:                -1.872
REMARK SMILES CCCCCCCCCCCCCC(=O)[O-]
REMARK SMILES IDX 8 1 9 2 10 3 11 4 12 5 13 6 14 7 15 8 16 9 7 10 6 11 5 12
REMARK SMILES IDX 4 13 3 14 2 15 1 16
REMARK H PARENT
REMARK Flexibility Score: inf
ROOT
ATOM      1  C   UNL     1      91.799  97.943  89.725  1.00  0.00     0.000 C 
ENDROOT
BRANCH   1   2
ATOM      2  C   UNL     1      92.596  99.054  89.023  1.00  0.00     0.000 C 
BRANCH   2   3
ATOM      3  C   UNL     1      91.940 100.442  89.157  1.00  0.00     0.000 C 
BRANCH   3   4
ATOM      4  C   UNL     1      92.922 101.609  89.364  1.00  0.00     0.000 C 
BRANCH   4   5
ATOM      5  C   UNL     1      92.321 102.758  90.190  1.00  0.00     0.006 C 
BRANCH   5   6
ATOM      6  C   UNL     1      93.052 102.957  91.524  1.00  0.00     0.053 C 
BRANCH   6   7
ATOM      7  C   UNL     1      94.516 103.201  91.325  1.00  0.00     0.041 C 
ATOM      8  O   UNL     1      95.366 102.439  91.857  1.00  0.00    -0.550 OA
ATOM      9  O   UNL     1      94.943 104.255  90.528  1.00  0.00    -0.550 OA
ENDBRANCH   6   7
ENDBRANCH   5   6
ENDBRANCH   4   5
ENDBRANCH   3   4
ENDBRANCH   2   3
ENDBRANCH   1   2
BRANCH   1  10
ATOM     10  C   UNL     1      90.412  97.778  89.087  1.00  0.00     0.000 C 
BRANCH  10  11
ATOM     11  C   UNL     1      89.271  98.203  90.025  1.00  0.00    -0.000 C 
BRANCH  11  12
ATOM     12  C   UNL     1      89.719  98.300  91.494  1.00  0.00    -0.000 C 
BRANCH  12  13
ATOM     13  C   UNL     1      89.480  99.697  92.091  1.00  0.00    -0.000 C 
BRANCH  13  14
ATOM     14  C   UNL     1      90.768 100.341  92.632  1.00  0.00    -0.000 C 
BRANCH  14  15
ATOM     15  C   UNL     1      91.760  99.304  93.180  1.00  0.00    -0.003 C 
ATOM     16  C   UNL     1      93.203  99.595  92.772  1.00  0.00     0.004 C 
ENDBRANCH  14  15
ENDBRANCH  13  14
ENDBRANCH  12  13
ENDBRANCH  11  12
ENDBRANCH  10  11
ENDBRANCH   1  10
TORSDOF 12
ENDMDL
MODEL 4
REMARK VINA RESULT:    -3.763      2.110      5.056
REMARK INTER + INTRA:          -8.275
REMARK INTER:                  -6.825
REMARK INTRA:                  -1.450
REMARK UNBOUND:                -1.872
REMARK SMILES CCCCCCCCCCCCCC(=O)[O-]
REMARK SMILES IDX 8 1 9 2 10 3 11 4 12 5 13 6 14 7 15 8 16 9 7 10 6 11 5 12
REMARK SMILES IDX 4 13 3 14 2 15 1 16
REMARK H PARENT
REMARK Flexibility Score: inf
ROOT
ATOM      1  C   UNL     1     104.749  98.345  90.535  1.00  0.00     0.000 C 
ENDROOT
BRANCH   1   2
ATOM      2  C   UNL     1     105.193  99.783  90.222  1.00  0.00     0.000 C 
BRANCH   2   3
ATOM      3  C   UNL     1     106.369  99.846  89.229  1.00  0.00     0.000 C 
BRANCH   3   4
ATOM      4  C   UNL     1     107.715 100.278  89.838  1.00  0.00     0.000 C 
BRANCH   4   5
ATOM      5  C   UNL     1     108.403  99.153  90.629  1.00  0.00     0.006 C 
BRANCH   5   6
ATOM      6  C   UNL     1     108.314  99.373  92.144  1.00  0.00     0.053 C 
BRANCH   6   7
ATOM      7  C   UNL     1     107.690  98.203  92.841  1.00  0.00     0.041 C 
ATOM      8  O   UNL     1     106.605  98.341  93.466  1.00  0.00    -0.550 OA
ATOM      9  O   UNL     1     108.292  96.953  92.777  1.00  0.00    -0.550 OA
ENDBRANCH   6   7
ENDBRANCH   5   6
ENDBRANCH   4   5
ENDBRANCH   3   4
ENDBRANCH   2   3
ENDBRANCH   1   2
BRANCH   1  10
ATOM     10  C   UNL     1     105.310  97.361  89.498  1.00  0.00     0.000 C 
BRANCH  10  11
ATOM     11  C   UNL     1     105.775  96.037  90.126  1.00  0.00    -0.000 C 
BRANCH  11  12
ATOM     12  C   UNL     1     105.130  95.774  91.497  1.00  0.00    -0.000 C 
BRANCH  12  13
ATOM     13  C   UNL     1     104.048  94.682  91.438  1.00  0.00    -0.000 C 
BRANCH  13  14
ATOM     14  C   UNL     1     104.055  93.908  90.108  1.00  0.00    -0.000 C 
BRANCH  14  15
ATOM     15  C   UNL     1     102.660  93.820  89.472  1.00  0.00    -0.003 C 
ATOM     16  C   UNL     1     102.142  92.385  89.383  1.00  0.00     0.004 C 
ENDBRANCH  14  15
ENDBRANCH  13  14
ENDBRANCH  12  13
ENDBRANCH  11  12
ENDBRANCH  10  11
ENDBRANCH   1  10
TORSDOF 12
ENDMDL
MODEL 5
REMARK VINA RESULT:    -3.747     10.830     11.993
REMARK INTER + INTRA:          -8.248
REMARK INTER:                  -6.836
REMARK INTRA:                  -1.412
REMARK UNBOUND:                -1.872
REMARK SMILES CCCCCCCCCCCCCC(=O)[O-]
REMARK SMILES IDX 8 1 9 2 10 3 11 4 12 5 13 6 14 7 15 8 16 9 7 10 6 11 5 12
REMARK SMILES IDX 4 13 3 14 2 15 1 16
REMARK H PARENT
REMARK Flexibility Score: inf
ROOT
ATOM      1  C   UNL     1      96.305 105.364  89.351  1.00  0.00     0.000 C 
ENDROOT
BRANCH   1   2
ATOM      2  C   UNL     1      94.934 104.778  89.723  1.00  0.00     0.000 C 
BRANCH   2   3
ATOM      3  C   UNL     1      94.834 103.265  89.454  1.00  0.00     0.000 C 
BRANCH   3   4
ATOM      4  C   UNL     1      93.401 102.726  89.285  1.00  0.00     0.000 C 
BRANCH   4   5
ATOM      5  C   UNL     1      92.504 103.020  90.499  1.00  0.00     0.006 C 
BRANCH   5   6
ATOM      6  C   UNL     1      92.726 102.018  91.639  1.00  0.00     0.053 C 
BRANCH   6   7
ATOM      7  C   UNL     1      91.648 100.980  91.686  1.00  0.00     0.041 C 
ATOM      8  O   UNL     1      91.678  99.996  90.900  1.00  0.00    -0.550 OA
ATOM      9  O   UNL     1      90.623 101.084  92.617  1.00  0.00    -0.550 OA
ENDBRANCH   6   7
ENDBRANCH   5   6
ENDBRANCH   4   5
ENDBRANCH   3   4
ENDBRANCH   2   3
ENDBRANCH   1   2
BRANCH   1  10
ATOM     10  C   UNL     1      97.106 104.379  88.487  1.00  0.00     0.000 C 
BRANCH  10  11
ATOM     11  C   UNL     1      98.618 104.442  88.758  1.00  0.00    -0.000 C 
BRANCH  11  12
ATOM     12  C   UNL     1      99.032 103.622  89.991  1.00  0.00    -0.000 C 
BRANCH  12  13
ATOM     13  C   UNL     1      98.457 102.195  89.969  1.00  0.00    -0.000 C 
BRANCH  13  14
ATOM     14  C   UNL     1      98.289 101.600  91.377  1.00  0.00    -0.000 C 
BRANCH  14  15
ATOM     15  C   UNL     1      96.822 101.567  91.831  1.00  0.00    -0.003 C 
ATOM     16  C   UNL     1      96.104 100.283  91.416  1.00  0.00     0.004 C 
ENDBRANCH  14  15
ENDBRANCH  13  14
ENDBRANCH  12  13
ENDBRANCH  11  12
ENDBRANCH  10  11
ENDBRANCH   1  10
TORSDOF 12
ENDMDL
MODEL 6
REMARK VINA RESULT:    -3.682     12.142     13.545
REMARK INTER + INTRA:          -8.138
REMARK INTER:                  -5.835
REMARK INTRA:                  -2.302
REMARK UNBOUND:                -1.872
REMARK SMILES CCCCCCCCCCCCCC(=O)[O-]
REMARK SMILES IDX 8 1 9 2 10 3 11 4 12 5 13 6 14 7 15 8 16 9 7 10 6 11 5 12
REMARK SMILES IDX 4 13 3 14 2 15 1 16
REMARK H PARENT
REMARK Flexibility Score: inf
ROOT
ATOM      1  C   UNL     1      93.375 102.794  89.383  1.00  0.00     0.000 C 
ENDROOT
BRANCH   1   2
ATOM      2  C   UNL     1      93.113 101.610  88.439  1.00  0.00     0.000 C 
BRANCH   2   3
ATOM      3  C   UNL     1      91.994 100.677  88.939  1.00  0.00     0.000 C 
BRANCH   3   4
ATOM      4  C   UNL     1      92.415  99.213  89.156  1.00  0.00     0.000 C 
BRANCH   4   5
ATOM      5  C   UNL     1      91.616  98.519  90.273  1.00  0.00     0.006 C 
BRANCH   5   6
ATOM      6  C   UNL     1      90.413  99.355  90.728  1.00  0.00     0.053 C 
BRANCH   6   7
ATOM      7  C   UNL     1      89.986  99.003  92.120  1.00  0.00     0.041 C 
ATOM      8  O   UNL     1      90.341  99.718  93.093  1.00  0.00    -0.550 OA
ATOM      9  O   UNL     1      89.171  97.899  92.339  1.00  0.00    -0.550 OA
ENDBRANCH   6   7
ENDBRANCH   5   6
ENDBRANCH   4   5
ENDBRANCH   3   4
ENDBRANCH   2   3
ENDBRANCH   1   2
BRANCH   1  10
ATOM     10  C   UNL     1      92.588 102.634  90.693  1.00  0.00     0.000 C 
BRANCH  10  11
ATOM     11  C   UNL     1      93.498 102.398  91.908  1.00  0.00    -0.000 C 
BRANCH  11  12
ATOM     12  C   UNL     1      93.538 100.921  92.337  1.00  0.00    -0.000 C 
BRANCH  12  13
ATOM     13  C   UNL     1      94.779 100.186  91.803  1.00  0.00    -0.000 C 
BRANCH  13  14
ATOM     14  C   UNL     1      95.978 101.125  91.585  1.00  0.00    -0.000 C 
BRANCH  14  15
ATOM     15  C   UNL     1      96.551 101.027  90.164  1.00  0.00    -0.003 C 
ATOM     16  C   UNL     1      96.119  99.753  89.440  1.00  0.00     0.004 C 
ENDBRANCH  14  15
ENDBRANCH  13  14
ENDBRANCH  12  13
ENDBRANCH  11  12
ENDBRANCH  10  11
ENDBRANCH   1  10
TORSDOF 12
ENDMDL
MODEL 7
REMARK VINA RESULT:    -3.654      0.980      1.640
REMARK INTER + INTRA:          -8.089
REMARK INTER:                  -6.294
REMARK INTRA:                  -1.795
REMARK UNBOUND:                -1.872
REMARK SMILES CCCCCCCCCCCCCC(=O)[O-]
REMARK SMILES IDX 8 1 9 2 10 3 11 4 12 5 13 6 14 7 15 8 16 9 7 10 6 11 5 12
REMARK SMILES IDX 4 13 3 14 2 15 1 16
REMARK H PARENT
REMARK Flexibility Score: inf
ROOT
ATOM      1  C   UNL     1     105.409  98.901  89.092  1.00  0.00     0.000 C 
ENDROOT
BRANCH   1   2
ATOM      2  C   UNL     1     106.150  97.594  88.770  1.00  0.00     0.000 C 
BRANCH   2   3
ATOM      3  C   UNL     1     105.255  96.347  88.898  1.00  0.00     0.000 C 
BRANCH   3   4
ATOM      4  C   UNL     1     105.579  95.431  90.092  1.00  0.00     0.000 C 
BRANCH   4   5
ATOM      5  C   UNL     1     104.422  94.484  90.453  1.00  0.00     0.006 C 
BRANCH   5   6
ATOM      6  C   UNL     1     103.289  94.535  89.419  1.00  0.00     0.053 C 
BRANCH   6   7
ATOM      7  C   UNL     1     102.010  95.032  90.020  1.00  0.00     0.041 C 
ATOM      8  O   UNL     1     100.907  94.542  89.661  1.00  0.00    -0.550 OA
ATOM      9  O   UNL     1     102.039  96.019  90.997  1.00  0.00    -0.550 OA
ENDBRANCH   6   7
ENDBRANCH   5   6
ENDBRANCH   4   5
ENDBRANCH   3   4
ENDBRANCH   2   3
ENDBRANCH   1   2
BRANCH   1  10
ATOM     10  C   UNL     1     106.378  99.961  89.635  1.00  0.00     0.000 C 
BRANCH  10  11
ATOM     11  C   UNL     1     107.753  99.379  90.000  1.00  0.00    -0.000 C 
BRANCH  11  12
ATOM     12  C   UNL     1     108.179  99.726  91.437  1.00  0.00    -0.000 C 
BRANCH  12  13
ATOM     13  C   UNL     1     108.385  98.475  92.307  1.00  0.00    -0.000 C 
BRANCH  13  14
ATOM     14  C   UNL     1     107.080  97.695  92.546  1.00  0.00    -0.000 C 
BRANCH  14  15
ATOM     15  C   UNL     1     105.971  98.573  93.144  1.00  0.00    -0.003 C 
ATOM     16  C   UNL     1     104.577  98.174  92.660  1.00  0.00     0.004 C 
ENDBRANCH  14  15
ENDBRANCH  13  14
ENDBRANCH  12  13
ENDBRANCH  11  12
ENDBRANCH  10  11
ENDBRANCH   1  10
TORSDOF 12
ENDMDL
MODEL 8
REMARK VINA RESULT:    -3.641      1.631      4.150
REMARK INTER + INTRA:          -8.068
REMARK INTER:                  -6.470
REMARK INTRA:                  -1.598
REMARK UNBOUND:                -1.872
REMARK SMILES CCCCCCCCCCCCCC(=O)[O-]
REMARK SMILES IDX 8 1 9 2 10 3 11 4 12 5 13 6 14 7 15 8 16 9 7 10 6 11 5 12
REMARK SMILES IDX 4 13 3 14 2 15 1 16
REMARK H PARENT
REMARK Flexibility Score: inf
ROOT
ATOM      1  C   UNL     1     107.787  99.325  89.033  1.00  0.00     0.000 C 
ENDROOT
BRANCH   1   2
ATOM      2  C   UNL     1     108.595 100.381  89.803  1.00  0.00     0.000 C 
BRANCH   2   3
ATOM      3  C   UNL     1     108.961  99.936  91.231  1.00  0.00     0.000 C 
BRANCH   3   4
ATOM      4  C   UNL     1     108.834  98.424  91.496  1.00  0.00     0.000 C 
BRANCH   4   5
ATOM      5  C   UNL     1     107.961  98.101  92.719  1.00  0.00     0.006 C 
BRANCH   5   6
ATOM      6  C   UNL     1     106.655  97.397  92.329  1.00  0.00     0.053 C 
BRANCH   6   7
ATOM      7  C   UNL     1     105.454  98.229  92.658  1.00  0.00     0.041 C 
ATOM      8  O   UNL     1     104.489  98.297  91.853  1.00  0.00    -0.550 OA
ATOM      9  O   UNL     1     105.390  98.909  93.868  1.00  0.00    -0.550 OA
ENDBRANCH   6   7
ENDBRANCH   5   6
ENDBRANCH   4   5
ENDBRANCH   3   4
ENDBRANCH   2   3
ENDBRANCH   1   2
BRANCH   1  10
ATOM     10  C   UNL     1     106.282  99.625  89.107  1.00  0.00     0.000 C 
BRANCH  10  11
ATOM     11  C   UNL     1     105.427  98.549  88.419  1.00  0.00    -0.000 C 
BRANCH  11  12
ATOM     12  C   UNL     1     105.913  97.123  88.727  1.00  0.00    -0.000 C 
BRANCH  12  13
ATOM     13  C   UNL     1     104.754  96.153  89.011  1.00  0.00    -0.000 C 
BRANCH  13  14
ATOM     14  C   UNL     1     105.150  95.017  89.969  1.00  0.00    -0.000 C 
BRANCH  14  15
ATOM     15  C   UNL     1     103.943  94.427  90.713  1.00  0.00    -0.003 C 
ATOM     16  C   UNL     1     103.930  94.789  92.198  1.00  0.00     0.004 C 
ENDBRANCH  14  15
ENDBRANCH  13  14
ENDBRANCH  12  13
ENDBRANCH  11  12
ENDBRANCH  10  11
ENDBRANCH   1  10
TORSDOF 12
ENDMDL
MODEL 9
REMARK VINA RESULT:    -3.623     11.916     13.369
REMARK INTER + INTRA:          -8.036
REMARK INTER:                  -6.565
REMARK INTRA:                  -1.471
REMARK UNBOUND:                -1.872
REMARK SMILES CCCCCCCCCCCCCC(=O)[O-]
REMARK SMILES IDX 8 1 9 2 10 3 11 4 12 5 13 6 14 7 15 8 16 9 7 10 6 11 5 12
REMARK SMILES IDX 4 13 3 14 2 15 1 16
REMARK H PARENT
REMARK Flexibility Score: inf
ROOT
ATOM      1  C   UNL     1      92.519 101.612  89.733  1.00  0.00     0.000 C 
ENDROOT
BRANCH   1   2
ATOM      2  C   UNL     1      93.801 100.821  90.037  1.00  0.00     0.000 C 
BRANCH   2   3
ATOM      3  C   UNL     1      93.571  99.654  91.015  1.00  0.00     0.000 C 
BRANCH   3   4
ATOM      4  C   UNL     1      93.380 100.065  92.487  1.00  0.00     0.000 C 
BRANCH   4   5
ATOM      5  C   UNL     1      92.165  99.390  93.145  1.00  0.00     0.006 C 
BRANCH   5   6
ATOM      6  C   UNL     1      90.845 100.063  92.748  1.00  0.00     0.053 C 
BRANCH   6   7
ATOM      7  C   UNL     1      89.993  99.163  91.906  1.00  0.00     0.041 C 
ATOM      8  O   UNL     1      89.159  98.389  92.446  1.00  0.00    -0.550 OA
ATOM      9  O   UNL     1      90.101  99.199  90.522  1.00  0.00    -0.550 OA
ENDBRANCH   6   7
ENDBRANCH   5   6
ENDBRANCH   4   5
ENDBRANCH   3   4
ENDBRANCH   2   3
ENDBRANCH   1   2
BRANCH   1  10
ATOM     10  C   UNL     1      92.673 103.084  90.145  1.00  0.00     0.000 C 
BRANCH  10  11
ATOM     11  C   UNL     1      94.102 103.430  90.594  1.00  0.00    -0.000 C 
BRANCH  11  12
ATOM     12  C   UNL     1      94.698 104.611  89.808  1.00  0.00    -0.000 C 
BRANCH  12  13
ATOM     13  C   UNL     1      96.119 104.320  89.297  1.00  0.00    -0.000 C 
BRANCH  13  14
ATOM     14  C   UNL     1      96.444 102.816  89.265  1.00  0.00    -0.000 C 
BRANCH  14  15
ATOM     15  C   UNL     1      97.621 102.449  90.181  1.00  0.00    -0.003 C 
ATOM     16  C   UNL     1      97.191 101.618  91.390  1.00  0.00     0.004 C 
ENDBRANCH  14  15
ENDBRANCH  13  14
ENDBRANCH  12  13
ENDBRANCH  11  12
ENDBRANCH  10  11
ENDBRANCH   1  10
TORSDOF 12
ENDMDL
