MODEL 1
REMARK VINA RESULT:    -3.527      0.000      0.000
REMARK INTER + INTRA:          -6.505
REMARK INTER:                  -5.382
REMARK INTRA:                  -1.122
REMARK UNBOUND:                -1.122
REMARK SMILES CCCCCCCCCCC(=O)[O-]
REMARK SMILES IDX 7 1 8 2 9 3 10 4 11 5 12 6 13 7 6 8 5 9 4 10 3 11 2 12 1 13
REMARK H PARENT
REMARK Flexibility Score: inf
ROOT
ATOM      1  C   UNL     1      22.834   2.337  15.037  1.00  0.00     0.000 C 
ENDROOT
BRANCH   1   2
ATOM      2  C   UNL     1      24.144   1.574  15.307  1.00  0.00     0.000 C 
BRANCH   2   3
ATOM      3  C   UNL     1      25.363   2.457  15.633  1.00  0.00     0.006 C 
BRANCH   3   4
ATOM      4  C   UNL     1      25.250   3.156  16.994  1.00  0.00     0.053 C 
BRANCH   4   5
ATOM      5  C   UNL     1      25.963   2.369  18.046  1.00  0.00     0.041 C 
ATOM      6  O   UNL     1      25.311   1.676  18.871  1.00  0.00    -0.550 OA
ATOM      7  O   UNL     1      27.347   2.438  18.148  1.00  0.00    -0.550 OA
ENDBRANCH   4   5
ENDBRANCH   3   4
ENDBRANCH   2   3
ENDBRANCH   1   2
BRANCH   1   8
ATOM      8  C   UNL     1      22.343   2.193  13.586  1.00  0.00     0.000 C 
BRANCH   8   9
ATOM      9  C   UNL     1      21.935   3.536  12.954  1.00  0.00    -0.000 C 
BRANCH   9  10
ATOM     10  C   UNL     1      22.798   4.745  13.363  1.00  0.00    -0.000 C 
BRANCH  10  11
ATOM     11  C   UNL     1      24.091   4.864  12.544  1.00  0.00    -0.000 C 
BRANCH  11  12
ATOM     12  C   UNL     1      25.223   5.456  13.391  1.00  0.00    -0.003 C 
ATOM     13  C   UNL     1      24.686   6.064  14.683  1.00  0.00     0.004 C 
ENDBRANCH  11  12
ENDBRANCH  10  11
ENDBRANCH   9  10
ENDBRANCH   8   9
ENDBRANCH   1   8
TORSDOF 9
ENDMDL
MODEL 2
REMARK VINA RESULT:    -3.439      2.301      2.930
REMARK INTER + INTRA:          -6.371
REMARK INTER:                  -5.120
REMARK INTRA:                  -1.251
REMARK UNBOUND:                -1.122
REMARK SMILES CCCCCCCCCCC(=O)[O-]
REMARK SMILES IDX 7 1 8 2 9 3 10 4 11 5 12 6 13 7 6 8 5 9 4 10 3 11 2 12 1 13
REMARK H PARENT
REMARK Flexibility Score: inf
ROOT
ATOM      1  C   UNL     1      21.927   4.359  15.831  1.00  0.00     0.000 C 
ENDROOT
BRANCH   1   2
ATOM      2  C   UNL     1      23.413   4.186  16.199  1.00  0.00     0.000 C 
BRANCH   2   3
ATOM      3  C   UNL     1      23.836   2.752  16.567  1.00  0.00     0.006 C 
BRANCH   3   4
ATOM      4  C   UNL     1      24.428   1.979  15.381  1.00  0.00     0.053 C 
BRANCH   4   5
ATOM      5  C   UNL     1      23.520   0.860  14.983  1.00  0.00     0.041 C 
ATOM      6  O   UNL     1      22.529   1.083  14.238  1.00  0.00    -0.550 OA
ATOM      7  O   UNL     1      23.737  -0.421  15.473  1.00  0.00    -0.550 OA
ENDBRANCH   4   5
ENDBRANCH   3   4
ENDBRANCH   2   3
ENDBRANCH   1   2
BRANCH   1   8
ATOM      8  C   UNL     1      21.715   5.245  14.592  1.00  0.00     0.000 C 
BRANCH   8   9
ATOM      9  C   UNL     1      21.600   4.437  13.287  1.00  0.00    -0.000 C 
BRANCH   9  10
ATOM     10  C   UNL     1      22.940   4.051  12.632  1.00  0.00    -0.000 C 
BRANCH  10  11
ATOM     11  C   UNL     1      23.831   5.264  12.328  1.00  0.00    -0.000 C 
BRANCH  11  12
ATOM     12  C   UNL     1      25.145   5.189  13.114  1.00  0.00    -0.003 C 
ATOM     13  C   UNL     1      25.372   6.457  13.933  1.00  0.00     0.004 C 
ENDBRANCH  11  12
ENDBRANCH  10  11
ENDBRANCH   9  10
ENDBRANCH   8   9
ENDBRANCH   1   8
TORSDOF 9
ENDMDL
MODEL 3
REMARK VINA RESULT:    -3.439      3.388      4.706
REMARK INTER + INTRA:          -6.371
REMARK INTER:                  -5.587
REMARK INTRA:                  -0.784
REMARK UNBOUND:                -1.122
REMARK SMILES CCCCCCCCCCC(=O)[O-]
REMARK SMILES IDX 7 1 8 2 9 3 10 4 11 5 12 6 13 7 6 8 5 9 4 10 3 11 2 12 1 13
REMARK H PARENT
REMARK Flexibility Score: inf
ROOT
ATOM      1  C   UNL     1      22.187   1.396  14.690  1.00  0.00     0.000 C 
ENDROOT
BRANCH   1   2
ATOM      2  C   UNL     1      21.787   1.143  13.224  1.00  0.00     0.000 C 
BRANCH   2   3
ATOM      3  C   UNL     1      21.500  -0.327  12.866  1.00  0.00     0.006 C 
BRANCH   3   4
ATOM      4  C   UNL     1      20.904  -1.124  14.035  1.00  0.00     0.053 C 
BRANCH   4   5
ATOM      5  C   UNL     1      21.801  -2.262  14.401  1.00  0.00     0.041 C 
ATOM      6  O   UNL     1      21.467  -3.064  15.313  1.00  0.00    -0.550 OA
ATOM      7  O   UNL     1      23.030  -2.409  13.771  1.00  0.00    -0.550 OA
ENDBRANCH   4   5
ENDBRANCH   3   4
ENDBRANCH   2   3
ENDBRANCH   1   2
BRANCH   1   8
ATOM      8  C   UNL     1      23.685   1.167  14.952  1.00  0.00     0.000 C 
BRANCH   8   9
ATOM      9  C   UNL     1      24.434   2.460  15.326  1.00  0.00    -0.000 C 
BRANCH   9  10
ATOM     10  C   UNL     1      23.865   3.751  14.710  1.00  0.00    -0.000 C 
BRANCH  10  11
ATOM     11  C   UNL     1      24.884   4.501  13.839  1.00  0.00    -0.000 C 
BRANCH  11  12
ATOM     12  C   UNL     1      24.207   5.112  12.607  1.00  0.00    -0.003 C 
ATOM     13  C   UNL     1      22.794   4.564  12.425  1.00  0.00     0.004 C 
ENDBRANCH  11  12
ENDBRANCH  10  11
ENDBRANCH   9  10
ENDBRANCH   8   9
ENDBRANCH   1   8
TORSDOF 9
ENDMDL
MODEL 4
REMARK VINA RESULT:    -3.423      3.570      4.508
REMARK INTER + INTRA:          -6.347
REMARK INTER:                  -5.887
REMARK INTRA:                  -0.460
REMARK UNBOUND:                -1.122
REMARK SMILES CCCCCCCCCCC(=O)[O-]
REMARK SMILES IDX 7 1 8 2 9 3 10 4 11 5 12 6 13 7 6 8 5 9 4 10 3 11 2 12 1 13
REMARK H PARENT
REMARK Flexibility Score: inf
ROOT
ATOM      1  C   UNL     1      22.746   2.036  14.243  1.00  0.00     0.000 C 
ENDROOT
BRANCH   1   2
ATOM      2  C   UNL     1      22.488   0.519  14.318  1.00  0.00     0.000 C 
BRANCH   2   3
ATOM      3  C   UNL     1      21.359  -0.001  13.409  1.00  0.00     0.006 C 
BRANCH   3   4
ATOM      4  C   UNL     1      21.692  -1.346  12.749  1.00  0.00     0.053 C 
BRANCH   4   5
ATOM      5  C   UNL     1      21.961  -2.385  13.790  1.00  0.00     0.041 C 
ATOM      6  O   UNL     1      21.032  -2.787  14.539  1.00  0.00    -0.550 OA
ATOM      7  O   UNL     1      23.248  -2.876  13.967  1.00  0.00    -0.550 OA
ENDBRANCH   4   5
ENDBRANCH   3   4
ENDBRANCH   2   3
ENDBRANCH   1   2
BRANCH   1   8
ATOM      8  C   UNL     1      21.962   2.723  13.111  1.00  0.00     0.000 C 
BRANCH   8   9
ATOM      9  C   UNL     1      22.759   3.847  12.425  1.00  0.00    -0.000 C 
BRANCH   9  10
ATOM     10  C   UNL     1      23.524   4.786  13.377  1.00  0.00    -0.000 C 
BRANCH  10  11
ATOM     11  C   UNL     1      24.826   5.327  12.769  1.00  0.00    -0.000 C 
BRANCH  11  12
ATOM     12  C   UNL     1      25.451   6.395  13.674  1.00  0.00    -0.003 C 
ATOM     13  C   UNL     1      24.978   6.241  15.116  1.00  0.00     0.004 C 
ENDBRANCH  11  12
ENDBRANCH  10  11
ENDBRANCH   9  10
ENDBRANCH   8   9
ENDBRANCH   1   8
TORSDOF 9
ENDMDL
MODEL 5
REMARK VINA RESULT:    -3.401      6.105      8.008
REMARK INTER + INTRA:          -6.312
REMARK INTER:                  -5.781
REMARK INTRA:                  -0.531
REMARK UNBOUND:                -1.122
REMARK SMILES CCCCCCCCCCC(=O)[O-]
REMARK SMILES IDX 7 1 8 2 9 3 10 4 11 5 12 6 13 7 6 8 5 9 4 10 3 11 2 12 1 13
REMARK H PARENT
REMARK Flexibility Score: inf
ROOT
ATOM      1  C   UNL     1      19.657  -1.453  11.869  1.00  0.00     0.000 C 
ENDROOT
BRANCH   1   2
ATOM      2  C   UNL     1      19.512  -2.043  13.284  1.00  0.00     0.000 C 
BRANCH   2   3
ATOM      3  C   UNL     1      20.166  -1.218  14.409  1.00  0.00     0.006 C 
BRANCH   3   4
ATOM      4  C   UNL     1      21.274  -0.286  13.902  1.00  0.00     0.053 C 
BRANCH   4   5
ATOM      5  C   UNL     1      22.620  -0.846  14.236  1.00  0.00     0.041 C 
ATOM      6  O   UNL     1      23.442  -0.165  14.904  1.00  0.00    -0.550 OA
ATOM      7  O   UNL     1      22.986  -2.102  13.769  1.00  0.00    -0.550 OA
ENDBRANCH   4   5
ENDBRANCH   3   4
ENDBRANCH   2   3
ENDBRANCH   1   2
BRANCH   1   8
ATOM      8  C   UNL     1      18.413  -1.683  10.992  1.00  0.00     0.000 C 
BRANCH   8   9
ATOM      9  C   UNL     1      17.131  -1.903  11.815  1.00  0.00    -0.000 C 
BRANCH   9  10
ATOM     10  C   UNL     1      15.920  -1.054  11.385  1.00  0.00    -0.000 C 
BRANCH  10  11
ATOM     11  C   UNL     1      16.285   0.044  10.376  1.00  0.00    -0.000 C 
BRANCH  11  12
ATOM     12  C   UNL     1      15.190   1.115  10.312  1.00  0.00    -0.003 C 
ATOM     13  C   UNL     1      14.056   0.690   9.383  1.00  0.00     0.004 C 
ENDBRANCH  11  12
ENDBRANCH  10  11
ENDBRANCH   9  10
ENDBRANCH   8   9
ENDBRANCH   1   8
TORSDOF 9
ENDMDL
MODEL 6
REMARK VINA RESULT:    -3.388      3.854      5.855
REMARK INTER + INTRA:          -6.293
REMARK INTER:                  -4.929
REMARK INTRA:                  -1.364
REMARK UNBOUND:                -1.122
REMARK SMILES CCCCCCCCCCC(=O)[O-]
REMARK SMILES IDX 7 1 8 2 9 3 10 4 11 5 12 6 13 7 6 8 5 9 4 10 3 11 2 12 1 13
REMARK H PARENT
REMARK Flexibility Score: inf
ROOT
ATOM      1  C   UNL     1      20.381  -0.659  16.350  1.00  0.00     0.000 C 
ENDROOT
BRANCH   1   2
ATOM      2  C   UNL     1      21.485   0.407  16.495  1.00  0.00     0.000 C 
BRANCH   2   3
ATOM      3  C   UNL     1      22.047   0.954  15.170  1.00  0.00     0.006 C 
BRANCH   3   4
ATOM      4  C   UNL     1      23.556   0.719  15.017  1.00  0.00     0.053 C 
BRANCH   4   5
ATOM      5  C   UNL     1      24.310   1.986  15.264  1.00  0.00     0.041 C 
ATOM      6  O   UNL     1      25.097   2.075  16.243  1.00  0.00    -0.550 OA
ATOM      7  O   UNL     1      24.106   3.088  14.443  1.00  0.00    -0.550 OA
ENDBRANCH   4   5
ENDBRANCH   3   4
ENDBRANCH   2   3
ENDBRANCH   1   2
BRANCH   1   8
ATOM      8  C   UNL     1      20.235  -1.178  14.909  1.00  0.00     0.000 C 
BRANCH   8   9
ATOM      9  C   UNL     1      20.898  -2.552  14.696  1.00  0.00    -0.000 C 
BRANCH   9  10
ATOM     10  C   UNL     1      22.206  -2.531  13.883  1.00  0.00    -0.000 C 
BRANCH  10  11
ATOM     11  C   UNL     1      23.417  -3.033  14.683  1.00  0.00    -0.000 C 
BRANCH  11  12
ATOM     12  C   UNL     1      23.018  -3.383  16.121  1.00  0.00    -0.003 C 
ATOM     13  C   UNL     1      23.766  -2.513  17.127  1.00  0.00     0.004 C 
ENDBRANCH  11  12
ENDBRANCH  10  11
ENDBRANCH   9  10
ENDBRANCH   8   9
ENDBRANCH   1   8
TORSDOF 9
ENDMDL
MODEL 7
REMARK VINA RESULT:    -3.372      6.489      9.114
REMARK INTER + INTRA:          -6.268
REMARK INTER:                  -5.798
REMARK INTRA:                  -0.470
REMARK UNBOUND:                -1.122
REMARK SMILES CCCCCCCCCCC(=O)[O-]
REMARK SMILES IDX 7 1 8 2 9 3 10 4 11 5 12 6 13 7 6 8 5 9 4 10 3 11 2 12 1 13
REMARK H PARENT
REMARK Flexibility Score: inf
ROOT
ATOM      1  C   UNL     1      22.674  -2.156  13.851  1.00  0.00     0.000 C 
ENDROOT
BRANCH   1   2
ATOM      2  C   UNL     1      22.097  -0.735  14.001  1.00  0.00     0.000 C 
BRANCH   2   3
ATOM      3  C   UNL     1      21.355  -0.194  12.764  1.00  0.00     0.006 C 
BRANCH   3   4
ATOM      4  C   UNL     1      20.813  -1.306  11.856  1.00  0.00     0.053 C 
BRANCH   4   5
ATOM      5  C   UNL     1      19.359  -1.531  12.118  1.00  0.00     0.041 C 
ATOM      6  O   UNL     1      18.983  -2.050  13.203  1.00  0.00    -0.550 OA
ATOM      7  O   UNL     1      18.419  -1.214  11.146  1.00  0.00    -0.550 OA
ENDBRANCH   4   5
ENDBRANCH   3   4
ENDBRANCH   2   3
ENDBRANCH   1   2
BRANCH   1   8
ATOM      8  C   UNL     1      22.596  -2.975  15.151  1.00  0.00     0.000 C 
BRANCH   8   9
ATOM      9  C   UNL     1      23.980  -3.369  15.697  1.00  0.00    -0.000 C 
BRANCH   9  10
ATOM     10  C   UNL     1      23.963  -4.208  16.988  1.00  0.00    -0.000 C 
BRANCH  10  11
ATOM     11  C   UNL     1      22.548  -4.435  17.539  1.00  0.00    -0.000 C 
BRANCH  11  12
ATOM     12  C   UNL     1      22.371  -5.880  18.016  1.00  0.00    -0.003 C 
ATOM     13  C   UNL     1      23.658  -6.419  18.636  1.00  0.00     0.004 C 
ENDBRANCH  11  12
ENDBRANCH  10  11
ENDBRANCH   9  10
ENDBRANCH   8   9
ENDBRANCH   1   8
TORSDOF 9
ENDMDL
MODEL 8
REMARK VINA RESULT:    -3.354      1.712      2.348
REMARK INTER + INTRA:          -6.241
REMARK INTER:                  -4.923
REMARK INTRA:                  -1.318
REMARK UNBOUND:                -1.122
REMARK SMILES CCCCCCCCCCC(=O)[O-]
REMARK SMILES IDX 7 1 8 2 9 3 10 4 11 5 12 6 13 7 6 8 5 9 4 10 3 11 2 12 1 13
REMARK H PARENT
REMARK Flexibility Score: inf
ROOT
ATOM      1  C   UNL     1      21.647   5.309  14.347  1.00  0.00     0.000 C 
ENDROOT
BRANCH   1   2
ATOM      2  C   UNL     1      22.198   5.266  15.785  1.00  0.00     0.000 C 
BRANCH   2   3
ATOM      3  C   UNL     1      22.875   3.943  16.190  1.00  0.00     0.006 C 
BRANCH   3   4
ATOM      4  C   UNL     1      24.358   4.113  16.545  1.00  0.00     0.053 C 
BRANCH   4   5
ATOM      5  C   UNL     1      25.101   2.837  16.308  1.00  0.00     0.041 C 
ATOM      6  O   UNL     1      24.741   2.056  15.388  1.00  0.00    -0.550 OA
ATOM      7  O   UNL     1      26.161   2.485  17.134  1.00  0.00    -0.550 OA
ENDBRANCH   4   5
ENDBRANCH   3   4
ENDBRANCH   2   3
ENDBRANCH   1   2
BRANCH   1   8
ATOM      8  C   UNL     1      21.851   3.988  13.586  1.00  0.00     0.000 C 
BRANCH   8   9
ATOM      9  C   UNL     1      22.897   4.098  12.461  1.00  0.00    -0.000 C 
BRANCH   9  10
ATOM     10  C   UNL     1      23.726   5.395  12.459  1.00  0.00    -0.000 C 
BRANCH  10  11
ATOM     11  C   UNL     1      25.110   5.225  13.102  1.00  0.00    -0.000 C 
BRANCH  11  12
ATOM     12  C   UNL     1      25.574   6.531  13.758  1.00  0.00    -0.003 C 
ATOM     13  C   UNL     1      24.535   7.635  13.583  1.00  0.00     0.004 C 
ENDBRANCH  11  12
ENDBRANCH  10  11
ENDBRANCH   9  10
ENDBRANCH   8   9
ENDBRANCH   1   8
TORSDOF 9
ENDMDL
MODEL 9
REMARK VINA RESULT:    -3.317      3.963      5.869
REMARK INTER + INTRA:          -6.185
REMARK INTER:                  -4.964
REMARK INTRA:                  -1.220
REMARK UNBOUND:                -1.122
REMARK SMILES CCCCCCCCCCC(=O)[O-]
REMARK SMILES IDX 7 1 8 2 9 3 10 4 11 5 12 6 13 7 6 8 5 9 4 10 3 11 2 12 1 13
REMARK H PARENT
REMARK Flexibility Score: inf
ROOT
ATOM      1  C   UNL     1      21.825   0.909  16.507  1.00  0.00     0.000 C 
ENDROOT
BRANCH   1   2
ATOM      2  C   UNL     1      23.328   0.767  16.201  1.00  0.00     0.000 C 
BRANCH   2   3
ATOM      3  C   UNL     1      23.806   1.466  14.915  1.00  0.00     0.006 C 
BRANCH   3   4
ATOM      4  C   UNL     1      22.650   1.996  14.056  1.00  0.00     0.053 C 
BRANCH   4   5
ATOM      5  C   UNL     1      23.047   3.265  13.372  1.00  0.00     0.041 C 
ATOM      6  O   UNL     1      22.500   3.599  12.288  1.00  0.00    -0.550 OA
ATOM      7  O   UNL     1      24.058   4.056  13.906  1.00  0.00    -0.550 OA
ENDBRANCH   4   5
ENDBRANCH   3   4
ENDBRANCH   2   3
ENDBRANCH   1   2
BRANCH   1   8
ATOM      8  C   UNL     1      21.148  -0.435  16.826  1.00  0.00     0.000 C 
BRANCH   8   9
ATOM      9  C   UNL     1      20.121  -0.858  15.759  1.00  0.00    -0.000 C 
BRANCH   9  10
ATOM     10  C   UNL     1      20.692  -1.070  14.344  1.00  0.00    -0.000 C 
BRANCH  10  11
ATOM     11  C   UNL     1      21.300  -2.465  14.144  1.00  0.00    -0.000 C 
BRANCH  11  12
ATOM     12  C   UNL     1      22.825  -2.384  14.008  1.00  0.00    -0.003 C 
ATOM     13  C   UNL     1      23.519  -2.900  15.266  1.00  0.00     0.004 C 
ENDBRANCH  11  12
ENDBRANCH  10  11
ENDBRANCH   9  10
ENDBRANCH   8   9
ENDBRANCH   1   8
TORSDOF 9
ENDMDL
