MODEL 1
REMARK VINA RESULT:    28.965      0.000      0.000
REMARK INTER + INTRA:          33.776
REMARK INTER:                  34.045
REMARK INTRA:                  -0.269
REMARK UNBOUND:                -0.269
REMARK SMILES O=c1cc(-c2ccc(O)c(O)c2)oc2cc(O)cc(O)c12
REMARK SMILES IDX 4 1 3 2 2 3 1 4 21 5 19 6 18 7 16 8 15 9 14 10 13 11 5 12
REMARK SMILES IDX 6 13 7 14 8 15 12 16 10 17 9 18 11 20 20 22 17 24
REMARK H PARENT 9 19 11 21 20 23 17 25
REMARK Flexibility Score: inf
ROOT
ATOM      1  C   UNL     1      20.252 -12.585 -15.610  1.00  0.00     0.138 A 
ATOM      2  C   UNL     1      21.409 -12.132 -14.956  1.00  0.00     0.100 A 
ATOM      3  C   UNL     1      22.546 -11.826 -15.704  1.00  0.00     0.197 A 
ATOM      4  O   UNL     1      23.579 -11.419 -15.108  1.00  0.00    -0.289 OA
ATOM      5  C   UNL     1      22.516 -11.971 -17.105  1.00  0.00     0.107 A 
ATOM      6  C   UNL     1      23.624 -11.684 -17.938  1.00  0.00     0.134 A 
ATOM      7  C   UNL     1      23.512 -11.849 -19.326  1.00  0.00     0.093 A 
ATOM      8  C   UNL     1      22.317 -12.295 -19.896  1.00  0.00     0.123 A 
ATOM      9  C   UNL     1      21.219 -12.581 -19.078  1.00  0.00     0.094 A 
ATOM     10  C   UNL     1      21.311 -12.423 -17.693  1.00  0.00     0.146 A 
ATOM     11  O   UNL     1      20.254 -12.703 -16.937  1.00  0.00    -0.456 OA
ENDROOT
BRANCH   1  12
ATOM     12  C   UNL     1      19.013 -12.925 -14.866  1.00  0.00     0.021 A 
ATOM     13  C   UNL     1      18.171 -11.929 -14.336  1.00  0.00     0.016 A 
ATOM     14  C   UNL     1      17.017 -12.279 -13.632  1.00  0.00     0.051 A 
ATOM     15  C   UNL     1      16.686 -13.622 -13.435  1.00  0.00     0.157 A 
ATOM     16  C   UNL     1      18.682 -14.276 -14.653  1.00  0.00     0.062 A 
ATOM     17  C   UNL     1      17.522 -14.626 -13.946  1.00  0.00     0.158 A 
BRANCH  15  18
ATOM     18  O   UNL     1      15.526 -13.939 -12.728  1.00  0.00    -0.504 OA
ATOM     19  H   UNL     1      14.773 -13.272 -12.603  1.00  0.00     0.293 HD
ENDBRANCH  15  18
BRANCH  17  20
ATOM     20  O   UNL     1      17.201 -15.969 -13.752  1.00  0.00    -0.504 OA
ATOM     21  H   UNL     1      16.614 -16.269 -12.982  1.00  0.00     0.293 HD
ENDBRANCH  17  20
ENDBRANCH   1  12
BRANCH   6  22
ATOM     22  O   UNL     1      24.831 -11.237 -17.398  1.00  0.00    -0.507 OA
ATOM     23  H   UNL     1      24.885 -10.393 -16.841  1.00  0.00     0.293 HD
ENDBRANCH   6  22
BRANCH   8  24
ATOM     24  O   UNL     1      22.232 -12.451 -21.278  1.00  0.00    -0.508 OA
ATOM     25  H   UNL     1      22.889 -13.031 -21.787  1.00  0.00     0.293 HD
ENDBRANCH   8  24
TORSDOF 5
ENDMDL
MODEL 2
REMARK VINA RESULT:    28.986      1.086      2.609
REMARK INTER + INTRA:          33.800
REMARK INTER:                  34.063
REMARK INTRA:                  -0.263
REMARK UNBOUND:                -0.269
REMARK SMILES O=c1cc(-c2ccc(O)c(O)c2)oc2cc(O)cc(O)c12
REMARK SMILES IDX 4 1 3 2 2 3 1 4 21 5 19 6 18 7 16 8 15 9 14 10 13 11 5 12
REMARK SMILES IDX 6 13 7 14 8 15 12 16 10 17 9 18 11 20 20 22 17 24
REMARK H PARENT 9 19 11 21 20 23 17 25
REMARK Flexibility Score: inf
ROOT
ATOM      1  C   UNL     1      19.999 -12.702 -16.222  1.00  0.00     0.138 A 
ATOM      2  C   UNL     1      19.909 -13.125 -17.558  1.00  0.00     0.100 A 
ATOM      3  C   UNL     1      20.955 -12.849 -18.439  1.00  0.00     0.197 A 
ATOM      4  O   UNL     1      20.865 -13.234 -19.636  1.00  0.00    -0.289 OA
ATOM      5  C   UNL     1      22.089 -12.154 -17.975  1.00  0.00     0.107 A 
ATOM      6  C   UNL     1      23.193 -11.832 -18.801  1.00  0.00     0.134 A 
ATOM      7  C   UNL     1      24.288 -11.141 -18.261  1.00  0.00     0.093 A 
ATOM      8  C   UNL     1      24.300 -10.767 -16.915  1.00  0.00     0.123 A 
ATOM      9  C   UNL     1      23.212 -11.082 -16.094  1.00  0.00     0.094 A 
ATOM     10  C   UNL     1      22.111 -11.768 -16.614  1.00  0.00     0.146 A 
ATOM     11  O   UNL     1      21.089 -12.054 -15.814  1.00  0.00    -0.456 OA
ENDROOT
BRANCH   1  12
ATOM     12  C   UNL     1      18.917 -12.968 -15.241  1.00  0.00     0.021 A 
ATOM     13  C   UNL     1      18.206 -11.922 -14.623  1.00  0.00     0.016 A 
ATOM     14  C   UNL     1      17.199 -12.202 -13.696  1.00  0.00     0.051 A 
ATOM     15  C   UNL     1      16.889 -13.523 -13.362  1.00  0.00     0.157 A 
ATOM     16  C   UNL     1      18.611 -14.295 -14.892  1.00  0.00     0.062 A 
ATOM     17  C   UNL     1      17.599 -14.576 -13.962  1.00  0.00     0.158 A 
BRANCH  15  18
ATOM     18  O   UNL     1      15.878 -13.770 -12.435  1.00  0.00    -0.504 OA
ATOM     19  H   UNL     1      15.174 -14.484 -12.583  1.00  0.00     0.293 HD
ENDBRANCH  15  18
BRANCH  17  20
ATOM     20  O   UNL     1      17.299 -15.897 -13.633  1.00  0.00    -0.504 OA
ATOM     21  H   UNL     1      17.496 -16.273 -12.712  1.00  0.00     0.293 HD
ENDBRANCH  17  20
ENDBRANCH   1  12
BRANCH   6  22
ATOM     22  O   UNL     1      23.209 -12.193 -20.149  1.00  0.00    -0.507 OA
ATOM     23  H   UNL     1      23.733 -12.995 -20.479  1.00  0.00     0.293 HD
ENDBRANCH   6  22
BRANCH   8  24
ATOM     24  O   UNL     1      25.400 -10.081 -16.404  1.00  0.00    -0.508 OA
ATOM     25  H   UNL     1      25.395  -9.073 -16.302  1.00  0.00     0.293 HD
ENDBRANCH   8  24
TORSDOF 5
ENDMDL
MODEL 3
REMARK VINA RESULT:    29.338      0.691      1.535
REMARK INTER + INTRA:          34.215
REMARK INTER:                  34.478
REMARK INTRA:                  -0.263
REMARK UNBOUND:                -0.269
REMARK SMILES O=c1cc(-c2ccc(O)c(O)c2)oc2cc(O)cc(O)c12
REMARK SMILES IDX 4 1 3 2 2 3 1 4 21 5 19 6 18 7 16 8 15 9 14 10 13 11 5 12
REMARK SMILES IDX 6 13 7 14 8 15 12 16 10 17 9 18 11 20 20 22 17 24
REMARK H PARENT 9 19 11 21 20 23 17 25
REMARK Flexibility Score: inf
ROOT
ATOM      1  C   UNL     1      20.220 -12.538 -15.636  1.00  0.00     0.138 A 
ATOM      2  C   UNL     1      21.382 -12.110 -14.974  1.00  0.00     0.100 A 
ATOM      3  C   UNL     1      22.532 -11.831 -15.714  1.00  0.00     0.197 A 
ATOM      4  O   UNL     1      23.569 -11.446 -15.110  1.00  0.00    -0.289 OA
ATOM      5  C   UNL     1      22.510 -11.981 -17.115  1.00  0.00     0.107 A 
ATOM      6  C   UNL     1      23.631 -11.722 -17.939  1.00  0.00     0.134 A 
ATOM      7  C   UNL     1      23.528 -11.890 -19.327  1.00  0.00     0.093 A 
ATOM      8  C   UNL     1      22.327 -12.309 -19.905  1.00  0.00     0.123 A 
ATOM      9  C   UNL     1      21.216 -12.567 -19.096  1.00  0.00     0.094 A 
ATOM     10  C   UNL     1      21.300 -12.407 -17.710  1.00  0.00     0.146 A 
ATOM     11  O   UNL     1      20.231 -12.660 -16.963  1.00  0.00    -0.456 OA
ENDROOT
BRANCH   1  12
ATOM     12  C   UNL     1      18.968 -12.847 -14.901  1.00  0.00     0.021 A 
ATOM     13  C   UNL     1      18.647 -14.160 -14.506  1.00  0.00     0.016 A 
ATOM     14  C   UNL     1      17.456 -14.423 -13.824  1.00  0.00     0.051 A 
ATOM     15  C   UNL     1      16.564 -13.388 -13.531  1.00  0.00     0.157 A 
ATOM     16  C   UNL     1      18.060 -11.812 -14.615  1.00  0.00     0.062 A 
ATOM     17  C   UNL     1      16.865 -12.076 -13.929  1.00  0.00     0.158 A 
BRANCH  15  18
ATOM     18  O   UNL     1      15.385 -13.683 -12.847  1.00  0.00    -0.504 OA
ATOM     19  H   UNL     1      14.532 -13.153 -12.991  1.00  0.00     0.293 HD
ENDBRANCH  15  18
BRANCH  17  20
ATOM     20  O   UNL     1      15.979 -11.039 -13.644  1.00  0.00    -0.504 OA
ATOM     21  H   UNL     1      16.027 -10.150 -14.128  1.00  0.00     0.293 HD
ENDBRANCH  17  20
ENDBRANCH   1  12
BRANCH   6  22
ATOM     22  O   UNL     1      24.843 -11.301 -17.390  1.00  0.00    -0.507 OA
ATOM     23  H   UNL     1      24.880 -10.646 -16.618  1.00  0.00     0.293 HD
ENDBRANCH   6  22
BRANCH   8  24
ATOM     24  O   UNL     1      22.250 -12.469 -21.288  1.00  0.00    -0.508 OA
ATOM     25  H   UNL     1      22.074 -11.683 -21.903  1.00  0.00     0.293 HD
ENDBRANCH   8  24
TORSDOF 5
ENDMDL
MODEL 4
REMARK VINA RESULT:    30.539      4.876      7.545
REMARK INTER + INTRA:          35.626
REMARK INTER:                  35.890
REMARK INTRA:                  -0.265
REMARK UNBOUND:                -0.269
REMARK SMILES O=c1cc(-c2ccc(O)c(O)c2)oc2cc(O)cc(O)c12
REMARK SMILES IDX 4 1 3 2 2 3 1 4 21 5 19 6 18 7 16 8 15 9 14 10 13 11 5 12
REMARK SMILES IDX 6 13 7 14 8 15 12 16 10 17 9 18 11 20 20 22 17 24
REMARK H PARENT 9 19 11 21 20 23 17 25
REMARK Flexibility Score: inf
ROOT
ATOM      1  C   UNL     1      22.497  -8.114 -18.441  1.00  0.00     0.138 A 
ATOM      2  C   UNL     1      23.374  -8.341 -17.367  1.00  0.00     0.100 A 
ATOM      3  C   UNL     1      23.712  -9.649 -17.020  1.00  0.00     0.197 A 
ATOM      4  O   UNL     1      24.501  -9.842 -16.056  1.00  0.00    -0.289 OA
ATOM      5  C   UNL     1      23.172 -10.724 -17.754  1.00  0.00     0.107 A 
ATOM      6  C   UNL     1      23.461 -12.080 -17.467  1.00  0.00     0.134 A 
ATOM      7  C   UNL     1      22.886 -13.094 -18.248  1.00  0.00     0.093 A 
ATOM      8  C   UNL     1      22.032 -12.778 -19.307  1.00  0.00     0.123 A 
ATOM      9  C   UNL     1      21.742 -11.440 -19.594  1.00  0.00     0.094 A 
ATOM     10  C   UNL     1      22.303 -10.416 -18.827  1.00  0.00     0.146 A 
ATOM     11  O   UNL     1      22.011  -9.153 -19.119  1.00  0.00    -0.456 OA
ENDROOT
BRANCH   1  12
ATOM     12  C   UNL     1      22.103  -6.744 -18.855  1.00  0.00     0.021 A 
ATOM     13  C   UNL     1      20.781  -6.280 -18.715  1.00  0.00     0.016 A 
ATOM     14  C   UNL     1      20.437  -4.989 -19.122  1.00  0.00     0.051 A 
ATOM     15  C   UNL     1      21.397  -4.143 -19.683  1.00  0.00     0.157 A 
ATOM     16  C   UNL     1      23.063  -5.893 -19.432  1.00  0.00     0.062 A 
ATOM     17  C   UNL     1      22.717  -4.596 -19.841  1.00  0.00     0.158 A 
BRANCH  15  18
ATOM     18  O   UNL     1      21.023  -2.859 -20.079  1.00  0.00    -0.504 OA
ATOM     19  H   UNL     1      20.194  -2.404 -19.714  1.00  0.00     0.293 HD
ENDBRANCH  15  18
BRANCH  17  20
ATOM     20  O   UNL     1      23.680  -3.760 -20.402  1.00  0.00    -0.504 OA
ATOM     21  H   UNL     1      24.335  -4.096 -21.099  1.00  0.00     0.293 HD
ENDBRANCH  17  20
ENDBRANCH   1  12
BRANCH   6  22
ATOM     22  O   UNL     1      24.311 -12.426 -16.417  1.00  0.00    -0.507 OA
ATOM     23  H   UNL     1      24.690 -11.730 -15.786  1.00  0.00     0.293 HD
ENDBRANCH   6  22
BRANCH   8  24
ATOM     24  O   UNL     1      21.474 -13.804 -20.068  1.00  0.00    -0.508 OA
ATOM     25  H   UNL     1      20.818 -14.464 -19.667  1.00  0.00     0.293 HD
ENDBRANCH   8  24
TORSDOF 5
ENDMDL
MODEL 5
REMARK VINA RESULT:    31.475      4.947      8.063
REMARK INTER + INTRA:          36.726
REMARK INTER:                  36.993
REMARK INTRA:                  -0.267
REMARK UNBOUND:                -0.269
REMARK SMILES O=c1cc(-c2ccc(O)c(O)c2)oc2cc(O)cc(O)c12
REMARK SMILES IDX 4 1 3 2 2 3 1 4 21 5 19 6 18 7 16 8 15 9 14 10 13 11 5 12
REMARK SMILES IDX 6 13 7 14 8 15 12 16 10 17 9 18 11 20 20 22 17 24
REMARK H PARENT 9 19 11 21 20 23 17 25
REMARK Flexibility Score: inf
ROOT
ATOM      1  C   UNL     1      22.164  -8.142 -19.047  1.00  0.00     0.138 A 
ATOM      2  C   UNL     1      21.723  -9.078 -19.996  1.00  0.00     0.100 A 
ATOM      3  C   UNL     1      21.990 -10.433 -19.801  1.00  0.00     0.197 A 
ATOM      4  O   UNL     1      21.589 -11.265 -20.658  1.00  0.00    -0.289 OA
ATOM      5  C   UNL     1      22.696 -10.844 -18.653  1.00  0.00     0.107 A 
ATOM      6  C   UNL     1      23.010 -12.197 -18.380  1.00  0.00     0.134 A 
ATOM      7  C   UNL     1      23.712 -12.526 -17.211  1.00  0.00     0.093 A 
ATOM      8  C   UNL     1      24.104 -11.530 -16.312  1.00  0.00     0.123 A 
ATOM      9  C   UNL     1      23.797 -10.191 -16.577  1.00  0.00     0.094 A 
ATOM     10  C   UNL     1      23.099  -9.844 -17.737  1.00  0.00     0.146 A 
ATOM     11  O   UNL     1      22.821  -8.565 -17.967  1.00  0.00    -0.456 OA
ENDROOT
BRANCH   1  12
ATOM     12  C   UNL     1      21.908  -6.688 -19.201  1.00  0.00     0.021 A 
ATOM     13  C   UNL     1      20.641  -6.129 -18.943  1.00  0.00     0.016 A 
ATOM     14  C   UNL     1      20.427  -4.758 -19.106  1.00  0.00     0.051 A 
ATOM     15  C   UNL     1      21.462  -3.924 -19.536  1.00  0.00     0.157 A 
ATOM     16  C   UNL     1      22.943  -5.846 -19.647  1.00  0.00     0.062 A 
ATOM     17  C   UNL     1      22.726  -4.470 -19.810  1.00  0.00     0.158 A 
BRANCH  15  18
ATOM     18  O   UNL     1      21.216  -2.560 -19.688  1.00  0.00    -0.504 OA
ATOM     19  H   UNL     1      21.803  -1.856 -19.256  1.00  0.00     0.293 HD
ENDBRANCH  15  18
BRANCH  17  20
ATOM     20  O   UNL     1      23.764  -3.645 -20.242  1.00  0.00    -0.504 OA
ATOM     21  H   UNL     1      24.318  -3.873 -21.060  1.00  0.00     0.293 HD
ENDBRANCH  17  20
ENDBRANCH   1  12
BRANCH   6  22
ATOM     22  O   UNL     1      22.631 -13.213 -19.257  1.00  0.00    -0.507 OA
ATOM     23  H   UNL     1      22.124 -13.018 -20.113  1.00  0.00     0.293 HD
ENDBRANCH   6  22
BRANCH   8  24
ATOM     24  O   UNL     1      24.801 -11.883 -15.158  1.00  0.00    -0.508 OA
ATOM     25  H   UNL     1      24.602 -11.447 -14.265  1.00  0.00     0.293 HD
ENDBRANCH   8  24
TORSDOF 5
ENDMDL
