MODEL 1
REMARK VINA RESULT:    -1.219      0.000      0.000
REMARK INTER + INTRA:          -1.804
REMARK INTER:                  -1.717
REMARK INTRA:                  -0.086
REMARK UNBOUND:                -0.086
REMARK SMILES CC1=CCC(=C(C)C)C(=O)CC(C)=CCC1
REMARK SMILES IDX 12 1 14 2 13 3 15 4 16 5 2 6 1 7 3 8 11 10 9 11 10 12 5 13
REMARK SMILES IDX 6 14 7 15 8 16 4 17
REMARK H PARENT
REMARK Flexibility Score: 60.00
ROOT
ATOM      1  C   UNL     1      30.357  62.033  12.761  1.00  0.00    -0.070 C 
ATOM      2  C   UNL     1      30.760  62.010  11.470  1.00  0.00    -0.027 C 
ATOM      3  C   UNL     1      29.663  63.272  13.266  1.00  0.00     0.039 C 
ENDROOT
BRANCH   2   4
ATOM      4  C   UNL     1      31.593  60.920  10.845  1.00  0.00     0.032 C 
BRANCH   4   5
ATOM      5  C   UNL     1      30.767  60.172   9.792  1.00  0.00     0.034 C 
BRANCH   5   6
ATOM      6  C   UNL     1      31.042  58.682   9.789  1.00  0.00    -0.077 C 
ATOM      7  C   UNL     1      32.082  58.141   8.840  1.00  0.00     0.039 C 
ATOM      8  C   UNL     1      30.457  57.810  10.648  1.00  0.00    -0.023 CG0
ATOM      9  G   UNL     1      29.351  58.100  11.647  1.00  0.00     0.000 G0
ENDBRANCH   5   6
ENDBRANCH   4   5
ENDBRANCH   2   4
BRANCH   1  10
ATOM     10  C   UNL     1      30.550  60.871  13.716  1.00  0.00     0.111 C 
BRANCH  10  11
ATOM     11  C   UNL     1      29.463  59.833  13.567  1.00  0.00     0.163 C 
ATOM     12  O   UNL     1      28.286  60.190  13.848  1.00  0.00    -0.294 OA
BRANCH  11  13
ATOM     13  C   UNL     1      29.707  58.432  13.086  1.00  0.00    -0.002 C 
ATOM     14  C   UNL     1      30.108  57.458  13.960  1.00  0.00    -0.069 C 
ATOM     15  C   UNL     1      30.592  57.796  15.352  1.00  0.00     0.039 C 
ATOM     16  C   UNL     1      30.141  55.996  13.571  1.00  0.00     0.039 C 
BRANCH  13  17
ATOM     17  C   UNL     1      29.321  58.094  11.650  1.00  0.00     0.066 CG0
ATOM     18  G   UNL     1      30.463  57.805  10.693  1.00  0.00     0.000 G0
ENDBRANCH  13  17
ENDBRANCH  11  13
ENDBRANCH  10  11
ENDBRANCH   1  10
TORSDOF 0
ENDMDL
MODEL 2
REMARK VINA RESULT:    -1.028      2.476      4.480
REMARK INTER + INTRA:          -1.535
REMARK INTER:                  -1.497
REMARK INTRA:                  -0.038
REMARK UNBOUND:                -0.086
REMARK SMILES CC1=CCC(=C(C)C)C(=O)CC(C)=CCC1
REMARK SMILES IDX 12 1 14 2 13 3 15 4 16 5 2 6 1 7 3 8 11 10 9 11 10 12 5 13
REMARK SMILES IDX 6 14 7 15 8 16 4 17
REMARK H PARENT
REMARK Flexibility Score: 60.00
ROOT
ATOM      1  C   UNL     1      31.037  59.914  10.189  1.00  0.00    -0.070 C 
ATOM      2  C   UNL     1      31.846  60.980   9.992  1.00  0.00    -0.027 C 
ATOM      3  C   UNL     1      31.425  58.602   9.556  1.00  0.00     0.039 C 
ENDROOT
BRANCH   2   4
ATOM      4  C   UNL     1      31.535  62.391  10.425  1.00  0.00     0.032 C 
BRANCH   4   5
ATOM      5  C   UNL     1      32.037  62.620  11.855  1.00  0.00     0.034 C 
BRANCH   5   6
ATOM      6  C   UNL     1      31.111  63.509  12.660  1.00  0.00    -0.077 C 
ATOM      7  C   UNL     1      31.000  64.965  12.283  1.00  0.00     0.039 C 
ATOM      8  C   UNL     1      30.314  63.053  13.659  1.00  0.00    -0.023 CG0
ATOM      9  G   UNL     1      30.286  61.656  14.253  1.00  0.00     0.000 G0
ENDBRANCH   5   6
ENDBRANCH   4   5
ENDBRANCH   2   4
BRANCH   1  10
ATOM     10  C   UNL     1      29.775  59.967  11.027  1.00  0.00     0.111 C 
BRANCH  10  11
ATOM     11  C   UNL     1      30.066  59.782  12.497  1.00  0.00     0.163 C 
ATOM     12  O   UNL     1      30.909  58.896  12.807  1.00  0.00    -0.294 OA
BRANCH  11  13
ATOM     13  C   UNL     1      29.431  60.600  13.584  1.00  0.00    -0.002 C 
ATOM     14  C   UNL     1      28.181  60.290  14.046  1.00  0.00    -0.069 C 
ATOM     15  C   UNL     1      27.285  59.318  13.312  1.00  0.00     0.039 C 
ATOM     16  C   UNL     1      27.603  60.935  15.287  1.00  0.00     0.039 C 
BRANCH  13  17
ATOM     17  C   UNL     1      30.288  61.658  14.271  1.00  0.00     0.066 CG0
ATOM     18  G   UNL     1      30.299  63.036  13.635  1.00  0.00     0.000 G0
ENDBRANCH  13  17
ENDBRANCH  11  13
ENDBRANCH  10  11
ENDBRANCH   1  10
TORSDOF 0
ENDMDL
MODEL 3
REMARK VINA RESULT:    -1.013      2.272      3.631
REMARK INTER + INTRA:          -1.513
REMARK INTER:                  -1.544
REMARK INTRA:                   0.030
REMARK UNBOUND:                -0.086
REMARK SMILES CC1=CCC(=C(C)C)C(=O)CC(C)=CCC1
REMARK SMILES IDX 12 1 14 2 13 3 15 4 16 5 2 6 1 7 3 8 11 10 9 11 10 12 5 13
REMARK SMILES IDX 6 14 7 15 8 16 4 17
REMARK H PARENT
REMARK Flexibility Score: 60.00
ROOT
ATOM      1  C   UNL     1      29.974  57.429  13.647  1.00  0.00    -0.070 C 
ATOM      2  C   UNL     1      30.687  56.545  12.911  1.00  0.00    -0.027 C 
ATOM      3  C   UNL     1      29.215  56.910  14.841  1.00  0.00     0.039 C 
ENDROOT
BRANCH   2   4
ATOM      4  C   UNL     1      31.378  56.864  11.609  1.00  0.00     0.032 C 
BRANCH   4   5
ATOM      5  C   UNL     1      30.619  56.219  10.445  1.00  0.00     0.034 C 
BRANCH   5   6
ATOM      6  C   UNL     1      29.919  57.240   9.571  1.00  0.00    -0.077 C 
ATOM      7  C   UNL     1      30.635  57.756   8.347  1.00  0.00     0.039 C 
ATOM      8  C   UNL     1      28.649  57.667   9.786  1.00  0.00    -0.023 CG0
ATOM      9  G   UNL     1      27.753  57.339  10.967  1.00  0.00     0.000 G0
ENDBRANCH   5   6
ENDBRANCH   4   5
ENDBRANCH   2   4
BRANCH   1  10
ATOM     10  C   UNL     1      29.917  58.913  13.342  1.00  0.00     0.111 C 
BRANCH  10  11
ATOM     11  C   UNL     1      28.831  59.243  12.346  1.00  0.00     0.163 C 
ATOM     12  O   UNL     1      28.961  60.309  11.686  1.00  0.00    -0.294 OA
BRANCH  11  13
ATOM     13  C   UNL     1      27.638  58.368  12.093  1.00  0.00    -0.002 C 
ATOM     14  C   UNL     1      26.454  58.602  12.740  1.00  0.00    -0.069 C 
ATOM     15  C   UNL     1      26.372  59.543  13.920  1.00  0.00     0.039 C 
ATOM     16  C   UNL     1      25.174  57.899  12.347  1.00  0.00     0.039 C 
BRANCH  13  17
ATOM     17  C   UNL     1      27.734  57.339  10.971  1.00  0.00     0.066 CG0
ATOM     18  G   UNL     1      28.653  57.685   9.813  1.00  0.00     0.000 G0
ENDBRANCH  13  17
ENDBRANCH  11  13
ENDBRANCH  10  11
ENDBRANCH   1  10
TORSDOF 0
ENDMDL
MODEL 4
REMARK VINA RESULT:    -0.886      2.182      4.338
REMARK INTER + INTRA:          -1.335
REMARK INTER:                  -1.582
REMARK INTRA:                   0.247
REMARK UNBOUND:                -0.086
REMARK SMILES CC1=CCC(=C(C)C)C(=O)CC(C)=CCC1
REMARK SMILES IDX 12 1 14 2 13 3 15 4 16 5 2 6 1 7 3 8 11 10 9 11 10 12 5 13
REMARK SMILES IDX 6 14 7 15 8 16 4 17
REMARK H PARENT
REMARK Flexibility Score: 60.00
ROOT
ATOM      1  C   UNL     1      30.907  60.418  11.638  1.00  0.00    -0.070 C 
ATOM      2  C   UNL     1      30.988  60.178  12.967  1.00  0.00    -0.027 C 
ATOM      3  C   UNL     1      30.742  61.845  11.183  1.00  0.00     0.039 C 
ENDROOT
BRANCH   2   4
ATOM      4  C   UNL     1      31.005  58.808  13.598  1.00  0.00     0.032 C 
BRANCH   4   5
ATOM      5  C   UNL     1      29.711  58.583  14.388  1.00  0.00     0.034 C 
BRANCH   5   6
ATOM      6  C   UNL     1      28.878  57.449  13.824  1.00  0.00    -0.077 C 
ATOM      7  C   UNL     1      29.012  56.078  14.440  1.00  0.00     0.039 C 
ATOM      8  C   UNL     1      27.959  57.611  12.840  1.00  0.00    -0.023 CG0
ATOM      9  G   UNL     1      27.682  58.867  12.033  1.00  0.00     0.000 G0
ENDBRANCH   5   6
ENDBRANCH   4   5
ENDBRANCH   2   4
BRANCH   1  10
ATOM     10  C   UNL     1      30.995  59.328  10.587  1.00  0.00     0.111 C 
BRANCH  10  11
ATOM     11  C   UNL     1      29.742  58.485  10.545  1.00  0.00     0.163 C 
ATOM     12  O   UNL     1      29.892  57.242  10.391  1.00  0.00    -0.294 OA
BRANCH  11  13
ATOM     13  C   UNL     1      28.357  59.040  10.698  1.00  0.00    -0.002 C 
ATOM     14  C   UNL     1      27.678  59.525   9.612  1.00  0.00    -0.069 C 
ATOM     15  C   UNL     1      28.376  59.785   8.297  1.00  0.00     0.039 C 
ATOM     16  C   UNL     1      26.208  59.876   9.677  1.00  0.00     0.039 C 
BRANCH  13  17
ATOM     17  C   UNL     1      27.670  58.880  12.051  1.00  0.00     0.066 CG0
ATOM     18  G   UNL     1      27.964  57.599  12.811  1.00  0.00     0.000 G0
ENDBRANCH  13  17
ENDBRANCH  11  13
ENDBRANCH  10  11
ENDBRANCH   1  10
TORSDOF 0
ENDMDL
MODEL 5
REMARK VINA RESULT:    -0.876      2.451      4.372
REMARK INTER + INTRA:          -1.321
REMARK INTER:                  -1.332
REMARK INTRA:                   0.011
REMARK UNBOUND:                -0.086
REMARK SMILES CC1=CCC(=C(C)C)C(=O)CC(C)=CCC1
REMARK SMILES IDX 12 1 14 2 13 3 15 4 16 5 2 6 1 7 3 8 11 10 9 11 10 12 5 13
REMARK SMILES IDX 6 14 7 15 8 16 4 17
REMARK H PARENT
REMARK Flexibility Score: 60.00
ROOT
ATOM      1  C   UNL     1      28.281  56.975  14.112  1.00  0.00    -0.070 C 
ATOM      2  C   UNL     1      29.618  57.098  13.949  1.00  0.00    -0.027 C 
ATOM      3  C   UNL     1      27.733  56.991  15.515  1.00  0.00     0.039 C 
ENDROOT
BRANCH   2   4
ATOM      4  C   UNL     1      30.345  56.954  12.635  1.00  0.00     0.032 C 
BRANCH   4   5
ATOM      5  C   UNL     1      30.610  58.339  12.033  1.00  0.00     0.034 C 
BRANCH   5   6
ATOM      6  C   UNL     1      30.558  58.332  10.519  1.00  0.00    -0.077 C 
ATOM      7  C   UNL     1      31.741  57.790   9.757  1.00  0.00     0.039 C 
ATOM      8  C   UNL     1      29.472  58.720   9.803  1.00  0.00    -0.023 CG0
ATOM      9  G   UNL     1      28.195  59.348  10.333  1.00  0.00     0.000 G0
ENDBRANCH   5   6
ENDBRANCH   4   5
ENDBRANCH   2   4
BRANCH   1  10
ATOM     10  C   UNL     1      27.309  56.840  12.956  1.00  0.00     0.111 C 
BRANCH  10  11
ATOM     11  C   UNL     1      27.025  58.171  12.301  1.00  0.00     0.163 C 
ATOM     12  O   UNL     1      26.715  59.130  13.060  1.00  0.00    -0.294 OA
BRANCH  11  13
ATOM     13  C   UNL     1      27.114  58.409  10.822  1.00  0.00    -0.002 C 
ATOM     14  C   UNL     1      26.154  57.917   9.980  1.00  0.00    -0.069 C 
ATOM     15  C   UNL     1      25.143  56.895  10.447  1.00  0.00     0.039 C 
ATOM     16  C   UNL     1      26.078  58.325   8.525  1.00  0.00     0.039 C 
BRANCH  13  17
ATOM     17  C   UNL     1      28.194  59.360  10.318  1.00  0.00     0.066 CG0
ATOM     18  G   UNL     1      29.474  58.721   9.808  1.00  0.00     0.000 G0
ENDBRANCH  13  17
ENDBRANCH  11  13
ENDBRANCH  10  11
ENDBRANCH   1  10
TORSDOF 0
ENDMDL
MODEL 6
REMARK VINA RESULT:    -0.829      2.396      3.584
REMARK INTER + INTRA:          -1.255
REMARK INTER:                  -1.388
REMARK INTRA:                   0.133
REMARK UNBOUND:                -0.086
REMARK SMILES CC1=CCC(=C(C)C)C(=O)CC(C)=CCC1
REMARK SMILES IDX 12 1 14 2 13 3 15 4 16 5 2 6 1 7 3 8 11 10 9 11 10 12 5 13
REMARK SMILES IDX 6 14 7 15 8 16 4 17
REMARK H PARENT
REMARK Flexibility Score: 60.00
ROOT
ATOM      1  C   UNL     1      30.143  61.295   9.892  1.00  0.00    -0.070 C 
ATOM      2  C   UNL     1      31.258  60.531   9.944  1.00  0.00    -0.027 C 
ATOM      3  C   UNL     1      30.090  62.533  10.750  1.00  0.00     0.039 C 
ENDROOT
BRANCH   2   4
ATOM      4  C   UNL     1      31.419  59.192   9.269  1.00  0.00     0.032 C 
BRANCH   4   5
ATOM      5  C   UNL     1      31.375  58.073  10.317  1.00  0.00     0.034 C 
BRANCH   5   6
ATOM      6  C   UNL     1      30.127  57.221  10.204  1.00  0.00    -0.077 C 
ATOM      7  C   UNL     1      30.173  55.982   9.345  1.00  0.00     0.039 C 
ATOM      8  C   UNL     1      28.984  57.469  10.892  1.00  0.00    -0.023 CG0
ATOM      9  G   UNL     1      28.677  58.671  11.767  1.00  0.00     0.000 G0
ENDBRANCH   5   6
ENDBRANCH   4   5
ENDBRANCH   2   4
BRANCH   1  10
ATOM     10  C   UNL     1      28.956  60.981   9.002  1.00  0.00     0.111 C 
BRANCH  10  11
ATOM     11  C   UNL     1      28.005  60.007   9.655  1.00  0.00     0.163 C 
ATOM     12  O   UNL     1      27.285  59.308   8.891  1.00  0.00    -0.294 OA
BRANCH  11  13
ATOM     13  C   UNL     1      27.893  59.818  11.140  1.00  0.00    -0.002 C 
ATOM     14  C   UNL     1      26.976  60.531  11.864  1.00  0.00    -0.069 C 
ATOM     15  C   UNL     1      26.250  61.717  11.271  1.00  0.00     0.039 C 
ATOM     16  C   UNL     1      26.671  60.207  13.310  1.00  0.00     0.039 C 
BRANCH  13  17
ATOM     17  C   UNL     1      28.697  58.689  11.776  1.00  0.00     0.066 CG0
ATOM     18  G   UNL     1      28.961  57.473  10.907  1.00  0.00     0.000 G0
ENDBRANCH  13  17
ENDBRANCH  11  13
ENDBRANCH  10  11
ENDBRANCH   1  10
TORSDOF 0
ENDMDL
MODEL 7
REMARK VINA RESULT:    -0.787      2.757      4.237
REMARK INTER + INTRA:          -1.195
REMARK INTER:                  -1.080
REMARK INTRA:                  -0.115
REMARK UNBOUND:                -0.086
REMARK SMILES CC1=CCC(=C(C)C)C(=O)CC(C)=CCC1
REMARK SMILES IDX 12 1 14 2 13 3 15 4 16 5 2 6 1 7 3 8 11 10 9 11 10 12 5 13
REMARK SMILES IDX 6 14 7 15 8 16 4 17
REMARK H PARENT
REMARK Flexibility Score: 60.00
ROOT
ATOM      1  C   UNL     1      28.921  62.814   9.488  1.00  0.00    -0.070 C 
ATOM      2  C   UNL     1      27.716  63.181   9.980  1.00  0.00    -0.027 C 
ATOM      3  C   UNL     1      29.782  63.874   8.851  1.00  0.00     0.039 C 
ENDROOT
BRANCH   2   4
ATOM      4  C   UNL     1      26.674  62.230  10.513  1.00  0.00     0.032 C 
BRANCH   4   5
ATOM      5  C   UNL     1      26.880  62.021  12.017  1.00  0.00     0.034 C 
BRANCH   5   6
ATOM      6  C   UNL     1      26.641  60.586  12.441  1.00  0.00    -0.077 C 
ATOM      7  C   UNL     1      25.232  60.048  12.411  1.00  0.00     0.039 C 
ATOM      8  C   UNL     1      27.637  59.727  12.778  1.00  0.00    -0.023 CG0
ATOM      9  G   UNL     1      29.114  60.043  12.934  1.00  0.00     0.000 G0
ENDBRANCH   5   6
ENDBRANCH   4   5
ENDBRANCH   2   4
BRANCH   1  10
ATOM     10  C   UNL     1      29.456  61.396   9.563  1.00  0.00     0.111 C 
BRANCH  10  11
ATOM     11  C   UNL     1      30.200  61.142  10.852  1.00  0.00     0.163 C 
ATOM     12  O   UNL     1      31.013  62.029  11.230  1.00  0.00    -0.294 OA
BRANCH  11  13
ATOM     13  C   UNL     1      30.005  59.920  11.702  1.00  0.00    -0.002 C 
ATOM     14  C   UNL     1      30.724  58.781  11.457  1.00  0.00    -0.069 C 
ATOM     15  C   UNL     1      31.514  58.606  10.180  1.00  0.00     0.039 C 
ATOM     16  C   UNL     1      30.731  57.615  12.420  1.00  0.00     0.039 C 
BRANCH  13  17
ATOM     17  C   UNL     1      29.127  60.048  12.942  1.00  0.00     0.066 CG0
ATOM     18  G   UNL     1      27.653  59.730  12.763  1.00  0.00     0.000 G0
ENDBRANCH  13  17
ENDBRANCH  11  13
ENDBRANCH  10  11
ENDBRANCH   1  10
TORSDOF 0
ENDMDL
MODEL 8
REMARK VINA RESULT:    -0.750      1.730      2.724
REMARK INTER + INTRA:          -1.144
REMARK INTER:                  -1.334
REMARK INTRA:                   0.190
REMARK UNBOUND:                -0.086
REMARK SMILES CC1=CCC(=C(C)C)C(=O)CC(C)=CCC1
REMARK SMILES IDX 12 1 14 2 13 3 15 4 16 5 2 6 1 7 3 8 11 10 9 11 10 12 5 13
REMARK SMILES IDX 6 14 7 15 8 16 4 17
REMARK H PARENT
REMARK Flexibility Score: 60.00
ROOT
ATOM      1  C   UNL     1      30.582  61.220  10.134  1.00  0.00    -0.070 C 
ATOM      2  C   UNL     1      30.333  60.718   8.903  1.00  0.00    -0.027 C 
ATOM      3  C   UNL     1      32.011  61.527  10.500  1.00  0.00     0.039 C 
ENDROOT
BRANCH   2   4
ATOM      4  C   UNL     1      28.991  60.220   8.428  1.00  0.00     0.032 C 
BRANCH   4   5
ATOM      5  C   UNL     1      28.994  58.688   8.373  1.00  0.00     0.034 C 
BRANCH   5   6
ATOM      6  C   UNL     1      28.071  58.070   9.403  1.00  0.00    -0.077 C 
ATOM      7  C   UNL     1      26.634  57.811   9.024  1.00  0.00     0.039 C 
ATOM      8  C   UNL     1      28.482  57.663  10.631  1.00  0.00    -0.023 CG0
ATOM      9  G   UNL     1      29.850  57.863  11.259  1.00  0.00     0.000 G0
ENDBRANCH   5   6
ENDBRANCH   4   5
ENDBRANCH   2   4
BRANCH   1  10
ATOM     10  C   UNL     1      29.496  61.506  11.153  1.00  0.00     0.111 C 
BRANCH  10  11
ATOM     11  C   UNL     1      29.092  60.263  11.909  1.00  0.00     0.163 C 
ATOM     12  O   UNL     1      27.904  60.207  12.329  1.00  0.00    -0.294 OA
BRANCH  11  13
ATOM     13  C   UNL     1      30.010  59.102  12.160  1.00  0.00    -0.002 C 
ATOM     14  C   UNL     1      30.847  59.100  13.243  1.00  0.00    -0.069 C 
ATOM     15  C   UNL     1      31.091  60.351  14.055  1.00  0.00     0.039 C 
ATOM     16  C   UNL     1      31.613  57.864  13.661  1.00  0.00     0.039 C 
BRANCH  13  17
ATOM     17  C   UNL     1      29.850  57.865  11.283  1.00  0.00     0.066 CG0
ATOM     18  G   UNL     1      28.488  57.662  10.642  1.00  0.00     0.000 G0
ENDBRANCH  13  17
ENDBRANCH  11  13
ENDBRANCH  10  11
ENDBRANCH   1  10
TORSDOF 0
ENDMDL
MODEL 9
REMARK VINA RESULT:    -0.600      3.847      5.986
REMARK INTER + INTRA:          -0.932
REMARK INTER:                  -1.011
REMARK INTRA:                   0.079
REMARK UNBOUND:                -0.086
REMARK SMILES CC1=CCC(=C(C)C)C(=O)CC(C)=CCC1
REMARK SMILES IDX 12 1 14 2 13 3 15 4 16 5 2 6 1 7 3 8 11 10 9 11 10 12 5 13
REMARK SMILES IDX 6 14 7 15 8 16 4 17
REMARK H PARENT
REMARK Flexibility Score: 60.00
ROOT
ATOM      1  C   UNL     1      26.968  57.725  13.074  1.00  0.00    -0.070 C 
ATOM      2  C   UNL     1      26.040  57.732  14.058  1.00  0.00    -0.027 C 
ATOM      3  C   UNL     1      26.736  58.606  11.874  1.00  0.00     0.039 C 
ENDROOT
BRANCH   2   4
ATOM      4  C   UNL     1      26.039  56.808  15.250  1.00  0.00     0.032 C 
BRANCH   4   5
ATOM      5  C   UNL     1      26.155  57.625  16.542  1.00  0.00     0.034 C 
BRANCH   5   6
ATOM      6  C   UNL     1      27.262  57.123  17.447  1.00  0.00    -0.077 C 
ATOM      7  C   UNL     1      26.895  56.251  18.622  1.00  0.00     0.039 C 
ATOM      8  C   UNL     1      28.580  57.353  17.220  1.00  0.00    -0.023 CG0
ATOM      9  G   UNL     1      29.191  58.237  16.148  1.00  0.00     0.000 G0
ENDBRANCH   5   6
ENDBRANCH   4   5
ENDBRANCH   2   4
BRANCH   1  10
ATOM     10  C   UNL     1      28.234  56.892  13.127  1.00  0.00     0.111 C 
BRANCH  10  11
ATOM     11  C   UNL     1      29.409  57.685  13.646  1.00  0.00     0.163 C 
ATOM     12  O   UNL     1      29.933  58.517  12.856  1.00  0.00    -0.294 OA
BRANCH  11  13
ATOM     13  C   UNL     1      29.958  57.551  15.036  1.00  0.00    -0.002 C 
ATOM     14  C   UNL     1      31.174  56.959  15.249  1.00  0.00    -0.069 C 
ATOM     15  C   UNL     1      31.873  56.177  14.161  1.00  0.00     0.039 C 
ATOM     16  C   UNL     1      31.865  57.011  16.594  1.00  0.00     0.039 C 
BRANCH  13  17
ATOM     17  C   UNL     1      29.211  58.249  16.167  1.00  0.00     0.066 CG0
ATOM     18  G   UNL     1      28.577  57.352  17.215  1.00  0.00     0.000 G0
ENDBRANCH  13  17
ENDBRANCH  11  13
ENDBRANCH  10  11
ENDBRANCH   1  10
TORSDOF 0
ENDMDL
