MODEL 1
REMARK VINA RESULT:    -3.036      0.000      0.000
REMARK INTER + INTRA:          -4.613
REMARK INTER:                  -4.634
REMARK INTRA:                   0.021
REMARK UNBOUND:                 0.021
REMARK SMILES CC1=CCC[C@@H](C)C(=O)C[C@H](C(C)C)C(=O)C1
REMARK SMILES IDX 8 1 9 2 6 3 7 4 5 5 4 6 3 7 2 8 1 9 10 11 11 12 15 13 16 14
REMARK SMILES IDX 17 15 12 17 13 18 14 19
REMARK H PARENT
REMARK Flexibility Score: 70.00
ROOT
ATOM      1  C   UNL     1      18.001  39.072  92.337  1.00  0.00     0.136 C 
ATOM      2  O   UNL     1      17.135  39.279  91.498  1.00  0.00    -0.299 OA
ENDROOT
BRANCH   1   3
ATOM      3  C   UNL     1      17.630  39.028  93.809  1.00  0.00     0.053 C 
ATOM      4  C   UNL     1      16.140  38.703  93.991  1.00  0.00     0.016 C 
BRANCH   3   5
ATOM      5  C   UNL     1      17.994  40.369  94.495  1.00  0.00     0.015 C 
BRANCH   5   6
ATOM      6  C   UNL     1      19.494  40.464  94.832  1.00  0.00     0.028 C 
BRANCH   6   7
ATOM      7  C   UNL     1      20.048  41.822  94.483  1.00  0.00    -0.028 C 
ATOM      8  C   UNL     1      20.875  42.071  93.441  1.00  0.00    -0.070 CG0
ATOM      9  C   UNL     1      21.300  43.497  93.198  1.00  0.00     0.039 C 
ATOM     10  G   UNL     1      21.393  40.982  92.514  1.00  0.00     0.000 G0
ENDBRANCH   6   7
ENDBRANCH   5   6
ENDBRANCH   3   5
ENDBRANCH   1   3
BRANCH   1  11
ATOM     11  C   UNL     1      19.431  38.895  91.882  1.00  0.00     0.087 C 
BRANCH  11  12
ATOM     12  C   UNL     1      19.787  39.848  90.711  1.00  0.00     0.066 C 
BRANCH  12  13
ATOM     13  C   UNL     1      20.706  40.983  91.144  1.00  0.00     0.140 C 
ATOM     14  O   UNL     1      20.949  41.875  90.342  1.00  0.00    -0.299 OA
BRANCH  13  15
ATOM     15  C   UNL     1      21.408  41.001  92.481  1.00  0.00     0.106 CG0
ATOM     16  G   UNL     1      20.866  42.080  93.404  1.00  0.00     0.000 G0
ENDBRANCH  13  15
ENDBRANCH  12  13
BRANCH  12  17
ATOM     17  C   UNL     1      20.304  39.122  89.424  1.00  0.00    -0.006 C 
ATOM     18  C   UNL     1      19.375  37.960  89.030  1.00  0.00     0.008 C 
ATOM     19  C   UNL     1      21.753  38.608  89.512  1.00  0.00     0.008 C 
ENDBRANCH  12  17
ENDBRANCH  11  12
ENDBRANCH   1  11
TORSDOF 1
ENDMDL
MODEL 2
REMARK VINA RESULT:    -2.826      2.233      4.639
REMARK INTER + INTRA:          -4.292
REMARK INTER:                  -4.132
REMARK INTRA:                  -0.160
REMARK UNBOUND:                 0.021
REMARK SMILES CC1=CCC[C@@H](C)C(=O)C[C@H](C(C)C)C(=O)C1
REMARK SMILES IDX 8 1 9 2 6 3 7 4 5 5 4 6 3 7 2 8 1 9 10 11 11 12 15 13 16 14
REMARK SMILES IDX 17 15 12 17 13 18 14 19
REMARK H PARENT
REMARK Flexibility Score: 70.00
ROOT
ATOM      1  C   UNL     1      16.888  37.283  90.919  1.00  0.00     0.136 C 
ATOM      2  O   UNL     1      16.613  36.232  91.481  1.00  0.00    -0.299 OA
ENDROOT
BRANCH   1   3
ATOM      3  C   UNL     1      17.379  37.265  89.482  1.00  0.00     0.053 C 
ATOM      4  C   UNL     1      16.619  36.216  88.655  1.00  0.00     0.016 C 
BRANCH   3   5
ATOM      5  C   UNL     1      18.906  37.005  89.439  1.00  0.00     0.015 C 
BRANCH   5   6
ATOM      6  C   UNL     1      19.687  38.210  88.882  1.00  0.00     0.028 C 
BRANCH   6   7
ATOM      7  C   UNL     1      20.783  38.635  89.826  1.00  0.00    -0.028 C 
ATOM      8  C   UNL     1      20.619  39.498  90.857  1.00  0.00    -0.070 CG0
ATOM      9  C   UNL     1      21.807  39.781  91.740  1.00  0.00     0.039 C 
ATOM     10  G   UNL     1      19.299  40.191  91.157  1.00  0.00     0.000 G0
ENDBRANCH   6   7
ENDBRANCH   5   6
ENDBRANCH   3   5
ENDBRANCH   1   3
BRANCH   1  11
ATOM     11  C   UNL     1      16.760  38.578  91.688  1.00  0.00     0.087 C 
BRANCH  11  12
ATOM     12  C   UNL     1      17.845  38.705  92.789  1.00  0.00     0.066 C 
BRANCH  12  13
ATOM     13  C   UNL     1      18.800  39.863  92.533  1.00  0.00     0.140 C 
ATOM     14  O   UNL     1      19.091  40.597  93.469  1.00  0.00    -0.299 OA
BRANCH  13  15
ATOM     15  C   UNL     1      19.321  40.204  91.158  1.00  0.00     0.106 CG0
ATOM     16  G   UNL     1      20.624  39.487  90.839  1.00  0.00     0.000 G0
ENDBRANCH  13  15
ENDBRANCH  12  13
BRANCH  12  17
ATOM     17  C   UNL     1      17.282  38.710  94.250  1.00  0.00    -0.006 C 
ATOM     18  C   UNL     1      17.487  37.345  94.930  1.00  0.00     0.008 C 
ATOM     19  C   UNL     1      15.803  39.121  94.370  1.00  0.00     0.008 C 
ENDBRANCH  12  17
ENDBRANCH  11  12
ENDBRANCH   1  11
TORSDOF 1
ENDMDL
MODEL 3
REMARK VINA RESULT:    -2.618      1.990      4.992
REMARK INTER + INTRA:          -3.975
REMARK INTER:                  -3.763
REMARK INTRA:                  -0.212
REMARK UNBOUND:                 0.021
REMARK SMILES CC1=CCC[C@@H](C)C(=O)C[C@H](C(C)C)C(=O)C1
REMARK SMILES IDX 8 1 9 2 6 3 7 4 5 5 4 6 3 7 2 8 1 9 10 11 11 12 15 13 16 14
REMARK SMILES IDX 17 15 12 17 13 18 14 19
REMARK H PARENT
REMARK Flexibility Score: 70.00
ROOT
ATOM      1  C   UNL     1      20.867  42.124  93.393  1.00  0.00     0.136 C 
ATOM      2  O   UNL     1      20.014  42.790  93.964  1.00  0.00    -0.299 OA
ENDROOT
BRANCH   1   3
ATOM      3  C   UNL     1      21.716  42.757  92.305  1.00  0.00     0.053 C 
ATOM      4  C   UNL     1      22.040  44.220  92.642  1.00  0.00     0.016 C 
BRANCH   3   5
ATOM      5  C   UNL     1      21.003  42.647  90.934  1.00  0.00     0.015 C 
BRANCH   5   6
ATOM      6  C   UNL     1      21.834  41.859  89.905  1.00  0.00     0.028 C 
BRANCH   6   7
ATOM      7  C   UNL     1      21.016  40.767  89.262  1.00  0.00    -0.028 C 
ATOM      8  C   UNL     1      20.823  39.537  89.794  1.00  0.00    -0.070 CG0
ATOM      9  C   UNL     1      19.935  38.574  89.047  1.00  0.00     0.039 C 
ATOM     10  G   UNL     1      21.462  39.086  91.098  1.00  0.00     0.000 G0
ENDBRANCH   6   7
ENDBRANCH   5   6
ENDBRANCH   3   5
ENDBRANCH   1   3
BRANCH   1  11
ATOM     11  C   UNL     1      21.030  40.669  93.769  1.00  0.00     0.087 C 
BRANCH  11  12
ATOM     12  C   UNL     1      19.920  39.783  93.146  1.00  0.00     0.066 C 
BRANCH  12  13
ATOM     13  C   UNL     1      20.477  38.744  92.182  1.00  0.00     0.140 C 
ATOM     14  O   UNL     1      20.164  37.572  92.344  1.00  0.00    -0.299 OA
BRANCH  13  15
ATOM     15  C   UNL     1      21.477  39.083  91.103  1.00  0.00     0.106 CG0
ATOM     16  G   UNL     1      20.807  39.531  89.814  1.00  0.00     0.000 G0
ENDBRANCH  13  15
ENDBRANCH  12  13
BRANCH  12  17
ATOM     17  C   UNL     1      18.933  39.158  94.189  1.00  0.00    -0.006 C 
ATOM     18  C   UNL     1      17.713  40.069  94.415  1.00  0.00     0.008 C 
ATOM     19  C   UNL     1      19.567  38.810  95.548  1.00  0.00     0.008 C 
ENDBRANCH  12  17
ENDBRANCH  11  12
ENDBRANCH   1  11
TORSDOF 1
ENDMDL
MODEL 4
REMARK VINA RESULT:    -2.546      2.202      5.583
REMARK INTER + INTRA:          -3.864
REMARK INTER:                  -3.766
REMARK INTRA:                  -0.099
REMARK UNBOUND:                 0.021
REMARK SMILES CC1=CCC[C@@H](C)C(=O)C[C@H](C(C)C)C(=O)C1
REMARK SMILES IDX 8 1 9 2 6 3 7 4 5 5 4 6 3 7 2 8 1 9 10 11 11 12 15 13 16 14
REMARK SMILES IDX 17 15 12 17 13 18 14 19
REMARK H PARENT
REMARK Flexibility Score: 70.00
ROOT
ATOM      1  C   UNL     1      22.584  42.204  91.652  1.00  0.00     0.136 C 
ATOM      2  O   UNL     1      22.901  43.082  92.442  1.00  0.00    -0.299 OA
ENDROOT
BRANCH   1   3
ATOM      3  C   UNL     1      22.693  42.458  90.158  1.00  0.00     0.053 C 
ATOM      4  C   UNL     1      21.560  43.375  89.673  1.00  0.00     0.016 C 
BRANCH   3   5
ATOM      5  C   UNL     1      22.693  41.116  89.383  1.00  0.00     0.015 C 
BRANCH   5   6
ATOM      6  C   UNL     1      21.307  40.779  88.801  1.00  0.00     0.028 C 
BRANCH   6   7
ATOM      7  C   UNL     1      20.922  39.352  89.099  1.00  0.00    -0.028 C 
ATOM      8  C   UNL     1      19.971  38.982  89.988  1.00  0.00    -0.070 CG0
ATOM      9  C   UNL     1      19.669  37.512  90.133  1.00  0.00     0.039 C 
ATOM     10  G   UNL     1      19.203  39.976  90.845  1.00  0.00     0.000 G0
ENDBRANCH   6   7
ENDBRANCH   5   6
ENDBRANCH   3   5
ENDBRANCH   1   3
BRANCH   1  11
ATOM     11  C   UNL     1      22.059  40.893  92.188  1.00  0.00     0.087 C 
BRANCH  11  12
ATOM     12  C   UNL     1      20.643  41.045  92.803  1.00  0.00     0.066 C 
BRANCH  12  13
ATOM     13  C   UNL     1      19.667  39.998  92.282  1.00  0.00     0.140 C 
ATOM     14  O   UNL     1      19.327  39.094  93.033  1.00  0.00    -0.299 OA
BRANCH  13  15
ATOM     15  C   UNL     1      19.183  39.973  90.852  1.00  0.00     0.106 CG0
ATOM     16  G   UNL     1      19.962  38.989  89.995  1.00  0.00     0.000 G0
ENDBRANCH  13  15
ENDBRANCH  12  13
BRANCH  12  17
ATOM     17  C   UNL     1      20.627  41.148  94.365  1.00  0.00    -0.006 C 
ATOM     18  C   UNL     1      20.291  42.578  94.825  1.00  0.00     0.008 C 
ATOM     19  C   UNL     1      21.922  40.683  95.056  1.00  0.00     0.008 C 
ENDBRANCH  12  17
ENDBRANCH  11  12
ENDBRANCH   1  11
TORSDOF 1
ENDMDL
MODEL 5
REMARK VINA RESULT:    -2.538      1.823      3.839
REMARK INTER + INTRA:          -3.853
REMARK INTER:                  -3.568
REMARK INTRA:                  -0.285
REMARK UNBOUND:                 0.021
REMARK SMILES CC1=CCC[C@@H](C)C(=O)C[C@H](C(C)C)C(=O)C1
REMARK SMILES IDX 8 1 9 2 6 3 7 4 5 5 4 6 3 7 2 8 1 9 10 11 11 12 15 13 16 14
REMARK SMILES IDX 17 15 12 17 13 18 14 19
REMARK H PARENT
REMARK Flexibility Score: 70.00
ROOT
ATOM      1  C   UNL     1      20.489  40.626  90.331  1.00  0.00     0.136 C 
ATOM      2  O   UNL     1      20.716  39.969  89.324  1.00  0.00    -0.299 OA
ENDROOT
BRANCH   1   3
ATOM      3  C   UNL     1      21.470  41.701  90.767  1.00  0.00     0.053 C 
ATOM      4  C   UNL     1      21.696  42.726  89.645  1.00  0.00     0.016 C 
BRANCH   3   5
ATOM      5  C   UNL     1      22.808  41.059  91.211  1.00  0.00     0.015 C 
BRANCH   5   6
ATOM      6  C   UNL     1      22.831  40.740  92.717  1.00  0.00     0.028 C 
BRANCH   6   7
ATOM      7  C   UNL     1      22.159  41.827  93.517  1.00  0.00    -0.028 C 
ATOM      8  C   UNL     1      21.130  41.627  94.374  1.00  0.00    -0.070 CG0
ATOM      9  C   UNL     1      20.602  42.815  95.137  1.00  0.00     0.039 C 
ATOM     10  G   UNL     1      20.484  40.268  94.593  1.00  0.00     0.000 G0
ENDBRANCH   6   7
ENDBRANCH   5   6
ENDBRANCH   3   5
ENDBRANCH   1   3
BRANCH   1  11
ATOM     11  C   UNL     1      19.246  40.325  91.135  1.00  0.00     0.087 C 
BRANCH  11  12
ATOM     12  C   UNL     1      19.536  39.345  92.302  1.00  0.00     0.066 C 
BRANCH  12  13
ATOM     13  C   UNL     1      19.332  39.988  93.667  1.00  0.00     0.140 C 
ATOM     14  O   UNL     1      18.209  40.372  93.969  1.00  0.00    -0.299 OA
BRANCH  13  15
ATOM     15  C   UNL     1      20.471  40.265  94.619  1.00  0.00     0.106 CG0
ATOM     16  G   UNL     1      21.117  41.619  94.370  1.00  0.00     0.000 G0
ENDBRANCH  13  15
ENDBRANCH  12  13
BRANCH  12  17
ATOM     17  C   UNL     1      18.807  37.965  92.180  1.00  0.00    -0.006 C 
ATOM     18  C   UNL     1      19.777  36.798  92.439  1.00  0.00     0.008 C 
ATOM     19  C   UNL     1      18.081  37.735  90.842  1.00  0.00     0.008 C 
ENDBRANCH  12  17
ENDBRANCH  11  12
ENDBRANCH   1  11
TORSDOF 1
ENDMDL
MODEL 6
REMARK VINA RESULT:    -2.528      1.736      4.209
REMARK INTER + INTRA:          -3.837
REMARK INTER:                  -3.847
REMARK INTRA:                   0.010
REMARK UNBOUND:                 0.021
REMARK SMILES CC1=CCC[C@@H](C)C(=O)C[C@H](C(C)C)C(=O)C1
REMARK SMILES IDX 8 1 9 2 6 3 7 4 5 5 4 6 3 7 2 8 1 9 10 11 11 12 15 13 16 14
REMARK SMILES IDX 17 15 12 17 13 18 14 19
REMARK H PARENT
REMARK Flexibility Score: 70.00
ROOT
ATOM      1  C   UNL     1      19.236  40.593  94.286  1.00  0.00     0.136 C 
ATOM      2  O   UNL     1      19.793  40.154  95.283  1.00  0.00    -0.299 OA
ENDROOT
BRANCH   1   3
ATOM      3  C   UNL     1      17.977  39.922  93.768  1.00  0.00     0.053 C 
ATOM      4  C   UNL     1      17.139  39.357  94.925  1.00  0.00     0.016 C 
BRANCH   3   5
ATOM      5  C   UNL     1      18.339  38.811  92.750  1.00  0.00     0.015 C 
BRANCH   5   6
ATOM      6  C   UNL     1      18.094  39.249  91.295  1.00  0.00     0.028 C 
BRANCH   6   7
ATOM      7  C   UNL     1      19.267  38.904  90.413  1.00  0.00    -0.028 C 
ATOM      8  C   UNL     1      20.329  39.714  90.193  1.00  0.00    -0.070 CG0
ATOM      9  C   UNL     1      21.447  39.197  89.324  1.00  0.00     0.039 C 
ATOM     10  G   UNL     1      20.440  41.114  90.777  1.00  0.00     0.000 G0
ENDBRANCH   6   7
ENDBRANCH   5   6
ENDBRANCH   3   5
ENDBRANCH   1   3
BRANCH   1  11
ATOM     11  C   UNL     1      19.842  41.781  93.575  1.00  0.00     0.087 C 
BRANCH  11  12
ATOM     12  C   UNL     1      21.343  41.560  93.256  1.00  0.00     0.066 C 
BRANCH  12  13
ATOM     13  C   UNL     1      21.587  41.253  91.784  1.00  0.00     0.140 C 
ATOM     14  O   UNL     1      22.742  41.183  91.387  1.00  0.00    -0.299 OA
BRANCH  13  15
ATOM     15  C   UNL     1      20.466  41.131  90.779  1.00  0.00     0.106 CG0
ATOM     16  G   UNL     1      20.351  39.726  90.209  1.00  0.00     0.000 G0
ENDBRANCH  13  15
ENDBRANCH  12  13
BRANCH  12  17
ATOM     17  C   UNL     1      22.288  42.688  93.792  1.00  0.00    -0.006 C 
ATOM     18  C   UNL     1      22.798  42.361  95.207  1.00  0.00     0.008 C 
ATOM     19  C   UNL     1      21.675  44.100  93.785  1.00  0.00     0.008 C 
ENDBRANCH  12  17
ENDBRANCH  11  12
ENDBRANCH   1  11
TORSDOF 1
ENDMDL
MODEL 7
REMARK VINA RESULT:    -2.481      2.066      5.445
REMARK INTER + INTRA:          -3.765
REMARK INTER:                  -3.798
REMARK INTRA:                   0.033
REMARK UNBOUND:                 0.021
REMARK SMILES CC1=CCC[C@@H](C)C(=O)C[C@H](C(C)C)C(=O)C1
REMARK SMILES IDX 8 1 9 2 6 3 7 4 5 5 4 6 3 7 2 8 1 9 10 11 11 12 15 13 16 14
REMARK SMILES IDX 17 15 12 17 13 18 14 19
REMARK H PARENT
REMARK Flexibility Score: 70.00
ROOT
ATOM      1  C   UNL     1      21.775  40.944  89.984  1.00  0.00     0.136 C 
ATOM      2  O   UNL     1      21.330  42.034  89.650  1.00  0.00    -0.299 OA
ENDROOT
BRANCH   1   3
ATOM      3  C   UNL     1      22.069  39.892  88.929  1.00  0.00     0.053 C 
ATOM      4  C   UNL     1      21.622  40.369  87.538  1.00  0.00     0.016 C 
BRANCH   3   5
ATOM      5  C   UNL     1      21.389  38.551  89.301  1.00  0.00     0.015 C 
BRANCH   5   6
ATOM      6  C   UNL     1      19.857  38.612  89.151  1.00  0.00     0.028 C 
BRANCH   6   7
ATOM      7  C   UNL     1      19.180  37.587  90.024  1.00  0.00    -0.028 C 
ATOM      8  C   UNL     1      18.618  37.852  91.227  1.00  0.00    -0.070 CG0
ATOM      9  C   UNL     1      17.934  36.722  91.954  1.00  0.00     0.039 C 
ATOM     10  G   UNL     1      18.649  39.228  91.873  1.00  0.00     0.000 G0
ENDBRANCH   6   7
ENDBRANCH   5   6
ENDBRANCH   3   5
ENDBRANCH   1   3
BRANCH   1  11
ATOM     11  C   UNL     1      21.990  40.663  91.453  1.00  0.00     0.087 C 
BRANCH  11  12
ATOM     12  C   UNL     1      20.694  40.875  92.278  1.00  0.00     0.066 C 
BRANCH  12  13
ATOM     13  C   UNL     1      19.953  39.571  92.543  1.00  0.00     0.140 C 
ATOM     14  O   UNL     1      20.491  38.728  93.249  1.00  0.00    -0.299 OA
BRANCH  13  15
ATOM     15  C   UNL     1      18.633  39.234  91.891  1.00  0.00     0.106 CG0
ATOM     16  G   UNL     1      18.644  37.858  91.243  1.00  0.00     0.000 G0
ENDBRANCH  13  15
ENDBRANCH  12  13
BRANCH  12  17
ATOM     17  C   UNL     1      20.890  41.722  93.580  1.00  0.00    -0.006 C 
ATOM     18  C   UNL     1      20.402  43.168  93.381  1.00  0.00     0.008 C 
ATOM     19  C   UNL     1      22.329  41.741  94.126  1.00  0.00     0.008 C 
ENDBRANCH  12  17
ENDBRANCH  11  12
ENDBRANCH   1  11
TORSDOF 1
ENDMDL
MODEL 8
REMARK VINA RESULT:    -2.469      2.077      5.648
REMARK INTER + INTRA:          -3.748
REMARK INTER:                  -3.946
REMARK INTRA:                   0.199
REMARK UNBOUND:                 0.021
REMARK SMILES CC1=CCC[C@@H](C)C(=O)C[C@H](C(C)C)C(=O)C1
REMARK SMILES IDX 8 1 9 2 6 3 7 4 5 5 4 6 3 7 2 8 1 9 10 11 11 12 15 13 16 14
REMARK SMILES IDX 17 15 12 17 13 18 14 19
REMARK H PARENT
REMARK Flexibility Score: 70.00
ROOT
ATOM      1  C   UNL     1      22.256  43.092  91.933  1.00  0.00     0.136 C 
ATOM      2  O   UNL     1      22.253  44.311  92.032  1.00  0.00    -0.299 OA
ENDROOT
BRANCH   1   3
ATOM      3  C   UNL     1      22.197  42.446  90.560  1.00  0.00     0.053 C 
ATOM      4  C   UNL     1      22.505  43.470  89.457  1.00  0.00     0.016 C 
BRANCH   3   5
ATOM      5  C   UNL     1      20.812  41.787  90.335  1.00  0.00     0.015 C 
BRANCH   5   6
ATOM      6  C   UNL     1      20.899  40.251  90.278  1.00  0.00     0.028 C 
BRANCH   6   7
ATOM      7  C   UNL     1      19.677  39.611  90.887  1.00  0.00    -0.028 C 
ATOM      8  C   UNL     1      19.449  39.498  92.216  1.00  0.00    -0.070 CG0
ATOM      9  C   UNL     1      18.150  38.876  92.662  1.00  0.00     0.039 C 
ATOM     10  G   UNL     1      20.440  39.963  93.271  1.00  0.00     0.000 G0
ENDBRANCH   6   7
ENDBRANCH   5   6
ENDBRANCH   3   5
ENDBRANCH   1   3
BRANCH   1  11
ATOM     11  C   UNL     1      22.286  42.257  93.193  1.00  0.00     0.087 C 
BRANCH  11  12
ATOM     12  C   UNL     1      21.002  42.444  94.041  1.00  0.00     0.066 C 
BRANCH  12  13
ATOM     13  C   UNL     1      20.049  41.261  93.923  1.00  0.00     0.140 C 
ATOM     14  O   UNL     1      18.943  41.349  94.439  1.00  0.00    -0.299 OA
BRANCH  13  15
ATOM     15  C   UNL     1      20.448  39.951  93.287  1.00  0.00     0.106 CG0
ATOM     16  G   UNL     1      19.455  39.496  92.229  1.00  0.00     0.000 G0
ENDBRANCH  13  15
ENDBRANCH  12  13
BRANCH  12  17
ATOM     17  C   UNL     1      21.266  42.847  95.531  1.00  0.00    -0.006 C 
ATOM     18  C   UNL     1      22.079  44.152  95.617  1.00  0.00     0.008 C 
ATOM     19  C   UNL     1      21.953  41.763  96.380  1.00  0.00     0.008 C 
ENDBRANCH  12  17
ENDBRANCH  11  12
ENDBRANCH   1  11
TORSDOF 1
ENDMDL
MODEL 9
REMARK VINA RESULT:    -2.297      2.006      4.169
REMARK INTER + INTRA:          -3.485
REMARK INTER:                  -3.354
REMARK INTRA:                  -0.131
REMARK UNBOUND:                 0.021
REMARK SMILES CC1=CCC[C@@H](C)C(=O)C[C@H](C(C)C)C(=O)C1
REMARK SMILES IDX 8 1 9 2 6 3 7 4 5 5 4 6 3 7 2 8 1 9 10 11 11 12 15 13 16 14
REMARK SMILES IDX 17 15 12 17 13 18 14 19
REMARK H PARENT
REMARK Flexibility Score: 70.00
ROOT
ATOM      1  C   UNL     1      20.248  40.088  91.587  1.00  0.00     0.136 C 
ATOM      2  O   UNL     1      19.758  40.701  90.649  1.00  0.00    -0.299 OA
ENDROOT
BRANCH   1   3
ATOM      3  C   UNL     1      19.498  38.916  92.197  1.00  0.00     0.053 C 
ATOM      4  C   UNL     1      19.330  37.780  91.176  1.00  0.00     0.016 C 
BRANCH   3   5
ATOM      5  C   UNL     1      18.124  39.382  92.741  1.00  0.00     0.015 C 
BRANCH   5   6
ATOM      6  C   UNL     1      18.248  40.111  94.092  1.00  0.00     0.028 C 
BRANCH   6   7
ATOM      7  C   UNL     1      18.911  39.237  95.127  1.00  0.00    -0.028 C 
ATOM      8  C   UNL     1      19.966  39.612  95.888  1.00  0.00    -0.070 CG0
ATOM      9  C   UNL     1      20.481  38.636  96.915  1.00  0.00     0.039 C 
ATOM     10  G   UNL     1      20.651  40.963  95.751  1.00  0.00     0.000 G0
ENDBRANCH   6   7
ENDBRANCH   5   6
ENDBRANCH   3   5
ENDBRANCH   1   3
BRANCH   1  11
ATOM     11  C   UNL     1      21.582  40.538  92.137  1.00  0.00     0.087 C 
BRANCH  11  12
ATOM     12  C   UNL     1      21.416  41.581  93.273  1.00  0.00     0.066 C 
BRANCH  12  13
ATOM     13  C   UNL     1      21.684  40.988  94.651  1.00  0.00     0.140 C 
ATOM     14  O   UNL     1      22.756  40.431  94.847  1.00  0.00    -0.299 OA
BRANCH  13  15
ATOM     15  C   UNL     1      20.648  40.970  95.749  1.00  0.00     0.106 CG0
ATOM     16  G   UNL     1      19.974  39.614  95.885  1.00  0.00     0.000 G0
ENDBRANCH  13  15
ENDBRANCH  12  13
BRANCH  12  17
ATOM     17  C   UNL     1      22.195  42.918  93.040  1.00  0.00    -0.006 C 
ATOM     18  C   UNL     1      21.944  43.916  94.185  1.00  0.00     0.008 C 
ATOM     19  C   UNL     1      21.906  43.606  91.693  1.00  0.00     0.008 C 
ENDBRANCH  12  17
ENDBRANCH  11  12
ENDBRANCH   1  11
TORSDOF 1
ENDMDL
