MODEL 1
REMARK VINA RESULT:    -4.341      0.000      0.000
REMARK INTER + INTRA:          -4.724
REMARK INTER:                  -4.594
REMARK INTRA:                  -0.130
REMARK UNBOUND:                -0.130
REMARK SMILES C=C(C)[C@H]1CC=C(C)CC1
REMARK SMILES IDX 8 1 7 2 6 3 5 4 4 5 10 6 9 7 2 8 1 9 3 10
REMARK H PARENT
REMARK Flexibility Score: inf
ROOT
ATOM      1  C   UNL     1      39.173  20.631   0.265  1.00  0.00     0.039 C 
ATOM      2  C   UNL     1      40.223  20.374  -0.780  1.00  0.00    -0.077 C 
ATOM      3  C   UNL     1      41.480  20.825  -0.572  1.00  0.00    -0.027 C 
ATOM      4  C   UNL     1      42.589  20.665  -1.581  1.00  0.00     0.035 C 
ATOM      5  C   UNL     1      42.320  19.511  -2.563  1.00  0.00     0.018 C 
ATOM      6  C   UNL     1      40.891  19.618  -3.115  1.00  0.00     0.013 C 
ATOM      7  C   UNL     1      39.874  19.505  -1.973  1.00  0.00     0.031 C 
ENDROOT
BRANCH   5   8
ATOM      8  C   UNL     1      43.352  19.484  -3.683  1.00  0.00    -0.077 C 
ATOM      9  C   UNL     1      43.692  20.621  -4.311  1.00  0.00     0.008 C 
ATOM     10  C   UNL     1      44.003  18.195  -4.122  1.00  0.00     0.039 C 
ENDBRANCH   5   8
TORSDOF 1
ENDMDL
MODEL 2
REMARK VINA RESULT:    -4.340      0.398      1.636
REMARK INTER + INTRA:          -4.724
REMARK INTER:                  -4.602
REMARK INTRA:                  -0.122
REMARK UNBOUND:                -0.130
REMARK SMILES C=C(C)[C@H]1CC=C(C)CC1
REMARK SMILES IDX 8 1 7 2 6 3 5 4 4 5 10 6 9 7 2 8 1 9 3 10
REMARK H PARENT
REMARK Flexibility Score: inf
ROOT
ATOM      1  C   UNL     1      38.973  20.484   0.268  1.00  0.00     0.039 C 
ATOM      2  C   UNL     1      40.083  20.273  -0.724  1.00  0.00    -0.077 C 
ATOM      3  C   UNL     1      39.838  19.547  -1.837  1.00  0.00    -0.027 C 
ATOM      4  C   UNL     1      40.897  19.234  -2.865  1.00  0.00     0.035 C 
ATOM      5  C   UNL     1      42.064  20.236  -2.820  1.00  0.00     0.018 C 
ATOM      6  C   UNL     1      42.538  20.420  -1.371  1.00  0.00     0.013 C 
ATOM      7  C   UNL     1      41.402  20.989  -0.512  1.00  0.00     0.031 C 
ENDROOT
BRANCH   5   8
ATOM      8  C   UNL     1      43.205  19.799  -3.730  1.00  0.00    -0.077 C 
ATOM      9  C   UNL     1      43.786  20.687  -4.553  1.00  0.00     0.008 C 
ATOM     10  C   UNL     1      43.700  18.374  -3.742  1.00  0.00     0.039 C 
ENDBRANCH   5   8
TORSDOF 1
ENDMDL
MODEL 3
REMARK VINA RESULT:    -4.322      0.075      1.096
REMARK INTER + INTRA:          -4.705
REMARK INTER:                  -4.583
REMARK INTRA:                  -0.121
REMARK UNBOUND:                -0.130
REMARK SMILES C=C(C)[C@H]1CC=C(C)CC1
REMARK SMILES IDX 8 1 7 2 6 3 5 4 4 5 10 6 9 7 2 8 1 9 3 10
REMARK H PARENT
REMARK Flexibility Score: inf
ROOT
ATOM      1  C   UNL     1      39.192  20.635   0.255  1.00  0.00     0.039 C 
ATOM      2  C   UNL     1      40.237  20.360  -0.791  1.00  0.00    -0.077 C 
ATOM      3  C   UNL     1      41.501  20.789  -0.582  1.00  0.00    -0.027 C 
ATOM      4  C   UNL     1      42.608  20.608  -1.591  1.00  0.00     0.035 C 
ATOM      5  C   UNL     1      42.318  19.458  -2.572  1.00  0.00     0.018 C 
ATOM      6  C   UNL     1      40.892  19.589  -3.124  1.00  0.00     0.013 C 
ATOM      7  C   UNL     1      39.872  19.496  -1.982  1.00  0.00     0.031 C 
ENDROOT
BRANCH   5   8
ATOM      8  C   UNL     1      43.350  19.412  -3.692  1.00  0.00    -0.077 C 
ATOM      9  C   UNL     1      43.935  18.248  -4.020  1.00  0.00     0.008 C 
ATOM     10  C   UNL     1      43.748  20.656  -4.448  1.00  0.00     0.039 C 
ENDBRANCH   5   8
TORSDOF 1
ENDMDL
MODEL 4
REMARK VINA RESULT:    -3.793      1.100      4.533
REMARK INTER + INTRA:          -4.145
REMARK INTER:                  -4.014
REMARK INTRA:                  -0.131
REMARK UNBOUND:                -0.130
REMARK SMILES C=C(C)[C@H]1CC=C(C)CC1
REMARK SMILES IDX 8 1 7 2 6 3 5 4 4 5 10 6 9 7 2 8 1 9 3 10
REMARK H PARENT
REMARK Flexibility Score: inf
ROOT
ATOM      1  C   UNL     1      44.879  19.038  -5.891  1.00  0.00     0.039 C 
ATOM      2  C   UNL     1      43.979  19.336  -4.724  1.00  0.00    -0.077 C 
ATOM      3  C   UNL     1      43.746  20.625  -4.389  1.00  0.00    -0.027 C 
ATOM      4  C   UNL     1      42.902  21.027  -3.206  1.00  0.00     0.035 C 
ATOM      5  C   UNL     1      41.926  19.915  -2.783  1.00  0.00     0.018 C 
ATOM      6  C   UNL     1      42.672  18.576  -2.679  1.00  0.00     0.013 C 
ATOM      7  C   UNL     1      43.257  18.190  -4.043  1.00  0.00     0.031 C 
ENDROOT
BRANCH   5   8
ATOM      8  C   UNL     1      41.219  20.263  -1.480  1.00  0.00    -0.077 C 
ATOM      9  C   UNL     1      41.882  20.908  -0.506  1.00  0.00     0.008 C 
ATOM     10  C   UNL     1      39.776  19.888  -1.242  1.00  0.00     0.039 C 
ENDBRANCH   5   8
TORSDOF 1
ENDMDL
MODEL 5
REMARK VINA RESULT:    -3.774      1.197      4.694
REMARK INTER + INTRA:          -4.124
REMARK INTER:                  -4.002
REMARK INTRA:                  -0.122
REMARK UNBOUND:                -0.130
REMARK SMILES C=C(C)[C@H]1CC=C(C)CC1
REMARK SMILES IDX 8 1 7 2 6 3 5 4 4 5 10 6 9 7 2 8 1 9 3 10
REMARK H PARENT
REMARK Flexibility Score: inf
ROOT
ATOM      1  C   UNL     1      45.098  19.075  -6.093  1.00  0.00     0.039 C 
ATOM      2  C   UNL     1      44.136  19.366  -4.975  1.00  0.00    -0.077 C 
ATOM      3  C   UNL     1      43.780  18.366  -4.139  1.00  0.00    -0.027 C 
ATOM      4  C   UNL     1      42.783  18.544  -3.021  1.00  0.00     0.035 C 
ATOM      5  C   UNL     1      42.649  20.015  -2.590  1.00  0.00     0.018 C 
ATOM      6  C   UNL     1      42.470  20.907  -3.827  1.00  0.00     0.013 C 
ATOM      7  C   UNL     1      43.698  20.799  -4.739  1.00  0.00     0.031 C 
ENDROOT
BRANCH   5   8
ATOM      8  C   UNL     1      41.509  20.200  -1.597  1.00  0.00    -0.077 C 
ATOM      9  C   UNL     1      41.688  20.954  -0.500  1.00  0.00     0.008 C 
ATOM     10  C   UNL     1      40.168  19.540  -1.806  1.00  0.00     0.039 C 
ENDBRANCH   5   8
TORSDOF 1
ENDMDL
MODEL 6
REMARK VINA RESULT:    -3.600      2.681      4.767
REMARK INTER + INTRA:          -3.940
REMARK INTER:                  -3.812
REMARK INTRA:                  -0.128
REMARK UNBOUND:                -0.130
REMARK SMILES C=C(C)[C@H]1CC=C(C)CC1
REMARK SMILES IDX 8 1 7 2 6 3 5 4 4 5 10 6 9 7 2 8 1 9 3 10
REMARK H PARENT
REMARK Flexibility Score: inf
ROOT
ATOM      1  C   UNL     1      44.428  21.495  -5.878  1.00  0.00     0.039 C 
ATOM      2  C   UNL     1      44.091  20.293  -5.039  1.00  0.00    -0.077 C 
ATOM      3  C   UNL     1      44.571  19.084  -5.402  1.00  0.00    -0.027 C 
ATOM      4  C   UNL     1      44.247  17.813  -4.658  1.00  0.00     0.035 C 
ATOM      5  C   UNL     1      43.813  18.083  -3.207  1.00  0.00     0.018 C 
ATOM      6  C   UNL     1      42.752  19.193  -3.177  1.00  0.00     0.013 C 
ATOM      7  C   UNL     1      43.334  20.496  -3.740  1.00  0.00     0.031 C 
ENDROOT
BRANCH   5   8
ATOM      8  C   UNL     1      43.312  16.813  -2.532  1.00  0.00    -0.077 C 
ATOM      9  C   UNL     1      44.017  15.674  -2.636  1.00  0.00     0.008 C 
ATOM     10  C   UNL     1      42.023  16.794  -1.748  1.00  0.00     0.039 C 
ENDBRANCH   5   8
TORSDOF 1
ENDMDL
MODEL 7
REMARK VINA RESULT:    -3.476      6.201      9.056
REMARK INTER + INTRA:          -3.809
REMARK INTER:                  -3.680
REMARK INTRA:                  -0.130
REMARK UNBOUND:                -0.130
REMARK SMILES C=C(C)[C@H]1CC=C(C)CC1
REMARK SMILES IDX 8 1 7 2 6 3 5 4 4 5 10 6 9 7 2 8 1 9 3 10
REMARK H PARENT
REMARK Flexibility Score: inf
ROOT
ATOM      1  C   UNL     1      45.643  16.546  -3.833  1.00  0.00     0.039 C 
ATOM      2  C   UNL     1      47.042  16.116  -4.178  1.00  0.00    -0.077 C 
ATOM      3  C   UNL     1      47.782  16.892  -5.001  1.00  0.00    -0.027 C 
ATOM      4  C   UNL     1      49.174  16.523  -5.448  1.00  0.00     0.035 C 
ATOM      5  C   UNL     1      49.849  15.529  -4.487  1.00  0.00     0.018 C 
ATOM      6  C   UNL     1      48.891  14.370  -4.176  1.00  0.00     0.013 C 
ATOM      7  C   UNL     1      47.626  14.899  -3.488  1.00  0.00     0.031 C 
ENDROOT
BRANCH   5   8
ATOM      8  C   UNL     1      51.172  15.025  -5.048  1.00  0.00    -0.077 C 
ATOM      9  C   UNL     1      51.401  13.705  -5.149  1.00  0.00     0.008 C 
ATOM     10  C   UNL     1      52.254  15.980  -5.491  1.00  0.00     0.039 C 
ENDBRANCH   5   8
TORSDOF 1
ENDMDL
MODEL 8
REMARK VINA RESULT:    -3.414      7.276      9.949
REMARK INTER + INTRA:          -3.744
REMARK INTER:                  -3.614
REMARK INTRA:                  -0.129
REMARK UNBOUND:                -0.130
REMARK SMILES C=C(C)[C@H]1CC=C(C)CC1
REMARK SMILES IDX 8 1 7 2 6 3 5 4 4 5 10 6 9 7 2 8 1 9 3 10
REMARK H PARENT
REMARK Flexibility Score: inf
ROOT
ATOM      1  C   UNL     1      51.755  15.656  -5.457  1.00  0.00     0.039 C 
ATOM      2  C   UNL     1      50.509  15.163  -4.774  1.00  0.00    -0.077 C 
ATOM      3  C   UNL     1      50.510  13.932  -4.218  1.00  0.00    -0.027 C 
ATOM      4  C   UNL     1      49.296  13.327  -3.558  1.00  0.00     0.035 C 
ATOM      5  C   UNL     1      48.290  14.397  -3.100  1.00  0.00     0.018 C 
ATOM      6  C   UNL     1      48.034  15.395  -4.238  1.00  0.00     0.013 C 
ATOM      7  C   UNL     1      49.336  16.111  -4.615  1.00  0.00     0.031 C 
ENDROOT
BRANCH   5   8
ATOM      8  C   UNL     1      46.994  13.765  -2.608  1.00  0.00    -0.077 C 
ATOM      9  C   UNL     1      45.825  14.404  -2.783  1.00  0.00     0.008 C 
ATOM     10  C   UNL     1      46.985  12.427  -1.910  1.00  0.00     0.039 C 
ENDBRANCH   5   8
TORSDOF 1
ENDMDL
MODEL 9
REMARK VINA RESULT:    -3.406      7.942      9.993
REMARK INTER + INTRA:          -3.735
REMARK INTER:                  -3.605
REMARK INTRA:                  -0.130
REMARK UNBOUND:                -0.130
REMARK SMILES C=C(C)[C@H]1CC=C(C)CC1
REMARK SMILES IDX 8 1 7 2 6 3 5 4 4 5 10 6 9 7 2 8 1 9 3 10
REMARK H PARENT
REMARK Flexibility Score: inf
ROOT
ATOM      1  C   UNL     1      46.577  13.918  -2.390  1.00  0.00     0.039 C 
ATOM      2  C   UNL     1      47.865  14.136  -3.134  1.00  0.00    -0.077 C 
ATOM      3  C   UNL     1      48.750  13.119  -3.226  1.00  0.00    -0.027 C 
ATOM      4  C   UNL     1      50.090  13.253  -3.905  1.00  0.00     0.035 C 
ATOM      5  C   UNL     1      50.116  14.413  -4.916  1.00  0.00     0.018 C 
ATOM      6  C   UNL     1      49.535  15.680  -4.273  1.00  0.00     0.013 C 
ATOM      7  C   UNL     1      48.074  15.446  -3.869  1.00  0.00     0.031 C 
ENDROOT
BRANCH   5   8
ATOM      8  C   UNL     1      51.522  14.651  -5.451  1.00  0.00    -0.077 C 
ATOM      9  C   UNL     1      52.032  15.893  -5.471  1.00  0.00     0.008 C 
ATOM     10  C   UNL     1      52.367  13.517  -5.977  1.00  0.00     0.039 C 
ENDBRANCH   5   8
TORSDOF 1
ENDMDL
