MODEL 1
REMARK VINA RESULT:    -5.215      0.000      0.000
REMARK INTER + INTRA:         -16.636
REMARK INTER:                 -13.600
REMARK INTRA:                  -3.036
REMARK UNBOUND:                -3.036
REMARK SMILES CCCCCCCCCCCCCCCCCCCCCCCCCCCCCO
REMARK SMILES IDX 16 1 15 2 14 3 13 4 12 5 11 6 10 7 9 8 8 9 7 10 6 11 5 12
REMARK SMILES IDX 4 13 3 14 2 15 1 16 17 17 18 18 19 19 20 20 21 21 22 22
REMARK SMILES IDX 23 23 24 24 25 25 26 26 27 27 28 28 29 29 30 30
REMARK H PARENT 30 31
REMARK Flexibility Score: inf
ROOT
ATOM      1  C   UNL     1       2.297   8.276  10.071  1.00  0.00     0.000 C 
ENDROOT
BRANCH   1   2
ATOM      2  C   UNL     1       1.279   9.315   9.558  1.00  0.00     0.000 C 
BRANCH   2   3
ATOM      3  C   UNL     1       1.886  10.598   8.961  1.00  0.00     0.000 C 
BRANCH   3   4
ATOM      4  C   UNL     1       0.839  11.682   8.663  1.00  0.00     0.000 C 
BRANCH   4   5
ATOM      5  C   UNL     1      -0.411  11.129   7.958  1.00  0.00     0.000 C 
BRANCH   5   6
ATOM      6  C   UNL     1      -0.231  10.902   6.443  1.00  0.00     0.000 C 
BRANCH   6   7
ATOM      7  C   UNL     1      -1.249  11.700   5.609  1.00  0.00     0.000 C 
BRANCH   7   8
ATOM      8  C   UNL     1      -2.284  10.797   4.918  1.00  0.00    -0.000 C 
BRANCH   8   9
ATOM      9  C   UNL     1      -2.562   9.513   5.714  1.00  0.00    -0.000 C 
BRANCH   9  10
ATOM     10  C   UNL     1      -3.044   8.384   4.791  1.00  0.00    -0.000 C 
BRANCH  10  11
ATOM     11  C   UNL     1      -3.762   7.263   5.560  1.00  0.00    -0.000 C 
BRANCH  11  12
ATOM     12  C   UNL     1      -3.047   5.909   5.424  1.00  0.00    -0.000 C 
BRANCH  12  13
ATOM     13  C   UNL     1      -4.022   4.744   5.638  1.00  0.00    -0.000 C 
BRANCH  13  14
ATOM     14  C   UNL     1      -3.428   3.707   6.605  1.00  0.00    -0.000 C 
BRANCH  14  15
ATOM     15  C   UNL     1      -2.179   3.016   6.037  1.00  0.00    -0.003 C 
ATOM     16  C   UNL     1      -1.416   2.214   7.092  1.00  0.00     0.004 C 
ENDBRANCH  14  15
ENDBRANCH  13  14
ENDBRANCH  12  13
ENDBRANCH  11  12
ENDBRANCH  10  11
ENDBRANCH   9  10
ENDBRANCH   8   9
ENDBRANCH   7   8
ENDBRANCH   6   7
ENDBRANCH   5   6
ENDBRANCH   4   5
ENDBRANCH   3   4
ENDBRANCH   2   3
ENDBRANCH   1   2
BRANCH   1  17
ATOM     17  C   UNL     1       1.987   7.780  11.496  1.00  0.00     0.000 C 
BRANCH  17  18
ATOM     18  C   UNL     1       2.623   6.414  11.798  1.00  0.00     0.000 C 
BRANCH  18  19
ATOM     19  C   UNL     1       3.508   5.906  10.647  1.00  0.00     0.000 C 
BRANCH  19  20
ATOM     20  C   UNL     1       2.879   4.728   9.880  1.00  0.00     0.000 C 
BRANCH  20  21
ATOM     21  C   UNL     1       2.358   5.067   8.471  1.00  0.00     0.000 C 
BRANCH  21  22
ATOM     22  C   UNL     1       0.882   4.685   8.272  1.00  0.00     0.000 C 
BRANCH  22  23
ATOM     23  C   UNL     1      -0.077   5.553   9.106  1.00  0.00     0.000 C 
BRANCH  23  24
ATOM     24  C   UNL     1      -1.015   4.776  10.053  1.00  0.00     0.000 C 
BRANCH  24  25
ATOM     25  C   UNL     1      -0.396   4.363  11.402  1.00  0.00     0.000 C 
BRANCH  25  26
ATOM     26  C   UNL     1       0.060   2.894  11.426  1.00  0.00     0.000 C 
BRANCH  26  27
ATOM     27  C   UNL     1      -0.248   2.194  12.762  1.00  0.00     0.002 C 
BRANCH  27  28
ATOM     28  C   UNL     1      -0.951   0.829  12.640  1.00  0.00     0.028 C 
BRANCH  28  29
ATOM     29  C   UNL     1      -0.494  -0.179  13.701  1.00  0.00     0.156 C 
BRANCH  29  30
ATOM     30  O   UNL     1      -1.581  -0.963  14.118  1.00  0.00    -0.396 OA
ATOM     31  H   UNL     1      -1.206  -1.694  14.677  1.00  0.00     0.210 HD
ENDBRANCH  29  30
ENDBRANCH  28  29
ENDBRANCH  27  28
ENDBRANCH  26  27
ENDBRANCH  25  26
ENDBRANCH  24  25
ENDBRANCH  23  24
ENDBRANCH  22  23
ENDBRANCH  21  22
ENDBRANCH  20  21
ENDBRANCH  19  20
ENDBRANCH  18  19
ENDBRANCH  17  18
ENDBRANCH   1  17
TORSDOF 28
ENDMDL
MODEL 2
REMARK VINA RESULT:    -5.154      5.032     11.445
REMARK INTER + INTRA:         -16.476
REMARK INTER:                 -12.986
REMARK INTRA:                  -3.490
REMARK UNBOUND:                -3.036
REMARK SMILES CCCCCCCCCCCCCCCCCCCCCCCCCCCCCO
REMARK SMILES IDX 16 1 15 2 14 3 13 4 12 5 11 6 10 7 9 8 8 9 7 10 6 11 5 12
REMARK SMILES IDX 4 13 3 14 2 15 1 16 17 17 18 18 19 19 20 20 21 21 22 22
REMARK SMILES IDX 23 23 24 24 25 25 26 26 27 27 28 28 29 29 30 30
REMARK H PARENT 30 31
REMARK Flexibility Score: inf
ROOT
ATOM      1  C   UNL     1      -0.211   2.029  12.603  1.00  0.00     0.000 C 
ENDROOT
BRANCH   1   2
ATOM      2  C   UNL     1       0.089   0.817  13.507  1.00  0.00     0.000 C 
BRANCH   2   3
ATOM      3  C   UNL     1      -1.032  -0.235  13.597  1.00  0.00     0.000 C 
BRANCH   3   4
ATOM      4  C   UNL     1      -1.415  -0.590  15.043  1.00  0.00     0.000 C 
BRANCH   4   5
ATOM      5  C   UNL     1      -2.329   0.461  15.695  1.00  0.00     0.000 C 
BRANCH   5   6
ATOM      6  C   UNL     1      -1.652   1.274  16.819  1.00  0.00     0.000 C 
BRANCH   6   7
ATOM      7  C   UNL     1      -2.467   1.252  18.124  1.00  0.00     0.000 C 
BRANCH   7   8
ATOM      8  C   UNL     1      -2.049   0.108  19.063  1.00  0.00    -0.000 C 
BRANCH   8   9
ATOM      9  C   UNL     1      -3.190  -0.888  19.315  1.00  0.00    -0.000 C 
BRANCH   9  10
ATOM     10  C   UNL     1      -3.516  -0.988  20.812  1.00  0.00    -0.000 C 
BRANCH  10  11
ATOM     11  C   UNL     1      -3.597   0.389  21.490  1.00  0.00    -0.000 C 
BRANCH  11  12
ATOM     12  C   UNL     1      -5.021   0.968  21.474  1.00  0.00    -0.000 C 
BRANCH  12  13
ATOM     13  C   UNL     1      -5.088   2.247  20.631  1.00  0.00    -0.000 C 
BRANCH  13  14
ATOM     14  C   UNL     1      -6.105   2.096  19.488  1.00  0.00    -0.000 C 
BRANCH  14  15
ATOM     15  C   UNL     1      -6.518   0.634  19.253  1.00  0.00    -0.003 C 
ATOM     16  C   UNL     1      -7.354   0.453  17.987  1.00  0.00     0.004 C 
ENDBRANCH  14  15
ENDBRANCH  13  14
ENDBRANCH  12  13
ENDBRANCH  11  12
ENDBRANCH  10  11
ENDBRANCH   9  10
ENDBRANCH   8   9
ENDBRANCH   7   8
ENDBRANCH   6   7
ENDBRANCH   5   6
ENDBRANCH   4   5
ENDBRANCH   3   4
ENDBRANCH   2   3
ENDBRANCH   1   2
BRANCH   1  17
ATOM     17  C   UNL     1      -1.249   2.992  13.209  1.00  0.00     0.000 C 
BRANCH  17  18
ATOM     18  C   UNL     1      -2.126   3.665  12.141  1.00  0.00     0.000 C 
BRANCH  18  19
ATOM     19  C   UNL     1      -3.108   2.684  11.478  1.00  0.00     0.000 C 
BRANCH  19  20
ATOM     20  C   UNL     1      -3.632   3.186  10.120  1.00  0.00     0.000 C 
BRANCH  20  21
ATOM     21  C   UNL     1      -2.555   3.733   9.164  1.00  0.00     0.000 C 
BRANCH  21  22
ATOM     22  C   UNL     1      -1.659   2.627   8.580  1.00  0.00     0.000 C 
BRANCH  22  23
ATOM     23  C   UNL     1      -0.197   2.733   9.049  1.00  0.00     0.000 C 
BRANCH  23  24
ATOM     24  C   UNL     1       0.332   4.169   9.240  1.00  0.00     0.000 C 
BRANCH  24  25
ATOM     25  C   UNL     1       1.790   4.276   9.725  1.00  0.00     0.000 C 
BRANCH  25  26
ATOM     26  C   UNL     1       1.901   4.728  11.191  1.00  0.00     0.000 C 
BRANCH  26  27
ATOM     27  C   UNL     1       3.124   5.628  11.449  1.00  0.00     0.002 C 
BRANCH  27  28
ATOM     28  C   UNL     1       3.297   6.796  10.460  1.00  0.00     0.028 C 
BRANCH  28  29
ATOM     29  C   UNL     1       2.132   7.792  10.496  1.00  0.00     0.156 C 
BRANCH  29  30
ATOM     30  O   UNL     1       1.889   8.200  11.816  1.00  0.00    -0.396 OA
ATOM     31  H   UNL     1       2.389   9.048  11.948  1.00  0.00     0.210 HD
ENDBRANCH  29  30
ENDBRANCH  28  29
ENDBRANCH  27  28
ENDBRANCH  26  27
ENDBRANCH  25  26
ENDBRANCH  24  25
ENDBRANCH  23  24
ENDBRANCH  22  23
ENDBRANCH  21  22
ENDBRANCH  20  21
ENDBRANCH  19  20
ENDBRANCH  18  19
ENDBRANCH  17  18
ENDBRANCH   1  17
TORSDOF 28
ENDMDL
MODEL 3
REMARK VINA RESULT:    -5.145      3.546      8.493
REMARK INTER + INTRA:         -16.452
REMARK INTER:                 -12.767
REMARK INTRA:                  -3.685
REMARK UNBOUND:                -3.036
REMARK SMILES CCCCCCCCCCCCCCCCCCCCCCCCCCCCCO
REMARK SMILES IDX 16 1 15 2 14 3 13 4 12 5 11 6 10 7 9 8 8 9 7 10 6 11 5 12
REMARK SMILES IDX 4 13 3 14 2 15 1 16 17 17 18 18 19 19 20 20 21 21 22 22
REMARK SMILES IDX 23 23 24 24 25 25 26 26 27 27 28 28 29 29 30 30
REMARK H PARENT 30 31
REMARK Flexibility Score: inf
ROOT
ATOM      1  C   UNL     1      -2.597   3.758   7.537  1.00  0.00     0.000 C 
ENDROOT
BRANCH   1   2
ATOM      2  C   UNL     1      -1.769   2.481   7.786  1.00  0.00     0.000 C 
BRANCH   2   3
ATOM      3  C   UNL     1      -0.279   2.574   7.406  1.00  0.00     0.000 C 
BRANCH   3   4
ATOM      4  C   UNL     1       0.178   4.008   7.094  1.00  0.00     0.000 C 
BRANCH   4   5
ATOM      5  C   UNL     1       0.949   4.656   8.256  1.00  0.00     0.000 C 
BRANCH   5   6
ATOM      6  C   UNL     1       0.056   5.422   9.254  1.00  0.00     0.000 C 
BRANCH   6   7
ATOM      7  C   UNL     1       0.486   5.193  10.715  1.00  0.00     0.000 C 
BRANCH   7   8
ATOM      8  C   UNL     1       1.049   3.782  10.949  1.00  0.00    -0.000 C 
BRANCH   8   9
ATOM      9  C   UNL     1      -0.057   2.740  11.173  1.00  0.00    -0.000 C 
BRANCH   9  10
ATOM     10  C   UNL     1       0.064   2.093  12.561  1.00  0.00    -0.000 C 
BRANCH  10  11
ATOM     11  C   UNL     1      -1.197   1.306  12.954  1.00  0.00    -0.000 C 
BRANCH  11  12
ATOM     12  C   UNL     1      -0.875   0.089  13.836  1.00  0.00    -0.000 C 
BRANCH  12  13
ATOM     13  C   UNL     1       0.632  -0.027  14.091  1.00  0.00    -0.000 C 
BRANCH  13  14
ATOM     14  C   UNL     1       1.017  -1.473  14.441  1.00  0.00    -0.000 C 
BRANCH  14  15
ATOM     15  C   UNL     1       2.480  -1.796  14.100  1.00  0.00    -0.003 C 
ATOM     16  C   UNL     1       3.292  -2.221  15.323  1.00  0.00     0.004 C 
ENDBRANCH  14  15
ENDBRANCH  13  14
ENDBRANCH  12  13
ENDBRANCH  11  12
ENDBRANCH  10  11
ENDBRANCH   9  10
ENDBRANCH   8   9
ENDBRANCH   7   8
ENDBRANCH   6   7
ENDBRANCH   5   6
ENDBRANCH   4   5
ENDBRANCH   3   4
ENDBRANCH   2   3
ENDBRANCH   1   2
BRANCH   1  17
ATOM     17  C   UNL     1      -3.318   3.754   6.176  1.00  0.00     0.000 C 
BRANCH  17  18
ATOM     18  C   UNL     1      -2.858   4.899   5.260  1.00  0.00     0.000 C 
BRANCH  18  19
ATOM     19  C   UNL     1      -2.074   4.399   4.035  1.00  0.00     0.000 C 
BRANCH  19  20
ATOM     20  C   UNL     1      -1.867   2.873   4.038  1.00  0.00     0.000 C 
BRANCH  20  21
ATOM     21  C   UNL     1      -2.642   2.105   2.951  1.00  0.00     0.000 C 
BRANCH  21  22
ATOM     22  C   UNL     1      -3.858   1.346   3.509  1.00  0.00     0.000 C 
BRANCH  22  23
ATOM     23  C   UNL     1      -3.521   0.516   4.760  1.00  0.00     0.000 C 
BRANCH  23  24
ATOM     24  C   UNL     1      -4.734  -0.074   5.508  1.00  0.00     0.000 C 
BRANCH  24  25
ATOM     25  C   UNL     1      -5.130   0.658   6.804  1.00  0.00     0.000 C 
BRANCH  25  26
ATOM     26  C   UNL     1      -6.177   1.761   6.573  1.00  0.00     0.000 C 
BRANCH  26  27
ATOM     27  C   UNL     1      -6.655   2.416   7.882  1.00  0.00     0.002 C 
BRANCH  27  28
ATOM     28  C   UNL     1      -5.600   2.489   9.001  1.00  0.00     0.028 C 
BRANCH  28  29
ATOM     29  C   UNL     1      -6.214   2.552  10.405  1.00  0.00     0.156 C 
BRANCH  29  30
ATOM     30  O   UNL     1      -6.127   1.296  11.025  1.00  0.00    -0.396 OA
ATOM     31  H   UNL     1      -5.201   1.216  11.374  1.00  0.00     0.210 HD
ENDBRANCH  29  30
ENDBRANCH  28  29
ENDBRANCH  27  28
ENDBRANCH  26  27
ENDBRANCH  25  26
ENDBRANCH  24  25
ENDBRANCH  23  24
ENDBRANCH  22  23
ENDBRANCH  21  22
ENDBRANCH  20  21
ENDBRANCH  19  20
ENDBRANCH  18  19
ENDBRANCH  17  18
ENDBRANCH   1  17
TORSDOF 28
ENDMDL
MODEL 4
REMARK VINA RESULT:    -5.134      4.432      9.418
REMARK INTER + INTRA:         -16.425
REMARK INTER:                 -13.385
REMARK INTRA:                  -3.040
REMARK UNBOUND:                -3.036
REMARK SMILES CCCCCCCCCCCCCCCCCCCCCCCCCCCCCO
REMARK SMILES IDX 16 1 15 2 14 3 13 4 12 5 11 6 10 7 9 8 8 9 7 10 6 11 5 12
REMARK SMILES IDX 4 13 3 14 2 15 1 16 17 17 18 18 19 19 20 20 21 21 22 22
REMARK SMILES IDX 23 23 24 24 25 25 26 26 27 27 28 28 29 29 30 30
REMARK H PARENT 30 31
REMARK Flexibility Score: inf
ROOT
ATOM      1  C   UNL     1      -1.373   2.335   7.840  1.00  0.00     0.000 C 
ENDROOT
BRANCH   1   2
ATOM      2  C   UNL     1      -0.344   2.191   8.980  1.00  0.00     0.000 C 
BRANCH   2   3
ATOM      3  C   UNL     1       0.441   3.469   9.329  1.00  0.00     0.000 C 
BRANCH   3   4
ATOM      4  C   UNL     1       0.893   3.521  10.797  1.00  0.00     0.000 C 
BRANCH   4   5
ATOM      5  C   UNL     1       0.010   4.437  11.662  1.00  0.00     0.000 C 
BRANCH   5   6
ATOM      6  C   UNL     1      -0.846   3.686  12.703  1.00  0.00     0.000 C 
BRANCH   6   7
ATOM      7  C   UNL     1      -2.087   3.029  12.072  1.00  0.00     0.000 C 
BRANCH   7   8
ATOM      8  C   UNL     1      -2.282   1.574  12.529  1.00  0.00    -0.000 C 
BRANCH   8   9
ATOM      9  C   UNL     1      -1.079   0.686  12.178  1.00  0.00    -0.000 C 
BRANCH   9  10
ATOM     10  C   UNL     1      -0.636  -0.150  13.388  1.00  0.00    -0.000 C 
BRANCH  10  11
ATOM     11  C   UNL     1       0.544   0.485  14.142  1.00  0.00    -0.000 C 
BRANCH  11  12
ATOM     12  C   UNL     1       0.586   0.069  15.621  1.00  0.00    -0.000 C 
BRANCH  12  13
ATOM     13  C   UNL     1       1.670  -0.987  15.868  1.00  0.00    -0.000 C 
BRANCH  13  14
ATOM     14  C   UNL     1       2.763  -0.911  14.789  1.00  0.00    -0.000 C 
BRANCH  14  15
ATOM     15  C   UNL     1       3.176  -2.296  14.267  1.00  0.00    -0.003 C 
ATOM     16  C   UNL     1       2.460  -3.437  14.988  1.00  0.00     0.004 C 
ENDBRANCH  14  15
ENDBRANCH  13  14
ENDBRANCH  12  13
ENDBRANCH  11  12
ENDBRANCH  10  11
ENDBRANCH   9  10
ENDBRANCH   8   9
ENDBRANCH   7   8
ENDBRANCH   6   7
ENDBRANCH   5   6
ENDBRANCH   4   5
ENDBRANCH   3   4
ENDBRANCH   2   3
ENDBRANCH   1   2
BRANCH   1  17
ATOM     17  C   UNL     1      -1.031   3.473   6.860  1.00  0.00     0.000 C 
BRANCH  17  18
ATOM     18  C   UNL     1      -2.264   4.300   6.462  1.00  0.00     0.000 C 
BRANCH  18  19
ATOM     19  C   UNL     1      -2.386   4.484   4.939  1.00  0.00     0.000 C 
BRANCH  19  20
ATOM     20  C   UNL     1      -1.608   3.421   4.143  1.00  0.00     0.000 C 
BRANCH  20  21
ATOM     21  C   UNL     1      -2.479   2.430   3.348  1.00  0.00     0.000 C 
BRANCH  21  22
ATOM     22  C   UNL     1      -2.931   1.225   4.190  1.00  0.00     0.000 C 
BRANCH  22  23
ATOM     23  C   UNL     1      -4.457   1.175   4.388  1.00  0.00     0.000 C 
BRANCH  23  24
ATOM     24  C   UNL     1      -4.979   1.863   5.666  1.00  0.00     0.000 C 
BRANCH  24  25
ATOM     25  C   UNL     1      -5.259   0.923   6.854  1.00  0.00     0.000 C 
BRANCH  25  26
ATOM     26  C   UNL     1      -5.917  -0.401   6.428  1.00  0.00     0.000 C 
BRANCH  26  27
ATOM     27  C   UNL     1      -6.960  -0.904   7.443  1.00  0.00     0.002 C 
BRANCH  27  28
ATOM     28  C   UNL     1      -7.313  -2.399   7.332  1.00  0.00     0.028 C 
BRANCH  28  29
ATOM     29  C   UNL     1      -8.352  -2.850   8.365  1.00  0.00     0.156 C 
BRANCH  29  30
ATOM     30  O   UNL     1      -9.017  -3.998   7.909  1.00  0.00    -0.396 OA
ATOM     31  H   UNL     1      -9.908  -4.003   8.346  1.00  0.00     0.210 HD
ENDBRANCH  29  30
ENDBRANCH  28  29
ENDBRANCH  27  28
ENDBRANCH  26  27
ENDBRANCH  25  26
ENDBRANCH  24  25
ENDBRANCH  23  24
ENDBRANCH  22  23
ENDBRANCH  21  22
ENDBRANCH  20  21
ENDBRANCH  19  20
ENDBRANCH  18  19
ENDBRANCH  17  18
ENDBRANCH   1  17
TORSDOF 28
ENDMDL
MODEL 5
REMARK VINA RESULT:    -5.108      2.012      7.714
REMARK INTER + INTRA:         -16.356
REMARK INTER:                 -14.402
REMARK INTRA:                  -1.954
REMARK UNBOUND:                -3.036
REMARK SMILES CCCCCCCCCCCCCCCCCCCCCCCCCCCCCO
REMARK SMILES IDX 16 1 15 2 14 3 13 4 12 5 11 6 10 7 9 8 8 9 7 10 6 11 5 12
REMARK SMILES IDX 4 13 3 14 2 15 1 16 17 17 18 18 19 19 20 20 21 21 22 22
REMARK SMILES IDX 23 23 24 24 25 25 26 26 27 27 28 28 29 29 30 30
REMARK H PARENT 30 31
REMARK Flexibility Score: inf
ROOT
ATOM      1  C   UNL     1       0.518  11.476   8.526  1.00  0.00     0.000 C 
ENDROOT
BRANCH   1   2
ATOM      2  C   UNL     1       1.684  10.537   8.898  1.00  0.00     0.000 C 
BRANCH   2   3
ATOM      3  C   UNL     1       1.283   9.237   9.620  1.00  0.00     0.000 C 
BRANCH   3   4
ATOM      4  C   UNL     1       2.484   8.348   9.980  1.00  0.00     0.000 C 
BRANCH   4   5
ATOM      5  C   UNL     1       2.155   7.307  11.063  1.00  0.00     0.000 C 
BRANCH   5   6
ATOM      6  C   UNL     1       3.152   6.132  11.130  1.00  0.00     0.000 C 
BRANCH   6   7
ATOM      7  C   UNL     1       2.504   4.795  10.728  1.00  0.00     0.000 C 
BRANCH   7   8
ATOM      8  C   UNL     1       1.042   4.684  11.191  1.00  0.00    -0.000 C 
BRANCH   8   9
ATOM      9  C   UNL     1       0.536   3.234  11.187  1.00  0.00    -0.000 C 
BRANCH   9  10
ATOM     10  C   UNL     1      -0.504   3.008  12.294  1.00  0.00    -0.000 C 
BRANCH  10  11
ATOM     11  C   UNL     1      -0.741   1.516  12.582  1.00  0.00    -0.000 C 
BRANCH  11  12
ATOM     12  C   UNL     1      -0.254   1.105  13.980  1.00  0.00    -0.000 C 
BRANCH  12  13
ATOM     13  C   UNL     1       0.960   0.172  13.891  1.00  0.00    -0.000 C 
BRANCH  13  14
ATOM     14  C   UNL     1       1.301  -0.414  15.271  1.00  0.00    -0.000 C 
BRANCH  14  15
ATOM     15  C   UNL     1       1.852  -1.846  15.186  1.00  0.00    -0.003 C 
ATOM     16  C   UNL     1       3.228  -1.910  14.525  1.00  0.00     0.004 C 
ENDBRANCH  14  15
ENDBRANCH  13  14
ENDBRANCH  12  13
ENDBRANCH  11  12
ENDBRANCH  10  11
ENDBRANCH   9  10
ENDBRANCH   8   9
ENDBRANCH   7   8
ENDBRANCH   6   7
ENDBRANCH   5   6
ENDBRANCH   4   5
ENDBRANCH   3   4
ENDBRANCH   2   3
ENDBRANCH   1   2
BRANCH   1  17
ATOM     17  C   UNL     1      -0.501  10.824   7.574  1.00  0.00     0.000 C 
BRANCH  17  18
ATOM     18  C   UNL     1      -0.718  11.641   6.290  1.00  0.00     0.000 C 
BRANCH  18  19
ATOM     19  C   UNL     1      -1.674  10.949   5.303  1.00  0.00     0.000 C 
BRANCH  19  20
ATOM     20  C   UNL     1      -2.330   9.685   5.890  1.00  0.00     0.000 C 
BRANCH  20  21
ATOM     21  C   UNL     1      -2.961   8.734   4.856  1.00  0.00     0.000 C 
BRANCH  21  22
ATOM     22  C   UNL     1      -3.701   7.552   5.506  1.00  0.00     0.000 C 
BRANCH  22  23
ATOM     23  C   UNL     1      -2.866   6.259   5.516  1.00  0.00     0.000 C 
BRANCH  23  24
ATOM     24  C   UNL     1      -3.679   4.949   5.563  1.00  0.00     0.000 C 
BRANCH  24  25
ATOM     25  C   UNL     1      -3.027   3.742   4.863  1.00  0.00     0.000 C 
BRANCH  25  26
ATOM     26  C   UNL     1      -1.549   3.554   5.246  1.00  0.00     0.000 C 
BRANCH  26  27
ATOM     27  C   UNL     1      -1.335   2.420   6.266  1.00  0.00     0.002 C 
BRANCH  27  28
ATOM     28  C   UNL     1      -1.038   2.881   7.705  1.00  0.00     0.028 C 
BRANCH  28  29
ATOM     29  C   UNL     1      -0.595   4.347   7.787  1.00  0.00     0.156 C 
BRANCH  29  30
ATOM     30  O   UNL     1      -1.497   5.079   8.574  1.00  0.00    -0.396 OA
ATOM     31  H   UNL     1      -2.060   5.604   7.947  1.00  0.00     0.210 HD
ENDBRANCH  29  30
ENDBRANCH  28  29
ENDBRANCH  27  28
ENDBRANCH  26  27
ENDBRANCH  25  26
ENDBRANCH  24  25
ENDBRANCH  23  24
ENDBRANCH  22  23
ENDBRANCH  21  22
ENDBRANCH  20  21
ENDBRANCH  19  20
ENDBRANCH  18  19
ENDBRANCH  17  18
ENDBRANCH   1  17
TORSDOF 28
ENDMDL
MODEL 6
REMARK VINA RESULT:    -5.098      3.638      7.418
REMARK INTER + INTRA:         -16.331
REMARK INTER:                 -12.829
REMARK INTRA:                  -3.502
REMARK UNBOUND:                -3.036
REMARK SMILES CCCCCCCCCCCCCCCCCCCCCCCCCCCCCO
REMARK SMILES IDX 16 1 15 2 14 3 13 4 12 5 11 6 10 7 9 8 8 9 7 10 6 11 5 12
REMARK SMILES IDX 4 13 3 14 2 15 1 16 17 17 18 18 19 19 20 20 21 21 22 22
REMARK SMILES IDX 23 23 24 24 25 25 26 26 27 27 28 28 29 29 30 30
REMARK H PARENT 30 31
REMARK Flexibility Score: inf
ROOT
ATOM      1  C   UNL     1      -3.774   3.709  10.821  1.00  0.00     0.000 C 
ENDROOT
BRANCH   1   2
ATOM      2  C   UNL     1      -4.515   3.131   9.598  1.00  0.00     0.000 C 
BRANCH   2   3
ATOM      3  C   UNL     1      -3.703   3.091   8.290  1.00  0.00     0.000 C 
BRANCH   3   4
ATOM      4  C   UNL     1      -4.431   2.366   7.147  1.00  0.00     0.000 C 
BRANCH   4   5
ATOM      5  C   UNL     1      -4.149   2.988   5.769  1.00  0.00     0.000 C 
BRANCH   5   6
ATOM      6  C   UNL     1      -3.458   4.366   5.829  1.00  0.00     0.000 C 
BRANCH   6   7
ATOM      7  C   UNL     1      -2.167   4.408   4.992  1.00  0.00     0.000 C 
BRANCH   7   8
ATOM      8  C   UNL     1      -1.287   3.165   5.203  1.00  0.00    -0.000 C 
BRANCH   8   9
ATOM      9  C   UNL     1      -0.231   3.377   6.298  1.00  0.00    -0.000 C 
BRANCH   9  10
ATOM     10  C   UNL     1      -0.360   2.318   7.403  1.00  0.00    -0.000 C 
BRANCH  10  11
ATOM     11  C   UNL     1      -0.146   2.905   8.808  1.00  0.00    -0.000 C 
BRANCH  11  12
ATOM     12  C   UNL     1      -0.230   4.439   8.820  1.00  0.00    -0.000 C 
BRANCH  12  13
ATOM     13  C   UNL     1       1.129   5.066   9.152  1.00  0.00    -0.000 C 
BRANCH  13  14
ATOM     14  C   UNL     1       1.913   4.180  10.135  1.00  0.00    -0.000 C 
BRANCH  14  15
ATOM     15  C   UNL     1       2.522   4.980  11.297  1.00  0.00    -0.003 C 
ATOM     16  C   UNL     1       2.099   6.448  11.288  1.00  0.00     0.004 C 
ENDBRANCH  14  15
ENDBRANCH  13  14
ENDBRANCH  12  13
ENDBRANCH  11  12
ENDBRANCH  10  11
ENDBRANCH   9  10
ENDBRANCH   8   9
ENDBRANCH   7   8
ENDBRANCH   6   7
ENDBRANCH   5   6
ENDBRANCH   4   5
ENDBRANCH   3   4
ENDBRANCH   2   3
ENDBRANCH   1   2
BRANCH   1  17
ATOM     17  C   UNL     1      -2.768   2.720  11.440  1.00  0.00     0.000 C 
BRANCH  17  18
ATOM     18  C   UNL     1      -1.607   3.428  12.156  1.00  0.00     0.000 C 
BRANCH  18  19
ATOM     19  C   UNL     1      -0.473   2.462  12.542  1.00  0.00     0.000 C 
BRANCH  19  20
ATOM     20  C   UNL     1      -0.656   1.854  13.945  1.00  0.00     0.000 C 
BRANCH  20  21
ATOM     21  C   UNL     1      -1.357   0.482  13.978  1.00  0.00     0.000 C 
BRANCH  21  22
ATOM     22  C   UNL     1      -0.365  -0.694  13.973  1.00  0.00     0.000 C 
BRANCH  22  23
ATOM     23  C   UNL     1       0.309  -0.912  15.340  1.00  0.00     0.000 C 
BRANCH  23  24
ATOM     24  C   UNL     1       1.755  -0.387  15.454  1.00  0.00     0.000 C 
BRANCH  24  25
ATOM     25  C   UNL     1       2.736  -0.921  14.393  1.00  0.00     0.000 C 
BRANCH  25  26
ATOM     26  C   UNL     1       2.798  -2.458  14.355  1.00  0.00     0.000 C 
BRANCH  26  27
ATOM     27  C   UNL     1       3.263  -3.071  15.689  1.00  0.00     0.002 C 
BRANCH  27  28
ATOM     28  C   UNL     1       2.624  -4.425  16.046  1.00  0.00     0.028 C 
BRANCH  28  29
ATOM     29  C   UNL     1       3.095  -4.976  17.397  1.00  0.00     0.156 C 
BRANCH  29  30
ATOM     30  O   UNL     1       3.749  -6.204  17.214  1.00  0.00    -0.396 OA
ATOM     31  H   UNL     1       4.036  -6.510  18.114  1.00  0.00     0.210 HD
ENDBRANCH  29  30
ENDBRANCH  28  29
ENDBRANCH  27  28
ENDBRANCH  26  27
ENDBRANCH  25  26
ENDBRANCH  24  25
ENDBRANCH  23  24
ENDBRANCH  22  23
ENDBRANCH  21  22
ENDBRANCH  20  21
ENDBRANCH  19  20
ENDBRANCH  18  19
ENDBRANCH  17  18
ENDBRANCH   1  17
TORSDOF 28
ENDMDL
MODEL 7
REMARK VINA RESULT:    -5.091      4.399     11.101
REMARK INTER + INTRA:         -16.313
REMARK INTER:                 -13.452
REMARK INTRA:                  -2.861
REMARK UNBOUND:                -3.036
REMARK SMILES CCCCCCCCCCCCCCCCCCCCCCCCCCCCCO
REMARK SMILES IDX 16 1 15 2 14 3 13 4 12 5 11 6 10 7 9 8 8 9 7 10 6 11 5 12
REMARK SMILES IDX 4 13 3 14 2 15 1 16 17 17 18 18 19 19 20 20 21 21 22 22
REMARK SMILES IDX 23 23 24 24 25 25 26 26 27 27 28 28 29 29 30 30
REMARK H PARENT 30 31
REMARK Flexibility Score: inf
ROOT
ATOM      1  C   UNL     1      -1.302   3.880  12.779  1.00  0.00     0.000 C 
ENDROOT
BRANCH   1   2
ATOM      2  C   UNL     1      -1.263   2.488  13.441  1.00  0.00     0.000 C 
BRANCH   2   3
ATOM      3  C   UNL     1      -1.424   1.294  12.482  1.00  0.00     0.000 C 
BRANCH   3   4
ATOM      4  C   UNL     1      -0.528   0.099  12.846  1.00  0.00     0.000 C 
BRANCH   4   5
ATOM      5  C   UNL     1       0.709   0.507  13.663  1.00  0.00     0.000 C 
BRANCH   5   6
ATOM      6  C   UNL     1       0.675   0.038  15.133  1.00  0.00     0.000 C 
BRANCH   6   7
ATOM      7  C   UNL     1      -0.365  -1.073  15.366  1.00  0.00     0.000 C 
BRANCH   7   8
ATOM      8  C   UNL     1      -1.528  -0.615  16.262  1.00  0.00    -0.000 C 
BRANCH   8   9
ATOM      9  C   UNL     1      -1.389   0.853  16.694  1.00  0.00    -0.000 C 
BRANCH   9  10
ATOM     10  C   UNL     1      -1.797   1.037  18.163  1.00  0.00    -0.000 C 
BRANCH  10  11
ATOM     11  C   UNL     1      -1.327  -0.123  19.055  1.00  0.00    -0.000 C 
BRANCH  11  12
ATOM     12  C   UNL     1      -2.409  -0.572  20.051  1.00  0.00    -0.000 C 
BRANCH  12  13
ATOM     13  C   UNL     1      -3.592   0.404  20.059  1.00  0.00    -0.000 C 
BRANCH  13  14
ATOM     14  C   UNL     1      -4.187   0.529  21.471  1.00  0.00    -0.000 C 
BRANCH  14  15
ATOM     15  C   UNL     1      -4.898   1.872  21.697  1.00  0.00    -0.003 C 
ATOM     16  C   UNL     1      -4.121   2.802  22.628  1.00  0.00     0.004 C 
ENDBRANCH  14  15
ENDBRANCH  13  14
ENDBRANCH  12  13
ENDBRANCH  11  12
ENDBRANCH  10  11
ENDBRANCH   9  10
ENDBRANCH   8   9
ENDBRANCH   7   8
ENDBRANCH   6   7
ENDBRANCH   5   6
ENDBRANCH   4   5
ENDBRANCH   3   4
ENDBRANCH   2   3
ENDBRANCH   1   2
BRANCH   1  17
ATOM     17  C   UNL     1       0.062   4.320  12.216  1.00  0.00     0.000 C 
BRANCH  17  18
ATOM     18  C   UNL     1       0.066   4.418  10.682  1.00  0.00     0.000 C 
BRANCH  18  19
ATOM     19  C   UNL     1       0.655   3.165  10.011  1.00  0.00     0.000 C 
BRANCH  19  20
ATOM     20  C   UNL     1      -0.368   2.417   9.136  1.00  0.00     0.000 C 
BRANCH  20  21
ATOM     21  C   UNL     1      -1.560   3.264   8.653  1.00  0.00     0.000 C 
BRANCH  21  22
ATOM     22  C   UNL     1      -1.978   2.939   7.209  1.00  0.00     0.000 C 
BRANCH  22  23
ATOM     23  C   UNL     1      -2.044   4.187   6.311  1.00  0.00     0.000 C 
BRANCH  23  24
ATOM     24  C   UNL     1      -2.575   3.946   4.884  1.00  0.00     0.000 C 
BRANCH  24  25
ATOM     25  C   UNL     1      -1.912   2.784   4.120  1.00  0.00     0.000 C 
BRANCH  25  26
ATOM     26  C   UNL     1      -2.917   1.706   3.681  1.00  0.00     0.000 C 
BRANCH  26  27
ATOM     27  C   UNL     1      -4.324   1.925   4.267  1.00  0.00     0.002 C 
BRANCH  27  28
ATOM     28  C   UNL     1      -5.022   0.655   4.787  1.00  0.00     0.028 C 
BRANCH  28  29
ATOM     29  C   UNL     1      -4.771   0.398   6.277  1.00  0.00     0.156 C 
BRANCH  29  30
ATOM     30  O   UNL     1      -5.471  -0.745   6.693  1.00  0.00    -0.396 OA
ATOM     31  H   UNL     1      -6.171  -0.914   6.009  1.00  0.00     0.210 HD
ENDBRANCH  29  30
ENDBRANCH  28  29
ENDBRANCH  27  28
ENDBRANCH  26  27
ENDBRANCH  25  26
ENDBRANCH  24  25
ENDBRANCH  23  24
ENDBRANCH  22  23
ENDBRANCH  21  22
ENDBRANCH  20  21
ENDBRANCH  19  20
ENDBRANCH  18  19
ENDBRANCH  17  18
ENDBRANCH   1  17
TORSDOF 28
ENDMDL
MODEL 8
REMARK VINA RESULT:    -5.049      5.326     10.126
REMARK INTER + INTRA:         -16.203
REMARK INTER:                 -14.046
REMARK INTRA:                  -2.157
REMARK UNBOUND:                -3.036
REMARK SMILES CCCCCCCCCCCCCCCCCCCCCCCCCCCCCO
REMARK SMILES IDX 16 1 15 2 14 3 13 4 12 5 11 6 10 7 9 8 8 9 7 10 6 11 5 12
REMARK SMILES IDX 4 13 3 14 2 15 1 16 17 17 18 18 19 19 20 20 21 21 22 22
REMARK SMILES IDX 23 23 24 24 25 25 26 26 27 27 28 28 29 29 30 30
REMARK H PARENT 30 31
REMARK Flexibility Score: inf
ROOT
ATOM      1  C   UNL     1       0.550  -1.013  15.402  1.00  0.00     0.000 C 
ENDROOT
BRANCH   1   2
ATOM      2  C   UNL     1       0.373   0.246  14.529  1.00  0.00     0.000 C 
BRANCH   2   3
ATOM      3  C   UNL     1      -0.238   0.006  13.136  1.00  0.00     0.000 C 
BRANCH   3   4
ATOM      4  C   UNL     1      -1.125   1.165  12.655  1.00  0.00     0.000 C 
BRANCH   4   5
ATOM      5  C   UNL     1      -1.028   2.407  13.558  1.00  0.00     0.000 C 
BRANCH   5   6
ATOM      6  C   UNL     1      -1.029   3.745  12.790  1.00  0.00     0.000 C 
BRANCH   6   7
ATOM      7  C   UNL     1      -2.289   3.919  11.922  1.00  0.00     0.000 C 
BRANCH   7   8
ATOM      8  C   UNL     1      -1.957   4.283  10.466  1.00  0.00    -0.000 C 
BRANCH   8   9
ATOM      9  C   UNL     1      -0.591   4.973  10.333  1.00  0.00    -0.000 C 
BRANCH   9  10
ATOM     10  C   UNL     1       0.442   4.035   9.691  1.00  0.00    -0.000 C 
BRANCH  10  11
ATOM     11  C   UNL     1       1.214   4.707   8.544  1.00  0.00    -0.000 C 
BRANCH  11  12
ATOM     12  C   UNL     1       2.481   5.426   9.033  1.00  0.00    -0.000 C 
BRANCH  12  13
ATOM     13  C   UNL     1       3.091   4.710  10.244  1.00  0.00    -0.000 C 
BRANCH  13  14
ATOM     14  C   UNL     1       3.512   5.723  11.322  1.00  0.00    -0.000 C 
BRANCH  14  15
ATOM     15  C   UNL     1       2.321   6.506  11.896  1.00  0.00    -0.003 C 
ATOM     16  C   UNL     1       2.065   7.818  11.156  1.00  0.00     0.004 C 
ENDBRANCH  14  15
ENDBRANCH  13  14
ENDBRANCH  12  13
ENDBRANCH  11  12
ENDBRANCH  10  11
ENDBRANCH   9  10
ENDBRANCH   8   9
ENDBRANCH   7   8
ENDBRANCH   6   7
ENDBRANCH   5   6
ENDBRANCH   4   5
ENDBRANCH   3   4
ENDBRANCH   2   3
ENDBRANCH   1   2
BRANCH   1  17
ATOM     17  C   UNL     1      -0.169  -0.911  16.760  1.00  0.00     0.000 C 
BRANCH  17  18
ATOM     18  C   UNL     1      -1.533  -0.209  16.656  1.00  0.00     0.000 C 
BRANCH  18  19
ATOM     19  C   UNL     1      -1.652   0.995  17.606  1.00  0.00     0.000 C 
BRANCH  19  20
ATOM     20  C   UNL     1      -2.775   0.830  18.646  1.00  0.00     0.000 C 
BRANCH  20  21
ATOM     21  C   UNL     1      -2.445  -0.109  19.822  1.00  0.00     0.000 C 
BRANCH  21  22
ATOM     22  C   UNL     1      -3.597  -0.222  20.835  1.00  0.00     0.000 C 
BRANCH  22  23
ATOM     23  C   UNL     1      -3.921   1.116  21.523  1.00  0.00     0.000 C 
BRANCH  23  24
ATOM     24  C   UNL     1      -5.422   1.412  21.717  1.00  0.00     0.000 C 
BRANCH  24  25
ATOM     25  C   UNL     1      -6.337   0.971  20.559  1.00  0.00     0.000 C 
BRANCH  25  26
ATOM     26  C   UNL     1      -7.717   1.649  20.595  1.00  0.00     0.000 C 
BRANCH  26  27
ATOM     27  C   UNL     1      -8.362   1.766  19.201  1.00  0.00     0.002 C 
BRANCH  27  28
ATOM     28  C   UNL     1      -7.372   1.809  18.023  1.00  0.00     0.028 C 
BRANCH  28  29
ATOM     29  C   UNL     1      -7.432   3.123  17.234  1.00  0.00     0.156 C 
BRANCH  29  30
ATOM     30  O   UNL     1      -7.234   4.211  18.098  1.00  0.00    -0.396 OA
ATOM     31  H   UNL     1      -7.728   4.004  18.934  1.00  0.00     0.210 HD
ENDBRANCH  29  30
ENDBRANCH  28  29
ENDBRANCH  27  28
ENDBRANCH  26  27
ENDBRANCH  25  26
ENDBRANCH  24  25
ENDBRANCH  23  24
ENDBRANCH  22  23
ENDBRANCH  21  22
ENDBRANCH  20  21
ENDBRANCH  19  20
ENDBRANCH  18  19
ENDBRANCH  17  18
ENDBRANCH   1  17
TORSDOF 28
ENDMDL
MODEL 9
REMARK VINA RESULT:    -5.046      4.201      8.486
REMARK INTER + INTRA:         -16.194
REMARK INTER:                 -12.599
REMARK INTRA:                  -3.595
REMARK UNBOUND:                -3.036
REMARK SMILES CCCCCCCCCCCCCCCCCCCCCCCCCCCCCO
REMARK SMILES IDX 16 1 15 2 14 3 13 4 12 5 11 6 10 7 9 8 8 9 7 10 6 11 5 12
REMARK SMILES IDX 4 13 3 14 2 15 1 16 17 17 18 18 19 19 20 20 21 21 22 22
REMARK SMILES IDX 23 23 24 24 25 25 26 26 27 27 28 28 29 29 30 30
REMARK H PARENT 30 31
REMARK Flexibility Score: inf
ROOT
ATOM      1  C   UNL     1      -0.202   2.023  12.553  1.00  0.00     0.000 C 
ENDROOT
BRANCH   1   2
ATOM      2  C   UNL     1      -1.167   3.214  12.727  1.00  0.00     0.000 C 
BRANCH   2   3
ATOM      3  C   UNL     1      -2.452   3.153  11.882  1.00  0.00     0.000 C 
BRANCH   3   4
ATOM      4  C   UNL     1      -2.186   2.883  10.393  1.00  0.00     0.000 C 
BRANCH   4   5
ATOM      5  C   UNL     1      -3.078   3.723   9.463  1.00  0.00     0.000 C 
BRANCH   5   6
ATOM      6  C   UNL     1      -3.514   2.991   8.177  1.00  0.00     0.000 C 
BRANCH   6   7
ATOM      7  C   UNL     1      -2.330   2.317   7.460  1.00  0.00     0.000 C 
BRANCH   7   8
ATOM      8  C   UNL     1      -2.037   2.945   6.087  1.00  0.00    -0.000 C 
BRANCH   8   9
ATOM      9  C   UNL     1      -0.710   3.718   6.069  1.00  0.00    -0.000 C 
BRANCH   9  10
ATOM     10  C   UNL     1       0.188   3.304   7.244  1.00  0.00    -0.000 C 
BRANCH  10  11
ATOM     11  C   UNL     1       0.914   4.501   7.879  1.00  0.00    -0.000 C 
BRANCH  11  12
ATOM     12  C   UNL     1      -0.000   5.316   8.806  1.00  0.00    -0.000 C 
BRANCH  12  13
ATOM     13  C   UNL     1       0.595   5.424  10.215  1.00  0.00    -0.000 C 
BRANCH  13  14
ATOM     14  C   UNL     1       1.655   4.335  10.445  1.00  0.00    -0.000 C 
BRANCH  14  15
ATOM     15  C   UNL     1       2.939   4.884  11.087  1.00  0.00    -0.003 C 
ATOM     16  C   UNL     1       3.105   6.389  10.879  1.00  0.00     0.004 C 
ENDBRANCH  14  15
ENDBRANCH  13  14
ENDBRANCH  12  13
ENDBRANCH  11  12
ENDBRANCH  10  11
ENDBRANCH   9  10
ENDBRANCH   8   9
ENDBRANCH   7   8
ENDBRANCH   6   7
ENDBRANCH   5   6
ENDBRANCH   4   5
ENDBRANCH   3   4
ENDBRANCH   2   3
ENDBRANCH   1   2
BRANCH   1  17
ATOM     17  C   UNL     1      -0.191   1.074  13.766  1.00  0.00     0.000 C 
BRANCH  17  18
ATOM     18  C   UNL     1      -1.480   0.245  13.880  1.00  0.00     0.000 C 
BRANCH  18  19
ATOM     19  C   UNL     1      -2.326   0.633  15.104  1.00  0.00     0.000 C 
BRANCH  19  20
ATOM     20  C   UNL     1      -1.574   1.550  16.087  1.00  0.00     0.000 C 
BRANCH  20  21
ATOM     21  C   UNL     1      -1.360   0.965  17.496  1.00  0.00     0.000 C 
BRANCH  21  22
ATOM     22  C   UNL     1      -1.572  -0.558  17.548  1.00  0.00     0.000 C 
BRANCH  22  23
ATOM     23  C   UNL     1      -2.496  -0.993  18.700  1.00  0.00     0.000 C 
BRANCH  23  24
ATOM     24  C   UNL     1      -2.474  -0.082  19.944  1.00  0.00     0.000 C 
BRANCH  24  25
ATOM     25  C   UNL     1      -3.471  -0.458  21.056  1.00  0.00     0.000 C 
BRANCH  25  26
ATOM     26  C   UNL     1      -4.304   0.741  21.543  1.00  0.00     0.000 C 
BRANCH  26  27
ATOM     27  C   UNL     1      -4.327   1.903  20.533  1.00  0.00     0.002 C 
BRANCH  27  28
ATOM     28  C   UNL     1      -5.729   2.340  20.069  1.00  0.00     0.028 C 
BRANCH  28  29
ATOM     29  C   UNL     1      -5.896   2.305  18.546  1.00  0.00     0.156 C 
BRANCH  29  30
ATOM     30  O   UNL     1      -4.732   1.802  17.945  1.00  0.00    -0.396 OA
ATOM     31  H   UNL     1      -4.825   0.814  17.930  1.00  0.00     0.210 HD
ENDBRANCH  29  30
ENDBRANCH  28  29
ENDBRANCH  27  28
ENDBRANCH  26  27
ENDBRANCH  25  26
ENDBRANCH  24  25
ENDBRANCH  23  24
ENDBRANCH  22  23
ENDBRANCH  21  22
ENDBRANCH  20  21
ENDBRANCH  19  20
ENDBRANCH  18  19
ENDBRANCH  17  18
ENDBRANCH   1  17
TORSDOF 28
ENDMDL
