MODEL 1
REMARK VINA RESULT:    -5.508      0.000      0.000
REMARK INTER + INTRA:          -5.669
REMARK INTER:                  -5.669
REMARK INTRA:                   0.000
REMARK UNBOUND:                 0.000
REMARK SMILES CC(C)=C1CC[C@]2(C)CCC[C@@](C)(O)[C@H]2C1
REMARK SMILES IDX 1 1 2 2 4 3 5 4 6 5 7 6 9 7 10 8 11 9 12 10 15 11 16 12
REMARK SMILES IDX 13 13 8 14 3 15 14 16
REMARK H PARENT 14 17
REMARK Flexibility Score: inf
ROOT
ATOM      1  C   UNL     1      44.125 -42.140  -5.921  1.00  0.00     0.039 C 
ATOM      2  C   UNL     1      42.621 -41.969  -6.002  1.00  0.00    -0.077 C 
ATOM      3  C   UNL     1      41.949 -41.160  -5.124  1.00  0.00    -0.071 C 
ATOM      4  C   UNL     1      42.736 -40.341  -4.105  1.00  0.00     0.031 C 
ATOM      5  C   UNL     1      41.896 -39.698  -2.994  1.00  0.00     0.011 C 
ATOM      6  C   UNL     1      40.562 -39.095  -3.493  1.00  0.00    -0.026 C 
ATOM      7  C   UNL     1      39.821 -38.511  -2.256  1.00  0.00     0.007 C 
ATOM      8  C   UNL     1      38.366 -38.130  -2.551  1.00  0.00     0.004 C 
ATOM      9  C   UNL     1      37.588 -39.324  -3.107  1.00  0.00     0.035 C 
ATOM     10  C   UNL     1      38.228 -39.892  -4.395  1.00  0.00     0.066 C 
ATOM     11  C   UNL     1      39.729 -40.267  -4.104  1.00  0.00     0.031 C 
ATOM     12  C   UNL     1      40.448 -40.931  -5.306  1.00  0.00     0.038 C 
ATOM     13  C   UNL     1      37.405 -41.138  -4.808  1.00  0.00     0.042 C 
ATOM     14  C   UNL     1      40.862 -37.953  -4.504  1.00  0.00     0.012 C 
ATOM     15  C   UNL     1      41.893 -42.716  -7.102  1.00  0.00     0.039 C 
ENDROOT
BRANCH  10  16
ATOM     16  O   UNL     1      38.128 -38.907  -5.399  1.00  0.00    -0.390 OA
ATOM     17  H   UNL     1      39.035 -38.564  -5.605  1.00  0.00     0.211 HD
ENDBRANCH  10  16
TORSDOF 1
ENDMDL
MODEL 2
REMARK VINA RESULT:    -5.197      1.514      3.129
REMARK INTER + INTRA:          -5.348
REMARK INTER:                  -5.348
REMARK INTRA:                   0.000
REMARK UNBOUND:                 0.000
REMARK SMILES CC(C)=C1CC[C@]2(C)CCC[C@@](C)(O)[C@H]2C1
REMARK SMILES IDX 1 1 2 2 4 3 5 4 6 5 7 6 9 7 10 8 11 9 12 10 15 11 16 12
REMARK SMILES IDX 13 13 8 14 3 15 14 16
REMARK H PARENT 14 17
REMARK Flexibility Score: inf
ROOT
ATOM      1  C   UNL     1      43.306 -41.470  -5.605  1.00  0.00     0.039 C 
ATOM      2  C   UNL     1      42.549 -40.828  -4.459  1.00  0.00    -0.077 C 
ATOM      3  C   UNL     1      41.254 -40.406  -4.609  1.00  0.00    -0.071 C 
ATOM      4  C   UNL     1      40.526 -40.672  -5.924  1.00  0.00     0.031 C 
ATOM      5  C   UNL     1      39.200 -39.921  -6.100  1.00  0.00     0.011 C 
ATOM      6  C   UNL     1      38.334 -39.878  -4.819  1.00  0.00    -0.026 C 
ATOM      7  C   UNL     1      37.048 -39.067  -5.150  1.00  0.00     0.007 C 
ATOM      8  C   UNL     1      36.229 -38.705  -3.907  1.00  0.00     0.004 C 
ATOM      9  C   UNL     1      37.081 -37.940  -2.892  1.00  0.00     0.035 C 
ATOM     10  C   UNL     1      38.329 -38.739  -2.454  1.00  0.00     0.066 C 
ATOM     11  C   UNL     1      39.166 -39.130  -3.728  1.00  0.00     0.031 C 
ATOM     12  C   UNL     1      40.493 -39.861  -3.400  1.00  0.00     0.038 C 
ATOM     13  C   UNL     1      39.146 -37.831  -1.500  1.00  0.00     0.042 C 
ATOM     14  C   UNL     1      37.943 -41.328  -4.417  1.00  0.00     0.012 C 
ATOM     15  C   UNL     1      43.277 -40.685  -3.136  1.00  0.00     0.039 C 
ENDROOT
BRANCH  10  16
ATOM     16  O   UNL     1      37.890 -39.881  -1.755  1.00  0.00    -0.390 OA
ATOM     17  H   UNL     1      37.367 -39.593  -0.963  1.00  0.00     0.211 HD
ENDBRANCH  10  16
TORSDOF 1
ENDMDL
MODEL 3
REMARK VINA RESULT:    -5.194      1.742      3.279
REMARK INTER + INTRA:          -5.346
REMARK INTER:                  -5.346
REMARK INTRA:                   0.000
REMARK UNBOUND:                 0.000
REMARK SMILES CC(C)=C1CC[C@]2(C)CCC[C@@](C)(O)[C@H]2C1
REMARK SMILES IDX 1 1 2 2 4 3 5 4 6 5 7 6 9 7 10 8 11 9 12 10 15 11 16 12
REMARK SMILES IDX 13 13 8 14 3 15 14 16
REMARK H PARENT 14 17
REMARK Flexibility Score: inf
ROOT
ATOM      1  C   UNL     1      42.304 -42.752  -6.895  1.00  0.00     0.039 C 
ATOM      2  C   UNL     1      42.696 -41.830  -5.757  1.00  0.00    -0.077 C 
ATOM      3  C   UNL     1      41.788 -40.972  -5.193  1.00  0.00    -0.071 C 
ATOM      4  C   UNL     1      40.334 -41.009  -5.653  1.00  0.00     0.031 C 
ATOM      5  C   UNL     1      39.469 -39.834  -5.179  1.00  0.00     0.011 C 
ATOM      6  C   UNL     1      39.726 -39.424  -3.710  1.00  0.00    -0.026 C 
ATOM      7  C   UNL     1      38.801 -38.214  -3.393  1.00  0.00     0.007 C 
ATOM      8  C   UNL     1      39.144 -37.525  -2.068  1.00  0.00     0.004 C 
ATOM      9  C   UNL     1      40.608 -37.081  -2.043  1.00  0.00     0.035 C 
ATOM     10  C   UNL     1      41.582 -38.262  -2.261  1.00  0.00     0.066 C 
ATOM     11  C   UNL     1      41.223 -38.985  -3.613  1.00  0.00     0.031 C 
ATOM     12  C   UNL     1      42.195 -40.136  -3.978  1.00  0.00     0.038 C 
ATOM     13  C   UNL     1      43.016 -37.675  -2.299  1.00  0.00     0.042 C 
ATOM     14  C   UNL     1      39.364 -40.611  -2.776  1.00  0.00     0.012 C 
ATOM     15  C   UNL     1      44.125 -41.907  -5.257  1.00  0.00     0.039 C 
ENDROOT
BRANCH  10  16
ATOM     16  O   UNL     1      41.460 -39.134  -1.161  1.00  0.00    -0.390 OA
ATOM     17  H   UNL     1      41.652 -38.631  -0.328  1.00  0.00     0.211 HD
ENDBRANCH  10  16
TORSDOF 1
ENDMDL
MODEL 4
REMARK VINA RESULT:    -4.994      1.811      5.437
REMARK INTER + INTRA:          -5.140
REMARK INTER:                  -5.140
REMARK INTRA:                   0.000
REMARK UNBOUND:                 0.000
REMARK SMILES CC(C)=C1CC[C@]2(C)CCC[C@@](C)(O)[C@H]2C1
REMARK SMILES IDX 1 1 2 2 4 3 5 4 6 5 7 6 9 7 10 8 11 9 12 10 15 11 16 12
REMARK SMILES IDX 13 13 8 14 3 15 14 16
REMARK H PARENT 14 17
REMARK Flexibility Score: inf
ROOT
ATOM      1  C   UNL     1      36.179 -39.380  -1.703  1.00  0.00     0.039 C 
ATOM      2  C   UNL     1      37.680 -39.313  -1.505  1.00  0.00    -0.077 C 
ATOM      3  C   UNL     1      38.545 -39.790  -2.454  1.00  0.00    -0.071 C 
ATOM      4  C   UNL     1      37.993 -40.314  -3.777  1.00  0.00     0.031 C 
ATOM      5  C   UNL     1      38.997 -41.082  -4.646  1.00  0.00     0.011 C 
ATOM      6  C   UNL     1      40.406 -40.443  -4.681  1.00  0.00    -0.026 C 
ATOM      7  C   UNL     1      41.306 -41.345  -5.573  1.00  0.00     0.007 C 
ATOM      8  C   UNL     1      42.794 -40.993  -5.476  1.00  0.00     0.004 C 
ATOM      9  C   UNL     1      43.278 -41.048  -4.026  1.00  0.00     0.035 C 
ATOM     10  C   UNL     1      42.477 -40.098  -3.106  1.00  0.00     0.066 C 
ATOM     11  C   UNL     1      40.945 -40.443  -3.215  1.00  0.00     0.031 C 
ATOM     12  C   UNL     1      40.051 -39.608  -2.263  1.00  0.00     0.038 C 
ATOM     13  C   UNL     1      43.001 -40.307  -1.662  1.00  0.00     0.042 C 
ATOM     14  C   UNL     1      40.310 -39.025  -5.309  1.00  0.00     0.012 C 
ATOM     15  C   UNL     1      38.186 -38.682  -0.222  1.00  0.00     0.039 C 
ENDROOT
BRANCH  10  16
ATOM     16  O   UNL     1      42.739 -38.775  -3.514  1.00  0.00    -0.390 OA
ATOM     17  H   UNL     1      43.690 -38.563  -3.331  1.00  0.00     0.211 HD
ENDBRANCH  10  16
TORSDOF 1
ENDMDL
MODEL 5
REMARK VINA RESULT:    -4.883      2.713      4.424
REMARK INTER + INTRA:          -5.026
REMARK INTER:                  -5.026
REMARK INTRA:                   0.000
REMARK UNBOUND:                 0.000
REMARK SMILES CC(C)=C1CC[C@]2(C)CCC[C@@](C)(O)[C@H]2C1
REMARK SMILES IDX 1 1 2 2 4 3 5 4 6 5 7 6 9 7 10 8 11 9 12 10 15 11 16 12
REMARK SMILES IDX 13 13 8 14 3 15 14 16
REMARK H PARENT 14 17
REMARK Flexibility Score: inf
ROOT
ATOM      1  C   UNL     1      38.888 -39.754  -6.330  1.00  0.00     0.039 C 
ATOM      2  C   UNL     1      38.721 -40.060  -4.854  1.00  0.00    -0.077 C 
ATOM      3  C   UNL     1      39.808 -40.223  -4.035  1.00  0.00    -0.071 C 
ATOM      4  C   UNL     1      41.210 -39.998  -4.594  1.00  0.00     0.031 C 
ATOM      5  C   UNL     1      42.356 -40.477  -3.694  1.00  0.00     0.011 C 
ATOM      6  C   UNL     1      42.144 -40.162  -2.195  1.00  0.00    -0.026 C 
ATOM      7  C   UNL     1      43.368 -40.728  -1.420  1.00  0.00     0.007 C 
ATOM      8  C   UNL     1      43.166 -40.737   0.099  1.00  0.00     0.004 C 
ATOM      9  C   UNL     1      41.904 -41.514   0.481  1.00  0.00     0.035 C 
ATOM     10  C   UNL     1      40.637 -40.936  -0.190  1.00  0.00     0.066 C 
ATOM     11  C   UNL     1      40.845 -40.906  -1.750  1.00  0.00     0.031 C 
ATOM     12  C   UNL     1      39.597 -40.425  -2.534  1.00  0.00     0.038 C 
ATOM     13  C   UNL     1      39.450 -41.851   0.204  1.00  0.00     0.042 C 
ATOM     14  C   UNL     1      42.076 -38.621  -2.000  1.00  0.00     0.012 C 
ATOM     15  C   UNL     1      37.307 -40.164  -4.319  1.00  0.00     0.039 C 
ENDROOT
BRANCH  10  16
ATOM     16  O   UNL     1      40.424 -39.642   0.327  1.00  0.00    -0.390 OA
ATOM     17  H   UNL     1      39.600 -39.265  -0.075  1.00  0.00     0.211 HD
ENDBRANCH  10  16
TORSDOF 1
ENDMDL
MODEL 6
REMARK VINA RESULT:    -4.834      2.015      3.660
REMARK INTER + INTRA:          -4.975
REMARK INTER:                  -4.975
REMARK INTRA:                   0.000
REMARK UNBOUND:                 0.000
REMARK SMILES CC(C)=C1CC[C@]2(C)CCC[C@@](C)(O)[C@H]2C1
REMARK SMILES IDX 1 1 2 2 4 3 5 4 6 5 7 6 9 7 10 8 11 9 12 10 15 11 16 12
REMARK SMILES IDX 13 13 8 14 3 15 14 16
REMARK H PARENT 14 17
REMARK Flexibility Score: inf
ROOT
ATOM      1  C   UNL     1      43.005 -40.620  -0.691  1.00  0.00     0.039 C 
ATOM      2  C   UNL     1      41.502 -40.613  -0.886  1.00  0.00    -0.077 C 
ATOM      3  C   UNL     1      40.942 -40.233  -2.078  1.00  0.00    -0.071 C 
ATOM      4  C   UNL     1      41.846 -39.902  -3.261  1.00  0.00     0.031 C 
ATOM      5  C   UNL     1      41.150 -39.220  -4.445  1.00  0.00     0.011 C 
ATOM      6  C   UNL     1      39.759 -39.811  -4.774  1.00  0.00    -0.026 C 
ATOM      7  C   UNL     1      39.177 -39.002  -5.970  1.00  0.00     0.007 C 
ATOM      8  C   UNL     1      37.694 -39.291  -6.226  1.00  0.00     0.004 C 
ATOM      9  C   UNL     1      36.860 -39.035  -4.969  1.00  0.00     0.035 C 
ATOM     10  C   UNL     1      37.335 -39.884  -3.768  1.00  0.00     0.066 C 
ATOM     11  C   UNL     1      38.863 -39.606  -3.511  1.00  0.00     0.031 C 
ATOM     12  C   UNL     1      39.428 -40.341  -2.268  1.00  0.00     0.038 C 
ATOM     13  C   UNL     1      36.474 -39.476  -2.546  1.00  0.00     0.042 C 
ATOM     14  C   UNL     1      39.921 -41.301  -5.187  1.00  0.00     0.012 C 
ATOM     15  C   UNL     1      40.644 -41.057   0.283  1.00  0.00     0.039 C 
ENDROOT
BRANCH  10  16
ATOM     16  O   UNL     1      37.102 -41.240  -4.076  1.00  0.00    -0.390 OA
ATOM     17  H   UNL     1      37.938 -41.752  -3.929  1.00  0.00     0.211 HD
ENDBRANCH  10  16
TORSDOF 1
ENDMDL
MODEL 7
REMARK VINA RESULT:    -4.707      2.567      4.921
REMARK INTER + INTRA:          -4.845
REMARK INTER:                  -4.845
REMARK INTRA:                   0.000
REMARK UNBOUND:                 0.000
REMARK SMILES CC(C)=C1CC[C@]2(C)CCC[C@@](C)(O)[C@H]2C1
REMARK SMILES IDX 1 1 2 2 4 3 5 4 6 5 7 6 9 7 10 8 11 9 12 10 15 11 16 12
REMARK SMILES IDX 13 13 8 14 3 15 14 16
REMARK H PARENT 14 17
REMARK Flexibility Score: inf
ROOT
ATOM      1  C   UNL     1      41.522 -40.511   2.041  1.00  0.00     0.039 C 
ATOM      2  C   UNL     1      42.221 -40.491   0.696  1.00  0.00    -0.077 C 
ATOM      3  C   UNL     1      41.511 -40.532  -0.475  1.00  0.00    -0.071 C 
ATOM      4  C   UNL     1      39.986 -40.500  -0.430  1.00  0.00     0.031 C 
ATOM      5  C   UNL     1      39.286 -40.835  -1.753  1.00  0.00     0.011 C 
ATOM      6  C   UNL     1      39.961 -40.201  -2.992  1.00  0.00    -0.026 C 
ATOM      7  C   UNL     1      39.156 -40.652  -4.245  1.00  0.00     0.007 C 
ATOM      8  C   UNL     1      39.867 -40.331  -5.564  1.00  0.00     0.004 C 
ATOM      9  C   UNL     1      41.268 -40.946  -5.596  1.00  0.00     0.035 C 
ATOM     10  C   UNL     1      42.148 -40.460  -4.421  1.00  0.00     0.066 C 
ATOM     11  C   UNL     1      41.414 -40.770  -3.063  1.00  0.00     0.031 C 
ATOM     12  C   UNL     1      42.248 -40.403  -1.809  1.00  0.00     0.038 C 
ATOM     13  C   UNL     1      43.499 -41.211  -4.517  1.00  0.00     0.042 C 
ATOM     14  C   UNL     1      39.904 -38.653  -2.870  1.00  0.00     0.012 C 
ATOM     15  C   UNL     1      43.735 -40.410   0.698  1.00  0.00     0.039 C 
ENDROOT
BRANCH  10  16
ATOM     16  O   UNL     1      42.366 -39.077  -4.586  1.00  0.00    -0.390 OA
ATOM     17  H   UNL     1      41.960 -38.594  -3.821  1.00  0.00     0.211 HD
ENDBRANCH  10  16
TORSDOF 1
ENDMDL
MODEL 8
REMARK VINA RESULT:    -4.685      3.178      4.214
REMARK INTER + INTRA:          -4.822
REMARK INTER:                  -4.822
REMARK INTRA:                   0.000
REMARK UNBOUND:                 0.000
REMARK SMILES CC(C)=C1CC[C@]2(C)CCC[C@@](C)(O)[C@H]2C1
REMARK SMILES IDX 1 1 2 2 4 3 5 4 6 5 7 6 9 7 10 8 11 9 12 10 15 11 16 12
REMARK SMILES IDX 13 13 8 14 3 15 14 16
REMARK H PARENT 14 17
REMARK Flexibility Score: inf
ROOT
ATOM      1  C   UNL     1      40.946 -40.446  -3.264  1.00  0.00     0.039 C 
ATOM      2  C   UNL     1      40.396 -40.468  -4.676  1.00  0.00    -0.077 C 
ATOM      3  C   UNL     1      39.383 -39.628  -5.058  1.00  0.00    -0.071 C 
ATOM      4  C   UNL     1      38.861 -38.585  -4.073  1.00  0.00     0.031 C 
ATOM      5  C   UNL     1      37.554 -37.896  -4.484  1.00  0.00     0.011 C 
ATOM      6  C   UNL     1      37.486 -37.533  -5.985  1.00  0.00    -0.026 C 
ATOM      7  C   UNL     1      36.102 -36.872  -6.246  1.00  0.00     0.007 C 
ATOM      8  C   UNL     1      35.782 -36.712  -7.736  1.00  0.00     0.004 C 
ATOM      9  C   UNL     1      35.861 -38.057  -8.461  1.00  0.00     0.035 C 
ATOM     10  C   UNL     1      37.250 -38.720  -8.315  1.00  0.00     0.066 C 
ATOM     11  C   UNL     1      37.593 -38.870  -6.786  1.00  0.00     0.031 C 
ATOM     12  C   UNL     1      38.930 -39.607  -6.518  1.00  0.00     0.038 C 
ATOM     13  C   UNL     1      37.176 -40.101  -9.014  1.00  0.00     0.042 C 
ATOM     14  C   UNL     1      38.615 -36.518  -6.318  1.00  0.00     0.012 C 
ATOM     15  C   UNL     1      41.022 -41.444  -5.653  1.00  0.00     0.039 C 
ENDROOT
BRANCH  10  16
ATOM     16  O   UNL     1      38.191 -37.907  -8.977  1.00  0.00    -0.390 OA
ATOM     17  H   UNL     1      37.891 -37.762  -9.911  1.00  0.00     0.211 HD
ENDBRANCH  10  16
TORSDOF 1
ENDMDL
MODEL 9
REMARK VINA RESULT:    -4.639      2.398      4.679
REMARK INTER + INTRA:          -4.774
REMARK INTER:                  -4.774
REMARK INTRA:                   0.000
REMARK UNBOUND:                 0.000
REMARK SMILES CC(C)=C1CC[C@]2(C)CCC[C@@](C)(O)[C@H]2C1
REMARK SMILES IDX 1 1 2 2 4 3 5 4 6 5 7 6 9 7 10 8 11 9 12 10 15 11 16 12
REMARK SMILES IDX 13 13 8 14 3 15 14 16
REMARK H PARENT 14 17
REMARK Flexibility Score: inf
ROOT
ATOM      1  C   UNL     1      36.744 -38.654  -8.346  1.00  0.00     0.039 C 
ATOM      2  C   UNL     1      37.905 -38.097  -7.546  1.00  0.00    -0.077 C 
ATOM      3  C   UNL     1      38.368 -38.736  -6.425  1.00  0.00    -0.071 C 
ATOM      4  C   UNL     1      37.767 -40.081  -6.026  1.00  0.00     0.031 C 
ATOM      5  C   UNL     1      38.141 -40.572  -4.622  1.00  0.00     0.011 C 
ATOM      6  C   UNL     1      39.624 -40.333  -4.253  1.00  0.00    -0.026 C 
ATOM      7  C   UNL     1      39.836 -40.857  -2.803  1.00  0.00     0.007 C 
ATOM      8  C   UNL     1      41.181 -40.436  -2.202  1.00  0.00     0.004 C 
ATOM      9  C   UNL     1      41.345 -38.915  -2.235  1.00  0.00     0.035 C 
ATOM     10  C   UNL     1      41.237 -38.346  -3.669  1.00  0.00     0.066 C 
ATOM     11  C   UNL     1      39.864 -38.790  -4.299  1.00  0.00     0.031 C 
ATOM     12  C   UNL     1      39.608 -38.200  -5.708  1.00  0.00     0.038 C 
ATOM     13  C   UNL     1      41.334 -36.803  -3.559  1.00  0.00     0.042 C 
ATOM     14  C   UNL     1      40.530 -41.133  -5.230  1.00  0.00     0.012 C 
ATOM     15  C   UNL     1      38.544 -36.816  -8.044  1.00  0.00     0.039 C 
ENDROOT
BRANCH  10  16
ATOM     16  O   UNL     1      42.329 -38.834  -4.414  1.00  0.00    -0.390 OA
ATOM     17  H   UNL     1      42.175 -39.791  -4.621  1.00  0.00     0.211 HD
ENDBRANCH  10  16
TORSDOF 1
ENDMDL
