MODEL 1
REMARK VINA RESULT:    -4.216      0.000      0.000
REMARK INTER + INTRA:          -6.311
REMARK INTER:                  -5.695
REMARK INTRA:                  -0.616
REMARK UNBOUND:                -0.616
REMARK SMILES CCCCCCC=CC(=O)[O-]
REMARK SMILES IDX 5 1 6 2 7 3 8 4 9 5 10 6 11 7 4 8 3 9 2 10 1 11
REMARK H PARENT
REMARK Flexibility Score: inf
ROOT
ATOM      1  C   UNL     1      19.695  20.991  20.709  1.00  0.00     0.004 C 
ENDROOT
BRANCH   1   2
ATOM      2  C   UNL     1      18.270  21.239  21.226  1.00  0.00     0.027 C 
BRANCH   2   3
ATOM      3  C   UNL     1      18.290  21.960  22.543  1.00  0.00    -0.025 C 
ATOM      4  C   UNL     1      17.917  21.355  23.676  1.00  0.00     0.020 C 
BRANCH   4   5
ATOM      5  C   UNL     1      17.919  22.053  24.971  1.00  0.00     0.064 C 
ATOM      6  O   UNL     1      18.922  22.735  25.307  1.00  0.00    -0.545 OA
ATOM      7  O   UNL     1      16.829  21.971  25.830  1.00  0.00    -0.545 OA
ENDBRANCH   4   5
ENDBRANCH   2   3
ENDBRANCH   1   2
BRANCH   1   8
ATOM      8  C   UNL     1      20.207  19.579  21.036  1.00  0.00     0.000 C 
BRANCH   8   9
ATOM      9  C   UNL     1      21.696  19.568  21.425  1.00  0.00    -0.000 C 
BRANCH   9  10
ATOM     10  C   UNL     1      21.916  19.852  22.920  1.00  0.00    -0.003 C 
ATOM     11  C   UNL     1      20.912  19.128  23.816  1.00  0.00     0.004 C 
ENDBRANCH   9  10
ENDBRANCH   8   9
ENDBRANCH   1   8
TORSDOF 6
ENDMDL
MODEL 2
REMARK VINA RESULT:    -4.053      0.804      2.637
REMARK INTER + INTRA:          -6.090
REMARK INTER:                  -5.528
REMARK INTRA:                  -0.562
REMARK UNBOUND:                -0.616
REMARK SMILES CCCCCCC=CC(=O)[O-]
REMARK SMILES IDX 5 1 6 2 7 3 8 4 9 5 10 6 11 7 4 8 3 9 2 10 1 11
REMARK H PARENT
REMARK Flexibility Score: inf
ROOT
ATOM      1  C   UNL     1      21.791  19.713  22.922  1.00  0.00     0.004 C 
ENDROOT
BRANCH   1   2
ATOM      2  C   UNL     1      20.513  19.258  23.643  1.00  0.00     0.027 C 
BRANCH   2   3
ATOM      3  C   UNL     1      19.955  20.357  24.500  1.00  0.00    -0.025 C 
ATOM      4  C   UNL     1      18.732  20.856  24.287  1.00  0.00     0.020 C 
BRANCH   4   5
ATOM      5  C   UNL     1      18.178  21.941  25.110  1.00  0.00     0.064 C 
ATOM      6  O   UNL     1      18.898  22.933  25.398  1.00  0.00    -0.545 OA
ATOM      7  O   UNL     1      16.869  21.890  25.576  1.00  0.00    -0.545 OA
ENDBRANCH   4   5
ENDBRANCH   2   3
ENDBRANCH   1   2
BRANCH   1   8
ATOM      8  C   UNL     1      21.648  19.695  21.392  1.00  0.00     0.000 C 
BRANCH   8   9
ATOM      9  C   UNL     1      20.186  19.849  20.936  1.00  0.00    -0.000 C 
BRANCH   9  10
ATOM     10  C   UNL     1      19.781  21.319  20.743  1.00  0.00    -0.003 C 
ATOM     11  C   UNL     1      18.294  21.490  20.439  1.00  0.00     0.004 C 
ENDBRANCH   9  10
ENDBRANCH   8   9
ENDBRANCH   1   8
TORSDOF 6
ENDMDL
MODEL 3
REMARK VINA RESULT:    -3.812      2.953      5.054
REMARK INTER + INTRA:          -5.765
REMARK INTER:                  -5.053
REMARK INTRA:                  -0.712
REMARK UNBOUND:                -0.616
REMARK SMILES CCCCCCC=CC(=O)[O-]
REMARK SMILES IDX 5 1 6 2 7 3 8 4 9 5 10 6 11 7 4 8 3 9 2 10 1 11
REMARK H PARENT
REMARK Flexibility Score: inf
ROOT
ATOM      1  C   UNL     1      19.527  20.455  25.502  1.00  0.00     0.004 C 
ENDROOT
BRANCH   1   2
ATOM      2  C   UNL     1      19.535  19.021  24.949  1.00  0.00     0.027 C 
BRANCH   2   3
ATOM      3  C   UNL     1      20.238  18.956  23.624  1.00  0.00    -0.025 C 
ATOM      4  C   UNL     1      21.111  19.898  23.249  1.00  0.00     0.020 C 
BRANCH   4   5
ATOM      5  C   UNL     1      21.797  19.854  21.950  1.00  0.00     0.064 C 
ATOM      6  O   UNL     1      23.052  19.954  21.906  1.00  0.00    -0.545 OA
ATOM      7  O   UNL     1      21.083  19.703  20.767  1.00  0.00    -0.545 OA
ENDBRANCH   4   5
ENDBRANCH   2   3
ENDBRANCH   1   2
BRANCH   1   8
ATOM      8  C   UNL     1      18.174  21.157  25.311  1.00  0.00     0.000 C 
BRANCH   8   9
ATOM      9  C   UNL     1      18.268  22.372  24.372  1.00  0.00    -0.000 C 
BRANCH   9  10
ATOM     10  C   UNL     1      17.383  22.221  23.124  1.00  0.00    -0.003 C 
ATOM     11  C   UNL     1      18.110  21.550  21.959  1.00  0.00     0.004 C 
ENDBRANCH   9  10
ENDBRANCH   8   9
ENDBRANCH   1   8
TORSDOF 6
ENDMDL
MODEL 4
REMARK VINA RESULT:    -3.810     13.449     14.541
REMARK INTER + INTRA:          -5.761
REMARK INTER:                  -5.449
REMARK INTRA:                  -0.313
REMARK UNBOUND:                -0.616
REMARK SMILES CCCCCCC=CC(=O)[O-]
REMARK SMILES IDX 5 1 6 2 7 3 8 4 9 5 10 6 11 7 4 8 3 9 2 10 1 11
REMARK H PARENT
REMARK Flexibility Score: inf
ROOT
ATOM      1  C   UNL     1      21.161  30.479  33.995  1.00  0.00     0.004 C 
ENDROOT
BRANCH   1   2
ATOM      2  C   UNL     1      20.137  29.485  34.565  1.00  0.00     0.027 C 
BRANCH   2   3
ATOM      3  C   UNL     1      20.805  28.217  35.012  1.00  0.00    -0.025 C 
ATOM      4  C   UNL     1      21.847  27.705  34.348  1.00  0.00     0.020 C 
BRANCH   4   5
ATOM      5  C   UNL     1      22.502  26.457  34.766  1.00  0.00     0.064 C 
ATOM      6  O   UNL     1      22.806  25.595  33.900  1.00  0.00    -0.545 OA
ATOM      7  O   UNL     1      22.792  26.213  36.103  1.00  0.00    -0.545 OA
ENDBRANCH   4   5
ENDBRANCH   2   3
ENDBRANCH   1   2
BRANCH   1   8
ATOM      8  C   UNL     1      20.521  31.809  33.566  1.00  0.00     0.000 C 
BRANCH   8   9
ATOM      9  C   UNL     1      19.297  31.607  32.656  1.00  0.00    -0.000 C 
BRANCH   9  10
ATOM     10  C   UNL     1      19.448  32.316  31.300  1.00  0.00    -0.003 C 
ATOM     11  C   UNL     1      20.907  32.522  30.898  1.00  0.00     0.004 C 
ENDBRANCH   9  10
ENDBRANCH   8   9
ENDBRANCH   1   8
TORSDOF 6
ENDMDL
MODEL 5
REMARK VINA RESULT:    -3.790     13.181     14.308
REMARK INTER + INTRA:          -5.736
REMARK INTER:                  -5.520
REMARK INTRA:                  -0.216
REMARK UNBOUND:                -0.616
REMARK SMILES CCCCCCC=CC(=O)[O-]
REMARK SMILES IDX 5 1 6 2 7 3 8 4 9 5 10 6 11 7 4 8 3 9 2 10 1 11
REMARK H PARENT
REMARK Flexibility Score: inf
ROOT
ATOM      1  C   UNL     1      20.750  31.501  33.253  1.00  0.00     0.004 C 
ENDROOT
BRANCH   1   2
ATOM      2  C   UNL     1      19.503  31.859  32.430  1.00  0.00     0.027 C 
BRANCH   2   3
ATOM      3  C   UNL     1      19.879  32.507  31.129  1.00  0.00    -0.025 C 
ATOM      4  C   UNL     1      21.116  32.404  30.630  1.00  0.00     0.020 C 
BRANCH   4   5
ATOM      5  C   UNL     1      21.502  33.045  29.364  1.00  0.00     0.064 C 
ATOM      6  O   UNL     1      21.495  34.301  29.276  1.00  0.00    -0.545 OA
ATOM      7  O   UNL     1      21.875  32.285  28.262  1.00  0.00    -0.545 OA
ENDBRANCH   4   5
ENDBRANCH   2   3
ENDBRANCH   1   2
BRANCH   1   8
ATOM      8  C   UNL     1      20.475  30.417  34.307  1.00  0.00     0.000 C 
BRANCH   8   9
ATOM      9  C   UNL     1      21.489  29.262  34.242  1.00  0.00    -0.000 C 
BRANCH   9  10
ATOM     10  C   UNL     1      20.938  27.961  34.849  1.00  0.00    -0.003 C 
ATOM     11  C   UNL     1      21.595  26.710  34.266  1.00  0.00     0.004 C 
ENDBRANCH   9  10
ENDBRANCH   8   9
ENDBRANCH   1   8
TORSDOF 6
ENDMDL
MODEL 6
REMARK VINA RESULT:    -3.787     14.895     15.940
REMARK INTER + INTRA:          -5.731
REMARK INTER:                  -5.476
REMARK INTRA:                  -0.255
REMARK UNBOUND:                -0.616
REMARK SMILES CCCCCCC=CC(=O)[O-]
REMARK SMILES IDX 5 1 6 2 7 3 8 4 9 5 10 6 11 7 4 8 3 9 2 10 1 11
REMARK H PARENT
REMARK Flexibility Score: inf
ROOT
ATOM      1  C   UNL     1      29.361  31.965  17.743  1.00  0.00     0.004 C 
ENDROOT
BRANCH   1   2
ATOM      2  C   UNL     1      30.284  31.299  18.775  1.00  0.00     0.027 C 
BRANCH   2   3
ATOM      3  C   UNL     1      30.664  32.262  19.862  1.00  0.00    -0.025 C 
ATOM      4  C   UNL     1      31.854  32.195  20.471  1.00  0.00     0.020 C 
BRANCH   4   5
ATOM      5  C   UNL     1      32.234  33.123  21.546  1.00  0.00     0.064 C 
ATOM      6  O   UNL     1      31.992  34.352  21.421  1.00  0.00    -0.545 OA
ATOM      7  O   UNL     1      32.858  32.664  22.700  1.00  0.00    -0.545 OA
ENDBRANCH   4   5
ENDBRANCH   2   3
ENDBRANCH   1   2
BRANCH   1   8
ATOM      8  C   UNL     1      27.891  31.545  17.904  1.00  0.00     0.000 C 
BRANCH   8   9
ATOM      9  C   UNL     1      27.737  30.043  18.196  1.00  0.00    -0.000 C 
BRANCH   9  10
ATOM     10  C   UNL     1      27.488  29.217  16.923  1.00  0.00    -0.003 C 
ATOM     11  C   UNL     1      26.043  28.733  16.804  1.00  0.00     0.004 C 
ENDBRANCH   9  10
ENDBRANCH   8   9
ENDBRANCH   1   8
TORSDOF 6
ENDMDL
MODEL 7
REMARK VINA RESULT:    -3.787     14.619     15.688
REMARK INTER + INTRA:          -5.731
REMARK INTER:                  -5.431
REMARK INTRA:                  -0.300
REMARK UNBOUND:                -0.616
REMARK SMILES CCCCCCC=CC(=O)[O-]
REMARK SMILES IDX 5 1 6 2 7 3 8 4 9 5 10 6 11 7 4 8 3 9 2 10 1 11
REMARK H PARENT
REMARK Flexibility Score: inf
ROOT
ATOM      1  C   UNL     1      28.531  31.121  18.550  1.00  0.00     0.004 C 
ENDROOT
BRANCH   1   2
ATOM      2  C   UNL     1      29.954  31.357  18.019  1.00  0.00     0.027 C 
BRANCH   2   3
ATOM      3  C   UNL     1      30.910  31.639  19.142  1.00  0.00    -0.025 C 
ATOM      4  C   UNL     1      30.696  32.635  20.008  1.00  0.00     0.020 C 
BRANCH   4   5
ATOM      5  C   UNL     1      31.630  32.931  21.104  1.00  0.00     0.064 C 
ATOM      6  O   UNL     1      32.117  31.985  21.778  1.00  0.00    -0.545 OA
ATOM      7  O   UNL     1      31.985  34.240  21.409  1.00  0.00    -0.545 OA
ENDBRANCH   4   5
ENDBRANCH   2   3
ENDBRANCH   1   2
BRANCH   1   8
ATOM      8  C   UNL     1      27.449  31.692  17.621  1.00  0.00     0.000 C 
BRANCH   8   9
ATOM      9  C   UNL     1      26.288  30.708  17.394  1.00  0.00    -0.000 C 
BRANCH   9  10
ATOM     10  C   UNL     1      26.751  29.242  17.389  1.00  0.00    -0.003 C 
ATOM     11  C   UNL     1      27.422  28.836  16.078  1.00  0.00     0.004 C 
ENDBRANCH   9  10
ENDBRANCH   8   9
ENDBRANCH   1   8
TORSDOF 6
ENDMDL
MODEL 8
REMARK VINA RESULT:    -3.755      2.339      4.233
REMARK INTER + INTRA:          -5.688
REMARK INTER:                  -5.075
REMARK INTRA:                  -0.613
REMARK UNBOUND:                -0.616
REMARK SMILES CCCCCCC=CC(=O)[O-]
REMARK SMILES IDX 5 1 6 2 7 3 8 4 9 5 10 6 11 7 4 8 3 9 2 10 1 11
REMARK H PARENT
REMARK Flexibility Score: inf
ROOT
ATOM      1  C   UNL     1      17.283  21.144  20.789  1.00  0.00     0.004 C 
ENDROOT
BRANCH   1   2
ATOM      2  C   UNL     1      18.538  21.394  19.938  1.00  0.00     0.027 C 
BRANCH   2   3
ATOM      3  C   UNL     1      19.784  21.303  20.771  1.00  0.00    -0.025 C 
ATOM      4  C   UNL     1      20.162  20.152  21.338  1.00  0.00     0.020 C 
BRANCH   4   5
ATOM      5  C   UNL     1      21.372  20.050  22.167  1.00  0.00     0.064 C 
ATOM      6  O   UNL     1      22.485  19.833  21.618  1.00  0.00    -0.545 OA
ATOM      7  O   UNL     1      21.309  20.191  23.548  1.00  0.00    -0.545 OA
ENDBRANCH   4   5
ENDBRANCH   2   3
ENDBRANCH   1   2
BRANCH   1   8
ATOM      8  C   UNL     1      16.963  22.313  21.732  1.00  0.00     0.000 C 
BRANCH   8   9
ATOM      9  C   UNL     1      16.958  21.891  23.212  1.00  0.00    -0.000 C 
BRANCH   9  10
ATOM     10  C   UNL     1      18.166  22.444  23.986  1.00  0.00    -0.003 C 
ATOM     11  C   UNL     1      18.559  21.569  25.175  1.00  0.00     0.004 C 
ENDBRANCH   9  10
ENDBRANCH   8   9
ENDBRANCH   1   8
TORSDOF 6
ENDMDL
MODEL 9
REMARK VINA RESULT:    -3.751     15.098     16.010
REMARK INTER + INTRA:          -5.683
REMARK INTER:                  -5.497
REMARK INTRA:                  -0.186
REMARK UNBOUND:                -0.616
REMARK SMILES CCCCCCC=CC(=O)[O-]
REMARK SMILES IDX 5 1 6 2 7 3 8 4 9 5 10 6 11 7 4 8 3 9 2 10 1 11
REMARK H PARENT
REMARK Flexibility Score: inf
ROOT
ATOM      1  C   UNL     1      30.856  32.916  19.194  1.00  0.00     0.004 C 
ENDROOT
BRANCH   1   2
ATOM      2  C   UNL     1      30.459  31.455  18.931  1.00  0.00     0.027 C 
BRANCH   2   3
ATOM      3  C   UNL     1      29.003  31.344  18.585  1.00  0.00    -0.025 C 
ATOM      4  C   UNL     1      28.483  30.208  18.106  1.00  0.00     0.020 C 
BRANCH   4   5
ATOM      5  C   UNL     1      27.062  30.089  17.750  1.00  0.00     0.064 C 
ATOM      6  O   UNL     1      26.414  31.119  17.427  1.00  0.00    -0.545 OA
ATOM      7  O   UNL     1      26.421  28.856  17.765  1.00  0.00    -0.545 OA
ENDBRANCH   4   5
ENDBRANCH   2   3
ENDBRANCH   1   2
BRANCH   1   8
ATOM      8  C   UNL     1      31.011  33.229  20.691  1.00  0.00     0.000 C 
BRANCH   8   9
ATOM      9  C   UNL     1      32.191  32.476  21.331  1.00  0.00    -0.000 C 
BRANCH   9  10
ATOM     10  C   UNL     1      33.224  33.425  21.958  1.00  0.00    -0.003 C 
ATOM     11  C   UNL     1      34.377  32.684  22.634  1.00  0.00     0.004 C 
ENDBRANCH   9  10
ENDBRANCH   8   9
ENDBRANCH   1   8
TORSDOF 6
ENDMDL
