MODEL 1
REMARK VINA RESULT:    -3.865      0.000      0.000
REMARK INTER + INTRA:          -7.576
REMARK INTER:                  -6.125
REMARK INTRA:                  -1.451
REMARK UNBOUND:                -1.451
REMARK SMILES CCCCCCCCCCCC(=O)[O-]
REMARK SMILES IDX 7 1 8 2 9 3 10 4 11 5 12 6 13 7 14 8 6 9 5 10 4 11 3 12 2 13
REMARK SMILES IDX 1 14
REMARK H PARENT
REMARK Flexibility Score: inf
ROOT
ATOM      1  C   UNL     1     -13.705 -16.603  19.649  1.00  0.00     0.000 C 
ENDROOT
BRANCH   1   2
ATOM      2  C   UNL     1     -14.676 -15.446  19.358  1.00  0.00     0.000 C 
BRANCH   2   3
ATOM      3  C   UNL     1     -13.946 -14.139  19.008  1.00  0.00     0.000 C 
BRANCH   3   4
ATOM      4  C   UNL     1     -12.421 -14.243  19.188  1.00  0.00     0.006 C 
BRANCH   4   5
ATOM      5  C   UNL     1     -11.751 -12.864  19.245  1.00  0.00     0.053 C 
BRANCH   5   6
ATOM      6  C   UNL     1     -11.565 -12.280  17.877  1.00  0.00     0.041 C 
ATOM      7  O   UNL     1     -10.905 -12.906  17.006  1.00  0.00    -0.550 OA
ATOM      8  O   UNL     1     -12.089 -11.030  17.576  1.00  0.00    -0.550 OA
ENDBRANCH   5   6
ENDBRANCH   4   5
ENDBRANCH   3   4
ENDBRANCH   2   3
ENDBRANCH   1   2
BRANCH   1   9
ATOM      9  C   UNL     1     -13.887 -17.196  21.059  1.00  0.00     0.000 C 
BRANCH   9  10
ATOM     10  C   UNL     1     -14.313 -16.188  22.147  1.00  0.00    -0.000 C 
BRANCH  10  11
ATOM     11  C   UNL     1     -13.157 -15.432  22.827  1.00  0.00    -0.000 C 
BRANCH  11  12
ATOM     12  C   UNL     1     -13.202 -13.919  22.571  1.00  0.00    -0.000 C 
BRANCH  12  13
ATOM     13  C   UNL     1     -14.586 -13.348  22.904  1.00  0.00    -0.003 C 
ATOM     14  C   UNL     1     -14.909 -12.140  22.028  1.00  0.00     0.004 C 
ENDBRANCH  12  13
ENDBRANCH  11  12
ENDBRANCH  10  11
ENDBRANCH   9  10
ENDBRANCH   1   9
TORSDOF 10
ENDMDL
MODEL 2
REMARK VINA RESULT:    -3.858      1.054      3.203
REMARK INTER + INTRA:          -7.565
REMARK INTER:                  -6.437
REMARK INTRA:                  -1.128
REMARK UNBOUND:                -1.451
REMARK SMILES CCCCCCCCCCCC(=O)[O-]
REMARK SMILES IDX 7 1 8 2 9 3 10 4 11 5 12 6 13 7 14 8 6 9 5 10 4 11 3 12 2 13
REMARK SMILES IDX 1 14
REMARK H PARENT
REMARK Flexibility Score: inf
ROOT
ATOM      1  C   UNL     1     -14.873 -13.242  22.819  1.00  0.00     0.000 C 
ENDROOT
BRANCH   1   2
ATOM      2  C   UNL     1     -14.911 -12.120  21.768  1.00  0.00     0.000 C 
BRANCH   2   3
ATOM      3  C   UNL     1     -14.980 -12.662  20.331  1.00  0.00     0.000 C 
BRANCH   3   4
ATOM      4  C   UNL     1     -13.589 -12.843  19.696  1.00  0.00     0.006 C 
BRANCH   4   5
ATOM      5  C   UNL     1     -13.454 -12.079  18.373  1.00  0.00     0.053 C 
BRANCH   5   6
ATOM      6  C   UNL     1     -12.024 -11.767  18.055  1.00  0.00     0.041 C 
ATOM      7  O   UNL     1     -11.742 -10.850  17.240  1.00  0.00    -0.550 OA
ATOM      8  O   UNL     1     -11.003 -12.513  18.631  1.00  0.00    -0.550 OA
ENDBRANCH   5   6
ENDBRANCH   4   5
ENDBRANCH   3   4
ENDBRANCH   2   3
ENDBRANCH   1   2
BRANCH   1   9
ATOM      9  C   UNL     1     -13.439 -13.660  23.195  1.00  0.00     0.000 C 
BRANCH   9  10
ATOM     10  C   UNL     1     -13.036 -15.087  22.769  1.00  0.00    -0.000 C 
BRANCH  10  11
ATOM     11  C   UNL     1     -14.204 -16.079  22.620  1.00  0.00    -0.000 C 
BRANCH  11  12
ATOM     12  C   UNL     1     -14.021 -17.042  21.439  1.00  0.00    -0.000 C 
BRANCH  12  13
ATOM     13  C   UNL     1     -14.558 -16.426  20.141  1.00  0.00    -0.003 C 
ATOM     14  C   UNL     1     -13.535 -16.536  19.014  1.00  0.00     0.004 C 
ENDBRANCH  12  13
ENDBRANCH  11  12
ENDBRANCH  10  11
ENDBRANCH   9  10
ENDBRANCH   1   9
TORSDOF 10
ENDMDL
MODEL 3
REMARK VINA RESULT:    -3.764      2.483      4.742
REMARK INTER + INTRA:          -7.415
REMARK INTER:                  -6.383
REMARK INTRA:                  -1.032
REMARK UNBOUND:                -1.451
REMARK SMILES CCCCCCCCCCCC(=O)[O-]
REMARK SMILES IDX 7 1 8 2 9 3 10 4 11 5 12 6 13 7 14 8 6 9 5 10 4 11 3 12 2 13
REMARK SMILES IDX 1 14
REMARK H PARENT
REMARK Flexibility Score: inf
ROOT
ATOM      1  C   UNL     1     -13.360 -15.953  19.148  1.00  0.00     0.000 C 
ENDROOT
BRANCH   1   2
ATOM      2  C   UNL     1     -13.677 -16.860  20.349  1.00  0.00     0.000 C 
BRANCH   2   3
ATOM      3  C   UNL     1     -14.573 -16.168  21.389  1.00  0.00     0.000 C 
BRANCH   3   4
ATOM      4  C   UNL     1     -13.964 -16.182  22.802  1.00  0.00     0.006 C 
BRANCH   4   5
ATOM      5  C   UNL     1     -14.390 -14.961  23.627  1.00  0.00     0.053 C 
BRANCH   5   6
ATOM      6  C   UNL     1     -13.822 -13.690  23.072  1.00  0.00     0.041 C 
ATOM      7  O   UNL     1     -14.583 -12.828  22.558  1.00  0.00    -0.550 OA
ATOM      8  O   UNL     1     -12.450 -13.473  23.089  1.00  0.00    -0.550 OA
ENDBRANCH   5   6
ENDBRANCH   4   5
ENDBRANCH   3   4
ENDBRANCH   2   3
ENDBRANCH   1   2
BRANCH   1   9
ATOM      9  C   UNL     1     -14.183 -14.651  19.149  1.00  0.00     0.000 C 
BRANCH   9  10
ATOM     10  C   UNL     1     -13.363 -13.355  19.312  1.00  0.00    -0.000 C 
BRANCH  10  11
ATOM     11  C   UNL     1     -11.905 -13.555  19.765  1.00  0.00    -0.000 C 
BRANCH  11  12
ATOM     12  C   UNL     1     -10.915 -12.665  19.001  1.00  0.00    -0.000 C 
BRANCH  12  13
ATOM     13  C   UNL     1     -11.385 -12.433  17.560  1.00  0.00    -0.003 C 
ATOM     14  C   UNL     1     -11.654 -10.954  17.298  1.00  0.00     0.004 C 
ENDBRANCH  12  13
ENDBRANCH  11  12
ENDBRANCH  10  11
ENDBRANCH   9  10
ENDBRANCH   1   9
TORSDOF 10
ENDMDL
MODEL 4
REMARK VINA RESULT:    -3.682      2.789      5.309
REMARK INTER + INTRA:          -7.286
REMARK INTER:                  -6.377
REMARK INTRA:                  -0.909
REMARK UNBOUND:                -1.451
REMARK SMILES CCCCCCCCCCCC(=O)[O-]
REMARK SMILES IDX 7 1 8 2 9 3 10 4 11 5 12 6 13 7 14 8 6 9 5 10 4 11 3 12 2 13
REMARK SMILES IDX 1 14
REMARK H PARENT
REMARK Flexibility Score: inf
ROOT
ATOM      1  C   UNL     1     -14.849 -12.374  21.266  1.00  0.00     0.000 C 
ENDROOT
BRANCH   1   2
ATOM      2  C   UNL     1     -14.197 -12.976  22.522  1.00  0.00     0.000 C 
BRANCH   2   3
ATOM      3  C   UNL     1     -12.907 -13.750  22.202  1.00  0.00     0.000 C 
BRANCH   3   4
ATOM      4  C   UNL     1     -12.854 -15.126  22.890  1.00  0.00     0.006 C 
BRANCH   4   5
ATOM      5  C   UNL     1     -14.178 -15.888  22.762  1.00  0.00     0.053 C 
BRANCH   5   6
ATOM      6  C   UNL     1     -14.197 -16.771  21.551  1.00  0.00     0.041 C 
ATOM      7  O   UNL     1     -13.454 -16.512  20.568  1.00  0.00    -0.550 OA
ATOM      8  O   UNL     1     -15.059 -17.858  21.495  1.00  0.00    -0.550 OA
ENDBRANCH   5   6
ENDBRANCH   4   5
ENDBRANCH   3   4
ENDBRANCH   2   3
ENDBRANCH   1   2
BRANCH   1   9
ATOM      9  C   UNL     1     -15.125 -13.425  20.174  1.00  0.00     0.000 C 
BRANCH   9  10
ATOM     10  C   UNL     1     -14.706 -13.016  18.747  1.00  0.00    -0.000 C 
BRANCH  10  11
ATOM     11  C   UNL     1     -13.463 -12.111  18.664  1.00  0.00    -0.000 C 
BRANCH  11  12
ATOM     12  C   UNL     1     -12.150 -12.905  18.619  1.00  0.00    -0.000 C 
BRANCH  12  13
ATOM     13  C   UNL     1     -11.078 -12.147  17.825  1.00  0.00    -0.003 C 
ATOM     14  C   UNL     1     -11.635 -10.851  17.244  1.00  0.00     0.004 C 
ENDBRANCH  12  13
ENDBRANCH  11  12
ENDBRANCH  10  11
ENDBRANCH   9  10
ENDBRANCH   1   9
TORSDOF 10
ENDMDL
MODEL 5
REMARK VINA RESULT:    -3.661      2.011      4.629
REMARK INTER + INTRA:          -7.253
REMARK INTER:                  -6.304
REMARK INTRA:                  -0.949
REMARK UNBOUND:                -1.451
REMARK SMILES CCCCCCCCCCCC(=O)[O-]
REMARK SMILES IDX 7 1 8 2 9 3 10 4 11 5 12 6 13 7 14 8 6 9 5 10 4 11 3 12 2 13
REMARK SMILES IDX 1 14
REMARK H PARENT
REMARK Flexibility Score: inf
ROOT
ATOM      1  C   UNL     1     -13.615 -13.348  22.680  1.00  0.00     0.000 C 
ENDROOT
BRANCH   1   2
ATOM      2  C   UNL     1     -13.916 -14.576  23.556  1.00  0.00     0.000 C 
BRANCH   2   3
ATOM      3  C   UNL     1     -13.620 -15.901  22.835  1.00  0.00     0.000 C 
BRANCH   3   4
ATOM      4  C   UNL     1     -14.708 -16.279  21.815  1.00  0.00     0.006 C 
BRANCH   4   5
ATOM      5  C   UNL     1     -14.129 -17.016  20.600  1.00  0.00     0.053 C 
BRANCH   5   6
ATOM      6  C   UNL     1     -13.880 -16.085  19.452  1.00  0.00     0.041 C 
ATOM      7  O   UNL     1     -12.701 -15.789  19.122  1.00  0.00    -0.550 OA
ATOM      8  O   UNL     1     -14.949 -15.518  18.771  1.00  0.00    -0.550 OA
ENDBRANCH   5   6
ENDBRANCH   4   5
ENDBRANCH   3   4
ENDBRANCH   2   3
ENDBRANCH   1   2
BRANCH   1   9
ATOM      9  C   UNL     1     -14.888 -12.697  22.106  1.00  0.00     0.000 C 
BRANCH   9  10
ATOM     10  C   UNL     1     -14.826 -12.340  20.607  1.00  0.00    -0.000 C 
BRANCH  10  11
ATOM     11  C   UNL     1     -13.463 -12.582  19.932  1.00  0.00    -0.000 C 
BRANCH  11  12
ATOM     12  C   UNL     1     -13.435 -12.129  18.466  1.00  0.00    -0.000 C 
BRANCH  12  13
ATOM     13  C   UNL     1     -12.003 -12.135  17.918  1.00  0.00    -0.003 C 
ATOM     14  C   UNL     1     -11.011 -12.627  18.969  1.00  0.00     0.004 C 
ENDBRANCH  12  13
ENDBRANCH  11  12
ENDBRANCH  10  11
ENDBRANCH   9  10
ENDBRANCH   1   9
TORSDOF 10
ENDMDL
MODEL 6
REMARK VINA RESULT:    -3.379      1.314      2.907
REMARK INTER + INTRA:          -6.805
REMARK INTER:                  -5.713
REMARK INTRA:                  -1.092
REMARK UNBOUND:                -1.451
REMARK SMILES CCCCCCCCCCCC(=O)[O-]
REMARK SMILES IDX 7 1 8 2 9 3 10 4 11 5 12 6 13 7 14 8 6 9 5 10 4 11 3 12 2 13
REMARK SMILES IDX 1 14
REMARK H PARENT
REMARK Flexibility Score: inf
ROOT
ATOM      1  C   UNL     1     -12.557 -13.898  21.777  1.00  0.00     0.000 C 
ENDROOT
BRANCH   1   2
ATOM      2  C   UNL     1     -13.787 -13.502  20.943  1.00  0.00     0.000 C 
BRANCH   2   3
ATOM      3  C   UNL     1     -13.661 -13.924  19.470  1.00  0.00     0.000 C 
BRANCH   3   4
ATOM      4  C   UNL     1     -13.989 -12.781  18.494  1.00  0.00     0.006 C 
BRANCH   4   5
ATOM      5  C   UNL     1     -12.864 -11.741  18.423  1.00  0.00     0.053 C 
BRANCH   5   6
ATOM      6  C   UNL     1     -11.520 -12.386  18.272  1.00  0.00     0.041 C 
ATOM      7  O   UNL     1     -10.730 -12.440  19.252  1.00  0.00    -0.550 OA
ATOM      8  O   UNL     1     -11.125 -12.895  17.041  1.00  0.00    -0.550 OA
ENDBRANCH   5   6
ENDBRANCH   4   5
ENDBRANCH   3   4
ENDBRANCH   2   3
ENDBRANCH   1   2
BRANCH   1   9
ATOM      9  C   UNL     1     -12.863 -14.002  23.283  1.00  0.00     0.000 C 
BRANCH   9  10
ATOM     10  C   UNL     1     -14.361 -13.992  23.652  1.00  0.00    -0.000 C 
BRANCH  10  11
ATOM     11  C   UNL     1     -14.925 -15.342  24.133  1.00  0.00    -0.000 C 
BRANCH  11  12
ATOM     12  C   UNL     1     -14.224 -16.545  23.487  1.00  0.00    -0.000 C 
BRANCH  12  13
ATOM     13  C   UNL     1     -15.007 -17.045  22.266  1.00  0.00    -0.003 C 
ATOM     14  C   UNL     1     -14.078 -17.296  21.081  1.00  0.00     0.004 C 
ENDBRANCH  12  13
ENDBRANCH  11  12
ENDBRANCH  10  11
ENDBRANCH   9  10
ENDBRANCH   1   9
TORSDOF 10
ENDMDL
MODEL 7
REMARK VINA RESULT:    -3.223      3.381      5.671
REMARK INTER + INTRA:          -6.559
REMARK INTER:                  -5.996
REMARK INTRA:                  -0.563
REMARK UNBOUND:                -1.451
REMARK SMILES CCCCCCCCCCCC(=O)[O-]
REMARK SMILES IDX 7 1 8 2 9 3 10 4 11 5 12 6 13 7 14 8 6 9 5 10 4 11 3 12 2 13
REMARK SMILES IDX 1 14
REMARK H PARENT
REMARK Flexibility Score: inf
ROOT
ATOM      1  C   UNL     1     -14.722 -15.049  19.739  1.00  0.00     0.000 C 
ENDROOT
BRANCH   1   2
ATOM      2  C   UNL     1     -14.031 -16.359  19.322  1.00  0.00     0.000 C 
BRANCH   2   3
ATOM      3  C   UNL     1     -14.753 -17.604  19.863  1.00  0.00     0.000 C 
BRANCH   3   4
ATOM      4  C   UNL     1     -14.190 -18.078  21.214  1.00  0.00     0.006 C 
BRANCH   4   5
ATOM      5  C   UNL     1     -15.094 -17.684  22.388  1.00  0.00     0.053 C 
BRANCH   5   6
ATOM      6  C   UNL     1     -14.345 -16.914  23.433  1.00  0.00     0.041 C 
ATOM      7  O   UNL     1     -14.421 -17.251  24.644  1.00  0.00    -0.550 OA
ATOM      8  O   UNL     1     -13.592 -15.803  23.074  1.00  0.00    -0.550 OA
ENDBRANCH   5   6
ENDBRANCH   4   5
ENDBRANCH   3   4
ENDBRANCH   2   3
ENDBRANCH   1   2
BRANCH   1   9
ATOM      9  C   UNL     1     -14.322 -13.854  18.854  1.00  0.00     0.000 C 
BRANCH   9  10
ATOM     10  C   UNL     1     -13.289 -12.892  19.474  1.00  0.00    -0.000 C 
BRANCH  10  11
ATOM     11  C   UNL     1     -11.816 -13.270  19.235  1.00  0.00    -0.000 C 
BRANCH  11  12
ATOM     12  C   UNL     1     -11.151 -12.418  18.145  1.00  0.00    -0.000 C 
BRANCH  12  13
ATOM     13  C   UNL     1     -12.117 -11.349  17.620  1.00  0.00    -0.003 C 
ATOM     14  C   UNL     1     -11.364 -10.222  16.917  1.00  0.00     0.004 C 
ENDBRANCH  12  13
ENDBRANCH  11  12
ENDBRANCH  10  11
ENDBRANCH   9  10
ENDBRANCH   1   9
TORSDOF 10
ENDMDL
MODEL 8
REMARK VINA RESULT:    -3.162      1.475      2.146
REMARK INTER + INTRA:          -6.461
REMARK INTER:                  -5.416
REMARK INTRA:                  -1.046
REMARK UNBOUND:                -1.451
REMARK SMILES CCCCCCCCCCCC(=O)[O-]
REMARK SMILES IDX 7 1 8 2 9 3 10 4 11 5 12 6 13 7 14 8 6 9 5 10 4 11 3 12 2 13
REMARK SMILES IDX 1 14
REMARK H PARENT
REMARK Flexibility Score: inf
ROOT
ATOM      1  C   UNL     1     -13.135 -15.129  19.857  1.00  0.00     0.000 C 
ENDROOT
BRANCH   1   2
ATOM      2  C   UNL     1     -13.403 -13.899  20.741  1.00  0.00     0.000 C 
BRANCH   2   3
ATOM      3  C   UNL     1     -14.237 -12.827  20.021  1.00  0.00     0.000 C 
BRANCH   3   4
ATOM      4  C   UNL     1     -13.865 -12.682  18.535  1.00  0.00     0.006 C 
BRANCH   4   5
ATOM      5  C   UNL     1     -12.744 -11.658  18.317  1.00  0.00     0.053 C 
BRANCH   5   6
ATOM      6  C   UNL     1     -11.403 -12.317  18.206  1.00  0.00     0.041 C 
ATOM      7  O   UNL     1     -10.648 -12.388  19.212  1.00  0.00    -0.550 OA
ATOM      8  O   UNL     1     -10.972 -12.821  16.985  1.00  0.00    -0.550 OA
ENDBRANCH   5   6
ENDBRANCH   4   5
ENDBRANCH   3   4
ENDBRANCH   2   3
ENDBRANCH   1   2
BRANCH   1   9
ATOM      9  C   UNL     1     -14.347 -16.076  19.768  1.00  0.00     0.000 C 
BRANCH   9  10
ATOM     10  C   UNL     1     -15.125 -16.274  21.086  1.00  0.00    -0.000 C 
BRANCH  10  11
ATOM     11  C   UNL     1     -14.455 -17.213  22.106  1.00  0.00    -0.000 C 
BRANCH  11  12
ATOM     12  C   UNL     1     -14.018 -16.488  23.386  1.00  0.00    -0.000 C 
BRANCH  12  13
ATOM     13  C   UNL     1     -14.929 -15.289  23.675  1.00  0.00    -0.003 C 
ATOM     14  C   UNL     1     -14.271 -14.319  24.652  1.00  0.00     0.004 C 
ENDBRANCH  12  13
ENDBRANCH  11  12
ENDBRANCH  10  11
ENDBRANCH   9  10
ENDBRANCH   1   9
TORSDOF 10
ENDMDL
MODEL 9
REMARK VINA RESULT:    -3.006     21.301     24.154
REMARK INTER + INTRA:          -6.214
REMARK INTER:                  -5.204
REMARK INTRA:                  -1.010
REMARK UNBOUND:                -1.451
REMARK SMILES CCCCCCCCCCCC(=O)[O-]
REMARK SMILES IDX 7 1 8 2 9 3 10 4 11 5 12 6 13 7 14 8 6 9 5 10 4 11 3 12 2 13
REMARK SMILES IDX 1 14
REMARK H PARENT
REMARK Flexibility Score: inf
ROOT
ATOM      1  C   UNL     1       4.217  -1.323   8.812  1.00  0.00     0.000 C 
ENDROOT
BRANCH   1   2
ATOM      2  C   UNL     1       5.071  -2.417   9.475  1.00  0.00     0.000 C 
BRANCH   2   3
ATOM      3  C   UNL     1       5.118  -2.281  11.006  1.00  0.00     0.000 C 
BRANCH   3   4
ATOM      4  C   UNL     1       3.718  -2.285  11.646  1.00  0.00     0.006 C 
BRANCH   4   5
ATOM      5  C   UNL     1       3.072  -3.675  11.613  1.00  0.00     0.053 C 
BRANCH   5   6
ATOM      6  C   UNL     1       3.991  -4.729  12.151  1.00  0.00     0.041 C 
ATOM      7  O   UNL     1       4.745  -5.369  11.372  1.00  0.00    -0.550 OA
ATOM      8  O   UNL     1       3.989  -5.028  13.508  1.00  0.00    -0.550 OA
ENDBRANCH   5   6
ENDBRANCH   4   5
ENDBRANCH   3   4
ENDBRANCH   2   3
ENDBRANCH   1   2
BRANCH   1   9
ATOM      9  C   UNL     1       5.059  -0.306   8.019  1.00  0.00     0.000 C 
BRANCH   9  10
ATOM     10  C   UNL     1       4.892   1.166   8.451  1.00  0.00    -0.000 C 
BRANCH  10  11
ATOM     11  C   UNL     1       4.163   1.375   9.791  1.00  0.00    -0.000 C 
BRANCH  11  12
ATOM     12  C   UNL     1       5.125   1.621  10.961  1.00  0.00    -0.000 C 
BRANCH  12  13
ATOM     13  C   UNL     1       4.370   1.649  12.296  1.00  0.00    -0.003 C 
ATOM     14  C   UNL     1       5.010   0.709  13.313  1.00  0.00     0.004 C 
ENDBRANCH  12  13
ENDBRANCH  11  12
ENDBRANCH  10  11
ENDBRANCH   9  10
ENDBRANCH   1   9
TORSDOF 10
ENDMDL
