MODEL 1
REMARK VINA RESULT:    -3.238      0.000      0.000
REMARK INTER + INTRA:          -5.185
REMARK INTER:                  -4.942
REMARK INTRA:                  -0.243
REMARK UNBOUND:                -0.243
REMARK SMILES CC1=CCC[C@@H](C)C(=O)C[C@H](C(C)C)C(=O)C1
REMARK SMILES IDX 8 1 9 2 6 3 7 4 5 5 4 6 3 7 2 8 1 9 10 11 11 12 15 13 16 14
REMARK SMILES IDX 17 15 12 17 13 18 14 19
REMARK H PARENT
REMARK Flexibility Score: 70.00
ROOT
ATOM      1  C   UNL     1     -28.753 -17.630  20.978  1.00  0.00     0.136 C 
ATOM      2  O   UNL     1     -28.403 -18.525  20.218  1.00  0.00    -0.299 OA
ENDROOT
BRANCH   1   3
ATOM      3  C   UNL     1     -27.724 -16.704  21.606  1.00  0.00     0.053 C 
ATOM      4  C   UNL     1     -27.072 -15.765  20.585  1.00  0.00     0.016 C 
BRANCH   3   5
ATOM      5  C   UNL     1     -26.666 -17.489  22.410  1.00  0.00     0.015 C 
BRANCH   5   6
ATOM      6  C   UNL     1     -27.131 -17.907  23.814  1.00  0.00     0.028 C 
BRANCH   6   7
ATOM      7  C   UNL     1     -27.788 -16.738  24.504  1.00  0.00    -0.028 C 
ATOM      8  C   UNL     1     -29.085 -16.675  24.859  1.00  0.00    -0.070 CG0
ATOM      9  C   UNL     1     -29.638 -15.345  25.337  1.00  0.00     0.039 C 
ATOM     10  G   UNL     1     -30.012 -17.879  24.757  1.00  0.00     0.000 G0
ENDBRANCH   6   7
ENDBRANCH   5   6
ENDBRANCH   3   5
ENDBRANCH   1   3
BRANCH   1  11
ATOM     11  C   UNL     1     -30.226 -17.446  21.244  1.00  0.00     0.087 C 
BRANCH  11  12
ATOM     12  C   UNL     1     -30.771 -18.460  22.297  1.00  0.00     0.066 C 
BRANCH  12  13
ATOM     13  C   UNL     1     -31.024 -17.786  23.642  1.00  0.00     0.140 C 
ATOM     14  O   UNL     1     -32.060 -17.153  23.820  1.00  0.00    -0.299 OA
BRANCH  13  15
ATOM     15  C   UNL     1     -30.030 -17.892  24.776  1.00  0.00     0.106 CG0
ATOM     16  G   UNL     1     -29.106 -16.683  24.836  1.00  0.00     0.000 G0
ENDBRANCH  13  15
ENDBRANCH  12  13
BRANCH  12  17
ATOM     17  C   UNL     1     -32.029 -19.221  21.771  1.00  0.00    -0.006 C 
ATOM     18  C   UNL     1     -32.338 -20.518  22.542  1.00  0.00     0.008 C 
ATOM     19  C   UNL     1     -31.933 -19.509  20.260  1.00  0.00     0.008 C 
ENDBRANCH  12  17
ENDBRANCH  11  12
ENDBRANCH   1  11
TORSDOF 1
ENDMDL
MODEL 2
REMARK VINA RESULT:    -2.937      3.075      4.808
REMARK INTER + INTRA:          -4.725
REMARK INTER:                  -4.550
REMARK INTRA:                  -0.175
REMARK UNBOUND:                -0.243
REMARK SMILES CC1=CCC[C@@H](C)C(=O)C[C@H](C(C)C)C(=O)C1
REMARK SMILES IDX 8 1 9 2 6 3 7 4 5 5 4 6 3 7 2 8 1 9 10 11 11 12 15 13 16 14
REMARK SMILES IDX 17 15 12 17 13 18 14 19
REMARK H PARENT
REMARK Flexibility Score: 70.00
ROOT
ATOM      1  C   UNL     1     -29.249 -17.273  25.748  1.00  0.00     0.136 C 
ATOM      2  O   UNL     1     -28.346 -17.979  25.314  1.00  0.00    -0.299 OA
ENDROOT
BRANCH   1   3
ATOM      3  C   UNL     1     -29.642 -17.339  27.214  1.00  0.00     0.053 C 
ATOM      4  C   UNL     1     -30.546 -18.535  27.533  1.00  0.00     0.016 C 
BRANCH   3   5
ATOM      5  C   UNL     1     -30.268 -16.012  27.696  1.00  0.00     0.015 C 
BRANCH   5   6
ATOM      6  C   UNL     1     -31.715 -16.149  28.198  1.00  0.00     0.028 C 
BRANCH   6   7
ATOM      7  C   UNL     1     -32.476 -14.878  27.917  1.00  0.00    -0.028 C 
ATOM      8  C   UNL     1     -33.166 -14.619  26.792  1.00  0.00    -0.070 CG0
ATOM      9  C   UNL     1     -33.684 -13.210  26.571  1.00  0.00     0.039 C 
ATOM     10  G   UNL     1     -33.404 -15.680  25.725  1.00  0.00     0.000 G0
ENDBRANCH   6   7
ENDBRANCH   5   6
ENDBRANCH   3   5
ENDBRANCH   1   3
BRANCH   1  11
ATOM     11  C   UNL     1     -29.930 -16.313  24.805  1.00  0.00     0.087 C 
BRANCH  11  12
ATOM     12  C   UNL     1     -31.373 -16.773  24.428  1.00  0.00     0.066 C 
BRANCH  12  13
ATOM     13  C   UNL     1     -32.384 -15.646  24.609  1.00  0.00     0.140 C 
ATOM     14  O   UNL     1     -32.379 -14.695  23.833  1.00  0.00    -0.299 OA
BRANCH  13  15
ATOM     15  C   UNL     1     -33.410 -15.678  25.718  1.00  0.00     0.106 CG0
ATOM     16  G   UNL     1     -33.140 -14.614  26.773  1.00  0.00     0.000 G0
ENDBRANCH  13  15
ENDBRANCH  12  13
BRANCH  12  17
ATOM     17  C   UNL     1     -31.426 -17.393  22.996  1.00  0.00    -0.006 C 
ATOM     18  C   UNL     1     -31.499 -18.932  22.987  1.00  0.00     0.008 C 
ATOM     19  C   UNL     1     -30.253 -16.911  22.119  1.00  0.00     0.008 C 
ENDBRANCH  12  17
ENDBRANCH  11  12
ENDBRANCH   1  11
TORSDOF 1
ENDMDL
MODEL 3
REMARK VINA RESULT:    -2.774      3.025      4.656
REMARK INTER + INTRA:          -4.477
REMARK INTER:                  -4.496
REMARK INTRA:                   0.020
REMARK UNBOUND:                -0.243
REMARK SMILES CC1=CCC[C@@H](C)C(=O)C[C@H](C(C)C)C(=O)C1
REMARK SMILES IDX 8 1 9 2 6 3 7 4 5 5 4 6 3 7 2 8 1 9 10 11 11 12 15 13 16 14
REMARK SMILES IDX 17 15 12 17 13 18 14 19
REMARK H PARENT
REMARK Flexibility Score: 70.00
ROOT
ATOM      1  C   UNL     1     -30.738 -17.433  24.222  1.00  0.00     0.136 C 
ATOM      2  O   UNL     1     -30.286 -18.226  25.040  1.00  0.00    -0.299 OA
ENDROOT
BRANCH   1   3
ATOM      3  C   UNL     1     -31.401 -16.146  24.680  1.00  0.00     0.053 C 
ATOM      4  C   UNL     1     -30.542 -15.356  25.672  1.00  0.00     0.016 C 
BRANCH   3   5
ATOM      5  C   UNL     1     -32.818 -16.402  25.237  1.00  0.00     0.015 C 
BRANCH   5   6
ATOM      6  C   UNL     1     -33.943 -16.173  24.213  1.00  0.00     0.028 C 
BRANCH   6   7
ATOM      7  C   UNL     1     -33.657 -14.929  23.409  1.00  0.00    -0.028 C 
ATOM      8  C   UNL     1     -33.415 -14.900  22.086  1.00  0.00    -0.070 CG0
ATOM      9  C   UNL     1     -32.922 -13.602  21.471  1.00  0.00     0.039 C 
ATOM     10  G   UNL     1     -33.580 -16.131  21.204  1.00  0.00     0.000 G0
ENDBRANCH   6   7
ENDBRANCH   5   6
ENDBRANCH   3   5
ENDBRANCH   1   3
BRANCH   1  11
ATOM     11  C   UNL     1     -30.583 -17.747  22.755  1.00  0.00     0.087 C 
BRANCH  11  12
ATOM     12  C   UNL     1     -31.953 -18.021  22.059  1.00  0.00     0.066 C 
BRANCH  12  13
ATOM     13  C   UNL     1     -32.297 -16.927  21.053  1.00  0.00     0.140 C 
ATOM     14  O   UNL     1     -31.536 -16.698  20.119  1.00  0.00    -0.299 OA
BRANCH  13  15
ATOM     15  C   UNL     1     -33.571 -16.122  21.171  1.00  0.00     0.106 CG0
ATOM     16  G   UNL     1     -33.397 -14.913  22.083  1.00  0.00     0.000 G0
ENDBRANCH  13  15
ENDBRANCH  12  13
BRANCH  12  17
ATOM     17  C   UNL     1     -32.003 -19.446  21.423  1.00  0.00    -0.006 C 
ATOM     18  C   UNL     1     -32.198 -20.578  22.450  1.00  0.00     0.008 C 
ATOM     19  C   UNL     1     -30.764 -19.728  20.550  1.00  0.00     0.008 C 
ENDBRANCH  12  17
ENDBRANCH  11  12
ENDBRANCH   1  11
TORSDOF 1
ENDMDL
MODEL 4
REMARK VINA RESULT:    -2.750      3.478      5.367
REMARK INTER + INTRA:          -4.440
REMARK INTER:                  -4.364
REMARK INTRA:                  -0.077
REMARK UNBOUND:                -0.243
REMARK SMILES CC1=CCC[C@@H](C)C(=O)C[C@H](C(C)C)C(=O)C1
REMARK SMILES IDX 8 1 9 2 6 3 7 4 5 5 4 6 3 7 2 8 1 9 10 11 11 12 15 13 16 14
REMARK SMILES IDX 17 15 12 17 13 18 14 19
REMARK H PARENT
REMARK Flexibility Score: 70.00
ROOT
ATOM      1  C   UNL     1     -32.058 -18.642  22.752  1.00  0.00     0.136 C 
ATOM      2  O   UNL     1     -30.928 -18.729  23.217  1.00  0.00    -0.299 OA
ENDROOT
BRANCH   1   3
ATOM      3  C   UNL     1     -32.562 -19.668  21.750  1.00  0.00     0.053 C 
ATOM      4  C   UNL     1     -32.175 -21.102  22.126  1.00  0.00     0.016 C 
BRANCH   3   5
ATOM      5  C   UNL     1     -32.123 -19.322  20.311  1.00  0.00     0.015 C 
BRANCH   5   6
ATOM      6  C   UNL     1     -32.886 -18.139  19.692  1.00  0.00     0.028 C 
BRANCH   6   7
ATOM      7  C   UNL     1     -31.945 -16.980  19.479  1.00  0.00    -0.028 C 
ATOM      8  C   UNL     1     -32.068 -15.766  20.048  1.00  0.00    -0.070 CG0
ATOM      9  C   UNL     1     -31.172 -14.645  19.556  1.00  0.00     0.039 C 
ATOM     10  G   UNL     1     -33.100 -15.480  21.132  1.00  0.00     0.000 G0
ENDBRANCH   6   7
ENDBRANCH   5   6
ENDBRANCH   3   5
ENDBRANCH   1   3
BRANCH   1  11
ATOM     11  C   UNL     1     -32.948 -17.520  23.225  1.00  0.00     0.087 C 
BRANCH  11  12
ATOM     12  C   UNL     1     -32.152 -16.206  23.500  1.00  0.00     0.066 C 
BRANCH  12  13
ATOM     13  C   UNL     1     -32.461 -15.137  22.457  1.00  0.00     0.140 C 
ATOM     14  O   UNL     1     -32.171 -13.966  22.682  1.00  0.00    -0.299 OA
BRANCH  13  15
ATOM     15  C   UNL     1     -33.109 -15.488  21.137  1.00  0.00     0.106 CG0
ATOM     16  G   UNL     1     -32.076 -15.752  20.050  1.00  0.00     0.000 G0
ENDBRANCH  13  15
ENDBRANCH  12  13
BRANCH  12  17
ATOM     17  C   UNL     1     -32.370 -15.691  24.958  1.00  0.00    -0.006 C 
ATOM     18  C   UNL     1     -31.311 -16.193  25.958  1.00  0.00     0.008 C 
ATOM     19  C   UNL     1     -33.785 -16.016  25.474  1.00  0.00     0.008 C 
ENDBRANCH  12  17
ENDBRANCH  11  12
ENDBRANCH   1  11
TORSDOF 1
ENDMDL
MODEL 5
REMARK VINA RESULT:    -2.694      1.749      4.125
REMARK INTER + INTRA:          -4.355
REMARK INTER:                  -4.289
REMARK INTRA:                  -0.066
REMARK UNBOUND:                -0.243
REMARK SMILES CC1=CCC[C@@H](C)C(=O)C[C@H](C(C)C)C(=O)C1
REMARK SMILES IDX 8 1 9 2 6 3 7 4 5 5 4 6 3 7 2 8 1 9 10 11 11 12 15 13 16 14
REMARK SMILES IDX 17 15 12 17 13 18 14 19
REMARK H PARENT
REMARK Flexibility Score: 70.00
ROOT
ATOM      1  C   UNL     1     -30.494 -17.552  20.517  1.00  0.00     0.136 C 
ATOM      2  O   UNL     1     -30.481 -16.897  19.481  1.00  0.00    -0.299 OA
ENDROOT
BRANCH   1   3
ATOM      3  C   UNL     1     -31.796 -18.124  21.053  1.00  0.00     0.053 C 
ATOM      4  C   UNL     1     -32.604 -18.864  19.982  1.00  0.00     0.016 C 
BRANCH   3   5
ATOM      5  C   UNL     1     -32.645 -17.044  21.758  1.00  0.00     0.015 C 
BRANCH   5   6
ATOM      6  C   UNL     1     -32.953 -17.355  23.232  1.00  0.00     0.028 C 
BRANCH   6   7
ATOM      7  C   UNL     1     -32.228 -16.377  24.122  1.00  0.00    -0.028 C 
ATOM      8  C   UNL     1     -31.055 -16.612  24.740  1.00  0.00    -0.070 CG0
ATOM      9  C   UNL     1     -30.574 -15.615  25.777  1.00  0.00     0.039 C 
ATOM     10  G   UNL     1     -30.227 -17.860  24.458  1.00  0.00     0.000 G0
ENDBRANCH   6   7
ENDBRANCH   5   6
ENDBRANCH   3   5
ENDBRANCH   1   3
BRANCH   1  11
ATOM     11  C   UNL     1     -29.186 -17.810  21.222  1.00  0.00     0.087 C 
BRANCH  11  12
ATOM     12  C   UNL     1     -28.937 -16.812  22.396  1.00  0.00     0.066 C 
BRANCH  12  13
ATOM     13  C   UNL     1     -28.931 -17.526  23.744  1.00  0.00     0.140 C 
ATOM     14  O   UNL     1     -27.862 -17.825  24.269  1.00  0.00    -0.299 OA
BRANCH  13  15
ATOM     15  C   UNL     1     -30.217 -17.864  24.463  1.00  0.00     0.106 CG0
ATOM     16  G   UNL     1     -31.052 -16.622  24.747  1.00  0.00     0.000 G0
ENDBRANCH  13  15
ENDBRANCH  12  13
BRANCH  12  17
ATOM     17  C   UNL     1     -27.646 -15.964  22.169  1.00  0.00    -0.006 C 
ATOM     18  C   UNL     1     -27.919 -14.554  21.611  1.00  0.00     0.008 C 
ATOM     19  C   UNL     1     -26.625 -16.700  21.279  1.00  0.00     0.008 C 
ENDBRANCH  12  17
ENDBRANCH  11  12
ENDBRANCH   1  11
TORSDOF 1
ENDMDL
MODEL 6
REMARK VINA RESULT:    -2.668      2.599      3.083
REMARK INTER + INTRA:          -4.315
REMARK INTER:                  -4.692
REMARK INTRA:                   0.377
REMARK UNBOUND:                -0.243
REMARK SMILES CC1=CCC[C@@H](C)C(=O)C[C@H](C(C)C)C(=O)C1
REMARK SMILES IDX 8 1 9 2 6 3 7 4 5 5 4 6 3 7 2 8 1 9 10 11 11 12 15 13 16 14
REMARK SMILES IDX 17 15 12 17 13 18 14 19
REMARK H PARENT
REMARK Flexibility Score: 70.00
ROOT
ATOM      1  C   UNL     1     -29.156 -17.719  20.182  1.00  0.00     0.136 C 
ATOM      2  O   UNL     1     -28.242 -18.468  20.508  1.00  0.00    -0.299 OA
ENDROOT
BRANCH   1   3
ATOM      3  C   UNL     1     -28.909 -16.231  20.005  1.00  0.00     0.053 C 
ATOM      4  C   UNL     1     -27.446 -15.907  19.683  1.00  0.00     0.016 C 
BRANCH   3   5
ATOM      5  C   UNL     1     -29.413 -15.421  21.219  1.00  0.00     0.015 C 
BRANCH   5   6
ATOM      6  C   UNL     1     -30.833 -14.857  21.048  1.00  0.00     0.028 C 
BRANCH   6   7
ATOM      7  C   UNL     1     -31.588 -14.968  22.349  1.00  0.00    -0.028 C 
ATOM      8  C   UNL     1     -32.451 -15.952  22.663  1.00  0.00    -0.070 CG0
ATOM      9  C   UNL     1     -33.296 -15.798  23.914  1.00  0.00     0.039 C 
ATOM     10  G   UNL     1     -32.631 -17.184  21.785  1.00  0.00     0.000 G0
ENDBRANCH   6   7
ENDBRANCH   5   6
ENDBRANCH   3   5
ENDBRANCH   1   3
BRANCH   1  11
ATOM     11  C   UNL     1     -30.518 -18.315  19.923  1.00  0.00     0.087 C 
BRANCH  11  12
ATOM     12  C   UNL     1     -31.025 -19.179  21.120  1.00  0.00     0.066 C 
BRANCH  12  13
ATOM     13  C   UNL     1     -31.714 -18.321  22.176  1.00  0.00     0.140 C 
ATOM     14  O   UNL     1     -31.506 -18.539  23.366  1.00  0.00    -0.299 OA
BRANCH  13  15
ATOM     15  C   UNL     1     -32.640 -17.191  21.791  1.00  0.00     0.106 CG0
ATOM     16  G   UNL     1     -32.437 -15.965  22.672  1.00  0.00     0.000 G0
ENDBRANCH  13  15
ENDBRANCH  12  13
BRANCH  12  17
ATOM     17  C   UNL     1     -31.926 -20.361  20.638  1.00  0.00    -0.006 C 
ATOM     18  C   UNL     1     -32.947 -19.962  19.555  1.00  0.00     0.008 C 
ATOM     19  C   UNL     1     -32.641 -21.053  21.815  1.00  0.00     0.008 C 
ENDBRANCH  12  17
ENDBRANCH  11  12
ENDBRANCH   1  11
TORSDOF 1
ENDMDL
MODEL 7
REMARK VINA RESULT:    -2.593      2.206      5.270
REMARK INTER + INTRA:          -4.201
REMARK INTER:                  -4.029
REMARK INTRA:                  -0.172
REMARK UNBOUND:                -0.243
REMARK SMILES CC1=CCC[C@@H](C)C(=O)C[C@H](C(C)C)C(=O)C1
REMARK SMILES IDX 8 1 9 2 6 3 7 4 5 5 4 6 3 7 2 8 1 9 10 11 11 12 15 13 16 14
REMARK SMILES IDX 17 15 12 17 13 18 14 19
REMARK H PARENT
REMARK Flexibility Score: 70.00
ROOT
ATOM      1  C   UNL     1     -29.541 -16.853  24.135  1.00  0.00     0.136 C 
ATOM      2  O   UNL     1     -28.858 -17.603  24.822  1.00  0.00    -0.299 OA
ENDROOT
BRANCH   1   3
ATOM      3  C   UNL     1     -30.987 -16.570  24.504  1.00  0.00     0.053 C 
ATOM      4  C   UNL     1     -31.232 -16.614  26.017  1.00  0.00     0.016 C 
BRANCH   3   5
ATOM      5  C   UNL     1     -31.961 -17.498  23.746  1.00  0.00     0.015 C 
BRANCH   5   6
ATOM      6  C   UNL     1     -32.483 -16.910  22.425  1.00  0.00     0.028 C 
BRANCH   6   7
ATOM      7  C   UNL     1     -32.220 -17.876  21.297  1.00  0.00    -0.028 C 
ATOM      8  C   UNL     1     -31.323 -17.692  20.311  1.00  0.00    -0.070 CG0
ATOM      9  C   UNL     1     -31.340 -18.647  19.132  1.00  0.00     0.039 C 
ATOM     10  G   UNL     1     -30.328 -16.538  20.326  1.00  0.00     0.000 G0
ENDBRANCH   6   7
ENDBRANCH   5   6
ENDBRANCH   3   5
ENDBRANCH   1   3
BRANCH   1  11
ATOM     11  C   UNL     1     -28.902 -16.188  22.941  1.00  0.00     0.087 C 
BRANCH  11  12
ATOM     12  C   UNL     1     -28.344 -17.222  21.914  1.00  0.00     0.066 C 
BRANCH  12  13
ATOM     13  C   UNL     1     -28.904 -16.979  20.516  1.00  0.00     0.140 C 
ATOM     14  O   UNL     1     -28.190 -17.161  19.534  1.00  0.00    -0.299 OA
BRANCH  13  15
ATOM     15  C   UNL     1     -30.332 -16.531  20.307  1.00  0.00     0.106 CG0
ATOM     16  G   UNL     1     -31.304 -17.705  20.322  1.00  0.00     0.000 G0
ENDBRANCH  13  15
ENDBRANCH  12  13
BRANCH  12  17
ATOM     17  C   UNL     1     -26.783 -17.265  21.927  1.00  0.00    -0.006 C 
ATOM     18  C   UNL     1     -26.198 -18.278  22.929  1.00  0.00     0.008 C 
ATOM     19  C   UNL     1     -26.174 -15.869  22.165  1.00  0.00     0.008 C 
ENDBRANCH  12  17
ENDBRANCH  11  12
ENDBRANCH   1  11
TORSDOF 1
ENDMDL
MODEL 8
REMARK VINA RESULT:    -2.571      2.179      4.448
REMARK INTER + INTRA:          -4.167
REMARK INTER:                  -3.904
REMARK INTRA:                  -0.263
REMARK UNBOUND:                -0.243
REMARK SMILES CC1=CCC[C@@H](C)C(=O)C[C@H](C(C)C)C(=O)C1
REMARK SMILES IDX 8 1 9 2 6 3 7 4 5 5 4 6 3 7 2 8 1 9 10 11 11 12 15 13 16 14
REMARK SMILES IDX 17 15 12 17 13 18 14 19
REMARK H PARENT
REMARK Flexibility Score: 70.00
ROOT
ATOM      1  C   UNL     1     -27.251 -16.136  20.560  1.00  0.00     0.136 C 
ATOM      2  O   UNL     1     -26.045 -16.082  20.773  1.00  0.00    -0.299 OA
ENDROOT
BRANCH   1   3
ATOM      3  C   UNL     1     -27.891 -15.234  19.519  1.00  0.00     0.053 C 
ATOM      4  C   UNL     1     -28.205 -13.835  20.059  1.00  0.00     0.016 C 
BRANCH   3   5
ATOM      5  C   UNL     1     -29.138 -15.889  18.886  1.00  0.00     0.015 C 
BRANCH   5   6
ATOM      6  C   UNL     1     -30.471 -15.358  19.438  1.00  0.00     0.028 C 
BRANCH   6   7
ATOM      7  C   UNL     1     -31.448 -16.496  19.597  1.00  0.00    -0.028 C 
ATOM      8  C   UNL     1     -31.823 -17.039  20.771  1.00  0.00    -0.070 CG0
ATOM      9  C   UNL     1     -32.635 -18.320  20.746  1.00  0.00     0.039 C 
ATOM     10  G   UNL     1     -31.424 -16.430  22.109  1.00  0.00     0.000 G0
ENDBRANCH   6   7
ENDBRANCH   5   6
ENDBRANCH   3   5
ENDBRANCH   1   3
BRANCH   1  11
ATOM     11  C   UNL     1     -28.073 -17.144  21.324  1.00  0.00     0.087 C 
BRANCH  11  12
ATOM     12  C   UNL     1     -28.817 -16.505  22.538  1.00  0.00     0.066 C 
BRANCH  12  13
ATOM     13  C   UNL     1     -30.212 -17.097  22.713  1.00  0.00     0.140 C 
ATOM     14  O   UNL     1     -30.358 -18.130  23.359  1.00  0.00    -0.299 OA
BRANCH  13  15
ATOM     15  C   UNL     1     -31.431 -16.430  22.118  1.00  0.00     0.106 CG0
ATOM     16  G   UNL     1     -31.803 -17.027  20.767  1.00  0.00     0.000 G0
ENDBRANCH  13  15
ENDBRANCH  12  13
BRANCH  12  17
ATOM     17  C   UNL     1     -27.969 -16.593  23.846  1.00  0.00    -0.006 C 
ATOM     18  C   UNL     1     -27.247 -15.280  24.207  1.00  0.00     0.008 C 
ATOM     19  C   UNL     1     -26.961 -17.758  23.799  1.00  0.00     0.008 C 
ENDBRANCH  12  17
ENDBRANCH  11  12
ENDBRANCH   1  11
TORSDOF 1
ENDMDL
MODEL 9
REMARK VINA RESULT:    -2.530      2.343      4.585
REMARK INTER + INTRA:          -4.104
REMARK INTER:                  -4.052
REMARK INTRA:                  -0.053
REMARK UNBOUND:                -0.243
REMARK SMILES CC1=CCC[C@@H](C)C(=O)C[C@H](C(C)C)C(=O)C1
REMARK SMILES IDX 8 1 9 2 6 3 7 4 5 5 4 6 3 7 2 8 1 9 10 11 11 12 15 13 16 14
REMARK SMILES IDX 17 15 12 17 13 18 14 19
REMARK H PARENT
REMARK Flexibility Score: 70.00
ROOT
ATOM      1  C   UNL     1     -30.747 -17.260  22.185  1.00  0.00     0.136 C 
ATOM      2  O   UNL     1     -30.198 -16.660  21.267  1.00  0.00    -0.299 OA
ENDROOT
BRANCH   1   3
ATOM      3  C   UNL     1     -32.208 -17.666  22.076  1.00  0.00     0.053 C 
ATOM      4  C   UNL     1     -32.580 -18.174  20.679  1.00  0.00     0.016 C 
BRANCH   3   5
ATOM      5  C   UNL     1     -33.150 -16.532  22.536  1.00  0.00     0.015 C 
BRANCH   5   6
ATOM      6  C   UNL     1     -33.759 -16.753  23.930  1.00  0.00     0.028 C 
BRANCH   6   7
ATOM      7  C   UNL     1     -33.435 -15.580  24.821  1.00  0.00    -0.028 C 
ATOM      8  C   UNL     1     -32.424 -15.535  25.709  1.00  0.00    -0.070 CG0
ATOM      9  C   UNL     1     -32.372 -14.375  26.685  1.00  0.00     0.039 C 
ATOM     10  G   UNL     1     -31.366 -16.628  25.786  1.00  0.00     0.000 G0
ENDBRANCH   6   7
ENDBRANCH   5   6
ENDBRANCH   3   5
ENDBRANCH   1   3
BRANCH   1  11
ATOM     11  C   UNL     1     -29.931 -17.619  23.401  1.00  0.00     0.087 C 
BRANCH  11  12
ATOM     12  C   UNL     1     -29.340 -16.361  24.112  1.00  0.00     0.066 C 
BRANCH  12  13
ATOM     13  C   UNL     1     -29.977 -16.143  25.481  1.00  0.00     0.140 C 
ATOM     14  O   UNL     1     -29.357 -15.538  26.351  1.00  0.00    -0.299 OA
BRANCH  13  15
ATOM     15  C   UNL     1     -31.369 -16.644  25.791  1.00  0.00     0.106 CG0
ATOM     16  G   UNL     1     -32.406 -15.532  25.701  1.00  0.00     0.000 G0
ENDBRANCH  13  15
ENDBRANCH  12  13
BRANCH  12  17
ATOM     17  C   UNL     1     -27.782 -16.418  24.187  1.00  0.00    -0.006 C 
ATOM     18  C   UNL     1     -27.078 -15.585  23.098  1.00  0.00     0.008 C 
ATOM     19  C   UNL     1     -27.260 -17.868  24.168  1.00  0.00     0.008 C 
ENDBRANCH  12  17
ENDBRANCH  11  12
ENDBRANCH   1  11
TORSDOF 1
ENDMDL
