MODEL 1
REMARK VINA RESULT:    -3.883      0.000      0.000
REMARK INTER + INTRA:          -5.758
REMARK INTER:                  -5.927
REMARK INTRA:                   0.169
REMARK UNBOUND:                 0.169
REMARK SMILES CC1=CCC[C@H](C)C(=O)C[C@@H](C(C)C)C(=O)C1
REMARK SMILES IDX 8 1 9 2 6 3 7 4 5 5 4 6 3 7 2 8 1 9 10 11 11 12 15 13 16 14
REMARK SMILES IDX 17 15 12 17 13 18 14 19
REMARK H PARENT
REMARK Flexibility Score: 70.00
ROOT
ATOM      1  C   UNL     1     197.943 208.314 217.292  1.00  0.00     0.136 C 
ATOM      2  O   UNL     1     196.905 208.657 217.837  1.00  0.00    -0.299 OA
ENDROOT
BRANCH   1   3
ATOM      3  C   UNL     1     199.239 208.902 217.831  1.00  0.00     0.053 C 
ATOM      4  C   UNL     1     200.337 207.885 218.186  1.00  0.00     0.016 C 
BRANCH   3   5
ATOM      5  C   UNL     1     199.708 210.135 217.017  1.00  0.00     0.015 C 
BRANCH   5   6
ATOM      6  C   UNL     1     198.761 210.786 215.978  1.00  0.00     0.028 C 
BRANCH   6   7
ATOM      7  C   UNL     1     199.267 211.005 214.572  1.00  0.00    -0.028 C 
ATOM      8  C   UNL     1     199.067 210.191 213.514  1.00  0.00    -0.070 CG0
ATOM      9  C   UNL     1     199.433 210.720 212.147  1.00  0.00     0.039 C 
ATOM     10  G   UNL     1     198.435 208.820 213.636  1.00  0.00     0.000 G0
ENDBRANCH   6   7
ENDBRANCH   5   6
ENDBRANCH   3   5
ENDBRANCH   1   3
BRANCH   1  11
ATOM     11  C   UNL     1     197.881 207.245 216.218  1.00  0.00     0.087 C 
BRANCH  11  12
ATOM     12  C   UNL     1     199.201 206.965 215.434  1.00  0.00     0.066 C 
BRANCH  12  13
ATOM     13  C   UNL     1     199.415 207.776 214.156  1.00  0.00     0.140 C 
ATOM     14  O   UNL     1     200.456 207.607 213.538  1.00  0.00    -0.299 OA
BRANCH  13  15
ATOM     15  C   UNL     1     198.438 208.799 213.627  1.00  0.00     0.106 CG0
ATOM     16  G   UNL     1     199.077 210.167 213.510  1.00  0.00     0.000 G0
ENDBRANCH  13  15
ENDBRANCH  12  13
BRANCH  12  17
ATOM     17  C   UNL     1     199.512 205.436 215.255  1.00  0.00    -0.006 C 
ATOM     18  C   UNL     1     198.542 204.781 214.257  1.00  0.00     0.008 C 
ATOM     19  C   UNL     1     199.504 204.632 216.571  1.00  0.00     0.008 C 
ENDBRANCH  12  17
ENDBRANCH  11  12
ENDBRANCH   1  11
TORSDOF 1
ENDMDL
MODEL 2
REMARK VINA RESULT:    -3.865     13.772     14.804
REMARK INTER + INTRA:          -5.730
REMARK INTER:                  -5.496
REMARK INTRA:                  -0.234
REMARK UNBOUND:                 0.169
REMARK SMILES CC1=CCC[C@H](C)C(=O)C[C@@H](C(C)C)C(=O)C1
REMARK SMILES IDX 8 1 9 2 6 3 7 4 5 5 4 6 3 7 2 8 1 9 10 11 11 12 15 13 16 14
REMARK SMILES IDX 17 15 12 17 13 18 14 19
REMARK H PARENT
REMARK Flexibility Score: 70.00
ROOT
ATOM      1  C   UNL     1     212.862 203.380 216.933  1.00  0.00     0.136 C 
ATOM      2  O   UNL     1     213.911 203.130 217.505  1.00  0.00    -0.299 OA
ENDROOT
BRANCH   1   3
ATOM      3  C   UNL     1     212.172 204.690 217.286  1.00  0.00     0.053 C 
ATOM      4  C   UNL     1     211.646 204.800 218.728  1.00  0.00     0.016 C 
BRANCH   3   5
ATOM      5  C   UNL     1     212.952 205.924 216.764  1.00  0.00     0.015 C 
BRANCH   5   6
ATOM      6  C   UNL     1     213.459 205.961 215.300  1.00  0.00     0.028 C 
BRANCH   6   7
ATOM      7  C   UNL     1     212.446 206.054 214.184  1.00  0.00    -0.028 C 
ATOM      8  C   UNL     1     212.346 205.227 213.123  1.00  0.00    -0.070 CG0
ATOM      9  C   UNL     1     211.107 205.339 212.265  1.00  0.00     0.039 C 
ATOM     10  G   UNL     1     213.375 204.163 212.807  1.00  0.00     0.000 G0
ENDBRANCH   6   7
ENDBRANCH   5   6
ENDBRANCH   3   5
ENDBRANCH   1   3
BRANCH   1  11
ATOM     11  C   UNL     1     212.393 202.448 215.832  1.00  0.00     0.087 C 
BRANCH  11  12
ATOM     12  C   UNL     1     213.384 202.207 214.651  1.00  0.00     0.066 C 
BRANCH  12  13
ATOM     13  C   UNL     1     212.983 202.796 213.299  1.00  0.00     0.140 C 
ATOM     14  O   UNL     1     212.305 202.105 212.551  1.00  0.00    -0.299 OA
BRANCH  13  15
ATOM     15  C   UNL     1     213.400 204.163 212.812  1.00  0.00     0.106 CG0
ATOM     16  G   UNL     1     212.348 205.207 213.122  1.00  0.00     0.000 G0
ENDBRANCH  13  15
ENDBRANCH  12  13
BRANCH  12  17
ATOM     17  C   UNL     1     213.894 200.725 214.552  1.00  0.00    -0.006 C 
ATOM     18  C   UNL     1     213.207 199.826 215.594  1.00  0.00     0.008 C 
ATOM     19  C   UNL     1     215.424 200.574 214.684  1.00  0.00     0.008 C 
ENDBRANCH  12  17
ENDBRANCH  11  12
ENDBRANCH   1  11
TORSDOF 1
ENDMDL
MODEL 3
REMARK VINA RESULT:    -3.854     13.846     15.262
REMARK INTER + INTRA:          -5.713
REMARK INTER:                  -5.915
REMARK INTRA:                   0.202
REMARK UNBOUND:                 0.169
REMARK SMILES CC1=CCC[C@H](C)C(=O)C[C@@H](C(C)C)C(=O)C1
REMARK SMILES IDX 8 1 9 2 6 3 7 4 5 5 4 6 3 7 2 8 1 9 10 11 11 12 15 13 16 14
REMARK SMILES IDX 17 15 12 17 13 18 14 19
REMARK H PARENT
REMARK Flexibility Score: 70.00
ROOT
ATOM      1  C   UNL     1     214.147 204.447 217.153  1.00  0.00     0.136 C 
ATOM      2  O   UNL     1     215.224 203.873 217.113  1.00  0.00    -0.299 OA
ENDROOT
BRANCH   1   3
ATOM      3  C   UNL     1     212.989 203.709 217.809  1.00  0.00     0.053 C 
ATOM      4  C   UNL     1     211.720 204.543 218.057  1.00  0.00     0.016 C 
BRANCH   3   5
ATOM      5  C   UNL     1     212.757 202.309 217.185  1.00  0.00     0.015 C 
BRANCH   5   6
ATOM      6  C   UNL     1     212.030 202.176 215.823  1.00  0.00     0.028 C 
BRANCH   6   7
ATOM      7  C   UNL     1     212.858 201.985 214.574  1.00  0.00    -0.028 C 
ATOM      8  C   UNL     1     213.136 202.924 213.646  1.00  0.00    -0.070 CG0
ATOM      9  C   UNL     1     214.192 202.597 212.616  1.00  0.00     0.039 C 
ATOM     10  G   UNL     1     212.492 204.294 213.641  1.00  0.00     0.000 G0
ENDBRANCH   6   7
ENDBRANCH   5   6
ENDBRANCH   3   5
ENDBRANCH   1   3
BRANCH   1  11
ATOM     11  C   UNL     1     214.071 205.883 216.671  1.00  0.00     0.087 C 
BRANCH  11  12
ATOM     12  C   UNL     1     213.120 206.166 215.466  1.00  0.00     0.066 C 
BRANCH  12  13
ATOM     13  C   UNL     1     213.392 205.375 214.187  1.00  0.00     0.140 C 
ATOM     14  O   UNL     1     214.398 205.648 213.548  1.00  0.00    -0.299 OA
BRANCH  13  15
ATOM     15  C   UNL     1     212.480 204.302 213.643  1.00  0.00     0.106 CG0
ATOM     16  G   UNL     1     213.152 202.945 213.652  1.00  0.00     0.000 G0
ENDBRANCH  13  15
ENDBRANCH  12  13
BRANCH  12  17
ATOM     17  C   UNL     1     212.874 207.696 215.206  1.00  0.00    -0.006 C 
ATOM     18  C   UNL     1     211.948 207.915 213.999  1.00  0.00     0.008 C 
ATOM     19  C   UNL     1     214.166 208.517 215.009  1.00  0.00     0.008 C 
ENDBRANCH  12  17
ENDBRANCH  11  12
ENDBRANCH   1  11
TORSDOF 1
ENDMDL
MODEL 4
REMARK VINA RESULT:    -3.791      1.582      4.027
REMARK INTER + INTRA:          -5.617
REMARK INTER:                  -5.571
REMARK INTRA:                  -0.047
REMARK UNBOUND:                 0.169
REMARK SMILES CC1=CCC[C@H](C)C(=O)C[C@@H](C(C)C)C(=O)C1
REMARK SMILES IDX 8 1 9 2 6 3 7 4 5 5 4 6 3 7 2 8 1 9 10 11 11 12 15 13 16 14
REMARK SMILES IDX 17 15 12 17 13 18 14 19
REMARK H PARENT
REMARK Flexibility Score: 70.00
ROOT
ATOM      1  C   UNL     1     199.152 208.779 216.795  1.00  0.00     0.136 C 
ATOM      2  O   UNL     1     198.007 208.780 217.219  1.00  0.00    -0.299 OA
ENDROOT
BRANCH   1   3
ATOM      3  C   UNL     1     200.042 207.613 217.199  1.00  0.00     0.053 C 
ATOM      4  C   UNL     1     200.679 207.710 218.596  1.00  0.00     0.016 C 
BRANCH   3   5
ATOM      5  C   UNL     1     199.408 206.242 216.850  1.00  0.00     0.015 C 
BRANCH   5   6
ATOM      6  C   UNL     1     198.925 205.955 215.405  1.00  0.00     0.028 C 
BRANCH   6   7
ATOM      7  C   UNL     1     199.915 206.080 214.271  1.00  0.00    -0.028 C 
ATOM      8  C   UNL     1     199.861 206.968 213.257  1.00  0.00    -0.070 CG0
ATOM      9  C   UNL     1     201.082 207.097 212.376  1.00  0.00     0.039 C 
ATOM     10  G   UNL     1     198.672 207.874 213.016  1.00  0.00     0.000 G0
ENDBRANCH   6   7
ENDBRANCH   5   6
ENDBRANCH   3   5
ENDBRANCH   1   3
BRANCH   1  11
ATOM     11  C   UNL     1     199.562 209.854 215.807  1.00  0.00     0.087 C 
BRANCH  11  12
ATOM     12  C   UNL     1     198.626 210.066 214.577  1.00  0.00     0.066 C 
BRANCH  12  13
ATOM     13  C   UNL     1     199.011 209.324 213.297  1.00  0.00     0.140 C 
ATOM     14  O   UNL     1     199.608 209.947 212.431  1.00  0.00    -0.299 OA
BRANCH  13  15
ATOM     15  C   UNL     1     198.669 207.880 213.018  1.00  0.00     0.106 CG0
ATOM     16  G   UNL     1     199.858 206.973 213.253  1.00  0.00     0.000 G0
ENDBRANCH  13  15
ENDBRANCH  12  13
BRANCH  12  17
ATOM     17  C   UNL     1     198.247 211.570 214.328  1.00  0.00    -0.006 C 
ATOM     18  C   UNL     1     198.246 212.370 215.642  1.00  0.00     0.008 C 
ATOM     19  C   UNL     1     196.895 211.769 213.613  1.00  0.00     0.008 C 
ENDBRANCH  12  17
ENDBRANCH  11  12
ENDBRANCH   1  11
TORSDOF 1
ENDMDL
MODEL 5
REMARK VINA RESULT:    -3.656      1.902      3.390
REMARK INTER + INTRA:          -5.411
REMARK INTER:                  -5.164
REMARK INTRA:                  -0.246
REMARK UNBOUND:                 0.169
REMARK SMILES CC1=CCC[C@H](C)C(=O)C[C@@H](C(C)C)C(=O)C1
REMARK SMILES IDX 8 1 9 2 6 3 7 4 5 5 4 6 3 7 2 8 1 9 10 11 11 12 15 13 16 14
REMARK SMILES IDX 17 15 12 17 13 18 14 19
REMARK H PARENT
REMARK Flexibility Score: 70.00
ROOT
ATOM      1  C   UNL     1     197.730 210.536 215.899  1.00  0.00     0.136 C 
ATOM      2  O   UNL     1     196.666 210.912 215.433  1.00  0.00    -0.299 OA
ENDROOT
BRANCH   1   3
ATOM      3  C   UNL     1     198.971 211.336 215.529  1.00  0.00     0.053 C 
ATOM      4  C   UNL     1     200.018 211.499 216.645  1.00  0.00     0.016 C 
BRANCH   3   5
ATOM      5  C   UNL     1     199.533 210.940 214.139  1.00  0.00     0.015 C 
BRANCH   5   6
ATOM      6  C   UNL     1     198.921 209.745 213.366  1.00  0.00     0.028 C 
BRANCH   6   7
ATOM      7  C   UNL     1     199.715 208.464 213.264  1.00  0.00    -0.028 C 
ATOM      8  C   UNL     1     199.303 207.235 213.641  1.00  0.00    -0.070 CG0
ATOM      9  C   UNL     1     200.146 206.055 213.215  1.00  0.00     0.039 C 
ATOM     10  G   UNL     1     198.015 206.994 214.400  1.00  0.00     0.000 G0
ENDBRANCH   6   7
ENDBRANCH   5   6
ENDBRANCH   3   5
ENDBRANCH   1   3
BRANCH   1  11
ATOM     11  C   UNL     1     197.725 209.397 216.900  1.00  0.00     0.087 C 
BRANCH  11  12
ATOM     12  C   UNL     1     198.757 208.252 216.661  1.00  0.00     0.066 C 
BRANCH  12  13
ATOM     13  C   UNL     1     198.243 207.024 215.909  1.00  0.00     0.140 C 
ATOM     14  O   UNL     1     198.030 206.006 216.553  1.00  0.00    -0.299 OA
BRANCH  13  15
ATOM     15  C   UNL     1     198.018 206.975 214.417  1.00  0.00     0.106 CG0
ATOM     16  G   UNL     1     199.300 207.231 213.653  1.00  0.00     0.000 G0
ENDBRANCH  13  15
ENDBRANCH  12  13
BRANCH  12  17
ATOM     17  C   UNL     1     199.599 207.888 217.936  1.00  0.00    -0.006 C 
ATOM     18  C   UNL     1     199.238 208.799 219.121  1.00  0.00     0.008 C 
ATOM     19  C   UNL     1     201.125 207.925 217.715  1.00  0.00     0.008 C 
ENDBRANCH  12  17
ENDBRANCH  11  12
ENDBRANCH   1  11
TORSDOF 1
ENDMDL
MODEL 6
REMARK VINA RESULT:    -3.651      1.711      3.753
REMARK INTER + INTRA:          -5.403
REMARK INTER:                  -5.262
REMARK INTRA:                  -0.140
REMARK UNBOUND:                 0.169
REMARK SMILES CC1=CCC[C@H](C)C(=O)C[C@@H](C(C)C)C(=O)C1
REMARK SMILES IDX 8 1 9 2 6 3 7 4 5 5 4 6 3 7 2 8 1 9 10 11 11 12 15 13 16 14
REMARK SMILES IDX 17 15 12 17 13 18 14 19
REMARK H PARENT
REMARK Flexibility Score: 70.00
ROOT
ATOM      1  C   UNL     1     198.780 205.515 216.030  1.00  0.00     0.136 C 
ATOM      2  O   UNL     1     198.160 205.095 216.995  1.00  0.00    -0.299 OA
ENDROOT
BRANCH   1   3
ATOM      3  C   UNL     1     198.456 204.902 214.676  1.00  0.00     0.053 C 
ATOM      4  C   UNL     1     197.936 203.454 214.704  1.00  0.00     0.016 C 
BRANCH   3   5
ATOM      5  C   UNL     1     197.667 205.876 213.763  1.00  0.00     0.015 C 
BRANCH   5   6
ATOM      6  C   UNL     1     198.352 206.507 212.524  1.00  0.00     0.028 C 
BRANCH   6   7
ATOM      7  C   UNL     1     198.200 207.992 212.289  1.00  0.00    -0.028 C 
ATOM      8  C   UNL     1     199.071 208.953 212.660  1.00  0.00    -0.070 CG0
ATOM      9  C   UNL     1     198.858 210.341 212.101  1.00  0.00     0.039 C 
ATOM     10  G   UNL     1     200.273 208.683 213.541  1.00  0.00     0.000 G0
ENDBRANCH   6   7
ENDBRANCH   5   6
ENDBRANCH   3   5
ENDBRANCH   1   3
BRANCH   1  11
ATOM     11  C   UNL     1     199.719 206.690 216.225  1.00  0.00     0.087 C 
BRANCH  11  12
ATOM     12  C   UNL     1     199.137 208.107 215.928  1.00  0.00     0.066 C 
BRANCH  12  13
ATOM     13  C   UNL     1     199.967 209.002 215.008  1.00  0.00     0.140 C 
ATOM     14  O   UNL     1     200.387 210.057 215.461  1.00  0.00    -0.299 OA
BRANCH  13  15
ATOM     15  C   UNL     1     200.272 208.683 213.564  1.00  0.00     0.106 CG0
ATOM     16  G   UNL     1     199.083 208.967 212.671  1.00  0.00     0.000 G0
ENDBRANCH  13  15
ENDBRANCH  12  13
BRANCH  12  17
ATOM     17  C   UNL     1     198.616 208.852 217.209  1.00  0.00    -0.006 C 
ATOM     18  C   UNL     1     199.544 208.612 218.411  1.00  0.00     0.008 C 
ATOM     19  C   UNL     1     197.170 208.489 217.605  1.00  0.00     0.008 C 
ENDBRANCH  12  17
ENDBRANCH  11  12
ENDBRANCH   1  11
TORSDOF 1
ENDMDL
MODEL 7
REMARK VINA RESULT:    -3.601      1.929      3.182
REMARK INTER + INTRA:          -5.326
REMARK INTER:                  -5.792
REMARK INTRA:                   0.465
REMARK UNBOUND:                 0.169
REMARK SMILES CC1=CCC[C@H](C)C(=O)C[C@@H](C(C)C)C(=O)C1
REMARK SMILES IDX 8 1 9 2 6 3 7 4 5 5 4 6 3 7 2 8 1 9 10 11 11 12 15 13 16 14
REMARK SMILES IDX 17 15 12 17 13 18 14 19
REMARK H PARENT
REMARK Flexibility Score: 70.00
ROOT
ATOM      1  C   UNL     1     199.251 211.275 216.306  1.00  0.00     0.136 C 
ATOM      2  O   UNL     1     200.375 211.708 216.107  1.00  0.00    -0.299 OA
ENDROOT
BRANCH   1   3
ATOM      3  C   UNL     1     198.089 212.235 216.098  1.00  0.00     0.053 C 
ATOM      4  C   UNL     1     198.443 213.731 216.130  1.00  0.00     0.016 C 
BRANCH   3   5
ATOM      5  C   UNL     1     197.163 211.793 214.935  1.00  0.00     0.015 C 
BRANCH   5   6
ATOM      6  C   UNL     1     197.758 211.519 213.530  1.00  0.00     0.028 C 
BRANCH   6   7
ATOM      7  C   UNL     1     197.741 210.105 212.999  1.00  0.00    -0.028 C 
ATOM      8  C   UNL     1     198.728 209.193 213.119  1.00  0.00    -0.070 CG0
ATOM      9  C   UNL     1     198.406 207.764 212.747  1.00  0.00     0.039 C 
ATOM     10  G   UNL     1     200.098 209.528 213.669  1.00  0.00     0.000 G0
ENDBRANCH   6   7
ENDBRANCH   5   6
ENDBRANCH   3   5
ENDBRANCH   1   3
BRANCH   1  11
ATOM     11  C   UNL     1     199.085 209.800 216.616  1.00  0.00     0.087 C 
BRANCH  11  12
ATOM     12  C   UNL     1     200.288 208.871 216.262  1.00  0.00     0.066 C 
BRANCH  12  13
ATOM     13  C   UNL     1     200.507 208.583 214.777  1.00  0.00     0.140 C 
ATOM     14  O   UNL     1     201.067 207.540 214.472  1.00  0.00    -0.299 OA
BRANCH  13  15
ATOM     15  C   UNL     1     200.109 209.521 213.663  1.00  0.00     0.106 CG0
ATOM     16  G   UNL     1     198.741 209.179 213.112  1.00  0.00     0.000 G0
ENDBRANCH  13  15
ENDBRANCH  12  13
BRANCH  12  17
ATOM     17  C   UNL     1     200.375 207.586 217.160  1.00  0.00    -0.006 C 
ATOM     18  C   UNL     1     199.167 206.662 216.932  1.00  0.00     0.008 C 
ATOM     19  C   UNL     1     200.512 207.878 218.669  1.00  0.00     0.008 C 
ENDBRANCH  12  17
ENDBRANCH  11  12
ENDBRANCH   1  11
TORSDOF 1
ENDMDL
MODEL 8
REMARK VINA RESULT:    -3.593      1.943      4.257
REMARK INTER + INTRA:          -5.315
REMARK INTER:                  -5.110
REMARK INTRA:                  -0.205
REMARK UNBOUND:                 0.169
REMARK SMILES CC1=CCC[C@H](C)C(=O)C[C@@H](C(C)C)C(=O)C1
REMARK SMILES IDX 8 1 9 2 6 3 7 4 5 5 4 6 3 7 2 8 1 9 10 11 11 12 15 13 16 14
REMARK SMILES IDX 17 15 12 17 13 18 14 19
REMARK H PARENT
REMARK Flexibility Score: 70.00
ROOT
ATOM      1  C   UNL     1     199.935 209.388 216.046  1.00  0.00     0.136 C 
ATOM      2  O   UNL     1     199.951 210.605 216.136  1.00  0.00    -0.299 OA
ENDROOT
BRANCH   1   3
ATOM      3  C   UNL     1     199.767 208.597 217.335  1.00  0.00     0.053 C 
ATOM      4  C   UNL     1     198.439 208.812 218.082  1.00  0.00     0.016 C 
BRANCH   3   5
ATOM      5  C   UNL     1     200.214 207.121 217.181  1.00  0.00     0.015 C 
BRANCH   5   6
ATOM      6  C   UNL     1     199.192 206.040 216.745  1.00  0.00     0.028 C 
BRANCH   6   7
ATOM      7  C   UNL     1     199.537 205.145 215.579  1.00  0.00    -0.028 C 
ATOM      8  C   UNL     1     199.007 205.205 214.339  1.00  0.00    -0.070 CG0
ATOM      9  C   UNL     1     199.675 204.393 213.254  1.00  0.00     0.039 C 
ATOM     10  G   UNL     1     197.833 206.093 213.987  1.00  0.00     0.000 G0
ENDBRANCH   6   7
ENDBRANCH   5   6
ENDBRANCH   3   5
ENDBRANCH   1   3
BRANCH   1  11
ATOM     11  C   UNL     1     199.953 208.761 214.665  1.00  0.00     0.087 C 
BRANCH  11  12
ATOM     12  C   UNL     1     198.584 208.671 213.921  1.00  0.00     0.066 C 
BRANCH  12  13
ATOM     13  C   UNL     1     198.271 207.340 213.237  1.00  0.00     0.140 C 
ATOM     14  O   UNL     1     198.349 207.290 212.017  1.00  0.00    -0.299 OA
BRANCH  13  15
ATOM     15  C   UNL     1     197.836 206.093 213.967  1.00  0.00     0.106 CG0
ATOM     16  G   UNL     1     199.020 205.220 214.328  1.00  0.00     0.000 G0
ENDBRANCH  13  15
ENDBRANCH  12  13
BRANCH  12  17
ATOM     17  C   UNL     1     198.278 209.918 213.016  1.00  0.00    -0.006 C 
ATOM     18  C   UNL     1     199.567 210.502 212.415  1.00  0.00     0.008 C 
ATOM     19  C   UNL     1     197.499 211.041 213.732  1.00  0.00     0.008 C 
ENDBRANCH  12  17
ENDBRANCH  11  12
ENDBRANCH   1  11
TORSDOF 1
ENDMDL
MODEL 9
REMARK VINA RESULT:    -3.578      1.584      2.045
REMARK INTER + INTRA:          -5.291
REMARK INTER:                  -4.933
REMARK INTRA:                  -0.358
REMARK UNBOUND:                 0.169
REMARK SMILES CC1=CCC[C@H](C)C(=O)C[C@@H](C(C)C)C(=O)C1
REMARK SMILES IDX 8 1 9 2 6 3 7 4 5 5 4 6 3 7 2 8 1 9 10 11 11 12 15 13 16 14
REMARK SMILES IDX 17 15 12 17 13 18 14 19
REMARK H PARENT
REMARK Flexibility Score: 70.00
ROOT
ATOM      1  C   UNL     1     198.555 206.786 216.449  1.00  0.00     0.136 C 
ATOM      2  O   UNL     1     198.520 205.608 216.765  1.00  0.00    -0.299 OA
ENDROOT
BRANCH   1   3
ATOM      3  C   UNL     1     199.228 207.747 217.418  1.00  0.00     0.053 C 
ATOM      4  C   UNL     1     200.761 207.831 217.320  1.00  0.00     0.016 C 
BRANCH   3   5
ATOM      5  C   UNL     1     198.489 209.108 217.504  1.00  0.00     0.015 C 
BRANCH   5   6
ATOM      6  C   UNL     1     199.066 210.352 216.781  1.00  0.00     0.028 C 
BRANCH   6   7
ATOM      7  C   UNL     1     198.174 211.119 215.834  1.00  0.00    -0.028 C 
ATOM      8  C   UNL     1     198.194 211.052 214.486  1.00  0.00    -0.070 CG0
ATOM      9  C   UNL     1     197.050 211.698 213.739  1.00  0.00     0.039 C 
ATOM     10  G   UNL     1     199.261 210.308 213.713  1.00  0.00     0.000 G0
ENDBRANCH   6   7
ENDBRANCH   5   6
ENDBRANCH   3   5
ENDBRANCH   1   3
BRANCH   1  11
ATOM     11  C   UNL     1     198.049 207.186 215.075  1.00  0.00     0.087 C 
BRANCH  11  12
ATOM     12  C   UNL     1     199.124 207.651 214.044  1.00  0.00     0.066 C 
BRANCH  12  13
ATOM     13  C   UNL     1     198.811 208.933 213.272  1.00  0.00     0.140 C 
ATOM     14  O   UNL     1     198.180 208.835 212.229  1.00  0.00    -0.299 OA
BRANCH  13  15
ATOM     15  C   UNL     1     199.263 210.310 213.696  1.00  0.00     0.106 CG0
ATOM     16  G   UNL     1     198.192 211.024 214.493  1.00  0.00     0.000 G0
ENDBRANCH  13  15
ENDBRANCH  12  13
BRANCH  12  17
ATOM     17  C   UNL     1     199.657 206.493 213.127  1.00  0.00    -0.006 C 
ATOM     18  C   UNL     1     198.529 205.521 212.741  1.00  0.00     0.008 C 
ATOM     19  C   UNL     1     200.827 205.694 213.736  1.00  0.00     0.008 C 
ENDBRANCH  12  17
ENDBRANCH  11  12
ENDBRANCH   1  11
TORSDOF 1
ENDMDL
