MODEL 1
REMARK VINA RESULT:    -2.372      0.000      0.000
REMARK INTER + INTRA:          -3.738
REMARK INTER:                  -3.620
REMARK INTRA:                  -0.118
REMARK UNBOUND:                -0.118
REMARK SMILES CC1=CCC[C@H](C)C(=O)C[C@@H](C(C)C)C(=O)C1
REMARK SMILES IDX 8 1 9 2 6 3 7 4 5 5 4 6 3 7 2 8 1 9 10 11 11 12 15 13 16 14
REMARK SMILES IDX 17 15 12 17 13 18 14 19
REMARK H PARENT
REMARK Flexibility Score: 70.00
ROOT
ATOM      1  C   UNL     1      25.655  37.687  21.255  1.00  0.00     0.136 C 
ATOM      2  O   UNL     1      25.740  37.212  22.379  1.00  0.00    -0.299 OA
ENDROOT
BRANCH   1   3
ATOM      3  C   UNL     1      24.673  38.810  20.973  1.00  0.00     0.053 C 
ATOM      4  C   UNL     1      23.219  38.396  21.251  1.00  0.00     0.016 C 
BRANCH   3   5
ATOM      5  C   UNL     1      25.054  40.098  21.730  1.00  0.00     0.015 C 
BRANCH   5   6
ATOM      6  C   UNL     1      26.557  40.443  21.663  1.00  0.00     0.028 C 
BRANCH   6   7
ATOM      7  C   UNL     1      26.901  41.126  20.363  1.00  0.00    -0.028 C 
ATOM      8  C   UNL     1      27.965  40.813  19.585  1.00  0.00    -0.070 CG0
ATOM      9  C   UNL     1      28.144  41.568  18.293  1.00  0.00     0.039 C 
ATOM     10  G   UNL     1      28.986  39.749  19.961  1.00  0.00     0.000 G0
ENDBRANCH   6   7
ENDBRANCH   5   6
ENDBRANCH   3   5
ENDBRANCH   1   3
BRANCH   1  11
ATOM     11  C   UNL     1      26.541  37.139  20.161  1.00  0.00     0.087 C 
BRANCH  11  12
ATOM     12  C   UNL     1      28.047  37.348  20.471  1.00  0.00     0.066 C 
BRANCH  12  13
ATOM     13  C   UNL     1      28.627  38.363  19.500  1.00  0.00     0.140 C 
ATOM     14  O   UNL     1      28.869  38.025  18.348  1.00  0.00    -0.299 OA
BRANCH  13  15
ATOM     15  C   UNL     1      29.010  39.745  19.969  1.00  0.00     0.106 CG0
ATOM     16  G   UNL     1      27.974  40.796  19.596  1.00  0.00     0.000 G0
ENDBRANCH  13  15
ENDBRANCH  12  13
BRANCH  12  17
ATOM     17  C   UNL     1      28.863  36.014  20.422  1.00  0.00    -0.006 C 
ATOM     18  C   UNL     1      28.215  34.964  19.500  1.00  0.00     0.008 C 
ATOM     19  C   UNL     1      29.020  35.405  21.829  1.00  0.00     0.008 C 
ENDBRANCH  12  17
ENDBRANCH  11  12
ENDBRANCH   1  11
TORSDOF 1
ENDMDL
MODEL 2
REMARK VINA RESULT:    -2.333      1.650      3.650
REMARK INTER + INTRA:          -3.678
REMARK INTER:                  -4.285
REMARK INTRA:                   0.607
REMARK UNBOUND:                -0.118
REMARK SMILES CC1=CCC[C@H](C)C(=O)C[C@@H](C(C)C)C(=O)C1
REMARK SMILES IDX 8 1 9 2 6 3 7 4 5 5 4 6 3 7 2 8 1 9 10 11 11 12 15 13 16 14
REMARK SMILES IDX 17 15 12 17 13 18 14 19
REMARK H PARENT
REMARK Flexibility Score: 70.00
ROOT
ATOM      1  C   UNL     1      27.604  37.003  20.425  1.00  0.00     0.136 C 
ATOM      2  O   UNL     1      28.779  36.744  20.650  1.00  0.00    -0.299 OA
ENDROOT
BRANCH   1   3
ATOM      3  C   UNL     1      27.066  36.940  19.006  1.00  0.00     0.053 C 
ATOM      4  C   UNL     1      25.822  36.043  18.894  1.00  0.00     0.016 C 
BRANCH   3   5
ATOM      5  C   UNL     1      26.807  38.349  18.437  1.00  0.00     0.015 C 
BRANCH   5   6
ATOM      6  C   UNL     1      28.049  39.265  18.441  1.00  0.00     0.028 C 
BRANCH   6   7
ATOM      7  C   UNL     1      27.670  40.695  18.735  1.00  0.00    -0.028 C 
ATOM      8  C   UNL     1      27.351  41.172  19.962  1.00  0.00    -0.070 CG0
ATOM      9  C   UNL     1      27.034  42.640  20.090  1.00  0.00     0.039 C 
ATOM     10  G   UNL     1      27.287  40.297  21.205  1.00  0.00     0.000 G0
ENDBRANCH   6   7
ENDBRANCH   5   6
ENDBRANCH   3   5
ENDBRANCH   1   3
BRANCH   1  11
ATOM     11  C   UNL     1      26.706  37.384  21.578  1.00  0.00     0.087 C 
BRANCH  11  12
ATOM     12  C   UNL     1      25.559  38.331  21.136  1.00  0.00     0.066 C 
BRANCH  12  13
ATOM     13  C   UNL     1      25.915  39.763  21.505  1.00  0.00     0.140 C 
ATOM     14  O   UNL     1      25.048  40.504  21.949  1.00  0.00    -0.299 OA
BRANCH  13  15
ATOM     15  C   UNL     1      27.295  40.308  21.226  1.00  0.00     0.106 CG0
ATOM     16  G   UNL     1      27.342  41.155  19.962  1.00  0.00     0.000 G0
ENDBRANCH  13  15
ENDBRANCH  12  13
BRANCH  12  17
ATOM     17  C   UNL     1      24.177  37.935  21.753  1.00  0.00    -0.006 C 
ATOM     18  C   UNL     1      24.267  36.667  22.625  1.00  0.00     0.008 C 
ATOM     19  C   UNL     1      23.123  37.703  20.654  1.00  0.00     0.008 C 
ENDBRANCH  12  17
ENDBRANCH  11  12
ENDBRANCH   1  11
TORSDOF 1
ENDMDL
MODEL 3
REMARK VINA RESULT:    -1.635      1.756      4.867
REMARK INTER + INTRA:          -2.613
REMARK INTER:                  -4.333
REMARK INTRA:                   1.720
REMARK UNBOUND:                -0.118
REMARK SMILES CC1=CCC[C@H](C)C(=O)C[C@@H](C(C)C)C(=O)C1
REMARK SMILES IDX 8 1 9 2 6 3 7 4 5 5 4 6 3 7 2 8 1 9 10 11 11 12 15 13 16 14
REMARK SMILES IDX 17 15 12 17 13 18 14 19
REMARK H PARENT
REMARK Flexibility Score: 70.00
ROOT
ATOM      1  C   UNL     1      28.055  37.814  19.077  1.00  0.00     0.136 C 
ATOM      2  O   UNL     1      27.305  38.242  18.210  1.00  0.00    -0.299 OA
ENDROOT
BRANCH   1   3
ATOM      3  C   UNL     1      28.185  36.318  19.303  1.00  0.00     0.053 C 
ATOM      4  C   UNL     1      29.044  35.987  20.535  1.00  0.00     0.016 C 
BRANCH   3   5
ATOM      5  C   UNL     1      26.805  35.634  19.370  1.00  0.00     0.015 C 
BRANCH   5   6
ATOM      6  C   UNL     1      25.627  36.562  19.002  1.00  0.00     0.028 C 
BRANCH   6   7
ATOM      7  C   UNL     1      24.663  36.700  20.153  1.00  0.00    -0.028 C 
ATOM      8  C   UNL     1      24.527  37.810  20.918  1.00  0.00    -0.070 CG0
ATOM      9  C   UNL     1      23.484  37.796  22.006  1.00  0.00     0.039 C 
ATOM     10  G   UNL     1      25.381  39.056  20.735  1.00  0.00     0.000 G0
ENDBRANCH   6   7
ENDBRANCH   5   6
ENDBRANCH   3   5
ENDBRANCH   1   3
BRANCH   1  11
ATOM     11  C   UNL     1      28.843  38.795  19.912  1.00  0.00     0.087 C 
BRANCH  11  12
ATOM     12  C   UNL     1      27.921  39.729  20.740  1.00  0.00     0.066 C 
BRANCH  12  13
ATOM     13  C   UNL     1      26.770  38.921  21.317  1.00  0.00     0.140 C 
ATOM     14  O   UNL     1      26.996  38.079  22.176  1.00  0.00    -0.299 OA
BRANCH  13  15
ATOM     15  C   UNL     1      25.373  39.069  20.763  1.00  0.00     0.106 CG0
ATOM     16  G   UNL     1      24.546  37.802  20.923  1.00  0.00     0.000 G0
ENDBRANCH  13  15
ENDBRANCH  12  13
BRANCH  12  17
ATOM     17  C   UNL     1      27.378  40.936  19.905  1.00  0.00    -0.006 C 
ATOM     18  C   UNL     1      28.367  41.382  18.811  1.00  0.00     0.008 C 
ATOM     19  C   UNL     1      27.066  42.143  20.809  1.00  0.00     0.008 C 
ENDBRANCH  12  17
ENDBRANCH  11  12
ENDBRANCH   1  11
TORSDOF 1
ENDMDL
MODEL 4
REMARK VINA RESULT:    -1.632     11.730     14.284
REMARK INTER + INTRA:          -2.608
REMARK INTER:                  -2.321
REMARK INTRA:                  -0.287
REMARK UNBOUND:                -0.118
REMARK SMILES CC1=CCC[C@H](C)C(=O)C[C@@H](C(C)C)C(=O)C1
REMARK SMILES IDX 8 1 9 2 6 3 7 4 5 5 4 6 3 7 2 8 1 9 10 11 11 12 15 13 16 14
REMARK SMILES IDX 17 15 12 17 13 18 14 19
REMARK H PARENT
REMARK Flexibility Score: 70.00
ROOT
ATOM      1  C   UNL     1      27.275  27.626  25.915  1.00  0.00     0.136 C 
ATOM      2  O   UNL     1      27.767  27.328  24.835  1.00  0.00    -0.299 OA
ENDROOT
BRANCH   1   3
ATOM      3  C   UNL     1      26.771  29.037  26.161  1.00  0.00     0.053 C 
ATOM      4  C   UNL     1      27.425  30.061  25.219  1.00  0.00     0.016 C 
BRANCH   3   5
ATOM      5  C   UNL     1      25.233  29.107  26.100  1.00  0.00     0.015 C 
BRANCH   5   6
ATOM      6  C   UNL     1      24.552  29.163  27.485  1.00  0.00     0.028 C 
BRANCH   6   7
ATOM      7  C   UNL     1      23.395  28.199  27.563  1.00  0.00    -0.028 C 
ATOM      8  C   UNL     1      23.453  26.967  28.123  1.00  0.00    -0.070 CG0
ATOM      9  C   UNL     1      22.192  26.144  28.155  1.00  0.00     0.039 C 
ATOM     10  G   UNL     1      24.729  26.378  28.708  1.00  0.00     0.000 G0
ENDBRANCH   6   7
ENDBRANCH   5   6
ENDBRANCH   3   5
ENDBRANCH   1   3
BRANCH   1  11
ATOM     11  C   UNL     1      27.178  26.570  26.990  1.00  0.00     0.087 C 
BRANCH  11  12
ATOM     12  C   UNL     1      26.127  25.481  26.646  1.00  0.00     0.066 C 
BRANCH  12  13
ATOM     13  C   UNL     1      25.265  25.206  27.867  1.00  0.00     0.140 C 
ATOM     14  O   UNL     1      24.931  24.056  28.123  1.00  0.00    -0.299 OA
BRANCH  13  15
ATOM     15  C   UNL     1      24.727  26.343  28.701  1.00  0.00     0.106 CG0
ATOM     16  G   UNL     1      23.455  26.943  28.119  1.00  0.00     0.000 G0
ENDBRANCH  13  15
ENDBRANCH  12  13
BRANCH  12  17
ATOM     17  C   UNL     1      26.778  24.158  26.125  1.00  0.00    -0.006 C 
ATOM     18  C   UNL     1      28.300  24.121  26.362  1.00  0.00     0.008 C 
ATOM     19  C   UNL     1      26.508  23.958  24.621  1.00  0.00     0.008 C 
ENDBRANCH  12  17
ENDBRANCH  11  12
ENDBRANCH   1  11
TORSDOF 1
ENDMDL
MODEL 5
REMARK VINA RESULT:    -1.477      2.650      4.637
REMARK INTER + INTRA:          -2.371
REMARK INTER:                  -2.726
REMARK INTRA:                   0.355
REMARK UNBOUND:                -0.118
REMARK SMILES CC1=CCC[C@H](C)C(=O)C[C@@H](C(C)C)C(=O)C1
REMARK SMILES IDX 8 1 9 2 6 3 7 4 5 5 4 6 3 7 2 8 1 9 10 11 11 12 15 13 16 14
REMARK SMILES IDX 17 15 12 17 13 18 14 19
REMARK H PARENT
REMARK Flexibility Score: 70.00
ROOT
ATOM      1  C   UNL     1      27.948  35.617  22.172  1.00  0.00     0.136 C 
ATOM      2  O   UNL     1      29.125  35.946  22.245  1.00  0.00    -0.299 OA
ENDROOT
BRANCH   1   3
ATOM      3  C   UNL     1      27.261  34.970  23.362  1.00  0.00     0.053 C 
ATOM      4  C   UNL     1      28.256  34.577  24.466  1.00  0.00     0.016 C 
BRANCH   3   5
ATOM      5  C   UNL     1      26.124  35.857  23.908  1.00  0.00     0.015 C 
BRANCH   5   6
ATOM      6  C   UNL     1      24.743  35.559  23.287  1.00  0.00     0.028 C 
BRANCH   6   7
ATOM      7  C   UNL     1      23.958  36.828  23.072  1.00  0.00    -0.028 C 
ATOM      8  C   UNL     1      23.907  37.516  21.906  1.00  0.00    -0.070 CG0
ATOM      9  C   UNL     1      23.039  38.747  21.848  1.00  0.00     0.039 C 
ATOM     10  G   UNL     1      24.690  37.112  20.666  1.00  0.00     0.000 G0
ENDBRANCH   6   7
ENDBRANCH   5   6
ENDBRANCH   3   5
ENDBRANCH   1   3
BRANCH   1  11
ATOM     11  C   UNL     1      27.198  35.867  20.885  1.00  0.00     0.087 C 
BRANCH  11  12
ATOM     12  C   UNL     1      27.310  37.343  20.422  1.00  0.00     0.066 C 
BRANCH  12  13
ATOM     13  C   UNL     1      25.929  37.979  20.424  1.00  0.00     0.140 C 
ATOM     14  O   UNL     1      25.825  39.195  20.330  1.00  0.00    -0.299 OA
BRANCH  13  15
ATOM     15  C   UNL     1      24.696  37.139  20.650  1.00  0.00     0.106 CG0
ATOM     16  G   UNL     1      23.940  37.541  21.908  1.00  0.00     0.000 G0
ENDBRANCH  13  15
ENDBRANCH  12  13
BRANCH  12  17
ATOM     17  C   UNL     1      27.976  37.485  19.014  1.00  0.00    -0.006 C 
ATOM     18  C   UNL     1      29.120  36.475  18.803  1.00  0.00     0.008 C 
ATOM     19  C   UNL     1      28.529  38.907  18.800  1.00  0.00     0.008 C 
ENDBRANCH  12  17
ENDBRANCH  11  12
ENDBRANCH   1  11
TORSDOF 1
ENDMDL
MODEL 6
REMARK VINA RESULT:    -1.175      2.282      3.983
REMARK INTER + INTRA:          -1.912
REMARK INTER:                  -2.348
REMARK INTRA:                   0.436
REMARK UNBOUND:                -0.118
REMARK SMILES CC1=CCC[C@H](C)C(=O)C[C@@H](C(C)C)C(=O)C1
REMARK SMILES IDX 8 1 9 2 6 3 7 4 5 5 4 6 3 7 2 8 1 9 10 11 11 12 15 13 16 14
REMARK SMILES IDX 17 15 12 17 13 18 14 19
REMARK H PARENT
REMARK Flexibility Score: 70.00
ROOT
ATOM      1  C   UNL     1      27.091  35.404  20.120  1.00  0.00     0.136 C 
ATOM      2  O   UNL     1      27.194  34.556  19.244  1.00  0.00    -0.299 OA
ENDROOT
BRANCH   1   3
ATOM      3  C   UNL     1      28.058  35.414  21.291  1.00  0.00     0.053 C 
ATOM      4  C   UNL     1      28.709  34.041  21.520  1.00  0.00     0.016 C 
BRANCH   3   5
ATOM      5  C   UNL     1      29.113  36.529  21.143  1.00  0.00     0.015 C 
BRANCH   5   6
ATOM      6  C   UNL     1      28.544  37.955  21.296  1.00  0.00     0.028 C 
BRANCH   6   7
ATOM      7  C   UNL     1      28.953  38.832  20.139  1.00  0.00    -0.028 C 
ATOM      8  C   UNL     1      28.097  39.367  19.236  1.00  0.00    -0.070 CG0
ATOM      9  C   UNL     1      28.667  40.256  18.161  1.00  0.00     0.039 C 
ATOM     10  G   UNL     1      26.598  39.104  19.252  1.00  0.00     0.000 G0
ENDBRANCH   6   7
ENDBRANCH   5   6
ENDBRANCH   3   5
ENDBRANCH   1   3
BRANCH   1  11
ATOM     11  C   UNL     1      25.991  36.434  20.014  1.00  0.00     0.087 C 
BRANCH  11  12
ATOM     12  C   UNL     1      25.629  36.751  18.539  1.00  0.00     0.066 C 
BRANCH  12  13
ATOM     13  C   UNL     1      26.126  38.144  18.184  1.00  0.00     0.140 C 
ATOM     14  O   UNL     1      26.245  38.459  17.008  1.00  0.00    -0.299 OA
BRANCH  13  15
ATOM     15  C   UNL     1      26.575  39.098  19.264  1.00  0.00     0.106 CG0
ATOM     16  G   UNL     1      28.073  39.363  19.221  1.00  0.00     0.000 G0
ENDBRANCH  13  15
ENDBRANCH  12  13
BRANCH  12  17
ATOM     17  C   UNL     1      24.096  36.627  18.254  1.00  0.00    -0.006 C 
ATOM     18  C   UNL     1      23.436  35.507  19.081  1.00  0.00     0.008 C 
ATOM     19  C   UNL     1      23.827  36.361  16.760  1.00  0.00     0.008 C 
ENDBRANCH  12  17
ENDBRANCH  11  12
ENDBRANCH   1  11
TORSDOF 1
ENDMDL
MODEL 7
REMARK VINA RESULT:     0.198      1.688      2.415
REMARK INTER + INTRA:           0.184
REMARK INTER:                  -2.068
REMARK INTRA:                   2.253
REMARK UNBOUND:                -0.118
REMARK SMILES CC1=CCC[C@H](C)C(=O)C[C@@H](C(C)C)C(=O)C1
REMARK SMILES IDX 8 1 9 2 6 3 7 4 5 5 4 6 3 7 2 8 1 9 10 11 11 12 15 13 16 14
REMARK SMILES IDX 17 15 12 17 13 18 14 19
REMARK H PARENT
REMARK Flexibility Score: 70.00
ROOT
ATOM      1  C   UNL     1      25.583  36.803  21.185  1.00  0.00     0.136 C 
ATOM      2  O   UNL     1      25.514  36.752  19.964  1.00  0.00    -0.299 OA
ENDROOT
BRANCH   1   3
ATOM      3  C   UNL     1      24.316  36.779  22.023  1.00  0.00     0.053 C 
ATOM      4  C   UNL     1      24.490  35.968  23.317  1.00  0.00     0.016 C 
BRANCH   3   5
ATOM      5  C   UNL     1      23.800  38.203  22.307  1.00  0.00     0.015 C 
BRANCH   5   6
ATOM      6  C   UNL     1      24.091  39.214  21.177  1.00  0.00     0.028 C 
BRANCH   6   7
ATOM      7  C   UNL     1      24.999  40.319  21.655  1.00  0.00    -0.028 C 
ATOM      8  C   UNL     1      26.262  40.526  21.212  1.00  0.00    -0.070 CG0
ATOM      9  C   UNL     1      27.022  41.704  21.765  1.00  0.00     0.039 C 
ATOM     10  G   UNL     1      26.947  39.621  20.197  1.00  0.00     0.000 G0
ENDBRANCH   6   7
ENDBRANCH   5   6
ENDBRANCH   3   5
ENDBRANCH   1   3
BRANCH   1  11
ATOM     11  C   UNL     1      26.942  36.890  21.837  1.00  0.00     0.087 C 
BRANCH  11  12
ATOM     12  C   UNL     1      28.046  37.309  20.831  1.00  0.00     0.066 C 
BRANCH  12  13
ATOM     13  C   UNL     1      28.114  38.826  20.758  1.00  0.00     0.140 C 
ATOM     14  O   UNL     1      29.071  39.411  21.249  1.00  0.00    -0.299 OA
BRANCH  13  15
ATOM     15  C   UNL     1      26.966  39.620  20.186  1.00  0.00     0.106 CG0
ATOM     16  G   UNL     1      26.303  40.517  21.222  1.00  0.00     0.000 G0
ENDBRANCH  13  15
ENDBRANCH  12  13
BRANCH  12  17
ATOM     17  C   UNL     1      27.826  36.701  19.407  1.00  0.00    -0.006 C 
ATOM     18  C   UNL     1      28.165  35.200  19.352  1.00  0.00     0.008 C 
ATOM     19  C   UNL     1      28.673  37.437  18.350  1.00  0.00     0.008 C 
ENDBRANCH  12  17
ENDBRANCH  11  12
ENDBRANCH   1  11
TORSDOF 1
ENDMDL
MODEL 8
REMARK VINA RESULT:     0.367      1.626      3.864
REMARK INTER + INTRA:           0.443
REMARK INTER:                  -3.737
REMARK INTRA:                   4.180
REMARK UNBOUND:                -0.118
REMARK SMILES CC1=CCC[C@H](C)C(=O)C[C@@H](C(C)C)C(=O)C1
REMARK SMILES IDX 8 1 9 2 6 3 7 4 5 5 4 6 3 7 2 8 1 9 10 11 11 12 15 13 16 14
REMARK SMILES IDX 17 15 12 17 13 18 14 19
REMARK H PARENT
REMARK Flexibility Score: 70.00
ROOT
ATOM      1  C   UNL     1      27.256  38.122  19.458  1.00  0.00     0.136 C 
ATOM      2  O   UNL     1      26.484  38.785  18.778  1.00  0.00    -0.299 OA
ENDROOT
BRANCH   1   3
ATOM      3  C   UNL     1      26.721  37.068  20.411  1.00  0.00     0.053 C 
ATOM      4  C   UNL     1      27.826  36.131  20.924  1.00  0.00     0.016 C 
BRANCH   3   5
ATOM      5  C   UNL     1      25.930  37.705  21.571  1.00  0.00     0.015 C 
BRANCH   5   6
ATOM      6  C   UNL     1      24.847  38.706  21.117  1.00  0.00     0.028 C 
BRANCH   6   7
ATOM      7  C   UNL     1      24.989  40.025  21.833  1.00  0.00    -0.028 C 
ATOM      8  C   UNL     1      25.832  41.019  21.460  1.00  0.00    -0.070 CG0
ATOM      9  C   UNL     1      25.822  42.294  22.264  1.00  0.00     0.039 C 
ATOM     10  G   UNL     1      26.788  40.901  20.282  1.00  0.00     0.000 G0
ENDBRANCH   6   7
ENDBRANCH   5   6
ENDBRANCH   3   5
ENDBRANCH   1   3
BRANCH   1  11
ATOM     11  C   UNL     1      28.740  38.369  19.330  1.00  0.00     0.087 C 
BRANCH  11  12
ATOM     12  C   UNL     1      29.117  39.839  19.657  1.00  0.00     0.066 C 
BRANCH  12  13
ATOM     13  C   UNL     1      28.158  40.385  20.704  1.00  0.00     0.140 C 
ATOM     14  O   UNL     1      28.443  40.289  21.890  1.00  0.00    -0.299 OA
BRANCH  13  15
ATOM     15  C   UNL     1      26.815  40.941  20.299  1.00  0.00     0.106 CG0
ATOM     16  G   UNL     1      25.838  41.013  21.464  1.00  0.00     0.000 G0
ENDBRANCH  13  15
ENDBRANCH  12  13
BRANCH  12  17
ATOM     17  C   UNL     1      29.125  40.756  18.390  1.00  0.00    -0.006 C 
ATOM     18  C   UNL     1      28.104  41.905  18.493  1.00  0.00     0.008 C 
ATOM     19  C   UNL     1      28.828  39.945  17.114  1.00  0.00     0.008 C 
ENDBRANCH  12  17
ENDBRANCH  11  12
ENDBRANCH   1  11
TORSDOF 1
ENDMDL
MODEL 9
REMARK VINA RESULT:     0.428     10.408     12.913
REMARK INTER + INTRA:           0.536
REMARK INTER:                  -0.747
REMARK INTRA:                   1.284
REMARK UNBOUND:                -0.118
REMARK SMILES CC1=CCC[C@H](C)C(=O)C[C@@H](C(C)C)C(=O)C1
REMARK SMILES IDX 8 1 9 2 6 3 7 4 5 5 4 6 3 7 2 8 1 9 10 11 11 12 15 13 16 14
REMARK SMILES IDX 17 15 12 17 13 18 14 19
REMARK H PARENT
REMARK Flexibility Score: 70.00
ROOT
ATOM      1  C   UNL     1      28.561  28.762  26.439  1.00  0.00     0.136 C 
ATOM      2  O   UNL     1      28.854  29.196  27.546  1.00  0.00    -0.299 OA
ENDROOT
BRANCH   1   3
ATOM      3  C   UNL     1      27.950  29.682  25.396  1.00  0.00     0.053 C 
ATOM      4  C   UNL     1      29.006  30.553  24.698  1.00  0.00     0.016 C 
BRANCH   3   5
ATOM      5  C   UNL     1      27.097  28.896  24.381  1.00  0.00     0.015 C 
BRANCH   5   6
ATOM      6  C   UNL     1      25.578  29.136  24.520  1.00  0.00     0.028 C 
BRANCH   6   7
ATOM      7  C   UNL     1      25.208  29.476  25.942  1.00  0.00    -0.028 C 
ATOM      8  C   UNL     1      25.045  28.568  26.935  1.00  0.00    -0.070 CG0
ATOM      9  C   UNL     1      24.714  29.079  28.313  1.00  0.00     0.039 C 
ATOM     10  G   UNL     1      25.172  27.067  26.719  1.00  0.00     0.000 G0
ENDBRANCH   6   7
ENDBRANCH   5   6
ENDBRANCH   3   5
ENDBRANCH   1   3
BRANCH   1  11
ATOM     11  C   UNL     1      28.819  27.306  26.133  1.00  0.00     0.087 C 
BRANCH  11  12
ATOM     12  C   UNL     1      27.525  26.561  25.711  1.00  0.00     0.066 C 
BRANCH  12  13
ATOM     13  C   UNL     1      26.555  26.530  26.882  1.00  0.00     0.140 C 
ATOM     14  O   UNL     1      26.889  25.989  27.927  1.00  0.00    -0.299 OA
BRANCH  13  15
ATOM     15  C   UNL     1      25.150  27.060  26.730  1.00  0.00     0.106 CG0
ATOM     16  G   UNL     1      25.064  28.561  26.968  1.00  0.00     0.000 G0
ENDBRANCH  13  15
ENDBRANCH  12  13
BRANCH  12  17
ATOM     17  C   UNL     1      27.804  25.112  25.194  1.00  0.00    -0.006 C 
ATOM     18  C   UNL     1      26.593  24.179  25.383  1.00  0.00     0.008 C 
ATOM     19  C   UNL     1      29.021  24.491  25.907  1.00  0.00     0.008 C 
ENDBRANCH  12  17
ENDBRANCH  11  12
ENDBRANCH   1  11
TORSDOF 1
ENDMDL
