MODEL 1
REMARK VINA RESULT:    -2.396      0.000      0.000
REMARK INTER + INTRA:          -5.647
REMARK INTER:                  -4.356
REMARK INTRA:                  -1.291
REMARK UNBOUND:                -1.291
REMARK SMILES CCCCCCCCCCCCCC[C@H](C)C(=O)[O-]
REMARK SMILES IDX 9 1 10 2 11 3 12 4 13 5 14 6 15 7 16 8 17 9 18 10 19 11 8 12
REMARK SMILES IDX 7 13 6 14 5 15 4 16 3 17 2 18 1 19
REMARK H PARENT
REMARK Flexibility Score: inf
ROOT
ATOM      1  C   UNL     1       5.556 -35.923  22.493  1.00  0.00     0.000 C 
ENDROOT
BRANCH   1   2
ATOM      2  C   UNL     1       5.981 -35.552  21.060  1.00  0.00     0.000 C 
BRANCH   2   3
ATOM      3  C   UNL     1       5.440 -36.538  20.011  1.00  0.00     0.000 C 
BRANCH   3   4
ATOM      4  C   UNL     1       3.928 -36.774  20.141  1.00  0.00     0.000 C 
BRANCH   4   5
ATOM      5  C   UNL     1       3.373 -37.475  18.895  1.00  0.00     0.001 C 
BRANCH   5   6
ATOM      6  C   UNL     1       3.891 -36.807  17.610  1.00  0.00     0.009 C 
BRANCH   6   7
ATOM      7  C   UNL     1       2.797 -36.662  16.530  1.00  0.00     0.032 C 
ATOM      8  C   UNL     1       1.502 -37.393  16.912  1.00  0.00     0.014 C 
BRANCH   7   9
ATOM      9  C   UNL     1       3.305 -37.182  15.214  1.00  0.00     0.044 C 
ATOM     10  O   UNL     1       3.638 -38.391  15.087  1.00  0.00    -0.550 OA
ATOM     11  O   UNL     1       3.409 -36.326  14.124  1.00  0.00    -0.550 OA
ENDBRANCH   7   9
ENDBRANCH   6   7
ENDBRANCH   5   6
ENDBRANCH   4   5
ENDBRANCH   3   4
ENDBRANCH   2   3
ENDBRANCH   1   2
BRANCH   1  12
ATOM     12  C   UNL     1       5.850 -34.804  23.504  1.00  0.00     0.000 C 
BRANCH  12  13
ATOM     13  C   UNL     1       5.801 -35.293  24.960  1.00  0.00    -0.000 C 
BRANCH  13  14
ATOM     14  C   UNL     1       6.125 -36.790  25.050  1.00  0.00    -0.000 C 
BRANCH  14  15
ATOM     15  C   UNL     1       4.937 -37.631  25.550  1.00  0.00    -0.000 C 
BRANCH  15  16
ATOM     16  C   UNL     1       4.696 -38.910  24.720  1.00  0.00    -0.000 C 
BRANCH  16  17
ATOM     17  C   UNL     1       5.754 -39.093  23.617  1.00  0.00    -0.000 C 
BRANCH  17  18
ATOM     18  C   UNL     1       5.314 -40.095  22.539  1.00  0.00    -0.003 C 
ATOM     19  C   UNL     1       5.884 -39.761  21.161  1.00  0.00     0.004 C 
ENDBRANCH  17  18
ENDBRANCH  16  17
ENDBRANCH  15  16
ENDBRANCH  14  15
ENDBRANCH  13  14
ENDBRANCH  12  13
ENDBRANCH   1  12
TORSDOF 14
ENDMDL
MODEL 2
REMARK VINA RESULT:    -2.162      1.119      1.419
REMARK INTER + INTRA:          -5.222
REMARK INTER:                  -4.085
REMARK INTRA:                  -1.138
REMARK UNBOUND:                -1.291
REMARK SMILES CCCCCCCCCCCCCC[C@H](C)C(=O)[O-]
REMARK SMILES IDX 9 1 10 2 11 3 12 4 13 5 14 6 15 7 16 8 17 9 18 10 19 11 8 12
REMARK SMILES IDX 7 13 6 14 5 15 4 16 3 17 2 18 1 19
REMARK H PARENT
REMARK Flexibility Score: inf
ROOT
ATOM      1  C   UNL     1       5.264 -36.062  22.052  1.00  0.00     0.000 C 
ENDROOT
BRANCH   1   2
ATOM      2  C   UNL     1       5.769 -36.366  20.629  1.00  0.00     0.000 C 
BRANCH   2   3
ATOM      3  C   UNL     1       4.678 -36.177  19.563  1.00  0.00     0.000 C 
BRANCH   3   4
ATOM      4  C   UNL     1       3.456 -37.078  19.795  1.00  0.00     0.000 C 
BRANCH   4   5
ATOM      5  C   UNL     1       3.092 -37.849  18.520  1.00  0.00     0.001 C 
BRANCH   5   6
ATOM      6  C   UNL     1       3.514 -37.067  17.264  1.00  0.00     0.009 C 
BRANCH   6   7
ATOM      7  C   UNL     1       2.810 -37.569  15.985  1.00  0.00     0.032 C 
ATOM      8  C   UNL     1       3.809 -37.973  14.891  1.00  0.00     0.014 C 
BRANCH   7   9
ATOM      9  C   UNL     1       1.883 -36.508  15.460  1.00  0.00     0.044 C 
ATOM     10  O   UNL     1       1.371 -35.661  16.240  1.00  0.00    -0.550 OA
ATOM     11  O   UNL     1       1.585 -36.456  14.104  1.00  0.00    -0.550 OA
ENDBRANCH   7   9
ENDBRANCH   6   7
ENDBRANCH   5   6
ENDBRANCH   4   5
ENDBRANCH   3   4
ENDBRANCH   2   3
ENDBRANCH   1   2
BRANCH   1  12
ATOM     12  C   UNL     1       5.895 -34.792  22.644  1.00  0.00     0.000 C 
BRANCH  12  13
ATOM     13  C   UNL     1       5.805 -34.746  24.176  1.00  0.00    -0.000 C 
BRANCH  13  14
ATOM     14  C   UNL     1       6.125 -36.115  24.790  1.00  0.00    -0.000 C 
BRANCH  14  15
ATOM     15  C   UNL     1       4.898 -36.786  25.433  1.00  0.00    -0.000 C 
BRANCH  15  16
ATOM     16  C   UNL     1       4.703 -38.255  25.003  1.00  0.00    -0.000 C 
BRANCH  16  17
ATOM     17  C   UNL     1       5.778 -38.713  24.001  1.00  0.00    -0.000 C 
BRANCH  17  18
ATOM     18  C   UNL     1       5.305 -39.881  23.122  1.00  0.00    -0.003 C 
ATOM     19  C   UNL     1       5.686 -39.701  21.653  1.00  0.00     0.004 C 
ENDBRANCH  17  18
ENDBRANCH  16  17
ENDBRANCH  15  16
ENDBRANCH  14  15
ENDBRANCH  13  14
ENDBRANCH  12  13
ENDBRANCH   1  12
TORSDOF 14
ENDMDL
MODEL 3
REMARK VINA RESULT:    -2.076      3.904      8.003
REMARK INTER + INTRA:          -5.066
REMARK INTER:                  -3.907
REMARK INTRA:                  -1.158
REMARK UNBOUND:                -1.291
REMARK SMILES CCCCCCCCCCCCCC[C@H](C)C(=O)[O-]
REMARK SMILES IDX 9 1 10 2 11 3 12 4 13 5 14 6 15 7 16 8 17 9 18 10 19 11 8 12
REMARK SMILES IDX 7 13 6 14 5 15 4 16 3 17 2 18 1 19
REMARK H PARENT
REMARK Flexibility Score: inf
ROOT
ATOM      1  C   UNL     1       3.349 -37.881  20.211  1.00  0.00     0.000 C 
ENDROOT
BRANCH   1   2
ATOM      2  C   UNL     1       4.728 -37.549  19.612  1.00  0.00     0.000 C 
BRANCH   2   3
ATOM      3  C   UNL     1       5.101 -36.066  19.778  1.00  0.00     0.000 C 
BRANCH   3   4
ATOM      4  C   UNL     1       4.828 -35.539  21.194  1.00  0.00     0.000 C 
BRANCH   4   5
ATOM      5  C   UNL     1       6.120 -35.487  22.019  1.00  0.00     0.001 C 
BRANCH   5   6
ATOM      6  C   UNL     1       5.814 -35.519  23.526  1.00  0.00     0.009 C 
BRANCH   6   7
ATOM      7  C   UNL     1       6.026 -36.916  24.148  1.00  0.00     0.032 C 
ATOM      8  C   UNL     1       5.755 -38.047  23.146  1.00  0.00     0.014 C 
BRANCH   7   9
ATOM      9  C   UNL     1       5.140 -37.081  25.352  1.00  0.00     0.044 C 
ATOM     10  O   UNL     1       4.642 -36.074  25.924  1.00  0.00    -0.550 OA
ATOM     11  O   UNL     1       4.863 -38.352  25.841  1.00  0.00    -0.550 OA
ENDBRANCH   7   9
ENDBRANCH   6   7
ENDBRANCH   5   6
ENDBRANCH   4   5
ENDBRANCH   3   4
ENDBRANCH   2   3
ENDBRANCH   1   2
BRANCH   1  12
ATOM     12  C   UNL     1       2.192 -37.529  19.263  1.00  0.00     0.000 C 
BRANCH  12  13
ATOM     13  C   UNL     1       2.503 -37.870  17.798  1.00  0.00    -0.000 C 
BRANCH  13  14
ATOM     14  C   UNL     1       1.327 -37.499  16.884  1.00  0.00    -0.000 C 
BRANCH  14  15
ATOM     15  C   UNL     1       1.590 -36.230  16.055  1.00  0.00    -0.000 C 
BRANCH  15  16
ATOM     16  C   UNL     1       3.032 -36.133  15.515  1.00  0.00    -0.000 C 
BRANCH  16  17
ATOM     17  C   UNL     1       3.167 -36.751  14.111  1.00  0.00    -0.000 C 
BRANCH  17  18
ATOM     18  C   UNL     1       4.475 -37.536  13.937  1.00  0.00    -0.003 C 
ATOM     19  C   UNL     1       4.318 -39.020  14.272  1.00  0.00     0.004 C 
ENDBRANCH  17  18
ENDBRANCH  16  17
ENDBRANCH  15  16
ENDBRANCH  14  15
ENDBRANCH  13  14
ENDBRANCH  12  13
ENDBRANCH   1  12
TORSDOF 14
ENDMDL
MODEL 4
REMARK VINA RESULT:    -1.942      3.173      7.367
REMARK INTER + INTRA:          -4.822
REMARK INTER:                  -4.036
REMARK INTRA:                  -0.786
REMARK UNBOUND:                -1.291
REMARK SMILES CCCCCCCCCCCCCC[C@H](C)C(=O)[O-]
REMARK SMILES IDX 9 1 10 2 11 3 12 4 13 5 14 6 15 7 16 8 17 9 18 10 19 11 8 12
REMARK SMILES IDX 7 13 6 14 5 15 4 16 3 17 2 18 1 19
REMARK H PARENT
REMARK Flexibility Score: inf
ROOT
ATOM      1  C   UNL     1       5.880 -36.453  21.233  1.00  0.00     0.000 C 
ENDROOT
BRANCH   1   2
ATOM      2  C   UNL     1       5.015 -35.179  21.233  1.00  0.00     0.000 C 
BRANCH   2   3
ATOM      3  C   UNL     1       4.686 -34.690  22.653  1.00  0.00     0.000 C 
BRANCH   3   4
ATOM      4  C   UNL     1       5.941 -34.450  23.505  1.00  0.00     0.000 C 
BRANCH   4   5
ATOM      5  C   UNL     1       5.968 -35.389  24.718  1.00  0.00     0.001 C 
BRANCH   5   6
ATOM      6  C   UNL     1       6.124 -36.854  24.277  1.00  0.00     0.009 C 
BRANCH   6   7
ATOM      7  C   UNL     1       4.920 -37.730  24.685  1.00  0.00     0.032 C 
ATOM      8  C   UNL     1       4.655 -37.689  26.197  1.00  0.00     0.014 C 
BRANCH   7   9
ATOM      9  C   UNL     1       5.150 -39.151  24.249  1.00  0.00     0.044 C 
ATOM     10  O   UNL     1       5.765 -39.401  23.178  1.00  0.00    -0.550 OA
ATOM     11  O   UNL     1       4.682 -40.201  25.030  1.00  0.00    -0.550 OA
ENDBRANCH   7   9
ENDBRANCH   6   7
ENDBRANCH   5   6
ENDBRANCH   4   5
ENDBRANCH   3   4
ENDBRANCH   2   3
ENDBRANCH   1   2
BRANCH   1  12
ATOM     12  C   UNL     1       5.266 -37.583  20.392  1.00  0.00     0.000 C 
BRANCH  12  13
ATOM     13  C   UNL     1       4.319 -37.063  19.301  1.00  0.00    -0.000 C 
BRANCH  13  14
ATOM     14  C   UNL     1       2.894 -37.595  19.508  1.00  0.00    -0.000 C 
BRANCH  14  15
ATOM     15  C   UNL     1       2.152 -37.852  18.184  1.00  0.00    -0.000 C 
BRANCH  15  16
ATOM     16  C   UNL     1       2.992 -37.519  16.933  1.00  0.00    -0.000 C 
BRANCH  16  17
ATOM     17  C   UNL     1       2.248 -36.576  15.970  1.00  0.00    -0.000 C 
BRANCH  17  18
ATOM     18  C   UNL     1       2.751 -36.694  14.524  1.00  0.00    -0.003 C 
ATOM     19  C   UNL     1       3.908 -37.684  14.384  1.00  0.00     0.004 C 
ENDBRANCH  17  18
ENDBRANCH  16  17
ENDBRANCH  15  16
ENDBRANCH  14  15
ENDBRANCH  13  14
ENDBRANCH  12  13
ENDBRANCH   1  12
TORSDOF 14
ENDMDL
MODEL 5
REMARK VINA RESULT:    -1.739      3.418      7.872
REMARK INTER + INTRA:          -4.453
REMARK INTER:                  -3.605
REMARK INTRA:                  -0.848
REMARK UNBOUND:                -1.291
REMARK SMILES CCCCCCCCCCCCCC[C@H](C)C(=O)[O-]
REMARK SMILES IDX 9 1 10 2 11 3 12 4 13 5 14 6 15 7 16 8 17 9 18 10 19 11 8 12
REMARK SMILES IDX 7 13 6 14 5 15 4 16 3 17 2 18 1 19
REMARK H PARENT
REMARK Flexibility Score: inf
ROOT
ATOM      1  C   UNL     1       1.233 -37.826  19.462  1.00  0.00     0.000 C 
ENDROOT
BRANCH   1   2
ATOM      2  C   UNL     1       2.772 -37.874  19.438  1.00  0.00     0.000 C 
BRANCH   2   3
ATOM      3  C   UNL     1       3.410 -36.688  20.180  1.00  0.00     0.000 C 
BRANCH   3   4
ATOM      4  C   UNL     1       4.744 -36.247  19.561  1.00  0.00     0.000 C 
BRANCH   4   5
ATOM      5  C   UNL     1       5.808 -36.032  20.644  1.00  0.00     0.001 C 
BRANCH   5   6
ATOM      6  C   UNL     1       5.421 -36.752  21.947  1.00  0.00     0.009 C 
BRANCH   6   7
ATOM      7  C   UNL     1       6.125 -36.160  23.187  1.00  0.00     0.032 C 
ATOM      8  C   UNL     1       6.082 -37.112  24.391  1.00  0.00     0.014 C 
BRANCH   7   9
ATOM      9  C   UNL     1       5.493 -34.846  23.556  1.00  0.00     0.044 C 
ATOM     10  O   UNL     1       5.863 -34.223  24.587  1.00  0.00    -0.550 OA
ATOM     11  O   UNL     1       4.492 -34.309  22.755  1.00  0.00    -0.550 OA
ENDBRANCH   7   9
ENDBRANCH   6   7
ENDBRANCH   5   6
ENDBRANCH   4   5
ENDBRANCH   3   4
ENDBRANCH   2   3
ENDBRANCH   1   2
BRANCH   1  12
ATOM     12  C   UNL     1       0.613 -38.060  18.075  1.00  0.00     0.000 C 
BRANCH  12  13
ATOM     13  C   UNL     1       1.640 -37.938  16.940  1.00  0.00    -0.000 C 
BRANCH  13  14
ATOM     14  C   UNL     1       1.724 -36.494  16.425  1.00  0.00    -0.000 C 
BRANCH  14  15
ATOM     15  C   UNL     1       3.110 -36.141  15.858  1.00  0.00    -0.000 C 
BRANCH  15  16
ATOM     16  C   UNL     1       3.214 -36.317  14.329  1.00  0.00    -0.000 C 
BRANCH  16  17
ATOM     17  C   UNL     1       4.259 -37.378  13.938  1.00  0.00    -0.000 C 
BRANCH  17  18
ATOM     18  C   UNL     1       3.898 -38.779  14.455  1.00  0.00    -0.003 C 
ATOM     19  C   UNL     1       4.955 -39.825  14.102  1.00  0.00     0.004 C 
ENDBRANCH  17  18
ENDBRANCH  16  17
ENDBRANCH  15  16
ENDBRANCH  14  15
ENDBRANCH  13  14
ENDBRANCH  12  13
ENDBRANCH   1  12
TORSDOF 14
ENDMDL
MODEL 6
REMARK VINA RESULT:    -1.657      1.092      2.021
REMARK INTER + INTRA:          -4.304
REMARK INTER:                  -3.196
REMARK INTRA:                  -1.108
REMARK UNBOUND:                -1.291
REMARK SMILES CCCCCCCCCCCCCC[C@H](C)C(=O)[O-]
REMARK SMILES IDX 9 1 10 2 11 3 12 4 13 5 14 6 15 7 16 8 17 9 18 10 19 11 8 12
REMARK SMILES IDX 7 13 6 14 5 15 4 16 3 17 2 18 1 19
REMARK H PARENT
REMARK Flexibility Score: inf
ROOT
ATOM      1  C   UNL     1       4.890 -36.249  20.943  1.00  0.00     0.000 C 
ENDROOT
BRANCH   1   2
ATOM      2  C   UNL     1       5.236 -37.618  20.329  1.00  0.00     0.000 C 
BRANCH   2   3
ATOM      3  C   UNL     1       4.482 -37.883  19.016  1.00  0.00     0.000 C 
BRANCH   3   4
ATOM      4  C   UNL     1       2.991 -37.523  19.103  1.00  0.00     0.000 C 
BRANCH   4   5
ATOM      5  C   UNL     1       2.412 -37.244  17.711  1.00  0.00     0.001 C 
BRANCH   5   6
ATOM      6  C   UNL     1       3.345 -36.330  16.899  1.00  0.00     0.009 C 
BRANCH   6   7
ATOM      7  C   UNL     1       3.054 -36.376  15.383  1.00  0.00     0.032 C 
ATOM      8  C   UNL     1       1.566 -36.607  15.082  1.00  0.00     0.014 C 
BRANCH   7   9
ATOM      9  C   UNL     1       3.877 -37.455  14.736  1.00  0.00     0.044 C 
ATOM     10  O   UNL     1       4.751 -37.166  13.875  1.00  0.00    -0.550 OA
ATOM     11  O   UNL     1       3.677 -38.785  15.088  1.00  0.00    -0.550 OA
ENDBRANCH   7   9
ENDBRANCH   6   7
ENDBRANCH   5   6
ENDBRANCH   4   5
ENDBRANCH   3   4
ENDBRANCH   2   3
ENDBRANCH   1   2
BRANCH   1  12
ATOM     12  C   UNL     1       5.798 -35.886  22.129  1.00  0.00     0.000 C 
BRANCH  12  13
ATOM     13  C   UNL     1       5.306 -34.650  22.896  1.00  0.00    -0.000 C 
BRANCH  13  14
ATOM     14  C   UNL     1       5.760 -34.693  24.361  1.00  0.00    -0.000 C 
BRANCH  14  15
ATOM     15  C   UNL     1       6.122 -36.111  24.835  1.00  0.00    -0.000 C 
BRANCH  15  16
ATOM     16  C   UNL     1       5.122 -36.693  25.857  1.00  0.00    -0.000 C 
BRANCH  16  17
ATOM     17  C   UNL     1       4.645 -38.103  25.462  1.00  0.00    -0.000 C 
BRANCH  17  18
ATOM     18  C   UNL     1       5.226 -38.565  24.118  1.00  0.00    -0.003 C 
ATOM     19  C   UNL     1       5.112 -40.077  23.919  1.00  0.00     0.004 C 
ENDBRANCH  17  18
ENDBRANCH  16  17
ENDBRANCH  15  16
ENDBRANCH  14  15
ENDBRANCH  13  14
ENDBRANCH  12  13
ENDBRANCH   1  12
TORSDOF 14
ENDMDL
MODEL 7
REMARK VINA RESULT:    -1.250      0.993      3.024
REMARK INTER + INTRA:          -3.564
REMARK INTER:                  -1.763
REMARK INTRA:                  -1.801
REMARK UNBOUND:                -1.291
REMARK SMILES CCCCCCCCCCCCCC[C@H](C)C(=O)[O-]
REMARK SMILES IDX 9 1 10 2 11 3 12 4 13 5 14 6 15 7 16 8 17 9 18 10 19 11 8 12
REMARK SMILES IDX 7 13 6 14 5 15 4 16 3 17 2 18 1 19
REMARK H PARENT
REMARK Flexibility Score: inf
ROOT
ATOM      1  C   UNL     1       4.323 -37.748  20.786  1.00  0.00     0.000 C 
ENDROOT
BRANCH   1   2
ATOM      2  C   UNL     1       4.390 -36.210  20.772  1.00  0.00     0.000 C 
BRANCH   2   3
ATOM      3  C   UNL     1       5.578 -35.679  19.954  1.00  0.00     0.000 C 
BRANCH   3   4
ATOM      4  C   UNL     1       5.141 -34.925  18.690  1.00  0.00     0.000 C 
BRANCH   4   5
ATOM      5  C   UNL     1       4.728 -35.903  17.583  1.00  0.00     0.001 C 
BRANCH   5   6
ATOM      6  C   UNL     1       3.390 -35.484  16.949  1.00  0.00     0.009 C 
BRANCH   6   7
ATOM      7  C   UNL     1       2.598 -36.683  16.384  1.00  0.00     0.032 C 
ATOM      8  C   UNL     1       2.528 -37.854  17.373  1.00  0.00     0.014 C 
BRANCH   7   9
ATOM      9  C   UNL     1       3.218 -37.144  15.093  1.00  0.00     0.044 C 
ATOM     10  O   UNL     1       3.189 -36.410  14.070  1.00  0.00    -0.550 OA
ATOM     11  O   UNL     1       3.830 -38.390  15.025  1.00  0.00    -0.550 OA
ENDBRANCH   7   9
ENDBRANCH   6   7
ENDBRANCH   5   6
ENDBRANCH   4   5
ENDBRANCH   3   4
ENDBRANCH   2   3
ENDBRANCH   1   2
BRANCH   1  12
ATOM     12  C   UNL     1       5.714 -38.400  20.777  1.00  0.00     0.000 C 
BRANCH  12  13
ATOM     13  C   UNL     1       5.821 -39.584  21.750  1.00  0.00    -0.000 C 
BRANCH  13  14
ATOM     14  C   UNL     1       4.767 -39.481  22.861  1.00  0.00    -0.000 C 
BRANCH  14  15
ATOM     15  C   UNL     1       5.387 -39.374  24.266  1.00  0.00    -0.000 C 
BRANCH  15  16
ATOM     16  C   UNL     1       5.298 -37.958  24.873  1.00  0.00    -0.000 C 
BRANCH  16  17
ATOM     17  C   UNL     1       6.081 -36.923  24.044  1.00  0.00    -0.000 C 
BRANCH  17  18
ATOM     18  C   UNL     1       6.031 -35.516  24.659  1.00  0.00    -0.003 C 
ATOM     19  C   UNL     1       6.124 -34.412  23.606  1.00  0.00     0.004 C 
ENDBRANCH  17  18
ENDBRANCH  16  17
ENDBRANCH  15  16
ENDBRANCH  14  15
ENDBRANCH  13  14
ENDBRANCH  12  13
ENDBRANCH   1  12
TORSDOF 14
ENDMDL
