MODEL 1
REMARK VINA RESULT:    -7.485      0.000      0.000
REMARK INTER + INTRA:         -14.273
REMARK INTER:                 -13.174
REMARK INTRA:                  -1.099
REMARK UNBOUND:                -1.099
REMARK SMILES CCCCCCC=CCCCCCCCC(=O)[O-]
REMARK SMILES IDX 10 1 11 2 12 3 13 4 14 5 15 6 16 7 17 8 18 9 9 10 8 11 7 12
REMARK SMILES IDX 6 13 5 14 4 15 3 16 2 17 1 18
REMARK H PARENT
REMARK Flexibility Score: inf
ROOT
ATOM      1  C   UNL     1       2.442   0.605  -5.120  1.00  0.00     0.004 C 
ENDROOT
BRANCH   1   2
ATOM      2  C   UNL     1       3.563   1.497  -5.681  1.00  0.00     0.000 C 
BRANCH   2   3
ATOM      3  C   UNL     1       3.027   2.772  -6.351  1.00  0.00     0.000 C 
BRANCH   3   4
ATOM      4  C   UNL     1       3.748   4.041  -5.873  1.00  0.00     0.000 C 
BRANCH   4   5
ATOM      5  C   UNL     1       4.844   3.699  -4.855  1.00  0.00     0.006 C 
BRANCH   5   6
ATOM      6  C   UNL     1       4.622   4.447  -3.537  1.00  0.00     0.053 C 
BRANCH   6   7
ATOM      7  C   UNL     1       5.749   5.394  -3.274  1.00  0.00     0.041 C 
ATOM      8  O   UNL     1       6.072   5.680  -2.092  1.00  0.00    -0.550 OA
ATOM      9  O   UNL     1       6.476   5.921  -4.334  1.00  0.00    -0.550 OA
ENDBRANCH   6   7
ENDBRANCH   5   6
ENDBRANCH   4   5
ENDBRANCH   3   4
ENDBRANCH   2   3
ENDBRANCH   1   2
BRANCH   1  10
ATOM     10  C   UNL     1       2.932  -0.278  -3.966  1.00  0.00     0.027 C 
BRANCH  10  11
ATOM     11  C   UNL     1       4.406  -0.075  -3.699  1.00  0.00    -0.031 C 
ATOM     12  C   UNL     1       5.177  -0.893  -2.959  1.00  0.00    -0.031 C 
BRANCH  12  13
ATOM     13  C   UNL     1       4.684  -2.121  -2.237  1.00  0.00     0.027 C 
BRANCH  13  14
ATOM     14  C   UNL     1       5.603  -3.323  -2.497  1.00  0.00     0.004 C 
BRANCH  14  15
ATOM     15  C   UNL     1       4.828  -4.593  -2.891  1.00  0.00     0.000 C 
BRANCH  15  16
ATOM     16  C   UNL     1       3.302  -4.502  -2.710  1.00  0.00    -0.000 C 
BRANCH  16  17
ATOM     17  C   UNL     1       2.577  -5.803  -3.088  1.00  0.00    -0.003 C 
ATOM     18  C   UNL     1       3.027  -6.306  -4.455  1.00  0.00     0.004 C 
ENDBRANCH  16  17
ENDBRANCH  15  16
ENDBRANCH  14  15
ENDBRANCH  13  14
ENDBRANCH  12  13
ENDBRANCH  10  11
ENDBRANCH   1  10
TORSDOF 13
ENDMDL
MODEL 2
REMARK VINA RESULT:    -7.473      3.796      4.601
REMARK INTER + INTRA:         -14.251
REMARK INTER:                 -13.080
REMARK INTRA:                  -1.171
REMARK UNBOUND:                -1.099
REMARK SMILES CCCCCCC=CCCCCCCCC(=O)[O-]
REMARK SMILES IDX 10 1 11 2 12 3 13 4 14 5 15 6 16 7 17 8 18 9 9 10 8 11 7 12
REMARK SMILES IDX 6 13 5 14 4 15 3 16 2 17 1 18
REMARK H PARENT
REMARK Flexibility Score: inf
ROOT
ATOM      1  C   UNL     1       4.122   1.706  -5.120  1.00  0.00     0.004 C 
ENDROOT
BRANCH   1   2
ATOM      2  C   UNL     1       4.466   2.004  -6.590  1.00  0.00     0.000 C 
BRANCH   2   3
ATOM      3  C   UNL     1       3.227   2.363  -7.426  1.00  0.00     0.000 C 
BRANCH   3   4
ATOM      4  C   UNL     1       1.938   2.398  -6.593  1.00  0.00     0.000 C 
BRANCH   4   5
ATOM      5  C   UNL     1       0.988   1.266  -7.005  1.00  0.00     0.006 C 
BRANCH   5   6
ATOM      6  C   UNL     1       0.834   0.240  -5.878  1.00  0.00     0.053 C 
BRANCH   6   7
ATOM      7  C   UNL     1      -0.413  -0.564  -6.067  1.00  0.00     0.041 C 
ATOM      8  O   UNL     1      -1.117  -0.883  -5.074  1.00  0.00    -0.550 OA
ATOM      9  O   UNL     1      -0.824  -0.919  -7.346  1.00  0.00    -0.550 OA
ENDBRANCH   6   7
ENDBRANCH   5   6
ENDBRANCH   4   5
ENDBRANCH   3   4
ENDBRANCH   2   3
ENDBRANCH   1   2
BRANCH   1  10
ATOM     10  C   UNL     1       4.353   0.233  -4.761  1.00  0.00     0.027 C 
BRANCH  10  11
ATOM     11  C   UNL     1       3.651  -0.140  -3.475  1.00  0.00    -0.031 C 
ATOM     12  C   UNL     1       4.228  -0.772  -2.435  1.00  0.00    -0.031 C 
BRANCH  12  13
ATOM     13  C   UNL     1       5.657  -1.251  -2.406  1.00  0.00     0.027 C 
BRANCH  13  14
ATOM     14  C   UNL     1       5.750  -2.740  -2.769  1.00  0.00     0.004 C 
BRANCH  14  15
ATOM     15  C   UNL     1       4.473  -3.522  -2.413  1.00  0.00     0.000 C 
BRANCH  15  16
ATOM     16  C   UNL     1       4.427  -4.964  -2.948  1.00  0.00    -0.000 C 
BRANCH  16  17
ATOM     17  C   UNL     1       3.006  -5.422  -3.310  1.00  0.00    -0.003 C 
ATOM     18  C   UNL     1       3.021  -6.369  -4.505  1.00  0.00     0.004 C 
ENDBRANCH  16  17
ENDBRANCH  15  16
ENDBRANCH  14  15
ENDBRANCH  13  14
ENDBRANCH  12  13
ENDBRANCH  10  11
ENDBRANCH   1  10
TORSDOF 13
ENDMDL
MODEL 3
REMARK VINA RESULT:    -7.340      4.356      7.828
REMARK INTER + INTRA:         -14.017
REMARK INTER:                 -12.675
REMARK INTRA:                  -1.342
REMARK UNBOUND:                -1.099
REMARK SMILES CCCCCCC=CCCCCCCCC(=O)[O-]
REMARK SMILES IDX 10 1 11 2 12 3 13 4 14 5 15 6 16 7 17 8 18 9 9 10 8 11 7 12
REMARK SMILES IDX 6 13 5 14 4 15 3 16 2 17 1 18
REMARK H PARENT
REMARK Flexibility Score: inf
ROOT
ATOM      1  C   UNL     1       3.400  -0.320  -3.718  1.00  0.00     0.004 C 
ENDROOT
BRANCH   1   2
ATOM      2  C   UNL     1       4.156  -0.867  -2.494  1.00  0.00     0.000 C 
BRANCH   2   3
ATOM      3  C   UNL     1       5.572  -1.354  -2.841  1.00  0.00     0.000 C 
BRANCH   3   4
ATOM      4  C   UNL     1       5.780  -2.843  -2.528  1.00  0.00     0.000 C 
BRANCH   4   5
ATOM      5  C   UNL     1       4.443  -3.595  -2.525  1.00  0.00     0.006 C 
BRANCH   5   6
ATOM      6  C   UNL     1       4.627  -5.043  -2.989  1.00  0.00     0.053 C 
BRANCH   6   7
ATOM      7  C   UNL     1       3.306  -5.656  -3.330  1.00  0.00     0.041 C 
ATOM      8  O   UNL     1       2.375  -5.666  -2.483  1.00  0.00    -0.550 OA
ATOM      9  O   UNL     1       3.086  -6.174  -4.601  1.00  0.00    -0.550 OA
ENDBRANCH   6   7
ENDBRANCH   5   6
ENDBRANCH   4   5
ENDBRANCH   3   4
ENDBRANCH   2   3
ENDBRANCH   1   2
BRANCH   1  10
ATOM     10  C   UNL     1       4.114   0.884  -4.345  1.00  0.00     0.027 C 
BRANCH  10  11
ATOM     11  C   UNL     1       4.433   0.641  -5.802  1.00  0.00    -0.031 C 
ATOM     12  C   UNL     1       4.698   1.603  -6.707  1.00  0.00    -0.031 C 
BRANCH  12  13
ATOM     13  C   UNL     1       4.675   3.082  -6.420  1.00  0.00     0.027 C 
BRANCH  13  14
ATOM     14  C   UNL     1       3.291   3.681  -6.712  1.00  0.00     0.004 C 
BRANCH  14  15
ATOM     15  C   UNL     1       2.438   2.790  -7.634  1.00  0.00     0.000 C 
BRANCH  15  16
ATOM     16  C   UNL     1       1.151   2.242  -6.993  1.00  0.00    -0.000 C 
BRANCH  16  17
ATOM     17  C   UNL     1       1.012   0.719  -7.140  1.00  0.00    -0.003 C 
ATOM     18  C   UNL     1       0.474   0.090  -5.860  1.00  0.00     0.004 C 
ENDBRANCH  16  17
ENDBRANCH  15  16
ENDBRANCH  14  15
ENDBRANCH  13  14
ENDBRANCH  12  13
ENDBRANCH  10  11
ENDBRANCH   1  10
TORSDOF 13
ENDMDL
MODEL 4
REMARK VINA RESULT:    -7.288      1.817      2.456
REMARK INTER + INTRA:         -13.925
REMARK INTER:                 -12.699
REMARK INTRA:                  -1.226
REMARK UNBOUND:                -1.099
REMARK SMILES CCCCCCC=CCCCCCCCC(=O)[O-]
REMARK SMILES IDX 10 1 11 2 12 3 13 4 14 5 15 6 16 7 17 8 18 9 9 10 8 11 7 12
REMARK SMILES IDX 6 13 5 14 4 15 3 16 2 17 1 18
REMARK H PARENT
REMARK Flexibility Score: inf
ROOT
ATOM      1  C   UNL     1       1.984   0.606  -5.938  1.00  0.00     0.004 C 
ENDROOT
BRANCH   1   2
ATOM      2  C   UNL     1       2.299   0.658  -7.444  1.00  0.00     0.000 C 
BRANCH   2   3
ATOM      3  C   UNL     1       3.743   0.236  -7.762  1.00  0.00     0.000 C 
BRANCH   3   4
ATOM      4  C   UNL     1       4.459   1.228  -8.691  1.00  0.00     0.000 C 
BRANCH   4   5
ATOM      5  C   UNL     1       4.433   2.645  -8.104  1.00  0.00     0.006 C 
BRANCH   5   6
ATOM      6  C   UNL     1       5.281   2.728  -6.832  1.00  0.00     0.053 C 
BRANCH   6   7
ATOM      7  C   UNL     1       4.672   3.683  -5.855  1.00  0.00     0.041 C 
ATOM      8  O   UNL     1       5.403   4.331  -5.062  1.00  0.00    -0.550 OA
ATOM      9  O   UNL     1       3.298   3.894  -5.855  1.00  0.00    -0.550 OA
ENDBRANCH   6   7
ENDBRANCH   5   6
ENDBRANCH   4   5
ENDBRANCH   3   4
ENDBRANCH   2   3
ENDBRANCH   1   2
BRANCH   1  10
ATOM     10  C   UNL     1       3.242   0.367  -5.094  1.00  0.00     0.027 C 
BRANCH  10  11
ATOM     11  C   UNL     1       2.894  -0.146  -3.716  1.00  0.00    -0.031 C 
ATOM     12  C   UNL     1       3.744  -0.789  -2.893  1.00  0.00    -0.031 C 
BRANCH  12  13
ATOM     13  C   UNL     1       5.169  -1.142  -3.234  1.00  0.00     0.027 C 
BRANCH  13  14
ATOM     14  C   UNL     1       5.544  -2.526  -2.686  1.00  0.00     0.004 C 
BRANCH  14  15
ATOM     15  C   UNL     1       4.316  -3.416  -2.419  1.00  0.00     0.000 C 
BRANCH  15  16
ATOM     16  C   UNL     1       4.355  -4.794  -3.102  1.00  0.00    -0.000 C 
BRANCH  16  17
ATOM     17  C   UNL     1       2.964  -5.430  -3.244  1.00  0.00    -0.003 C 
ATOM     18  C   UNL     1       2.943  -6.460  -4.369  1.00  0.00     0.004 C 
ENDBRANCH  16  17
ENDBRANCH  15  16
ENDBRANCH  14  15
ENDBRANCH  13  14
ENDBRANCH  12  13
ENDBRANCH  10  11
ENDBRANCH   1  10
TORSDOF 13
ENDMDL
MODEL 5
REMARK VINA RESULT:    -7.248      4.244      8.467
REMARK INTER + INTRA:         -13.855
REMARK INTER:                 -13.062
REMARK INTRA:                  -0.792
REMARK UNBOUND:                -1.099
REMARK SMILES CCCCCCC=CCCCCCCCC(=O)[O-]
REMARK SMILES IDX 10 1 11 2 12 3 13 4 14 5 15 6 16 7 17 8 18 9 9 10 8 11 7 12
REMARK SMILES IDX 6 13 5 14 4 15 3 16 2 17 1 18
REMARK H PARENT
REMARK Flexibility Score: inf
ROOT
ATOM      1  C   UNL     1       2.883  -0.484  -3.615  1.00  0.00     0.004 C 
ENDROOT
BRANCH   1   2
ATOM      2  C   UNL     1       3.743  -1.003  -2.450  1.00  0.00     0.000 C 
BRANCH   2   3
ATOM      3  C   UNL     1       5.174  -1.360  -2.882  1.00  0.00     0.000 C 
BRANCH   3   4
ATOM      4  C   UNL     1       5.543  -2.817  -2.564  1.00  0.00     0.000 C 
BRANCH   4   5
ATOM      5  C   UNL     1       4.288  -3.697  -2.491  1.00  0.00     0.006 C 
BRANCH   5   6
ATOM      6  C   UNL     1       4.536  -5.062  -3.140  1.00  0.00     0.053 C 
BRANCH   6   7
ATOM      7  C   UNL     1       3.243  -5.777  -3.370  1.00  0.00     0.041 C 
ATOM      8  O   UNL     1       2.392  -5.860  -2.445  1.00  0.00    -0.550 OA
ATOM      9  O   UNL     1       2.954  -6.308  -4.621  1.00  0.00    -0.550 OA
ENDBRANCH   6   7
ENDBRANCH   5   6
ENDBRANCH   4   5
ENDBRANCH   3   4
ENDBRANCH   2   3
ENDBRANCH   1   2
BRANCH   1  10
ATOM     10  C   UNL     1       3.673   0.447  -4.544  1.00  0.00     0.027 C 
BRANCH  10  11
ATOM     11  C   UNL     1       2.821   0.933  -5.694  1.00  0.00    -0.031 C 
ATOM     12  C   UNL     1       3.295   1.497  -6.822  1.00  0.00    -0.031 C 
BRANCH  12  13
ATOM     13  C   UNL     1       4.750   1.775  -7.098  1.00  0.00     0.027 C 
BRANCH  13  14
ATOM     14  C   UNL     1       5.082   3.258  -6.876  1.00  0.00     0.004 C 
BRANCH  14  15
ATOM     15  C   UNL     1       4.185   3.918  -5.814  1.00  0.00     0.000 C 
BRANCH  15  16
ATOM     16  C   UNL     1       4.829   4.066  -4.424  1.00  0.00    -0.000 C 
BRANCH  16  17
ATOM     17  C   UNL     1       5.991   5.070  -4.408  1.00  0.00    -0.003 C 
ATOM     18  C   UNL     1       6.074   5.793  -3.068  1.00  0.00     0.004 C 
ENDBRANCH  16  17
ENDBRANCH  15  16
ENDBRANCH  14  15
ENDBRANCH  13  14
ENDBRANCH  12  13
ENDBRANCH  10  11
ENDBRANCH   1  10
TORSDOF 13
ENDMDL
MODEL 6
REMARK VINA RESULT:    -7.227      4.343      8.184
REMARK INTER + INTRA:         -13.818
REMARK INTER:                 -12.508
REMARK INTRA:                  -1.309
REMARK UNBOUND:                -1.099
REMARK SMILES CCCCCCC=CCCCCCCCC(=O)[O-]
REMARK SMILES IDX 10 1 11 2 12 3 13 4 14 5 15 6 16 7 17 8 18 9 9 10 8 11 7 12
REMARK SMILES IDX 6 13 5 14 4 15 3 16 2 17 1 18
REMARK H PARENT
REMARK Flexibility Score: inf
ROOT
ATOM      1  C   UNL     1       2.788  -0.496  -3.640  1.00  0.00     0.004 C 
ENDROOT
BRANCH   1   2
ATOM      2  C   UNL     1       3.917  -0.720  -2.620  1.00  0.00     0.000 C 
BRANCH   2   3
ATOM      3  C   UNL     1       5.163  -1.365  -3.246  1.00  0.00     0.000 C 
BRANCH   3   4
ATOM      4  C   UNL     1       5.473  -2.751  -2.659  1.00  0.00     0.000 C 
BRANCH   4   5
ATOM      5  C   UNL     1       4.199  -3.600  -2.559  1.00  0.00     0.006 C 
BRANCH   5   6
ATOM      6  C   UNL     1       4.488  -5.065  -2.900  1.00  0.00     0.053 C 
BRANCH   6   7
ATOM      7  C   UNL     1       3.239  -5.755  -3.349  1.00  0.00     0.041 C 
ATOM      8  O   UNL     1       2.296  -5.950  -2.539  1.00  0.00    -0.550 OA
ATOM      9  O   UNL     1       3.096  -6.139  -4.677  1.00  0.00    -0.550 OA
ENDBRANCH   6   7
ENDBRANCH   5   6
ENDBRANCH   4   5
ENDBRANCH   3   4
ENDBRANCH   2   3
ENDBRANCH   1   2
BRANCH   1  10
ATOM     10  C   UNL     1       3.224   0.420  -4.791  1.00  0.00     0.027 C 
BRANCH  10  11
ATOM     11  C   UNL     1       2.103   0.638  -5.780  1.00  0.00    -0.031 C 
ATOM     12  C   UNL     1       2.203   0.466  -7.112  1.00  0.00    -0.031 C 
BRANCH  12  13
ATOM     13  C   UNL     1       3.464   0.070  -7.835  1.00  0.00     0.027 C 
BRANCH  13  14
ATOM     14  C   UNL     1       4.054   1.257  -8.610  1.00  0.00     0.004 C 
BRANCH  14  15
ATOM     15  C   UNL     1       4.841   2.226  -7.709  1.00  0.00     0.000 C 
BRANCH  15  16
ATOM     16  C   UNL     1       4.230   3.632  -7.580  1.00  0.00    -0.000 C 
BRANCH  16  17
ATOM     17  C   UNL     1       3.556   3.869  -6.220  1.00  0.00    -0.003 C 
ATOM     18  C   UNL     1       4.587   3.918  -5.097  1.00  0.00     0.004 C 
ENDBRANCH  16  17
ENDBRANCH  15  16
ENDBRANCH  14  15
ENDBRANCH  13  14
ENDBRANCH  12  13
ENDBRANCH  10  11
ENDBRANCH   1  10
TORSDOF 13
ENDMDL
MODEL 7
REMARK VINA RESULT:    -7.120      2.429      3.070
REMARK INTER + INTRA:         -13.630
REMARK INTER:                 -12.623
REMARK INTRA:                  -1.007
REMARK UNBOUND:                -1.099
REMARK SMILES CCCCCCC=CCCCCCCCC(=O)[O-]
REMARK SMILES IDX 10 1 11 2 12 3 13 4 14 5 15 6 16 7 17 8 18 9 9 10 8 11 7 12
REMARK SMILES IDX 6 13 5 14 4 15 3 16 2 17 1 18
REMARK H PARENT
REMARK Flexibility Score: inf
ROOT
ATOM      1  C   UNL     1       3.582   0.495  -6.072  1.00  0.00     0.004 C 
ENDROOT
BRANCH   1   2
ATOM      2  C   UNL     1       2.090   0.620  -5.717  1.00  0.00     0.000 C 
BRANCH   2   3
ATOM      3  C   UNL     1       1.240   1.124  -6.894  1.00  0.00     0.000 C 
BRANCH   3   4
ATOM      4  C   UNL     1       1.278   2.653  -7.041  1.00  0.00     0.000 C 
BRANCH   4   5
ATOM      5  C   UNL     1       1.762   3.057  -8.440  1.00  0.00     0.006 C 
BRANCH   5   6
ATOM      6  C   UNL     1       2.862   4.119  -8.354  1.00  0.00     0.053 C 
BRANCH   6   7
ATOM      7  C   UNL     1       4.105   3.541  -7.755  1.00  0.00     0.041 C 
ATOM      8  O   UNL     1       4.863   2.815  -8.449  1.00  0.00    -0.550 OA
ATOM      9  O   UNL     1       4.452   3.847  -6.445  1.00  0.00    -0.550 OA
ENDBRANCH   6   7
ENDBRANCH   5   6
ENDBRANCH   4   5
ENDBRANCH   3   4
ENDBRANCH   2   3
ENDBRANCH   1   2
BRANCH   1  10
ATOM     10  C   UNL     1       4.464   0.369  -4.823  1.00  0.00     0.027 C 
BRANCH  10  11
ATOM     11  C   UNL     1       3.679  -0.153  -3.642  1.00  0.00    -0.031 C 
ATOM     12  C   UNL     1       4.200  -0.847  -2.613  1.00  0.00    -0.031 C 
BRANCH  12  13
ATOM     13  C   UNL     1       5.646  -1.256  -2.498  1.00  0.00     0.027 C 
BRANCH  13  14
ATOM     14  C   UNL     1       5.791  -2.785  -2.500  1.00  0.00     0.004 C 
BRANCH  14  15
ATOM     15  C   UNL     1       4.438  -3.513  -2.406  1.00  0.00     0.000 C 
BRANCH  15  16
ATOM     16  C   UNL     1       4.378  -4.865  -3.139  1.00  0.00    -0.000 C 
BRANCH  16  17
ATOM     17  C   UNL     1       2.955  -5.436  -3.224  1.00  0.00    -0.003 C 
ATOM     18  C   UNL     1       2.829  -6.431  -4.373  1.00  0.00     0.004 C 
ENDBRANCH  16  17
ENDBRANCH  15  16
ENDBRANCH  14  15
ENDBRANCH  13  14
ENDBRANCH  12  13
ENDBRANCH  10  11
ENDBRANCH   1  10
TORSDOF 13
ENDMDL
MODEL 8
REMARK VINA RESULT:    -7.119      3.693      7.933
REMARK INTER + INTRA:         -13.628
REMARK INTER:                 -12.554
REMARK INTRA:                  -1.074
REMARK UNBOUND:                -1.099
REMARK SMILES CCCCCCC=CCCCCCCCC(=O)[O-]
REMARK SMILES IDX 10 1 11 2 12 3 13 4 14 5 15 6 16 7 17 8 18 9 9 10 8 11 7 12
REMARK SMILES IDX 6 13 5 14 4 15 3 16 2 17 1 18
REMARK H PARENT
REMARK Flexibility Score: inf
ROOT
ATOM      1  C   UNL     1       1.810   0.313  -5.166  1.00  0.00     0.004 C 
ENDROOT
BRANCH   1   2
ATOM      2  C   UNL     1       3.293   0.587  -4.858  1.00  0.00     0.000 C 
BRANCH   2   3
ATOM      3  C   UNL     1       3.729   0.023  -3.497  1.00  0.00     0.000 C 
BRANCH   3   4
ATOM      4  C   UNL     1       4.976  -0.869  -3.597  1.00  0.00     0.000 C 
BRANCH   4   5
ATOM      5  C   UNL     1       5.087  -1.795  -2.379  1.00  0.00     0.006 C 
BRANCH   5   6
ATOM      6  C   UNL     1       4.218  -3.044  -2.558  1.00  0.00     0.053 C 
BRANCH   6   7
ATOM      7  C   UNL     1       5.070  -4.272  -2.612  1.00  0.00     0.041 C 
ATOM      8  O   UNL     1       4.611  -5.340  -3.097  1.00  0.00    -0.550 OA
ATOM      9  O   UNL     1       6.387  -4.225  -2.173  1.00  0.00    -0.550 OA
ENDBRANCH   6   7
ENDBRANCH   5   6
ENDBRANCH   4   5
ENDBRANCH   3   4
ENDBRANCH   2   3
ENDBRANCH   1   2
BRANCH   1  10
ATOM     10  C   UNL     1       1.501   0.431  -6.664  1.00  0.00     0.027 C 
BRANCH  10  11
ATOM     11  C   UNL     1       0.757   1.709  -6.976  1.00  0.00    -0.031 C 
ATOM     12  C   UNL     1       1.330   2.860  -7.377  1.00  0.00    -0.031 C 
BRANCH  12  13
ATOM     13  C   UNL     1       2.814   3.071  -7.534  1.00  0.00     0.027 C 
BRANCH  13  14
ATOM     14  C   UNL     1       3.340   4.090  -6.512  1.00  0.00     0.004 C 
BRANCH  14  15
ATOM     15  C   UNL     1       4.638   3.631  -5.824  1.00  0.00     0.000 C 
BRANCH  15  16
ATOM     16  C   UNL     1       4.798   4.098  -4.367  1.00  0.00    -0.000 C 
BRANCH  16  17
ATOM     17  C   UNL     1       5.890   5.165  -4.199  1.00  0.00    -0.003 C 
ATOM     18  C   UNL     1       5.908   5.714  -2.776  1.00  0.00     0.004 C 
ENDBRANCH  16  17
ENDBRANCH  15  16
ENDBRANCH  14  15
ENDBRANCH  13  14
ENDBRANCH  12  13
ENDBRANCH  10  11
ENDBRANCH   1  10
TORSDOF 13
ENDMDL
MODEL 9
REMARK VINA RESULT:    -6.977      4.548      8.030
REMARK INTER + INTRA:         -13.377
REMARK INTER:                 -11.911
REMARK INTRA:                  -1.467
REMARK UNBOUND:                -1.099
REMARK SMILES CCCCCCC=CCCCCCCCC(=O)[O-]
REMARK SMILES IDX 10 1 11 2 12 3 13 4 14 5 15 6 16 7 17 8 18 9 9 10 8 11 7 12
REMARK SMILES IDX 6 13 5 14 4 15 3 16 2 17 1 18
REMARK H PARENT
REMARK Flexibility Score: inf
ROOT
ATOM      1  C   UNL     1       4.486   0.124  -4.527  1.00  0.00     0.004 C 
ENDROOT
BRANCH   1   2
ATOM      2  C   UNL     1       4.078  -0.663  -3.270  1.00  0.00     0.000 C 
BRANCH   2   3
ATOM      3  C   UNL     1       5.287  -1.153  -2.458  1.00  0.00     0.000 C 
BRANCH   3   4
ATOM      4  C   UNL     1       5.535  -2.661  -2.614  1.00  0.00     0.000 C 
BRANCH   4   5
ATOM      5  C   UNL     1       4.217  -3.413  -2.837  1.00  0.00     0.006 C 
BRANCH   5   6
ATOM      6  C   UNL     1       4.463  -4.917  -2.990  1.00  0.00     0.053 C 
BRANCH   6   7
ATOM      7  C   UNL     1       3.196  -5.621  -3.359  1.00  0.00     0.041 C 
ATOM      8  O   UNL     1       3.047  -6.090  -4.518  1.00  0.00    -0.550 OA
ATOM      9  O   UNL     1       2.199  -5.804  -2.409  1.00  0.00    -0.550 OA
ENDBRANCH   6   7
ENDBRANCH   5   6
ENDBRANCH   4   5
ENDBRANCH   3   4
ENDBRANCH   2   3
ENDBRANCH   1   2
BRANCH   1  10
ATOM     10  C   UNL     1       3.412   1.133  -4.951  1.00  0.00     0.027 C 
BRANCH  10  11
ATOM     11  C   UNL     1       2.232   0.446  -5.599  1.00  0.00    -0.031 C 
ATOM     12  C   UNL     1       1.377   1.028  -6.461  1.00  0.00    -0.031 C 
BRANCH  12  13
ATOM     13  C   UNL     1       1.433   2.474  -6.883  1.00  0.00     0.027 C 
BRANCH  13  14
ATOM     14  C   UNL     1       2.059   2.620  -8.278  1.00  0.00     0.004 C 
BRANCH  14  15
ATOM     15  C   UNL     1       3.594   2.736  -8.234  1.00  0.00     0.000 C 
BRANCH  15  16
ATOM     16  C   UNL     1       4.344   1.724  -9.116  1.00  0.00    -0.000 C 
BRANCH  16  17
ATOM     17  C   UNL     1       4.428   0.327  -8.484  1.00  0.00    -0.003 C 
ATOM     18  C   UNL     1       3.609  -0.686  -9.277  1.00  0.00     0.004 C 
ENDBRANCH  16  17
ENDBRANCH  15  16
ENDBRANCH  14  15
ENDBRANCH  13  14
ENDBRANCH  12  13
ENDBRANCH  10  11
ENDBRANCH   1  10
TORSDOF 13
ENDMDL
