MODEL 1
REMARK VINA RESULT:    -1.701      0.000      0.000
REMARK INTER + INTRA:          -1.906
REMARK INTER:                  -2.099
REMARK INTRA:                   0.193
REMARK UNBOUND:                 0.193
REMARK SMILES O=c1c(O)c(-c2cc(O)c(O)c(O)c2)oc2cc(O)cc(O)c12
REMARK SMILES IDX 5 1 3 2 2 3 1 4 23 5 21 6 20 7 18 8 17 9 16 10 15 11 6 12
REMARK SMILES IDX 7 13 8 14 14 15 10 16 12 17 9 18 11 20 13 22 4 24 22 26
REMARK SMILES IDX 19 28
REMARK H PARENT 9 19 11 21 13 23 4 25 22 27 19 29
REMARK Flexibility Score: inf
ROOT
ATOM      1  C   UNL     1     -18.981   9.149  26.431  1.00  0.00     0.180 A 
ATOM      2  C   UNL     1     -17.593   9.115  26.653  1.00  0.00     0.208 A 
ATOM      3  C   UNL     1     -16.726   9.348  25.575  1.00  0.00     0.238 A 
ATOM      4  O   UNL     1     -15.485   9.262  25.768  1.00  0.00    -0.285 OA
ATOM      5  C   UNL     1     -17.255   9.629  24.293  1.00  0.00     0.111 A 
ATOM      6  C   UNL     1     -16.469   9.922  23.137  1.00  0.00     0.134 A 
ATOM      7  C   UNL     1     -17.096  10.056  21.891  1.00  0.00     0.093 A 
ATOM      8  C   UNL     1     -18.486   9.973  21.772  1.00  0.00     0.123 A 
ATOM      9  C   UNL     1     -19.265   9.749  22.903  1.00  0.00     0.094 A 
ATOM     10  C   UNL     1     -18.667   9.574  24.154  1.00  0.00     0.146 A 
ATOM     11  O   UNL     1     -19.446   9.351  25.205  1.00  0.00    -0.452 OA
ENDROOT
BRANCH   1  12
ATOM     12  C   UNL     1     -19.958   8.937  27.524  1.00  0.00     0.029 A 
ATOM     13  C   UNL     1     -21.170   9.644  27.568  1.00  0.00     0.062 A 
ATOM     14  C   UNL     1     -22.090   9.412  28.598  1.00  0.00     0.162 A 
ATOM     15  C   UNL     1     -19.697   7.969  28.505  1.00  0.00     0.062 A 
ATOM     16  C   UNL     1     -21.818   8.462  29.591  1.00  0.00     0.200 A 
ATOM     17  C   UNL     1     -20.608   7.728  29.541  1.00  0.00     0.162 A 
BRANCH  14  18
ATOM     18  O   UNL     1     -23.288  10.125  28.639  1.00  0.00    -0.504 OA
ATOM     19  H   UNL     1     -23.317  11.101  28.911  1.00  0.00     0.293 HD
ENDBRANCH  14  18
BRANCH  16  20
ATOM     20  O   UNL     1     -22.767   8.275  30.599  1.00  0.00    -0.502 OA
ATOM     21  H   UNL     1     -23.698   8.663  30.579  1.00  0.00     0.293 HD
ENDBRANCH  16  20
BRANCH  17  22
ATOM     22  O   UNL     1     -20.274   6.758  30.487  1.00  0.00    -0.504 OA
ATOM     23  H   UNL     1     -19.367   6.319  30.552  1.00  0.00     0.293 HD
ENDBRANCH  17  22
ENDBRANCH   1  12
BRANCH   2  24
ATOM     24  O   UNL     1     -17.091   8.813  27.923  1.00  0.00    -0.502 OA
ATOM     25  H   UNL     1     -16.610   7.946  28.126  1.00  0.00     0.293 HD
ENDBRANCH   2  24
BRANCH   6  26
ATOM     26  O   UNL     1     -15.085  10.115  23.164  1.00  0.00    -0.507 OA
ATOM     27  H   UNL     1     -14.585  10.774  22.588  1.00  0.00     0.293 HD
ENDBRANCH   6  26
BRANCH   8  28
ATOM     28  O   UNL     1     -19.101  10.125  20.531  1.00  0.00    -0.508 OA
ATOM     29  H   UNL     1     -18.661   9.803  19.677  1.00  0.00     0.293 HD
ENDBRANCH   8  28
TORSDOF 7
ENDMDL
MODEL 2
REMARK VINA RESULT:     0.870      1.817      6.971
REMARK INTER + INTRA:           1.266
REMARK INTER:                   1.101
REMARK INTRA:                   0.165
REMARK UNBOUND:                 0.193
REMARK SMILES O=c1c(O)c(-c2cc(O)c(O)c(O)c2)oc2cc(O)cc(O)c12
REMARK SMILES IDX 5 1 3 2 2 3 1 4 23 5 21 6 20 7 18 8 17 9 16 10 15 11 6 12
REMARK SMILES IDX 7 13 8 14 14 15 10 16 12 17 9 18 11 20 13 22 4 24 22 26
REMARK SMILES IDX 19 28
REMARK H PARENT 9 19 11 21 13 23 4 25 22 27 19 29
REMARK Flexibility Score: inf
ROOT
ATOM      1  C   UNL     1     -19.349   9.568  27.512  1.00  0.00     0.180 A 
ATOM      2  C   UNL     1     -19.010   9.739  28.865  1.00  0.00     0.208 A 
ATOM      3  C   UNL     1     -20.037   9.913  29.807  1.00  0.00     0.238 A 
ATOM      4  O   UNL     1     -19.726  10.120  31.009  1.00  0.00    -0.285 OA
ATOM      5  C   UNL     1     -21.388   9.897  29.386  1.00  0.00     0.111 A 
ATOM      6  C   UNL     1     -22.511  10.022  30.260  1.00  0.00     0.134 A 
ATOM      7  C   UNL     1     -23.799  10.124  29.719  1.00  0.00     0.093 A 
ATOM      8  C   UNL     1     -24.010  10.038  28.340  1.00  0.00     0.123 A 
ATOM      9  C   UNL     1     -22.927   9.855  27.485  1.00  0.00     0.094 A 
ATOM     10  C   UNL     1     -21.626   9.787  27.991  1.00  0.00     0.146 A 
ATOM     11  O   UNL     1     -20.622   9.623  27.140  1.00  0.00    -0.452 OA
ENDROOT
BRANCH   1  12
ATOM     12  C   UNL     1     -18.323   9.354  26.465  1.00  0.00     0.029 A 
ATOM     13  C   UNL     1     -17.144   8.641  26.732  1.00  0.00     0.062 A 
ATOM     14  C   UNL     1     -16.197   8.430  25.722  1.00  0.00     0.162 A 
ATOM     15  C   UNL     1     -18.557   9.822  25.163  1.00  0.00     0.062 A 
ATOM     16  C   UNL     1     -16.422   8.918  24.427  1.00  0.00     0.200 A 
ATOM     17  C   UNL     1     -17.619   9.619  24.144  1.00  0.00     0.162 A 
BRANCH  14  18
ATOM     18  O   UNL     1     -15.025   7.728  25.997  1.00  0.00    -0.504 OA
ATOM     19  H   UNL     1     -14.998   6.715  25.992  1.00  0.00     0.293 HD
ENDBRANCH  14  18
BRANCH  16  20
ATOM     20  O   UNL     1     -15.442   8.686  23.459  1.00  0.00    -0.502 OA
ATOM     21  H   UNL     1     -15.407   9.154  22.565  1.00  0.00     0.293 HD
ENDBRANCH  16  20
BRANCH  17  22
ATOM     22  O   UNL     1     -17.916  10.123  22.877  1.00  0.00    -0.504 OA
ATOM     23  H   UNL     1     -17.860   9.584  22.025  1.00  0.00     0.293 HD
ENDBRANCH  17  22
ENDBRANCH   1  12
BRANCH   2  24
ATOM     24  O   UNL     1     -17.669   9.774  29.256  1.00  0.00    -0.502 OA
ATOM     25  H   UNL     1     -16.998  10.413  28.847  1.00  0.00     0.293 HD
ENDBRANCH   2  24
BRANCH   6  26
ATOM     26  O   UNL     1     -22.417  10.025  31.655  1.00  0.00    -0.507 OA
ATOM     27  H   UNL     1     -21.592  10.281  32.175  1.00  0.00     0.293 HD
ENDBRANCH   6  26
BRANCH   8  28
ATOM     28  O   UNL     1     -25.297  10.123  27.813  1.00  0.00    -0.508 OA
ATOM     29  H   UNL     1     -25.594  10.922  27.265  1.00  0.00     0.293 HD
ENDBRANCH   8  28
TORSDOF 7
ENDMDL
MODEL 3
REMARK VINA RESULT:     0.947      1.136      6.977
REMARK INTER + INTRA:           1.361
REMARK INTER:                   1.032
REMARK INTRA:                   0.329
REMARK UNBOUND:                 0.193
REMARK SMILES O=c1c(O)c(-c2cc(O)c(O)c(O)c2)oc2cc(O)cc(O)c12
REMARK SMILES IDX 5 1 3 2 2 3 1 4 23 5 21 6 20 7 18 8 17 9 16 10 15 11 6 12
REMARK SMILES IDX 7 13 8 14 14 15 10 16 12 17 9 18 11 20 13 22 4 24 22 26
REMARK SMILES IDX 19 28
REMARK H PARENT 9 19 11 21 13 23 4 25 22 27 19 29
REMARK Flexibility Score: inf
ROOT
ATOM      1  C   UNL     1     -18.880   9.038  26.691  1.00  0.00     0.180 A 
ATOM      2  C   UNL     1     -18.360   8.335  27.792  1.00  0.00     0.208 A 
ATOM      3  C   UNL     1     -19.199   8.064  28.884  1.00  0.00     0.238 A 
ATOM      4  O   UNL     1     -18.713   7.482  29.890  1.00  0.00    -0.285 OA
ATOM      5  C   UNL     1     -20.550   8.483  28.856  1.00  0.00     0.111 A 
ATOM      6  C   UNL     1     -21.501   8.226  29.889  1.00  0.00     0.134 A 
ATOM      7  C   UNL     1     -22.776   8.800  29.814  1.00  0.00     0.093 A 
ATOM      8  C   UNL     1     -23.155   9.569  28.710  1.00  0.00     0.123 A 
ATOM      9  C   UNL     1     -22.255   9.774  27.668  1.00  0.00     0.094 A 
ATOM     10  C   UNL     1     -20.963   9.245  27.732  1.00  0.00     0.146 A 
ATOM     11  O   UNL     1     -20.133   9.475  26.722  1.00  0.00    -0.452 OA
ENDROOT
BRANCH   1  12
ATOM     12  C   UNL     1     -18.063   9.340  25.493  1.00  0.00     0.029 A 
ATOM     13  C   UNL     1     -16.662   9.388  25.556  1.00  0.00     0.062 A 
ATOM     14  C   UNL     1     -15.908   9.652  24.406  1.00  0.00     0.162 A 
ATOM     15  C   UNL     1     -18.697   9.523  24.255  1.00  0.00     0.062 A 
ATOM     16  C   UNL     1     -16.544   9.859  23.174  1.00  0.00     0.200 A 
ATOM     17  C   UNL     1     -17.955   9.789  23.097  1.00  0.00     0.162 A 
BRANCH  14  18
ATOM     18  O   UNL     1     -14.517   9.707  24.479  1.00  0.00    -0.504 OA
ATOM     19  H   UNL     1     -13.932   9.055  23.970  1.00  0.00     0.293 HD
ENDBRANCH  14  18
BRANCH  16  20
ATOM     20  O   UNL     1     -15.744  10.125  22.059  1.00  0.00    -0.502 OA
ATOM     21  H   UNL     1     -14.945   9.570  21.790  1.00  0.00     0.293 HD
ENDBRANCH  16  20
BRANCH  17  22
ATOM     22  O   UNL     1     -18.656   9.972  21.904  1.00  0.00    -0.504 OA
ATOM     23  H   UNL     1     -18.231  10.269  21.037  1.00  0.00     0.293 HD
ENDBRANCH  17  22
ENDBRANCH   1  12
BRANCH   2  24
ATOM     24  O   UNL     1     -17.016   7.950  27.810  1.00  0.00    -0.502 OA
ATOM     25  H   UNL     1     -16.713   7.046  28.152  1.00  0.00     0.293 HD
ENDBRANCH   2  24
BRANCH   6  26
ATOM     26  O   UNL     1     -21.253   7.398  30.989  1.00  0.00    -0.507 OA
ATOM     27  H   UNL     1     -21.203   6.392  30.951  1.00  0.00     0.293 HD
ENDBRANCH   6  26
BRANCH   8  28
ATOM     28  O   UNL     1     -24.432  10.122  28.636  1.00  0.00    -0.508 OA
ATOM     29  H   UNL     1     -25.257   9.543  28.539  1.00  0.00     0.293 HD
ENDBRANCH   8  28
TORSDOF 7
ENDMDL
MODEL 4
REMARK VINA RESULT:     1.238      1.161      6.799
REMARK INTER + INTRA:           1.720
REMARK INTER:                   1.302
REMARK INTRA:                   0.417
REMARK UNBOUND:                 0.193
REMARK SMILES O=c1c(O)c(-c2cc(O)c(O)c(O)c2)oc2cc(O)cc(O)c12
REMARK SMILES IDX 5 1 3 2 2 3 1 4 23 5 21 6 20 7 18 8 17 9 16 10 15 11 6 12
REMARK SMILES IDX 7 13 8 14 14 15 10 16 12 17 9 18 11 20 13 22 4 24 22 26
REMARK SMILES IDX 19 28
REMARK H PARENT 9 19 11 21 13 23 4 25 22 27 19 29
REMARK Flexibility Score: inf
ROOT
ATOM      1  C   UNL     1     -18.892   9.138  26.712  1.00  0.00     0.180 A 
ATOM      2  C   UNL     1     -18.344   8.555  27.868  1.00  0.00     0.208 A 
ATOM      3  C   UNL     1     -19.174   8.337  28.979  1.00  0.00     0.238 A 
ATOM      4  O   UNL     1     -18.667   7.865  30.030  1.00  0.00    -0.285 OA
ATOM      5  C   UNL     1     -20.544   8.688  28.915  1.00  0.00     0.111 A 
ATOM      6  C   UNL     1     -21.486   8.475  29.966  1.00  0.00     0.134 A 
ATOM      7  C   UNL     1     -22.786   8.981  29.842  1.00  0.00     0.093 A 
ATOM      8  C   UNL     1     -23.196   9.635  28.677  1.00  0.00     0.123 A 
ATOM      9  C   UNL     1     -22.302   9.795  27.622  1.00  0.00     0.094 A 
ATOM     10  C   UNL     1     -20.987   9.333  27.731  1.00  0.00     0.146 A 
ATOM     11  O   UNL     1     -20.164   9.516  26.706  1.00  0.00    -0.452 OA
ENDROOT
BRANCH   1  12
ATOM     12  C   UNL     1     -18.085   9.376  25.493  1.00  0.00     0.029 A 
ATOM     13  C   UNL     1     -18.691   9.593  24.246  1.00  0.00     0.062 A 
ATOM     14  C   UNL     1     -17.910   9.838  23.110  1.00  0.00     0.162 A 
ATOM     15  C   UNL     1     -16.687   9.444  25.594  1.00  0.00     0.062 A 
ATOM     16  C   UNL     1     -16.513   9.883  23.207  1.00  0.00     0.200 A 
ATOM     17  C   UNL     1     -15.894   9.688  24.465  1.00  0.00     0.162 A 
BRANCH  14  18
ATOM     18  O   UNL     1     -18.520  10.045  21.873  1.00  0.00    -0.504 OA
ATOM     19  H   UNL     1     -18.141   9.650  21.021  1.00  0.00     0.293 HD
ENDBRANCH  14  18
BRANCH  16  20
ATOM     20  O   UNL     1     -15.781  10.125  22.042  1.00  0.00    -0.502 OA
ATOM     21  H   UNL     1     -15.111   9.480  21.650  1.00  0.00     0.293 HD
ENDBRANCH  16  20
BRANCH  17  22
ATOM     22  O   UNL     1     -14.510   9.729  24.641  1.00  0.00    -0.504 OA
ATOM     23  H   UNL     1     -13.845   9.785  23.883  1.00  0.00     0.293 HD
ENDBRANCH  17  22
ENDBRANCH   1  12
BRANCH   2  24
ATOM     24  O   UNL     1     -16.984   8.235  27.919  1.00  0.00    -0.502 OA
ATOM     25  H   UNL     1     -16.364   8.367  27.129  1.00  0.00     0.293 HD
ENDBRANCH   2  24
BRANCH   6  26
ATOM     26  O   UNL     1     -21.205   7.754  31.131  1.00  0.00    -0.507 OA
ATOM     27  H   UNL     1     -21.024   6.763  31.165  1.00  0.00     0.293 HD
ENDBRANCH   6  26
BRANCH   8  28
ATOM     28  O   UNL     1     -24.496  10.121  28.556  1.00  0.00    -0.508 OA
ATOM     29  H   UNL     1     -24.960  10.179  27.657  1.00  0.00     0.293 HD
ENDBRANCH   8  28
TORSDOF 7
ENDMDL
