MODEL 1
REMARK VINA RESULT:    -4.008      0.000      0.000
REMARK INTER + INTRA:          -6.236
REMARK INTER:                  -5.883
REMARK INTRA:                  -0.353
REMARK UNBOUND:                -0.353
REMARK SMILES O=C([O-])CCCCCCCC(=O)[O-]
REMARK SMILES IDX 7 1 6 2 5 3 4 4 2 5 1 6 3 7 8 8 9 9 10 10 11 11 12 12 13 13
REMARK H PARENT
REMARK Flexibility Score: inf
ROOT
ATOM      1  C   UNL     1      26.353  20.868  25.624  1.00  0.00     0.000 C 
ENDROOT
BRANCH   1   2
ATOM      2  C   UNL     1      25.595  19.548  25.414  1.00  0.00     0.000 C 
BRANCH   2   3
ATOM      3  C   UNL     1      24.534  19.343  26.506  1.00  0.00     0.006 C 
BRANCH   3   4
ATOM      4  C   UNL     1      23.136  19.773  26.045  1.00  0.00     0.053 C 
BRANCH   4   5
ATOM      5  C   UNL     1      22.557  20.827  26.938  1.00  0.00     0.041 C 
ATOM      6  O   UNL     1      22.859  22.038  26.768  1.00  0.00    -0.550 OA
ATOM      7  O   UNL     1      21.709  20.469  27.978  1.00  0.00    -0.550 OA
ENDBRANCH   4   5
ENDBRANCH   3   4
ENDBRANCH   2   3
ENDBRANCH   1   2
BRANCH   1   8
ATOM      8  C   UNL     1      27.873  20.710  25.467  1.00  0.00     0.000 C 
BRANCH   8   9
ATOM      9  C   UNL     1      28.258  19.477  24.637  1.00  0.00     0.006 C 
BRANCH   9  10
ATOM     10  C   UNL     1      28.579  19.869  23.191  1.00  0.00     0.053 C 
BRANCH  10  11
ATOM     11  C   UNL     1      30.059  19.950  22.985  1.00  0.00     0.041 C 
ATOM     12  O   UNL     1      30.535  20.718  22.108  1.00  0.00    -0.550 OA
ATOM     13  O   UNL     1      30.910  19.139  23.726  1.00  0.00    -0.550 OA
ENDBRANCH  10  11
ENDBRANCH   9  10
ENDBRANCH   8   9
ENDBRANCH   1   8
TORSDOF 8
ENDMDL
MODEL 2
REMARK VINA RESULT:    -3.994      0.149      7.018
REMARK INTER + INTRA:          -6.215
REMARK INTER:                  -5.829
REMARK INTRA:                  -0.386
REMARK UNBOUND:                -0.353
REMARK SMILES O=C([O-])CCCCCCCC(=O)[O-]
REMARK SMILES IDX 7 1 6 2 5 3 4 4 2 5 1 6 3 7 8 8 9 9 10 10 11 11 12 12 13 13
REMARK H PARENT
REMARK Flexibility Score: inf
ROOT
ATOM      1  C   UNL     1      26.342  20.849  25.759  1.00  0.00     0.000 C 
ENDROOT
BRANCH   1   2
ATOM      2  C   UNL     1      27.822  20.691  25.376  1.00  0.00     0.000 C 
BRANCH   2   3
ATOM      3  C   UNL     1      28.038  19.427  24.530  1.00  0.00     0.006 C 
BRANCH   3   4
ATOM      4  C   UNL     1      28.490  19.753  23.101  1.00  0.00     0.053 C 
BRANCH   4   5
ATOM      5  C   UNL     1      29.972  19.954  23.020  1.00  0.00     0.041 C 
ATOM      6  O   UNL     1      30.456  20.791  22.212  1.00  0.00    -0.550 OA
ATOM      7  O   UNL     1      30.821  19.193  23.814  1.00  0.00    -0.550 OA
ENDBRANCH   4   5
ENDBRANCH   3   4
ENDBRANCH   2   3
ENDBRANCH   1   2
BRANCH   1   8
ATOM      8  C   UNL     1      25.492  19.636  25.351  1.00  0.00     0.000 C 
BRANCH   8   9
ATOM      9  C   UNL     1      24.424  19.284  26.397  1.00  0.00     0.006 C 
BRANCH   9  10
ATOM     10  C   UNL     1      23.046  19.795  25.966  1.00  0.00     0.053 C 
BRANCH  10  11
ATOM     11  C   UNL     1      22.555  20.844  26.913  1.00  0.00     0.041 C 
ATOM     12  O   UNL     1      21.753  20.540  27.835  1.00  0.00    -0.550 OA
ATOM     13  O   UNL     1      22.942  22.168  26.746  1.00  0.00    -0.550 OA
ENDBRANCH  10  11
ENDBRANCH   9  10
ENDBRANCH   8   9
ENDBRANCH   1   8
TORSDOF 8
ENDMDL
MODEL 3
REMARK VINA RESULT:    -3.947      0.333      7.088
REMARK INTER + INTRA:          -6.146
REMARK INTER:                  -5.795
REMARK INTRA:                  -0.351
REMARK UNBOUND:                -0.353
REMARK SMILES O=C([O-])CCCCCCCC(=O)[O-]
REMARK SMILES IDX 7 1 6 2 5 3 4 4 2 5 1 6 3 7 8 8 9 9 10 10 11 11 12 12 13 13
REMARK H PARENT
REMARK Flexibility Score: inf
ROOT
ATOM      1  C   UNL     1      26.061  20.728  25.791  1.00  0.00     0.000 C 
ENDROOT
BRANCH   1   2
ATOM      2  C   UNL     1      27.595  20.723  25.702  1.00  0.00     0.000 C 
BRANCH   2   3
ATOM      3  C   UNL     1      28.084  19.665  24.701  1.00  0.00     0.006 C 
BRANCH   3   4
ATOM      4  C   UNL     1      28.643  20.294  23.418  1.00  0.00     0.053 C 
BRANCH   4   5
ATOM      5  C   UNL     1      30.040  19.834  23.138  1.00  0.00     0.041 C 
ATOM      6  O   UNL     1      30.667  19.153  23.992  1.00  0.00    -0.550 OA
ATOM      7  O   UNL     1      30.662  20.186  21.947  1.00  0.00    -0.550 OA
ENDBRANCH   4   5
ENDBRANCH   3   4
ENDBRANCH   2   3
ENDBRANCH   1   2
BRANCH   1   8
ATOM      8  C   UNL     1      25.458  19.317  25.706  1.00  0.00     0.000 C 
BRANCH   8   9
ATOM      9  C   UNL     1      24.213  19.151  26.591  1.00  0.00     0.006 C 
BRANCH   9  10
ATOM     10  C   UNL     1      23.007  19.869  25.978  1.00  0.00     0.053 C 
BRANCH  10  11
ATOM     11  C   UNL     1      22.492  20.921  26.909  1.00  0.00     0.041 C 
ATOM     12  O   UNL     1      22.891  22.111  26.804  1.00  0.00    -0.550 OA
ATOM     13  O   UNL     1      21.611  20.577  27.928  1.00  0.00    -0.550 OA
ENDBRANCH  10  11
ENDBRANCH   9  10
ENDBRANCH   8   9
ENDBRANCH   1   8
TORSDOF 8
ENDMDL
MODEL 4
REMARK VINA RESULT:    -3.800      1.687      7.374
REMARK INTER + INTRA:          -5.931
REMARK INTER:                  -5.693
REMARK INTRA:                  -0.238
REMARK UNBOUND:                -0.353
REMARK SMILES O=C([O-])CCCCCCCC(=O)[O-]
REMARK SMILES IDX 7 1 6 2 5 3 4 4 2 5 1 6 3 7 8 8 9 9 10 10 11 11 12 12 13 13
REMARK H PARENT
REMARK Flexibility Score: inf
ROOT
ATOM      1  C   UNL     1      28.180  20.916  25.519  1.00  0.00     0.000 C 
ENDROOT
BRANCH   1   2
ATOM      2  C   UNL     1      29.301  20.826  24.473  1.00  0.00     0.000 C 
BRANCH   2   3
ATOM      3  C   UNL     1      29.420  19.399  23.915  1.00  0.00     0.006 C 
BRANCH   3   4
ATOM      4  C   UNL     1      30.880  18.968  23.728  1.00  0.00     0.053 C 
BRANCH   4   5
ATOM      5  C   UNL     1      31.272  18.950  22.283  1.00  0.00     0.041 C 
ATOM      6  O   UNL     1      30.389  18.879  21.387  1.00  0.00    -0.550 OA
ATOM      7  O   UNL     1      32.614  18.978  21.926  1.00  0.00    -0.550 OA
ENDBRANCH   4   5
ENDBRANCH   3   4
ENDBRANCH   2   3
ENDBRANCH   1   2
BRANCH   1   8
ATOM      8  C   UNL     1      26.855  20.315  25.021  1.00  0.00     0.000 C 
BRANCH   8   9
ATOM      9  C   UNL     1      25.680  20.608  25.966  1.00  0.00     0.006 C 
BRANCH   9  10
ATOM     10  C   UNL     1      24.799  19.368  26.145  1.00  0.00     0.053 C 
BRANCH  10  11
ATOM     11  C   UNL     1      23.374  19.685  25.821  1.00  0.00     0.041 C 
ATOM     12  O   UNL     1      22.678  20.364  26.622  1.00  0.00    -0.550 OA
ATOM     13  O   UNL     1      22.797  19.189  24.658  1.00  0.00    -0.550 OA
ENDBRANCH  10  11
ENDBRANCH   9  10
ENDBRANCH   8   9
ENDBRANCH   1   8
TORSDOF 8
ENDMDL
MODEL 5
REMARK VINA RESULT:    -3.461      1.090      7.026
REMARK INTER + INTRA:          -5.433
REMARK INTER:                  -5.127
REMARK INTRA:                  -0.306
REMARK UNBOUND:                -0.353
REMARK SMILES O=C([O-])CCCCCCCC(=O)[O-]
REMARK SMILES IDX 7 1 6 2 5 3 4 4 2 5 1 6 3 7 8 8 9 9 10 10 11 11 12 12 13 13
REMARK H PARENT
REMARK Flexibility Score: inf
ROOT
ATOM      1  C   UNL     1      25.073  19.135  23.802  1.00  0.00     0.000 C 
ENDROOT
BRANCH   1   2
ATOM      2  C   UNL     1      26.287  19.117  22.859  1.00  0.00     0.000 C 
BRANCH   2   3
ATOM      3  C   UNL     1      27.455  19.920  23.453  1.00  0.00     0.006 C 
BRANCH   3   4
ATOM      4  C   UNL     1      28.819  19.337  23.061  1.00  0.00     0.053 C 
BRANCH   4   5
ATOM      5  C   UNL     1      29.908  20.359  23.162  1.00  0.00     0.041 C 
ATOM      6  O   UNL     1      30.577  20.676  22.143  1.00  0.00    -0.550 OA
ATOM      7  O   UNL     1      30.207  20.938  24.389  1.00  0.00    -0.550 OA
ENDBRANCH   4   5
ENDBRANCH   3   4
ENDBRANCH   2   3
ENDBRANCH   1   2
BRANCH   1   8
ATOM      8  C   UNL     1      25.356  19.876  25.118  1.00  0.00     0.000 C 
BRANCH   8   9
ATOM      9  C   UNL     1      24.439  19.419  26.263  1.00  0.00     0.006 C 
BRANCH   9  10
ATOM     10  C   UNL     1      22.981  19.796  25.981  1.00  0.00     0.053 C 
BRANCH  10  11
ATOM     11  C   UNL     1      22.513  20.840  26.945  1.00  0.00     0.041 C 
ATOM     12  O   UNL     1      21.728  20.532  27.880  1.00  0.00    -0.550 OA
ATOM     13  O   UNL     1      22.904  22.164  26.781  1.00  0.00    -0.550 OA
ENDBRANCH  10  11
ENDBRANCH   9  10
ENDBRANCH   8   9
ENDBRANCH   1   8
TORSDOF 8
ENDMDL
MODEL 6
REMARK VINA RESULT:    -3.292      1.473      7.061
REMARK INTER + INTRA:          -5.185
REMARK INTER:                  -4.982
REMARK INTRA:                  -0.203
REMARK UNBOUND:                -0.353
REMARK SMILES O=C([O-])CCCCCCCC(=O)[O-]
REMARK SMILES IDX 7 1 6 2 5 3 4 4 2 5 1 6 3 7 8 8 9 9 10 10 11 11 12 12 13 13
REMARK H PARENT
REMARK Flexibility Score: inf
ROOT
ATOM      1  C   UNL     1      26.569  20.509  24.718  1.00  0.00     0.000 C 
ENDROOT
BRANCH   1   2
ATOM      2  C   UNL     1      27.979  20.874  25.208  1.00  0.00     0.000 C 
BRANCH   2   3
ATOM      3  C   UNL     1      29.000  19.805  24.789  1.00  0.00     0.006 C 
BRANCH   3   4
ATOM      4  C   UNL     1      30.051  20.356  23.817  1.00  0.00     0.053 C 
BRANCH   4   5
ATOM      5  C   UNL     1      30.141  19.532  22.570  1.00  0.00     0.041 C 
ATOM      6  O   UNL     1      29.140  18.882  22.166  1.00  0.00    -0.550 OA
ATOM      7  O   UNL     1      31.339  19.455  21.871  1.00  0.00    -0.550 OA
ENDBRANCH   4   5
ENDBRANCH   3   4
ENDBRANCH   2   3
ENDBRANCH   1   2
BRANCH   1   8
ATOM      8  C   UNL     1      25.744  19.767  25.781  1.00  0.00     0.000 C 
BRANCH   8   9
ATOM      9  C   UNL     1      24.578  20.610  26.319  1.00  0.00     0.006 C 
BRANCH   9  10
ATOM     10  C   UNL     1      24.957  22.093  26.379  1.00  0.00     0.053 C 
BRANCH  10  11
ATOM     11  C   UNL     1      23.758  22.928  26.702  1.00  0.00     0.041 C 
ATOM     12  O   UNL     1      23.892  24.152  26.970  1.00  0.00    -0.550 OA
ATOM     13  O   UNL     1      22.498  22.345  26.759  1.00  0.00    -0.550 OA
ENDBRANCH  10  11
ENDBRANCH   9  10
ENDBRANCH   8   9
ENDBRANCH   1   8
TORSDOF 8
ENDMDL
MODEL 7
REMARK VINA RESULT:    -3.281      1.812      2.732
REMARK INTER + INTRA:          -5.168
REMARK INTER:                  -4.785
REMARK INTRA:                  -0.383
REMARK UNBOUND:                -0.353
REMARK SMILES O=C([O-])CCCCCCCC(=O)[O-]
REMARK SMILES IDX 7 1 6 2 5 3 4 4 2 5 1 6 3 7 8 8 9 9 10 10 11 11 12 12 13 13
REMARK H PARENT
REMARK Flexibility Score: inf
ROOT
ATOM      1  C   UNL     1      24.113  18.924  25.971  1.00  0.00     0.000 C 
ENDROOT
BRANCH   1   2
ATOM      2  C   UNL     1      22.884  19.842  25.879  1.00  0.00     0.000 C 
BRANCH   2   3
ATOM      3  C   UNL     1      22.776  20.740  27.122  1.00  0.00     0.006 C 
BRANCH   3   4
ATOM      4  C   UNL     1      22.543  22.211  26.757  1.00  0.00     0.053 C 
BRANCH   4   5
ATOM      5  C   UNL     1      23.817  22.997  26.780  1.00  0.00     0.041 C 
ATOM      6  O   UNL     1      23.803  24.220  27.086  1.00  0.00    -0.550 OA
ATOM      7  O   UNL     1      25.016  22.388  26.433  1.00  0.00    -0.550 OA
ENDBRANCH   4   5
ENDBRANCH   3   4
ENDBRANCH   2   3
ENDBRANCH   1   2
BRANCH   1   8
ATOM      8  C   UNL     1      25.031  19.039  24.744  1.00  0.00     0.000 C 
BRANCH   8   9
ATOM      9  C   UNL     1      26.493  19.319  25.124  1.00  0.00     0.006 C 
BRANCH   9  10
ATOM     10  C   UNL     1      27.131  20.313  24.148  1.00  0.00     0.053 C 
BRANCH  10  11
ATOM     11  C   UNL     1      28.571  20.532  24.489  1.00  0.00     0.041 C 
ATOM     12  O   UNL     1      28.890  21.329  25.411  1.00  0.00    -0.550 OA
ATOM     13  O   UNL     1      29.565  19.896  23.754  1.00  0.00    -0.550 OA
ENDBRANCH  10  11
ENDBRANCH   9  10
ENDBRANCH   8   9
ENDBRANCH   1   8
TORSDOF 8
ENDMDL
MODEL 8
REMARK VINA RESULT:    -3.238      2.379      6.130
REMARK INTER + INTRA:          -5.105
REMARK INTER:                  -4.566
REMARK INTRA:                  -0.539
REMARK UNBOUND:                -0.353
REMARK SMILES O=C([O-])CCCCCCCC(=O)[O-]
REMARK SMILES IDX 7 1 6 2 5 3 4 4 2 5 1 6 3 7 8 8 9 9 10 10 11 11 12 12 13 13
REMARK H PARENT
REMARK Flexibility Score: inf
ROOT
ATOM      1  C   UNL     1      24.387  19.972  26.262  1.00  0.00     0.000 C 
ENDROOT
BRANCH   1   2
ATOM      2  C   UNL     1      24.458  18.980  25.092  1.00  0.00     0.000 C 
BRANCH   2   3
ATOM      3  C   UNL     1      25.855  18.984  24.452  1.00  0.00     0.006 C 
BRANCH   3   4
ATOM      4  C   UNL     1      26.400  20.405  24.258  1.00  0.00     0.053 C 
BRANCH   4   5
ATOM      5  C   UNL     1      27.766  20.561  24.852  1.00  0.00     0.041 C 
ATOM      6  O   UNL     1      27.899  20.822  26.077  1.00  0.00    -0.550 OA
ATOM      7  O   UNL     1      28.892  20.449  24.046  1.00  0.00    -0.550 OA
ENDBRANCH   4   5
ENDBRANCH   3   4
ENDBRANCH   2   3
ENDBRANCH   1   2
BRANCH   1   8
ATOM      8  C   UNL     1      22.966  20.508  26.500  1.00  0.00     0.000 C 
BRANCH   8   9
ATOM      9  C   UNL     1      22.940  22.021  26.763  1.00  0.00     0.006 C 
BRANCH   9  10
ATOM     10  C   UNL     1      24.279  22.664  26.389  1.00  0.00     0.053 C 
BRANCH  10  11
ATOM     11  C   UNL     1      24.275  24.121  26.729  1.00  0.00     0.041 C 
ATOM     12  O   UNL     1      23.755  24.518  27.805  1.00  0.00    -0.550 OA
ATOM     13  O   UNL     1      24.801  25.046  25.835  1.00  0.00    -0.550 OA
ENDBRANCH  10  11
ENDBRANCH   9  10
ENDBRANCH   8   9
ENDBRANCH   1   8
TORSDOF 8
ENDMDL
MODEL 9
REMARK VINA RESULT:    -3.184      1.646      6.666
REMARK INTER + INTRA:          -5.026
REMARK INTER:                  -4.730
REMARK INTRA:                  -0.296
REMARK UNBOUND:                -0.353
REMARK SMILES O=C([O-])CCCCCCCC(=O)[O-]
REMARK SMILES IDX 7 1 6 2 5 3 4 4 2 5 1 6 3 7 8 8 9 9 10 10 11 11 12 12 13 13
REMARK H PARENT
REMARK Flexibility Score: inf
ROOT
ATOM      1  C   UNL     1      26.846  19.969  25.462  1.00  0.00     0.000 C 
ENDROOT
BRANCH   1   2
ATOM      2  C   UNL     1      26.753  20.210  23.947  1.00  0.00     0.000 C 
BRANCH   2   3
ATOM      3  C   UNL     1      27.624  19.206  23.177  1.00  0.00     0.006 C 
BRANCH   3   4
ATOM      4  C   UNL     1      29.025  19.064  23.785  1.00  0.00     0.053 C 
BRANCH   4   5
ATOM      5  C   UNL     1      29.844  20.302  23.586  1.00  0.00     0.041 C 
ATOM      6  O   UNL     1      30.076  21.072  24.555  1.00  0.00    -0.550 OA
ATOM      7  O   UNL     1      30.323  20.622  22.322  1.00  0.00    -0.550 OA
ENDBRANCH   4   5
ENDBRANCH   3   4
ENDBRANCH   2   3
ENDBRANCH   1   2
BRANCH   1   8
ATOM      8  C   UNL     1      25.480  19.675  26.101  1.00  0.00     0.000 C 
BRANCH   8   9
ATOM      9  C   UNL     1      24.478  20.824  25.910  1.00  0.00     0.006 C 
BRANCH   9  10
ATOM     10  C   UNL     1      25.070  22.152  26.392  1.00  0.00     0.053 C 
BRANCH  10  11
ATOM     11  C   UNL     1      23.980  23.111  26.755  1.00  0.00     0.041 C 
ATOM     12  O   UNL     1      22.789  22.712  26.846  1.00  0.00    -0.550 OA
ATOM     13  O   UNL     1      24.272  24.457  26.941  1.00  0.00    -0.550 OA
ENDBRANCH  10  11
ENDBRANCH   9  10
ENDBRANCH   8   9
ENDBRANCH   1   8
TORSDOF 8
ENDMDL
