MODEL 1
REMARK VINA RESULT:    -2.266      0.000      0.000
REMARK INTER + INTRA:          -2.418
REMARK INTER:                  -2.399
REMARK INTRA:                  -0.020
REMARK UNBOUND:                -0.020
REMARK SMILES O=C([O-])c1cccnc1
REMARK SMILES IDX 4 1 5 2 9 3 6 4 8 5 7 6 2 7 1 8 3 9
REMARK H PARENT
REMARK Flexibility Score: inf
ROOT
ATOM      1  C   UNL     1      24.651  28.804  14.264  1.00  0.00     0.016 A 
ATOM      2  C   UNL     1      23.998  29.652  15.174  1.00  0.00     0.013 A 
ATOM      3  C   UNL     1      25.470  27.782  14.774  1.00  0.00     0.120 A 
ATOM      4  C   UNL     1      24.169  29.472  16.547  1.00  0.00     0.021 A 
ATOM      5  N   UNL     1      25.620  27.628  16.116  1.00  0.00    -0.264 NA
ATOM      6  C   UNL     1      24.992  28.443  17.005  1.00  0.00     0.111 A 
ENDROOT
BRANCH   1   7
ATOM      7  C   UNL     1      24.483  28.978  12.805  1.00  0.00     0.073 C 
ATOM      8  O   UNL     1      24.552  30.124  12.285  1.00  0.00    -0.545 OA
ATOM      9  O   UNL     1      24.247  27.879  11.987  1.00  0.00    -0.545 OA
ENDBRANCH   1   7
TORSDOF 1
ENDMDL
MODEL 2
REMARK VINA RESULT:    -2.200      0.957      1.608
REMARK INTER + INTRA:          -2.348
REMARK INTER:                  -2.329
REMARK INTRA:                  -0.019
REMARK UNBOUND:                -0.020
REMARK SMILES O=C([O-])c1cccnc1
REMARK SMILES IDX 4 1 5 2 9 3 6 4 8 5 7 6 2 7 1 8 3 9
REMARK H PARENT
REMARK Flexibility Score: inf
ROOT
ATOM      1  C   UNL     1      24.577  28.865  14.269  1.00  0.00     0.016 A 
ATOM      2  C   UNL     1      25.365  27.861  14.855  1.00  0.00     0.013 A 
ATOM      3  C   UNL     1      23.875  29.741  15.114  1.00  0.00     0.120 A 
ATOM      4  C   UNL     1      25.440  27.750  16.245  1.00  0.00     0.021 A 
ATOM      5  N   UNL     1      23.965  29.612  16.464  1.00  0.00    -0.264 NA
ATOM      6  C   UNL     1      24.725  28.645  17.042  1.00  0.00     0.111 A 
ENDROOT
BRANCH   1   7
ATOM      7  C   UNL     1      24.485  28.999  12.799  1.00  0.00     0.073 C 
ATOM      8  O   UNL     1      24.621  30.125  12.249  1.00  0.00    -0.545 OA
ATOM      9  O   UNL     1      24.247  27.885  12.004  1.00  0.00    -0.545 OA
ENDBRANCH   1   7
TORSDOF 1
ENDMDL
MODEL 3
REMARK VINA RESULT:    -2.044      1.939      2.623
REMARK INTER + INTRA:          -2.183
REMARK INTER:                  -2.167
REMARK INTRA:                  -0.016
REMARK UNBOUND:                -0.020
REMARK SMILES O=C([O-])c1cccnc1
REMARK SMILES IDX 4 1 5 2 9 3 6 4 8 5 7 6 2 7 1 8 3 9
REMARK H PARENT
REMARK Flexibility Score: inf
ROOT
ATOM      1  C   UNL     1      24.736  27.678  14.453  1.00  0.00     0.016 A 
ATOM      2  C   UNL     1      25.793  27.416  15.340  1.00  0.00     0.013 A 
ATOM      3  C   UNL     1      23.875  26.622  14.109  1.00  0.00     0.120 A 
ATOM      4  C   UNL     1      25.970  26.132  15.860  1.00  0.00     0.021 A 
ATOM      5  N   UNL     1      24.070  25.381  14.629  1.00  0.00    -0.264 NA
ATOM      6  C   UNL     1      25.088  25.117  15.489  1.00  0.00     0.111 A 
ENDROOT
BRANCH   1   7
ATOM      7  C   UNL     1      24.531  29.031  13.891  1.00  0.00     0.073 C 
ATOM      8  O   UNL     1      23.850  29.887  14.517  1.00  0.00    -0.545 OA
ATOM      9  O   UNL     1      25.088  29.377  12.666  1.00  0.00    -0.545 OA
ENDBRANCH   1   7
TORSDOF 1
ENDMDL
MODEL 4
REMARK VINA RESULT:    -2.042      1.840      2.553
REMARK INTER + INTRA:          -2.181
REMARK INTER:                  -2.165
REMARK INTRA:                  -0.016
REMARK UNBOUND:                -0.020
REMARK SMILES O=C([O-])c1cccnc1
REMARK SMILES IDX 4 1 5 2 9 3 6 4 8 5 7 6 2 7 1 8 3 9
REMARK H PARENT
REMARK Flexibility Score: inf
ROOT
ATOM      1  C   UNL     1      24.728  27.669  14.453  1.00  0.00     0.016 A 
ATOM      2  C   UNL     1      23.853  26.621  14.121  1.00  0.00     0.013 A 
ATOM      3  C   UNL     1      25.795  27.398  15.326  1.00  0.00     0.120 A 
ATOM      4  C   UNL     1      24.054  25.346  14.655  1.00  0.00     0.021 A 
ATOM      5  N   UNL     1      25.968  26.148  15.831  1.00  0.00    -0.264 NA
ATOM      6  C   UNL     1      25.128  25.127  15.517  1.00  0.00     0.111 A 
ENDROOT
BRANCH   1   7
ATOM      7  C   UNL     1      24.533  29.027  13.899  1.00  0.00     0.073 C 
ATOM      8  O   UNL     1      23.854  29.883  14.526  1.00  0.00    -0.545 OA
ATOM      9  O   UNL     1      25.098  29.376  12.678  1.00  0.00    -0.545 OA
ENDBRANCH   1   7
TORSDOF 1
ENDMDL
MODEL 5
REMARK VINA RESULT:    -2.026      1.993      2.383
REMARK INTER + INTRA:          -2.164
REMARK INTER:                  -2.145
REMARK INTRA:                  -0.019
REMARK UNBOUND:                -0.020
REMARK SMILES O=C([O-])c1cccnc1
REMARK SMILES IDX 4 1 5 2 9 3 6 4 8 5 7 6 2 7 1 8 3 9
REMARK H PARENT
REMARK Flexibility Score: inf
ROOT
ATOM      1  C   UNL     1      23.773  29.105  14.100  1.00  0.00     0.016 A 
ATOM      2  C   UNL     1      24.201  29.244  15.430  1.00  0.00     0.013 A 
ATOM      3  C   UNL     1      22.428  28.773  13.863  1.00  0.00     0.120 A 
ATOM      4  C   UNL     1      23.301  29.055  16.480  1.00  0.00     0.021 A 
ATOM      5  N   UNL     1      21.572  28.594  14.903  1.00  0.00    -0.264 NA
ATOM      6  C   UNL     1      21.976  28.727  16.194  1.00  0.00     0.111 A 
ENDROOT
BRANCH   1   7
ATOM      7  C   UNL     1      24.711  29.301  12.973  1.00  0.00     0.073 C 
ATOM      8  O   UNL     1      25.831  28.725  12.965  1.00  0.00    -0.545 OA
ATOM      9  O   UNL     1      24.367  30.124  11.907  1.00  0.00    -0.545 OA
ENDBRANCH   1   7
TORSDOF 1
ENDMDL
MODEL 6
REMARK VINA RESULT:    -1.993      2.909      3.814
REMARK INTER + INTRA:          -2.129
REMARK INTER:                  -2.113
REMARK INTRA:                  -0.016
REMARK UNBOUND:                -0.020
REMARK SMILES O=C([O-])c1cccnc1
REMARK SMILES IDX 4 1 5 2 9 3 6 4 8 5 7 6 2 7 1 8 3 9
REMARK H PARENT
REMARK Flexibility Score: inf
ROOT
ATOM      1  C   UNL     1      24.697  27.990  14.376  1.00  0.00     0.016 A 
ATOM      2  C   UNL     1      23.322  27.757  14.199  1.00  0.00     0.013 A 
ATOM      3  C   UNL     1      25.395  28.665  13.360  1.00  0.00     0.120 A 
ATOM      4  C   UNL     1      22.681  28.192  13.038  1.00  0.00     0.021 A 
ATOM      5  N   UNL     1      24.747  29.078  12.239  1.00  0.00    -0.264 NA
ATOM      6  C   UNL     1      23.418  28.859  12.059  1.00  0.00     0.111 A 
ENDROOT
BRANCH   1   7
ATOM      7  C   UNL     1      25.395  27.537  15.598  1.00  0.00     0.073 C 
ATOM      8  O   UNL     1      26.121  26.508  15.576  1.00  0.00    -0.545 OA
ATOM      9  O   UNL     1      25.259  28.242  16.788  1.00  0.00    -0.545 OA
ENDBRANCH   1   7
TORSDOF 1
ENDMDL
MODEL 7
REMARK VINA RESULT:    -1.968     26.579     27.267
REMARK INTER + INTRA:          -2.103
REMARK INTER:                  -2.080
REMARK INTRA:                  -0.023
REMARK UNBOUND:                -0.020
REMARK SMILES O=C([O-])c1cccnc1
REMARK SMILES IDX 4 1 5 2 9 3 6 4 8 5 7 6 2 7 1 8 3 9
REMARK H PARENT
REMARK Flexibility Score: inf
ROOT
ATOM      1  C   UNL     1       6.679  12.841  26.752  1.00  0.00     0.016 A 
ATOM      2  C   UNL     1       7.398  12.008  27.625  1.00  0.00     0.013 A 
ATOM      3  C   UNL     1       5.950  12.244  25.709  1.00  0.00     0.120 A 
ATOM      4  C   UNL     1       7.379  10.623  27.448  1.00  0.00     0.021 A 
ATOM      5  N   UNL     1       5.948  10.893  25.559  1.00  0.00    -0.264 NA
ATOM      6  C   UNL     1       6.640  10.079  26.398  1.00  0.00     0.111 A 
ENDROOT
BRANCH   1   7
ATOM      7  C   UNL     1       6.686  14.310  26.922  1.00  0.00     0.073 C 
ATOM      8  O   UNL     1       5.875  15.033  26.283  1.00  0.00    -0.545 OA
ATOM      9  O   UNL     1       7.587  14.913  27.791  1.00  0.00    -0.545 OA
ENDBRANCH   1   7
TORSDOF 1
ENDMDL
MODEL 8
REMARK VINA RESULT:    -1.943      2.505      3.289
REMARK INTER + INTRA:          -2.077
REMARK INTER:                  -2.057
REMARK INTRA:                  -0.019
REMARK UNBOUND:                -0.020
REMARK SMILES O=C([O-])c1cccnc1
REMARK SMILES IDX 4 1 5 2 9 3 6 4 8 5 7 6 2 7 1 8 3 9
REMARK H PARENT
REMARK Flexibility Score: inf
ROOT
ATOM      1  C   UNL     1      23.940  27.869  13.545  1.00  0.00     0.016 A 
ATOM      2  C   UNL     1      24.259  27.097  14.675  1.00  0.00     0.013 A 
ATOM      3  C   UNL     1      23.404  27.217  12.421  1.00  0.00     0.120 A 
ATOM      4  C   UNL     1      24.044  25.718  14.666  1.00  0.00     0.021 A 
ATOM      5  N   UNL     1      23.204  25.873  12.438  1.00  0.00    -0.264 NA
ATOM      6  C   UNL     1      23.509  25.117  13.525  1.00  0.00     0.111 A 
ENDROOT
BRANCH   1   7
ATOM      7  C   UNL     1      24.160  29.331  13.535  1.00  0.00     0.073 C 
ATOM      8  O   UNL     1      24.695  29.891  12.541  1.00  0.00    -0.545 OA
ATOM      9  O   UNL     1      23.779  30.108  14.623  1.00  0.00    -0.545 OA
ENDBRANCH   1   7
TORSDOF 1
ENDMDL
MODEL 9
REMARK VINA RESULT:    -1.842     26.551     27.329
REMARK INTER + INTRA:          -1.969
REMARK INTER:                  -1.952
REMARK INTRA:                  -0.017
REMARK UNBOUND:                -0.020
REMARK SMILES O=C([O-])c1cccnc1
REMARK SMILES IDX 4 1 5 2 9 3 6 4 8 5 7 6 2 7 1 8 3 9
REMARK H PARENT
REMARK Flexibility Score: inf
ROOT
ATOM      1  C   UNL     1       8.277  11.488  27.625  1.00  0.00     0.016 A 
ATOM      2  C   UNL     1       7.001  11.035  27.249  1.00  0.00     0.013 A 
ATOM      3  C   UNL     1       8.524  12.871  27.613  1.00  0.00     0.120 A 
ATOM      4  C   UNL     1       6.014  11.949  26.875  1.00  0.00     0.021 A 
ATOM      5  N   UNL     1       7.546  13.741  27.246  1.00  0.00    -0.264 NA
ATOM      6  C   UNL     1       6.309  13.313  26.881  1.00  0.00     0.111 A 
ENDROOT
BRANCH   1   7
ATOM      7  C   UNL     1       9.336  10.536  28.024  1.00  0.00     0.073 C 
ATOM      8  O   UNL     1       9.245   9.893  29.104  1.00  0.00    -0.545 OA
ATOM      9  O   UNL     1      10.445  10.337  27.211  1.00  0.00    -0.545 OA
ENDBRANCH   1   7
TORSDOF 1
ENDMDL
