MODEL 1
REMARK VINA RESULT:     5.096      0.000      0.000
REMARK INTER + INTRA:           5.096
REMARK INTER:                   5.096
REMARK INTRA:                   0.000
REMARK UNBOUND:                 0.000
REMARK SMILES C=C1CCC[C@]2(C)C=C3OC(=O)C(C)=C3C[C@H]12
REMARK SMILES IDX 14 1 13 2 15 3 16 4 17 5 2 6 1 7 3 8 4 9 5 10 6 11 8 12 9 13
REMARK SMILES IDX 10 14 11 15 12 16 7 17
REMARK H PARENT
REMARK Flexibility Score: inf
ROOT
ATOM      1  C   UNL     1      -2.258  12.806   6.157  1.00  0.00     0.053 C 
ATOM      2  C   UNL     1      -2.814  12.840   7.545  1.00  0.00     0.041 C 
ATOM      3  C   UNL     1      -2.716  11.880   8.461  1.00  0.00     0.005 C 
ATOM      4  C   UNL     1      -2.070  10.539   8.355  1.00  0.00     0.049 C 
ATOM      5  C   UNL     1      -1.805   9.978   9.776  1.00  0.00     0.029 C 
ATOM      6  C   UNL     1      -1.353   8.532   9.668  1.00  0.00    -0.073 C 
ATOM      7  C   UNL     1      -0.046   8.226   9.650  1.00  0.00     0.008 C 
ATOM      8  C   UNL     1      -2.391   7.462   9.418  1.00  0.00     0.031 C 
ATOM      9  C   UNL     1      -3.581   7.614  10.369  1.00  0.00     0.005 C 
ATOM     10  C   UNL     1      -4.124   9.052  10.389  1.00  0.00     0.012 C 
ATOM     11  C   UNL     1      -3.041  10.106  10.749  1.00  0.00    -0.004 C 
ATOM     12  C   UNL     1      -3.684  11.487  10.673  1.00  0.00     0.027 C 
ATOM     13  C   UNL     1      -3.532  12.254   9.597  1.00  0.00     0.131 C 
ATOM     14  O   UNL     1      -4.125  13.488   9.379  1.00  0.00    -0.423 OA
ATOM     15  C   UNL     1      -3.698  13.863   8.111  1.00  0.00     0.339 C 
ATOM     16  O   UNL     1      -4.044  14.929   7.541  1.00  0.00    -0.246 OA
ATOM     17  C   UNL     1      -2.566   9.911  12.209  1.00  0.00     0.016 C 
ENDROOT
TORSDOF 0
ENDMDL
MODEL 2
REMARK VINA RESULT:     7.484      1.427      3.011
REMARK INTER + INTRA:           7.484
REMARK INTER:                   7.484
REMARK INTRA:                   0.000
REMARK UNBOUND:                 0.000
REMARK SMILES C=C1CCC[C@]2(C)C=C3OC(=O)C(C)=C3C[C@H]12
REMARK SMILES IDX 14 1 13 2 15 3 16 4 17 5 2 6 1 7 3 8 4 9 5 10 6 11 8 12 9 13
REMARK SMILES IDX 10 14 11 15 12 16 7 17
REMARK H PARENT
REMARK Flexibility Score: inf
ROOT
ATOM      1  C   UNL     1      -4.125  15.279  10.634  1.00  0.00     0.053 C 
ATOM      2  C   UNL     1      -3.968  14.392   9.440  1.00  0.00     0.041 C 
ATOM      3  C   UNL     1      -3.707  13.088   9.451  1.00  0.00     0.005 C 
ATOM      4  C   UNL     1      -3.479  12.183  10.616  1.00  0.00     0.049 C 
ATOM      5  C   UNL     1      -3.673  10.709  10.172  1.00  0.00     0.029 C 
ATOM      6  C   UNL     1      -3.230   9.786  11.294  1.00  0.00    -0.073 C 
ATOM      7  C   UNL     1      -4.123   9.305  12.173  1.00  0.00     0.008 C 
ATOM      8  C   UNL     1      -1.752   9.550  11.502  1.00  0.00     0.031 C 
ATOM      9  C   UNL     1      -1.056   9.211  10.180  1.00  0.00     0.005 C 
ATOM     10  C   UNL     1      -1.403  10.217   9.070  1.00  0.00     0.012 C 
ATOM     11  C   UNL     1      -2.931  10.349   8.827  1.00  0.00    -0.004 C 
ATOM     12  C   UNL     1      -3.147  11.415   7.757  1.00  0.00     0.027 C 
ATOM     13  C   UNL     1      -3.474  12.661   8.087  1.00  0.00     0.131 C 
ATOM     14  O   UNL     1      -3.622  13.729   7.217  1.00  0.00    -0.423 OA
ATOM     15  C   UNL     1      -3.920  14.811   8.036  1.00  0.00     0.339 C 
ATOM     16  O   UNL     1      -4.106  15.981   7.614  1.00  0.00    -0.246 OA
ATOM     17  C   UNL     1      -3.504   9.026   8.264  1.00  0.00     0.016 C 
ENDROOT
TORSDOF 0
ENDMDL
