MODEL 1
REMARK VINA RESULT:    -4.396      0.000      0.000
REMARK INTER + INTRA:          -6.119
REMARK INTER:                  -5.682
REMARK INTRA:                  -0.438
REMARK UNBOUND:                -0.438
REMARK SMILES CCCCCCC(=O)[O-]
REMARK SMILES IDX 5 1 6 2 7 3 8 4 9 5 4 6 3 7 2 8 1 9
REMARK H PARENT
REMARK Flexibility Score: inf
ROOT
ATOM      1  C   UNL     1      94.101  -3.777   8.459  1.00  0.00     0.006 C 
ENDROOT
BRANCH   1   2
ATOM      2  C   UNL     1      95.006  -2.716   7.819  1.00  0.00     0.053 C 
BRANCH   2   3
ATOM      3  C   UNL     1      96.337  -3.306   7.476  1.00  0.00     0.041 C 
ATOM      4  O   UNL     1      97.327  -2.557   7.268  1.00  0.00    -0.550 OA
ATOM      5  O   UNL     1      96.474  -4.681   7.335  1.00  0.00    -0.550 OA
ENDBRANCH   2   3
ENDBRANCH   1   2
BRANCH   1   6
ATOM      6  C   UNL     1      94.136  -3.736   9.995  1.00  0.00     0.000 C 
BRANCH   6   7
ATOM      7  C   UNL     1      94.968  -4.877  10.599  1.00  0.00    -0.000 C 
BRANCH   7   8
ATOM      8  C   UNL     1      96.370  -4.389  10.984  1.00  0.00    -0.003 C 
ATOM      9  C   UNL     1      96.361  -2.905  11.335  1.00  0.00     0.004 C 
ENDBRANCH   7   8
ENDBRANCH   6   7
ENDBRANCH   1   6
TORSDOF 5
ENDMDL
MODEL 2
REMARK VINA RESULT:    -4.375     14.326     15.803
REMARK INTER + INTRA:          -6.092
REMARK INTER:                  -5.909
REMARK INTRA:                  -0.183
REMARK UNBOUND:                -0.438
REMARK SMILES CCCCCCC(=O)[O-]
REMARK SMILES IDX 5 1 6 2 7 3 8 4 9 5 4 6 3 7 2 8 1 9
REMARK H PARENT
REMARK Flexibility Score: inf
ROOT
ATOM      1  C   UNL     1      90.422  -8.212  -5.595  1.00  0.00     0.006 C 
ENDROOT
BRANCH   1   2
ATOM      2  C   UNL     1      89.627  -8.769  -4.407  1.00  0.00     0.053 C 
BRANCH   2   3
ATOM      3  C   UNL     1      90.414  -8.631  -3.143  1.00  0.00     0.041 C 
ATOM      4  O   UNL     1      89.859  -8.215  -2.092  1.00  0.00    -0.550 OA
ATOM      5  O   UNL     1      91.774  -8.914  -3.135  1.00  0.00    -0.550 OA
ENDBRANCH   2   3
ENDBRANCH   1   2
BRANCH   1   6
ATOM      6  C   UNL     1      89.888  -6.854  -6.078  1.00  0.00     0.000 C 
BRANCH   6   7
ATOM      7  C   UNL     1      88.585  -6.445  -5.377  1.00  0.00    -0.000 C 
BRANCH   7   8
ATOM      8  C   UNL     1      88.457  -4.918  -5.304  1.00  0.00    -0.003 C 
ATOM      9  C   UNL     1      88.542  -4.291  -6.691  1.00  0.00     0.004 C 
ENDBRANCH   7   8
ENDBRANCH   6   7
ENDBRANCH   1   6
TORSDOF 5
ENDMDL
MODEL 3
REMARK VINA RESULT:    -4.323     14.091     15.403
REMARK INTER + INTRA:          -6.024
REMARK INTER:                  -5.587
REMARK INTRA:                  -0.438
REMARK UNBOUND:                -0.438
REMARK SMILES CCCCCCC(=O)[O-]
REMARK SMILES IDX 5 1 6 2 7 3 8 4 9 5 4 6 3 7 2 8 1 9
REMARK H PARENT
REMARK Flexibility Score: inf
ROOT
ATOM      1  C   UNL     1      83.749  -2.627   2.708  1.00  0.00     0.006 C 
ENDROOT
BRANCH   1   2
ATOM      2  C   UNL     1      84.257  -1.827   1.501  1.00  0.00     0.053 C 
BRANCH   2   3
ATOM      3  C   UNL     1      83.374  -0.648   1.248  1.00  0.00     0.041 C 
ATOM      4  O   UNL     1      83.432  -0.036   0.149  1.00  0.00    -0.550 OA
ATOM      5  O   UNL     1      82.520  -0.191   2.244  1.00  0.00    -0.550 OA
ENDBRANCH   2   3
ENDBRANCH   1   2
BRANCH   1   6
ATOM      6  C   UNL     1      82.832  -3.792   2.302  1.00  0.00     0.000 C 
BRANCH   6   7
ATOM      7  C   UNL     1      81.367  -3.558   2.697  1.00  0.00    -0.000 C 
BRANCH   7   8
ATOM      8  C   UNL     1      80.545  -3.078   1.494  1.00  0.00    -0.003 C 
ATOM      9  C   UNL     1      81.206  -3.479   0.179  1.00  0.00     0.004 C 
ENDBRANCH   7   8
ENDBRANCH   6   7
ENDBRANCH   1   6
TORSDOF 5
ENDMDL
MODEL 4
REMARK VINA RESULT:    -4.313     10.199     11.082
REMARK INTER + INTRA:          -6.011
REMARK INTER:                  -5.840
REMARK INTRA:                  -0.171
REMARK UNBOUND:                -0.438
REMARK SMILES CCCCCCC(=O)[O-]
REMARK SMILES IDX 5 1 6 2 7 3 8 4 9 5 4 6 3 7 2 8 1 9
REMARK H PARENT
REMARK Flexibility Score: inf
ROOT
ATOM      1  C   UNL     1      92.689   6.868  10.450  1.00  0.00     0.006 C 
ENDROOT
BRANCH   1   2
ATOM      2  C   UNL     1      94.218   6.996  10.480  1.00  0.00     0.053 C 
BRANCH   2   3
ATOM      3  C   UNL     1      94.817   6.363   9.265  1.00  0.00     0.041 C 
ATOM      4  O   UNL     1      94.372   5.266   8.836  1.00  0.00    -0.550 OA
ATOM      5  O   UNL     1      95.901   6.958   8.632  1.00  0.00    -0.550 OA
ENDBRANCH   2   3
ENDBRANCH   1   2
BRANCH   1   6
ATOM      6  C   UNL     1      92.079   6.738  11.855  1.00  0.00     0.000 C 
BRANCH   6   7
ATOM      7  C   UNL     1      90.544   6.716  11.834  1.00  0.00    -0.000 C 
BRANCH   7   8
ATOM      8  C   UNL     1      90.023   6.042  10.559  1.00  0.00    -0.003 C 
ATOM      9  C   UNL     1      89.024   6.937   9.831  1.00  0.00     0.004 C 
ENDBRANCH   7   8
ENDBRANCH   6   7
ENDBRANCH   1   6
TORSDOF 5
ENDMDL
MODEL 5
REMARK VINA RESULT:    -4.296      1.048      2.316
REMARK INTER + INTRA:          -5.990
REMARK INTER:                  -5.542
REMARK INTRA:                  -0.448
REMARK UNBOUND:                -0.438
REMARK SMILES CCCCCCC(=O)[O-]
REMARK SMILES IDX 5 1 6 2 7 3 8 4 9 5 4 6 3 7 2 8 1 9
REMARK H PARENT
REMARK Flexibility Score: inf
ROOT
ATOM      1  C   UNL     1      96.823  -2.814  10.017  1.00  0.00     0.006 C 
ENDROOT
BRANCH   1   2
ATOM      2  C   UNL     1      97.567  -2.952   8.682  1.00  0.00     0.053 C 
BRANCH   2   3
ATOM      3  C   UNL     1      96.622  -3.369   7.600  1.00  0.00     0.041 C 
ATOM      4  O   UNL     1      95.787  -2.549   7.137  1.00  0.00    -0.550 OA
ATOM      5  O   UNL     1      96.631  -4.678   7.135  1.00  0.00    -0.550 OA
ENDBRANCH   2   3
ENDBRANCH   1   2
BRANCH   1   6
ATOM      6  C   UNL     1      96.796  -4.126  10.818  1.00  0.00     0.000 C 
BRANCH   6   7
ATOM      7  C   UNL     1      95.444  -4.848  10.727  1.00  0.00    -0.000 C 
BRANCH   7   8
ATOM      8  C   UNL     1      94.305  -3.851  10.482  1.00  0.00    -0.003 C 
ATOM      9  C   UNL     1      93.417  -4.301   9.325  1.00  0.00     0.004 C 
ENDBRANCH   7   8
ENDBRANCH   6   7
ENDBRANCH   1   6
TORSDOF 5
ENDMDL
MODEL 6
REMARK VINA RESULT:    -4.288     13.545     15.011
REMARK INTER + INTRA:          -5.979
REMARK INTER:                  -5.622
REMARK INTRA:                  -0.357
REMARK UNBOUND:                -0.438
REMARK SMILES CCCCCCC(=O)[O-]
REMARK SMILES IDX 5 1 6 2 7 3 8 4 9 5 4 6 3 7 2 8 1 9
REMARK H PARENT
REMARK Flexibility Score: inf
ROOT
ATOM      1  C   UNL     1      82.644  -3.904   2.698  1.00  0.00     0.006 C 
ENDROOT
BRANCH   1   2
ATOM      2  C   UNL     1      83.726  -3.089   3.419  1.00  0.00     0.053 C 
BRANCH   2   3
ATOM      3  C   UNL     1      84.691  -2.515   2.431  1.00  0.00     0.041 C 
ATOM      4  O   UNL     1      84.271  -1.857   1.443  1.00  0.00    -0.550 OA
ATOM      5  O   UNL     1      86.053  -2.747   2.574  1.00  0.00    -0.550 OA
ENDBRANCH   2   3
ENDBRANCH   1   2
BRANCH   1   6
ATOM      6  C   UNL     1      81.244  -3.287   2.843  1.00  0.00     0.000 C 
BRANCH   6   7
ATOM      7  C   UNL     1      80.604  -2.946   1.489  1.00  0.00    -0.000 C 
BRANCH   7   8
ATOM      8  C   UNL     1      81.252  -3.753   0.358  1.00  0.00    -0.003 C 
ATOM      9  C   UNL     1      81.677  -2.847  -0.794  1.00  0.00     0.004 C 
ENDBRANCH   7   8
ENDBRANCH   6   7
ENDBRANCH   1   6
TORSDOF 5
ENDMDL
MODEL 7
REMARK VINA RESULT:    -4.272     14.543     15.651
REMARK INTER + INTRA:          -5.959
REMARK INTER:                  -5.817
REMARK INTRA:                  -0.142
REMARK UNBOUND:                -0.438
REMARK SMILES CCCCCCC(=O)[O-]
REMARK SMILES IDX 5 1 6 2 7 3 8 4 9 5 4 6 3 7 2 8 1 9
REMARK H PARENT
REMARK Flexibility Score: inf
ROOT
ATOM      1  C   UNL     1      89.710  -7.485  -5.564  1.00  0.00     0.006 C 
ENDROOT
BRANCH   1   2
ATOM      2  C   UNL     1      88.423  -6.793  -6.031  1.00  0.00     0.053 C 
BRANCH   2   3
ATOM      3  C   UNL     1      88.492  -5.324  -5.757  1.00  0.00     0.041 C 
ATOM      4  O   UNL     1      88.379  -4.893  -4.580  1.00  0.00    -0.550 OA
ATOM      5  O   UNL     1      88.633  -4.426  -6.808  1.00  0.00    -0.550 OA
ENDBRANCH   2   3
ENDBRANCH   1   2
BRANCH   1   6
ATOM      6  C   UNL     1      89.439  -8.642  -4.589  1.00  0.00     0.000 C 
BRANCH   6   7
ATOM      7  C   UNL     1      90.398  -8.643  -3.390  1.00  0.00    -0.000 C 
BRANCH   7   8
ATOM      8  C   UNL     1      91.822  -9.010  -3.827  1.00  0.00    -0.003 C 
ATOM      9  C   UNL     1      92.827  -8.747  -2.710  1.00  0.00     0.004 C 
ENDBRANCH   7   8
ENDBRANCH   6   7
ENDBRANCH   1   6
TORSDOF 5
ENDMDL
MODEL 8
REMARK VINA RESULT:    -4.261     11.001     11.802
REMARK INTER + INTRA:          -5.945
REMARK INTER:                  -5.797
REMARK INTRA:                  -0.148
REMARK UNBOUND:                -0.438
REMARK SMILES CCCCCCC(=O)[O-]
REMARK SMILES IDX 5 1 6 2 7 3 8 4 9 5 4 6 3 7 2 8 1 9
REMARK H PARENT
REMARK Flexibility Score: inf
ROOT
ATOM      1  C   UNL     1      91.633   6.716  11.516  1.00  0.00     0.006 C 
ENDROOT
BRANCH   1   2
ATOM      2  C   UNL     1      90.440   6.026  10.842  1.00  0.00     0.053 C 
BRANCH   2   3
ATOM      3  C   UNL     1      89.394   7.031  10.476  1.00  0.00     0.041 C 
ATOM      4  O   UNL     1      89.220   8.053  11.191  1.00  0.00    -0.550 OA
ATOM      5  O   UNL     1      88.577   6.816   9.373  1.00  0.00    -0.550 OA
ENDBRANCH   2   3
ENDBRANCH   1   2
BRANCH   1   6
ATOM      6  C   UNL     1      92.679   7.210  10.504  1.00  0.00     0.000 C 
BRANCH   6   7
ATOM      7  C   UNL     1      94.035   6.508  10.665  1.00  0.00    -0.000 C 
BRANCH   7   8
ATOM      8  C   UNL     1      94.502   5.905   9.334  1.00  0.00    -0.003 C 
ATOM      9  C   UNL     1      95.620   6.736   8.713  1.00  0.00     0.004 C 
ENDBRANCH   7   8
ENDBRANCH   6   7
ENDBRANCH   1   6
TORSDOF 5
ENDMDL
MODEL 9
REMARK VINA RESULT:    -4.213     14.385     15.537
REMARK INTER + INTRA:          -5.882
REMARK INTER:                  -5.500
REMARK INTRA:                  -0.382
REMARK UNBOUND:                -0.438
REMARK SMILES CCCCCCC(=O)[O-]
REMARK SMILES IDX 5 1 6 2 7 3 8 4 9 5 4 6 3 7 2 8 1 9
REMARK H PARENT
REMARK Flexibility Score: inf
ROOT
ATOM      1  C   UNL     1      80.631  -2.605   1.017  1.00  0.00     0.006 C 
ENDROOT
BRANCH   1   2
ATOM      2  C   UNL     1      81.855  -2.249   0.164  1.00  0.00     0.053 C 
BRANCH   2   3
ATOM      3  C   UNL     1      82.206  -0.805   0.333  1.00  0.00     0.041 C 
ATOM      4  O   UNL     1      82.479  -0.097  -0.671  1.00  0.00    -0.550 OA
ATOM      5  O   UNL     1      82.281  -0.252   1.605  1.00  0.00    -0.550 OA
ENDBRANCH   2   3
ENDBRANCH   1   2
BRANCH   1   6
ATOM      6  C   UNL     1      81.004  -3.363   2.301  1.00  0.00     0.000 C 
BRANCH   6   7
ATOM      7  C   UNL     1      82.405  -3.988   2.234  1.00  0.00    -0.000 C 
BRANCH   7   8
ATOM      8  C   UNL     1      83.303  -3.441   3.351  1.00  0.00    -0.003 C 
ATOM      9  C   UNL     1      84.579  -2.828   2.782  1.00  0.00     0.004 C 
ENDBRANCH   7   8
ENDBRANCH   6   7
ENDBRANCH   1   6
TORSDOF 5
ENDMDL
