MODEL 1
REMARK VINA RESULT:    -4.859      0.000      0.000
REMARK INTER + INTRA:          -6.480
REMARK INTER:                  -6.848
REMARK INTRA:                   0.368
REMARK UNBOUND:                 0.368
REMARK SMILES CC1=CCC(=C(C)C)C(=O)CC(C)=CCC1
REMARK SMILES IDX 12 1 14 2 13 3 15 4 16 5 2 6 1 7 3 8 11 10 9 11 10 12 5 13
REMARK SMILES IDX 6 14 7 15 8 16 4 17
REMARK H PARENT
REMARK Flexibility Score: 60.00
ROOT
ATOM      1  C   UNL     1     -11.860 -16.796  32.125  1.00  0.00    -0.070 C 
ATOM      2  C   UNL     1     -11.903 -18.138  32.293  1.00  0.00    -0.027 C 
ATOM      3  C   UNL     1     -11.002 -15.990  33.066  1.00  0.00     0.039 C 
ENDROOT
BRANCH   2   4
ATOM      4  C   UNL     1     -12.754 -19.091  31.485  1.00  0.00     0.032 C 
BRANCH   4   5
ATOM      5  C   UNL     1     -12.015 -19.588  30.234  1.00  0.00     0.034 C 
BRANCH   5   6
ATOM      6  C   UNL     1     -12.893 -19.643  28.992  1.00  0.00    -0.077 C 
ATOM      7  C   UNL     1     -13.968 -20.698  28.907  1.00  0.00     0.039 C 
ATOM      8  C   UNL     1     -12.750 -18.804  27.941  1.00  0.00    -0.023 CG0
ATOM      9  G   UNL     1     -11.781 -17.646  27.870  1.00  0.00     0.000 G0
ENDBRANCH   5   6
ENDBRANCH   4   5
ENDBRANCH   2   4
BRANCH   1  10
ATOM     10  C   UNL     1     -12.632 -16.076  31.037  1.00  0.00     0.111 C 
BRANCH  10  11
ATOM     11  C   UNL     1     -11.799 -15.917  29.796  1.00  0.00     0.163 C 
ATOM     12  O   UNL     1     -10.659 -15.387  29.879  1.00  0.00    -0.294 OA
BRANCH  11  13
ATOM     13  C   UNL     1     -12.303 -16.350  28.467  1.00  0.00    -0.002 C 
ATOM     14  C   UNL     1     -13.223 -15.597  27.804  1.00  0.00    -0.069 C 
ATOM     15  C   UNL     1     -13.710 -15.992  26.429  1.00  0.00     0.039 C 
ATOM     16  C   UNL     1     -13.823 -14.360  28.435  1.00  0.00     0.039 C 
BRANCH  13  17
ATOM     17  C   UNL     1     -11.779 -17.646  27.859  1.00  0.00     0.066 CG0
ATOM     18  G   UNL     1     -12.751 -18.800  27.957  1.00  0.00     0.000 G0
ENDBRANCH  13  17
ENDBRANCH  11  13
ENDBRANCH  10  11
ENDBRANCH   1  10
TORSDOF 0
ENDMDL
MODEL 2
REMARK VINA RESULT:    -4.792      1.658      3.439
REMARK INTER + INTRA:          -6.385
REMARK INTER:                  -7.215
REMARK INTRA:                   0.830
REMARK UNBOUND:                 0.368
REMARK SMILES CC1=CCC(=C(C)C)C(=O)CC(C)=CCC1
REMARK SMILES IDX 12 1 14 2 13 3 15 4 16 5 2 6 1 7 3 8 11 10 9 11 10 12 5 13
REMARK SMILES IDX 6 14 7 15 8 16 4 17
REMARK H PARENT
REMARK Flexibility Score: 60.00
ROOT
ATOM      1  C   UNL     1     -12.818 -19.356  29.461  1.00  0.00    -0.070 C 
ATOM      2  C   UNL     1     -13.225 -19.569  30.735  1.00  0.00    -0.027 C 
ATOM      3  C   UNL     1     -13.761 -19.723  28.345  1.00  0.00     0.039 C 
ENDROOT
BRANCH   2   4
ATOM      4  C   UNL     1     -12.391 -19.318  31.970  1.00  0.00     0.032 C 
BRANCH   4   5
ATOM      5  C   UNL     1     -11.936 -17.854  32.059  1.00  0.00     0.034 C 
BRANCH   5   6
ATOM      6  C   UNL     1     -13.069 -16.853  31.889  1.00  0.00    -0.077 C 
ATOM      7  C   UNL     1     -14.217 -16.882  32.867  1.00  0.00     0.039 C 
ATOM      8  C   UNL     1     -13.116 -15.943  30.889  1.00  0.00    -0.023 CG0
ATOM      9  G   UNL     1     -12.033 -15.717  29.859  1.00  0.00     0.000 G0
ENDBRANCH   5   6
ENDBRANCH   4   5
ENDBRANCH   2   4
BRANCH   1  10
ATOM     10  C   UNL     1     -11.464 -18.766  29.117  1.00  0.00     0.111 C 
BRANCH  10  11
ATOM     11  C   UNL     1     -11.601 -17.629  28.144  1.00  0.00     0.163 C 
ATOM     12  O   UNL     1     -11.066 -17.720  27.006  1.00  0.00    -0.294 OA
BRANCH  11  13
ATOM     13  C   UNL     1     -12.333 -16.388  28.505  1.00  0.00    -0.002 C 
ATOM     14  C   UNL     1     -13.252 -15.861  27.651  1.00  0.00    -0.069 C 
ATOM     15  C   UNL     1     -14.045 -14.628  28.022  1.00  0.00     0.039 C 
ATOM     16  C   UNL     1     -13.484 -16.462  26.282  1.00  0.00     0.039 C 
BRANCH  13  17
ATOM     17  C   UNL     1     -12.041 -15.714  29.842  1.00  0.00     0.066 CG0
ATOM     18  G   UNL     1     -13.114 -15.938  30.882  1.00  0.00     0.000 G0
ENDBRANCH  13  17
ENDBRANCH  11  13
ENDBRANCH  10  11
ENDBRANCH   1  10
TORSDOF 0
ENDMDL
MODEL 3
REMARK VINA RESULT:    -4.729      1.729      3.673
REMARK INTER + INTRA:          -6.297
REMARK INTER:                  -6.898
REMARK INTRA:                   0.601
REMARK UNBOUND:                 0.368
REMARK SMILES CC1=CCC(=C(C)C)C(=O)CC(C)=CCC1
REMARK SMILES IDX 12 1 14 2 13 3 15 4 16 5 2 6 1 7 3 8 11 10 9 11 10 12 5 13
REMARK SMILES IDX 6 14 7 15 8 16 4 17
REMARK H PARENT
REMARK Flexibility Score: 60.00
ROOT
ATOM      1  C   UNL     1     -12.798 -19.980  30.827  1.00  0.00    -0.070 C 
ATOM      2  C   UNL     1     -12.785 -20.068  29.476  1.00  0.00    -0.027 C 
ATOM      3  C   UNL     1     -12.129 -21.076  31.616  1.00  0.00     0.039 C 
ENDROOT
BRANCH   2   4
ATOM      4  C   UNL     1     -13.455 -19.096  28.533  1.00  0.00     0.032 C 
BRANCH   4   5
ATOM      5  C   UNL     1     -12.466 -18.048  28.002  1.00  0.00     0.034 C 
BRANCH   5   6
ATOM      6  C   UNL     1     -13.086 -16.672  27.805  1.00  0.00    -0.077 C 
ATOM      7  C   UNL     1     -13.935 -16.424  26.583  1.00  0.00     0.039 C 
ATOM      8  C   UNL     1     -12.903 -15.642  28.663  1.00  0.00    -0.023 CG0
ATOM      9  G   UNL     1     -12.146 -15.716  29.970  1.00  0.00     0.000 G0
ENDBRANCH   5   6
ENDBRANCH   4   5
ENDBRANCH   2   4
BRANCH   1  10
ATOM     10  C   UNL     1     -13.450 -18.831  31.572  1.00  0.00     0.111 C 
BRANCH  10  11
ATOM     11  C   UNL     1     -12.524 -17.651  31.664  1.00  0.00     0.163 C 
ATOM     12  O   UNL     1     -11.400 -17.787  32.218  1.00  0.00    -0.294 OA
BRANCH  11  13
ATOM     13  C   UNL     1     -12.918 -16.319  31.138  1.00  0.00    -0.002 C 
ATOM     14  C   UNL     1     -13.970 -15.649  31.684  1.00  0.00    -0.069 C 
ATOM     15  C   UNL     1     -14.355 -14.270  31.198  1.00  0.00     0.039 C 
ATOM     16  C   UNL     1     -14.819 -16.276  32.768  1.00  0.00     0.039 C 
BRANCH  13  17
ATOM     17  C   UNL     1     -12.132 -15.714  29.979  1.00  0.00     0.066 CG0
ATOM     18  G   UNL     1     -12.911 -15.648  28.686  1.00  0.00     0.000 G0
ENDBRANCH  13  17
ENDBRANCH  11  13
ENDBRANCH  10  11
ENDBRANCH   1  10
TORSDOF 0
ENDMDL
MODEL 4
REMARK VINA RESULT:    -4.652      1.304      3.795
REMARK INTER + INTRA:          -6.188
REMARK INTER:                  -6.999
REMARK INTRA:                   0.811
REMARK UNBOUND:                 0.368
REMARK SMILES CC1=CCC(=C(C)C)C(=O)CC(C)=CCC1
REMARK SMILES IDX 12 1 14 2 13 3 15 4 16 5 2 6 1 7 3 8 11 10 9 11 10 12 5 13
REMARK SMILES IDX 6 14 7 15 8 16 4 17
REMARK H PARENT
REMARK Flexibility Score: 60.00
ROOT
ATOM      1  C   UNL     1     -12.920 -15.753  31.099  1.00  0.00    -0.070 C 
ATOM      2  C   UNL     1     -13.493 -15.437  29.914  1.00  0.00    -0.027 C 
ATOM      3  C   UNL     1     -13.808 -15.862  32.311  1.00  0.00     0.039 C 
ENDROOT
BRANCH   2   4
ATOM      4  C   UNL     1     -12.750 -15.227  28.615  1.00  0.00     0.032 C 
BRANCH   4   5
ATOM      5  C   UNL     1     -13.243 -16.184  27.519  1.00  0.00     0.034 C 
BRANCH   5   6
ATOM      6  C   UNL     1     -12.219 -17.240  27.129  1.00  0.00    -0.077 C 
ATOM      7  C   UNL     1     -11.407 -17.037  25.874  1.00  0.00     0.039 C 
ATOM      8  C   UNL     1     -12.006 -18.370  27.841  1.00  0.00    -0.023 CG0
ATOM      9  G   UNL     1     -12.669 -18.716  29.154  1.00  0.00     0.000 G0
ENDBRANCH   5   6
ENDBRANCH   4   5
ENDBRANCH   2   4
BRANCH   1  10
ATOM     10  C   UNL     1     -11.432 -16.003  31.254  1.00  0.00     0.111 C 
BRANCH  10  11
ATOM     11  C   UNL     1     -10.985 -17.157  30.402  1.00  0.00     0.163 C 
ATOM     12  O   UNL     1      -9.952 -17.038  29.690  1.00  0.00    -0.294 OA
BRANCH  11  13
ATOM     13  C   UNL     1     -11.751 -18.429  30.364  1.00  0.00    -0.002 C 
ATOM     14  C   UNL     1     -11.664 -19.314  31.395  1.00  0.00    -0.069 C 
ATOM     15  C   UNL     1     -12.475 -20.589  31.399  1.00  0.00     0.039 C 
ATOM     16  C   UNL     1     -10.722 -19.075  32.554  1.00  0.00     0.039 C 
BRANCH  13  17
ATOM     17  C   UNL     1     -12.632 -18.730  29.156  1.00  0.00     0.066 CG0
ATOM     18  G   UNL     1     -11.997 -18.365  27.834  1.00  0.00     0.000 G0
ENDBRANCH  13  17
ENDBRANCH  11  13
ENDBRANCH  10  11
ENDBRANCH   1  10
TORSDOF 0
ENDMDL
MODEL 5
REMARK VINA RESULT:    -4.455      1.846      4.123
REMARK INTER + INTRA:          -5.910
REMARK INTER:                  -6.588
REMARK INTRA:                   0.678
REMARK UNBOUND:                 0.368
REMARK SMILES CC1=CCC(=C(C)C)C(=O)CC(C)=CCC1
REMARK SMILES IDX 12 1 14 2 13 3 15 4 16 5 2 6 1 7 3 8 11 10 9 11 10 12 5 13
REMARK SMILES IDX 6 14 7 15 8 16 4 17
REMARK H PARENT
REMARK Flexibility Score: 60.00
ROOT
ATOM      1  C   UNL     1     -12.896 -16.911  27.543  1.00  0.00    -0.070 C 
ATOM      2  C   UNL     1     -13.179 -18.228  27.674  1.00  0.00    -0.027 C 
ATOM      3  C   UNL     1     -13.592 -16.140  26.452  1.00  0.00     0.039 C 
ENDROOT
BRANCH   2   4
ATOM      4  C   UNL     1     -12.532 -19.165  28.668  1.00  0.00     0.032 C 
BRANCH   4   5
ATOM      5  C   UNL     1     -13.491 -19.525  29.813  1.00  0.00     0.034 C 
BRANCH   5   6
ATOM      6  C   UNL     1     -12.802 -19.660  31.163  1.00  0.00    -0.077 C 
ATOM      7  C   UNL     1     -12.223 -20.997  31.554  1.00  0.00     0.039 C 
ATOM      8  C   UNL     1     -12.695 -18.644  32.049  1.00  0.00    -0.023 CG0
ATOM      9  G   UNL     1     -13.149 -17.222  31.811  1.00  0.00     0.000 G0
ENDBRANCH   5   6
ENDBRANCH   4   5
ENDBRANCH   2   4
BRANCH   1  10
ATOM     10  C   UNL     1     -11.918 -16.185  28.447  1.00  0.00     0.111 C 
BRANCH  10  11
ATOM     11  C   UNL     1     -12.574 -15.772  29.735  1.00  0.00     0.163 C 
ATOM     12  O   UNL     1     -13.486 -14.903  29.714  1.00  0.00    -0.294 OA
BRANCH  11  13
ATOM     13  C   UNL     1     -12.151 -16.350  31.036  1.00  0.00    -0.002 C 
ATOM     14  C   UNL     1     -10.896 -16.120  31.513  1.00  0.00    -0.069 C 
ATOM     15  C   UNL     1     -10.463 -16.656  32.858  1.00  0.00     0.039 C 
ATOM     16  C   UNL     1      -9.876 -15.358  30.697  1.00  0.00     0.039 C 
BRANCH  13  17
ATOM     17  C   UNL     1     -13.137 -17.203  31.827  1.00  0.00     0.066 CG0
ATOM     18  G   UNL     1     -12.672 -18.624  32.046  1.00  0.00     0.000 G0
ENDBRANCH  13  17
ENDBRANCH  11  13
ENDBRANCH  10  11
ENDBRANCH   1  10
TORSDOF 0
ENDMDL
MODEL 6
REMARK VINA RESULT:    -4.418      2.256      3.714
REMARK INTER + INTRA:          -5.858
REMARK INTER:                  -6.700
REMARK INTRA:                   0.842
REMARK UNBOUND:                 0.368
REMARK SMILES CC1=CCC(=C(C)C)C(=O)CC(C)=CCC1
REMARK SMILES IDX 12 1 14 2 13 3 15 4 16 5 2 6 1 7 3 8 11 10 9 11 10 12 5 13
REMARK SMILES IDX 6 14 7 15 8 16 4 17
REMARK H PARENT
REMARK Flexibility Score: 60.00
ROOT
ATOM      1  C   UNL     1     -10.958 -16.900  28.447  1.00  0.00    -0.070 C 
ATOM      2  C   UNL     1     -10.254 -17.704  29.279  1.00  0.00    -0.027 C 
ATOM      3  C   UNL     1     -11.141 -17.343  27.019  1.00  0.00     0.039 C 
ENDROOT
BRANCH   2   4
ATOM      4  C   UNL     1      -9.922 -17.390  30.719  1.00  0.00     0.032 C 
BRANCH   4   5
ATOM      5  C   UNL     1     -10.328 -18.537  31.657  1.00  0.00     0.034 C 
BRANCH   5   6
ATOM      6  C   UNL     1     -11.798 -18.916  31.552  1.00  0.00    -0.077 C 
ATOM      7  C   UNL     1     -12.165 -20.371  31.394  1.00  0.00     0.039 C 
ATOM      8  C   UNL     1     -12.804 -18.012  31.573  1.00  0.00    -0.023 CG0
ATOM      9  G   UNL     1     -12.640 -16.525  31.791  1.00  0.00     0.000 G0
ENDBRANCH   5   6
ENDBRANCH   4   5
ENDBRANCH   2   4
BRANCH   1  10
ATOM     10  C   UNL     1     -11.567 -15.585  28.892  1.00  0.00     0.111 C 
BRANCH  10  11
ATOM     11  C   UNL     1     -12.991 -15.770  29.336  1.00  0.00     0.163 C 
ATOM     12  O   UNL     1     -13.883 -15.999  28.476  1.00  0.00    -0.294 OA
BRANCH  11  13
ATOM     13  C   UNL     1     -13.373 -15.661  30.767  1.00  0.00    -0.002 C 
ATOM     14  C   UNL     1     -14.355 -14.801  31.152  1.00  0.00    -0.069 C 
ATOM     15  C   UNL     1     -14.795 -14.713  32.596  1.00  0.00     0.039 C 
ATOM     16  C   UNL     1     -15.013 -13.869  30.158  1.00  0.00     0.039 C 
BRANCH  13  17
ATOM     17  C   UNL     1     -12.652 -16.525  31.797  1.00  0.00     0.066 CG0
ATOM     18  G   UNL     1     -12.809 -18.010  31.562  1.00  0.00     0.000 G0
ENDBRANCH  13  17
ENDBRANCH  11  13
ENDBRANCH  10  11
ENDBRANCH   1  10
TORSDOF 0
ENDMDL
MODEL 7
REMARK VINA RESULT:    -4.286      1.844      4.247
REMARK INTER + INTRA:          -5.672
REMARK INTER:                  -7.032
REMARK INTRA:                   1.361
REMARK UNBOUND:                 0.368
REMARK SMILES CC1=CCC(=C(C)C)C(=O)CC(C)=CCC1
REMARK SMILES IDX 12 1 14 2 13 3 15 4 16 5 2 6 1 7 3 8 11 10 9 11 10 12 5 13
REMARK SMILES IDX 6 14 7 15 8 16 4 17
REMARK H PARENT
REMARK Flexibility Score: 60.00
ROOT
ATOM      1  C   UNL     1     -12.873 -15.482  29.375  1.00  0.00    -0.070 C 
ATOM      2  C   UNL     1     -13.638 -15.374  30.487  1.00  0.00    -0.027 C 
ATOM      3  C   UNL     1     -13.555 -15.400  28.034  1.00  0.00     0.039 C 
ENDROOT
BRANCH   2   4
ATOM      4  C   UNL     1     -13.134 -15.493  31.906  1.00  0.00     0.032 C 
BRANCH   4   5
ATOM      5  C   UNL     1     -12.487 -16.862  32.165  1.00  0.00     0.034 C 
BRANCH   5   6
ATOM      6  C   UNL     1     -11.007 -16.780  32.507  1.00  0.00    -0.077 C 
ATOM      7  C   UNL     1     -10.556 -15.790  33.552  1.00  0.00     0.039 C 
ATOM      8  C   UNL     1     -10.060 -17.538  31.907  1.00  0.00    -0.023 CG0
ATOM      9  G   UNL     1     -10.324 -18.626  30.892  1.00  0.00     0.000 G0
ENDBRANCH   5   6
ENDBRANCH   4   5
ENDBRANCH   2   4
BRANCH   1  10
ATOM     10  C   UNL     1     -11.370 -15.677  29.424  1.00  0.00     0.111 C 
BRANCH  10  11
ATOM     11  C   UNL     1     -10.987 -17.053  28.954  1.00  0.00     0.163 C 
ATOM     12  O   UNL     1     -10.429 -17.190  27.832  1.00  0.00    -0.294 OA
BRANCH  11  13
ATOM     13  C   UNL     1     -11.275 -18.256  29.775  1.00  0.00    -0.002 C 
ATOM     14  C   UNL     1     -12.382 -19.008  29.525  1.00  0.00    -0.069 C 
ATOM     15  C   UNL     1     -12.665 -20.266  30.314  1.00  0.00     0.039 C 
ATOM     16  C   UNL     1     -13.391 -18.591  28.478  1.00  0.00     0.039 C 
BRANCH  13  17
ATOM     17  C   UNL     1     -10.316 -18.637  30.898  1.00  0.00     0.066 CG0
ATOM     18  G   UNL     1     -10.074 -17.526  31.893  1.00  0.00     0.000 G0
ENDBRANCH  13  17
ENDBRANCH  11  13
ENDBRANCH  10  11
ENDBRANCH   1  10
TORSDOF 0
ENDMDL
MODEL 8
REMARK VINA RESULT:    -4.027      1.564      4.214
REMARK INTER + INTRA:          -5.308
REMARK INTER:                  -6.131
REMARK INTRA:                   0.823
REMARK UNBOUND:                 0.368
REMARK SMILES CC1=CCC(=C(C)C)C(=O)CC(C)=CCC1
REMARK SMILES IDX 12 1 14 2 13 3 15 4 16 5 2 6 1 7 3 8 11 10 9 11 10 12 5 13
REMARK SMILES IDX 6 14 7 15 8 16 4 17
REMARK H PARENT
REMARK Flexibility Score: 60.00
ROOT
ATOM      1  C   UNL     1     -14.041 -14.558  28.628  1.00  0.00    -0.070 C 
ATOM      2  C   UNL     1     -14.373 -14.952  27.376  1.00  0.00    -0.027 C 
ATOM      3  C   UNL     1     -14.984 -13.636  29.355  1.00  0.00     0.039 C 
ENDROOT
BRANCH   2   4
ATOM      4  C   UNL     1     -13.521 -15.823  26.481  1.00  0.00     0.032 C 
BRANCH   4   5
ATOM      5  C   UNL     1     -13.432 -17.262  27.009  1.00  0.00     0.034 C 
BRANCH   5   6
ATOM      6  C   UNL     1     -12.009 -17.710  27.313  1.00  0.00    -0.077 C 
ATOM      7  C   UNL     1     -10.967 -17.611  26.228  1.00  0.00     0.039 C 
ATOM      8  C   UNL     1     -11.627 -18.216  28.508  1.00  0.00    -0.023 CG0
ATOM      9  G   UNL     1     -12.506 -18.329  29.733  1.00  0.00     0.000 G0
ENDBRANCH   5   6
ENDBRANCH   4   5
ENDBRANCH   2   4
BRANCH   1  10
ATOM     10  C   UNL     1     -12.771 -15.008  29.323  1.00  0.00     0.111 C 
BRANCH  10  11
ATOM     11  C   UNL     1     -13.079 -15.902  30.491  1.00  0.00     0.163 C 
ATOM     12  O   UNL     1     -13.983 -15.568  31.304  1.00  0.00    -0.294 OA
BRANCH  11  13
ATOM     13  C   UNL     1     -12.323 -17.159  30.722  1.00  0.00    -0.002 C 
ATOM     14  C   UNL     1     -11.484 -17.269  31.788  1.00  0.00    -0.069 C 
ATOM     15  C   UNL     1     -10.745 -18.557  32.070  1.00  0.00     0.039 C 
ATOM     16  C   UNL     1     -11.227 -16.095  32.706  1.00  0.00     0.039 C 
BRANCH  13  17
ATOM     17  C   UNL     1     -12.498 -18.321  29.750  1.00  0.00     0.066 CG0
ATOM     18  G   UNL     1     -11.635 -18.213  28.513  1.00  0.00     0.000 G0
ENDBRANCH  13  17
ENDBRANCH  11  13
ENDBRANCH  10  11
ENDBRANCH   1  10
TORSDOF 0
ENDMDL
MODEL 9
REMARK VINA RESULT:    -3.802      1.727      2.431
REMARK INTER + INTRA:          -4.990
REMARK INTER:                  -7.002
REMARK INTRA:                   2.012
REMARK UNBOUND:                 0.368
REMARK SMILES CC1=CCC(=C(C)C)C(=O)CC(C)=CCC1
REMARK SMILES IDX 12 1 14 2 13 3 15 4 16 5 2 6 1 7 3 8 11 10 9 11 10 12 5 13
REMARK SMILES IDX 6 14 7 15 8 16 4 17
REMARK H PARENT
REMARK Flexibility Score: 60.00
ROOT
ATOM      1  C   UNL     1     -13.098 -16.014  32.036  1.00  0.00    -0.070 C 
ATOM      2  C   UNL     1     -11.831 -16.006  32.516  1.00  0.00    -0.027 C 
ATOM      3  C   UNL     1     -14.149 -15.250  32.797  1.00  0.00     0.039 C 
ENDROOT
BRANCH   2   4
ATOM      4  C   UNL     1     -10.668 -16.764  31.918  1.00  0.00     0.032 C 
BRANCH   4   5
ATOM      5  C   UNL     1     -10.639 -18.224  32.392  1.00  0.00     0.034 C 
BRANCH   5   6
ATOM      6  C   UNL     1     -11.289 -19.193  31.416  1.00  0.00    -0.077 C 
ATOM      7  C   UNL     1     -11.905 -20.462  31.951  1.00  0.00     0.039 C 
ATOM      8  C   UNL     1     -11.330 -18.989  30.079  1.00  0.00    -0.023 CG0
ATOM      9  G   UNL     1     -10.831 -17.753  29.367  1.00  0.00     0.000 G0
ENDBRANCH   5   6
ENDBRANCH   4   5
ENDBRANCH   2   4
BRANCH   1  10
ATOM     10  C   UNL     1     -13.495 -16.752  30.773  1.00  0.00     0.111 C 
BRANCH  10  11
ATOM     11  C   UNL     1     -12.853 -16.137  29.561  1.00  0.00     0.163 C 
ATOM     12  O   UNL     1     -13.124 -14.945  29.255  1.00  0.00    -0.294 OA
BRANCH  11  13
ATOM     13  C   UNL     1     -11.925 -16.915  28.701  1.00  0.00    -0.002 C 
ATOM     14  C   UNL     1     -12.057 -16.886  27.347  1.00  0.00    -0.069 C 
ATOM     15  C   UNL     1     -11.091 -17.629  26.452  1.00  0.00     0.039 C 
ATOM     16  C   UNL     1     -13.200 -16.146  26.688  1.00  0.00     0.039 C 
BRANCH  13  17
ATOM     17  C   UNL     1     -10.825 -17.745  29.355  1.00  0.00     0.066 CG0
ATOM     18  G   UNL     1     -11.337 -18.971  30.077  1.00  0.00     0.000 G0
ENDBRANCH  13  17
ENDBRANCH  11  13
ENDBRANCH  10  11
ENDBRANCH   1  10
TORSDOF 0
ENDMDL
