MODEL 1
REMARK VINA RESULT:    -4.031      0.000      0.000
REMARK INTER + INTRA:          -4.149
REMARK INTER:                  -4.149
REMARK INTRA:                   0.000
REMARK UNBOUND:                 0.000
REMARK SMILES Cc1cccc(O)c1C
REMARK SMILES IDX 1 1 2 2 8 3 6 4 5 5 4 6 3 7 9 8 7 9
REMARK H PARENT 7 10
REMARK Flexibility Score: inf
ROOT
ATOM      1  C   UNL     1     126.875 145.973 108.659  1.00  0.00     0.045 C 
ATOM      2  C   UNL     1     127.141 145.275 107.350  1.00  0.00    -0.045 A 
ATOM      3  C   UNL     1     127.576 143.922 107.289  1.00  0.00    -0.006 A 
ATOM      4  C   UNL     1     127.807 143.330 106.021  1.00  0.00     0.118 A 
ATOM      5  C   UNL     1     127.608 144.073 104.854  1.00  0.00     0.046 A 
ATOM      6  C   UNL     1     127.182 145.395 104.921  1.00  0.00     0.004 A 
ATOM      7  C   UNL     1     126.949 145.994 106.157  1.00  0.00     0.004 A 
ATOM      8  C   UNL     1     127.798 143.100 108.538  1.00  0.00     0.048 C 
ENDROOT
BRANCH   4   9
ATOM      9  O   UNL     1     128.235 142.007 105.885  1.00  0.00    -0.508 OA
ATOM     10  H   UNL     1     128.504 141.595 105.000  1.00  0.00     0.293 HD
ENDBRANCH   4   9
TORSDOF 1
ENDMDL
MODEL 2
REMARK VINA RESULT:    -3.929      1.760      2.873
REMARK INTER + INTRA:          -4.043
REMARK INTER:                  -4.043
REMARK INTRA:                   0.000
REMARK UNBOUND:                 0.000
REMARK SMILES Cc1cccc(O)c1C
REMARK SMILES IDX 1 1 2 2 8 3 6 4 5 5 4 6 3 7 9 8 7 9
REMARK H PARENT 7 10
REMARK Flexibility Score: inf
ROOT
ATOM      1  C   UNL     1     128.268 141.878 106.125  1.00  0.00     0.045 C 
ATOM      2  C   UNL     1     127.810 143.313 106.188  1.00  0.00    -0.045 A 
ATOM      3  C   UNL     1     127.565 143.975 107.423  1.00  0.00    -0.006 A 
ATOM      4  C   UNL     1     127.135 145.326 107.406  1.00  0.00     0.118 A 
ATOM      5  C   UNL     1     126.959 145.990 106.188  1.00  0.00     0.046 A 
ATOM      6  C   UNL     1     127.202 145.337 104.985  1.00  0.00     0.004 A 
ATOM      7  C   UNL     1     127.624 144.010 104.981  1.00  0.00     0.004 A 
ATOM      8  C   UNL     1     127.748 143.276 108.752  1.00  0.00     0.048 C 
ENDROOT
BRANCH   4   9
ATOM      9  O   UNL     1     126.875 146.039 108.580  1.00  0.00    -0.508 OA
ATOM     10  H   UNL     1     125.992 146.495 108.772  1.00  0.00     0.293 HD
ENDBRANCH   4   9
TORSDOF 1
ENDMDL
MODEL 3
REMARK VINA RESULT:    -3.906      1.497      2.669
REMARK INTER + INTRA:          -4.021
REMARK INTER:                  -4.021
REMARK INTRA:                   0.000
REMARK UNBOUND:                 0.000
REMARK SMILES Cc1cccc(O)c1C
REMARK SMILES IDX 1 1 2 2 8 3 6 4 5 5 4 6 3 7 9 8 7 9
REMARK H PARENT 7 10
REMARK Flexibility Score: inf
ROOT
ATOM      1  C   UNL     1     126.883 146.111 105.335  1.00  0.00     0.045 C 
ATOM      2  C   UNL     1     127.270 144.816 106.001  1.00  0.00    -0.045 A 
ATOM      3  C   UNL     1     127.268 144.663 107.415  1.00  0.00    -0.006 A 
ATOM      4  C   UNL     1     127.645 143.415 107.974  1.00  0.00     0.118 A 
ATOM      5  C   UNL     1     128.011 142.356 107.137  1.00  0.00     0.046 A 
ATOM      6  C   UNL     1     128.009 142.512 105.755  1.00  0.00     0.004 A 
ATOM      7  C   UNL     1     127.643 143.730 105.189  1.00  0.00     0.004 A 
ATOM      8  C   UNL     1     126.877 145.795 108.339  1.00  0.00     0.048 C 
ENDROOT
BRANCH   4   9
ATOM      9  O   UNL     1     127.667 143.193 109.353  1.00  0.00    -0.508 OA
ATOM     10  H   UNL     1     128.113 142.392 109.782  1.00  0.00     0.293 HD
ENDBRANCH   4   9
TORSDOF 1
ENDMDL
MODEL 4
REMARK VINA RESULT:    -3.874      2.588      3.752
REMARK INTER + INTRA:          -3.987
REMARK INTER:                  -3.987
REMARK INTRA:                   0.000
REMARK UNBOUND:                 0.000
REMARK SMILES Cc1cccc(O)c1C
REMARK SMILES IDX 1 1 2 2 8 3 6 4 5 5 4 6 3 7 9 8 7 9
REMARK H PARENT 7 10
REMARK Flexibility Score: inf
ROOT
ATOM      1  C   UNL     1     127.753 145.000 104.996  1.00  0.00     0.045 C 
ATOM      2  C   UNL     1     127.987 145.343 106.444  1.00  0.00    -0.045 A 
ATOM      3  C   UNL     1     129.291 145.574 106.965  1.00  0.00    -0.006 A 
ATOM      4  C   UNL     1     129.438 145.892 108.339  1.00  0.00     0.118 A 
ATOM      5  C   UNL     1     128.310 145.977 109.162  1.00  0.00     0.046 A 
ATOM      6  C   UNL     1     127.039 145.751 108.646  1.00  0.00     0.004 A 
ATOM      7  C   UNL     1     126.875 145.436 107.299  1.00  0.00     0.004 A 
ATOM      8  C   UNL     1     130.524 145.488 106.093  1.00  0.00     0.048 C 
ENDROOT
BRANCH   4   9
ATOM      9  O   UNL     1     130.686 146.131 108.919  1.00  0.00    -0.508 OA
ATOM     10  H   UNL     1     131.234 145.415 109.379  1.00  0.00     0.293 HD
ENDBRANCH   4   9
TORSDOF 1
ENDMDL
MODEL 5
REMARK VINA RESULT:    -3.810      1.379      2.853
REMARK INTER + INTRA:          -3.921
REMARK INTER:                  -3.921
REMARK INTRA:                   0.000
REMARK UNBOUND:                 0.000
REMARK SMILES Cc1cccc(O)c1C
REMARK SMILES IDX 1 1 2 2 8 3 6 4 5 5 4 6 3 7 9 8 7 9
REMARK H PARENT 7 10
REMARK Flexibility Score: inf
ROOT
ATOM      1  C   UNL     1     127.250 145.254 104.728  1.00  0.00     0.045 C 
ATOM      2  C   UNL     1     127.214 145.198 106.234  1.00  0.00    -0.045 A 
ATOM      3  C   UNL     1     127.470 143.996 106.952  1.00  0.00    -0.006 A 
ATOM      4  C   UNL     1     127.419 144.017 108.369  1.00  0.00     0.118 A 
ATOM      5  C   UNL     1     127.122 145.207 109.042  1.00  0.00     0.046 A 
ATOM      6  C   UNL     1     126.875 146.378 108.334  1.00  0.00     0.004 A 
ATOM      7  C   UNL     1     126.920 146.377 106.941  1.00  0.00     0.004 A 
ATOM      8  C   UNL     1     127.792 142.699 106.245  1.00  0.00     0.048 C 
ENDROOT
BRANCH   4   9
ATOM      9  O   UNL     1     127.658 142.876 109.140  1.00  0.00    -0.508 OA
ATOM     10  H   UNL     1     128.506 142.730 109.672  1.00  0.00     0.293 HD
ENDBRANCH   4   9
TORSDOF 1
ENDMDL
MODEL 6
REMARK VINA RESULT:    -3.787      1.357      2.529
REMARK INTER + INTRA:          -3.898
REMARK INTER:                  -3.898
REMARK INTRA:                   0.000
REMARK UNBOUND:                 0.000
REMARK SMILES Cc1cccc(O)c1C
REMARK SMILES IDX 1 1 2 2 8 3 6 4 5 5 4 6 3 7 9 8 7 9
REMARK H PARENT 7 10
REMARK Flexibility Score: inf
ROOT
ATOM      1  C   UNL     1     127.991 142.759 108.847  1.00  0.00     0.045 C 
ATOM      2  C   UNL     1     127.614 143.890 107.925  1.00  0.00    -0.045 A 
ATOM      3  C   UNL     1     127.633 143.748 106.509  1.00  0.00    -0.006 A 
ATOM      4  C   UNL     1     127.267 144.855 105.702  1.00  0.00     0.118 A 
ATOM      5  C   UNL     1     126.893 146.063 106.298  1.00  0.00     0.046 A 
ATOM      6  C   UNL     1     126.875 146.194 107.682  1.00  0.00     0.004 A 
ATOM      7  C   UNL     1     127.232 145.118 108.492  1.00  0.00     0.004 A 
ATOM      8  C   UNL     1     128.035 142.451 105.843  1.00  0.00     0.048 C 
ENDROOT
BRANCH   4   9
ATOM      9  O   UNL     1     127.263 144.789 104.306  1.00  0.00    -0.508 OA
ATOM     10  H   UNL     1     127.001 143.961 103.787  1.00  0.00     0.293 HD
ENDBRANCH   4   9
TORSDOF 1
ENDMDL
MODEL 7
REMARK VINA RESULT:    -3.760      1.196      2.579
REMARK INTER + INTRA:          -3.870
REMARK INTER:                  -3.870
REMARK INTRA:                   0.000
REMARK UNBOUND:                 0.000
REMARK SMILES Cc1cccc(O)c1C
REMARK SMILES IDX 1 1 2 2 8 3 6 4 5 5 4 6 3 7 9 8 7 9
REMARK H PARENT 7 10
REMARK Flexibility Score: inf
ROOT
ATOM      1  C   UNL     1     126.898 145.862 108.637  1.00  0.00     0.045 C 
ATOM      2  C   UNL     1     127.236 144.757 107.669  1.00  0.00    -0.045 A 
ATOM      3  C   UNL     1     127.228 144.957 106.261  1.00  0.00    -0.006 A 
ATOM      4  C   UNL     1     127.556 143.872 105.409  1.00  0.00     0.118 A 
ATOM      5  C   UNL     1     127.881 142.627 105.956  1.00  0.00     0.046 A 
ATOM      6  C   UNL     1     127.888 142.438 107.333  1.00  0.00     0.004 A 
ATOM      7  C   UNL     1     127.568 143.492 108.186  1.00  0.00     0.004 A 
ATOM      8  C   UNL     1     126.879 146.295 105.648  1.00  0.00     0.048 C 
ENDROOT
BRANCH   4   9
ATOM      9  O   UNL     1     127.569 143.995 104.017  1.00  0.00    -0.508 OA
ATOM     10  H   UNL     1     126.890 143.552 103.412  1.00  0.00     0.293 HD
ENDBRANCH   4   9
TORSDOF 1
ENDMDL
MODEL 8
REMARK VINA RESULT:    -3.662      2.724      3.164
REMARK INTER + INTRA:          -3.769
REMARK INTER:                  -3.769
REMARK INTRA:                   0.000
REMARK UNBOUND:                 0.000
REMARK SMILES Cc1cccc(O)c1C
REMARK SMILES IDX 1 1 2 2 8 3 6 4 5 5 4 6 3 7 9 8 7 9
REMARK H PARENT 7 10
REMARK Flexibility Score: inf
ROOT
ATOM      1  C   UNL     1     131.148 145.838 106.808  1.00  0.00     0.045 C 
ATOM      2  C   UNL     1     129.660 145.622 106.915  1.00  0.00    -0.045 A 
ATOM      3  C   UNL     1     128.996 145.542 108.170  1.00  0.00    -0.006 A 
ATOM      4  C   UNL     1     127.593 145.336 108.195  1.00  0.00     0.118 A 
ATOM      5  C   UNL     1     126.882 145.216 106.998  1.00  0.00     0.046 A 
ATOM      6  C   UNL     1     127.538 145.296 105.774  1.00  0.00     0.004 A 
ATOM      7  C   UNL     1     128.915 145.497 105.729  1.00  0.00     0.004 A 
ATOM      8  C   UNL     1     129.746 145.669 109.478  1.00  0.00     0.048 C 
ENDROOT
BRANCH   4   9
ATOM      9  O   UNL     1     126.875 145.247 109.391  1.00  0.00    -0.508 OA
ATOM     10  H   UNL     1     125.916 144.928 109.443  1.00  0.00     0.293 HD
ENDBRANCH   4   9
TORSDOF 1
ENDMDL
MODEL 9
REMARK VINA RESULT:    -3.514      1.700      2.755
REMARK INTER + INTRA:          -3.617
REMARK INTER:                  -3.617
REMARK INTRA:                   0.000
REMARK UNBOUND:                 0.000
REMARK SMILES Cc1cccc(O)c1C
REMARK SMILES IDX 1 1 2 2 8 3 6 4 5 5 4 6 3 7 9 8 7 9
REMARK H PARENT 7 10
REMARK Flexibility Score: inf
ROOT
ATOM      1  C   UNL     1     127.747 143.260 109.386  1.00  0.00     0.045 C 
ATOM      2  C   UNL     1     127.695 143.648 107.931  1.00  0.00    -0.045 A 
ATOM      3  C   UNL     1     127.289 144.945 107.509  1.00  0.00    -0.006 A 
ATOM      4  C   UNL     1     127.264 145.241 106.122  1.00  0.00     0.118 A 
ATOM      5  C   UNL     1     127.635 144.266 105.191  1.00  0.00     0.046 A 
ATOM      6  C   UNL     1     128.033 143.001 105.611  1.00  0.00     0.004 A 
ATOM      7  C   UNL     1     128.064 142.692 106.969  1.00  0.00     0.004 A 
ATOM      8  C   UNL     1     126.882 146.014 108.498  1.00  0.00     0.048 C 
ENDROOT
BRANCH   4   9
ATOM      9  O   UNL     1     126.875 146.491 105.634  1.00  0.00    -0.508 OA
ATOM     10  H   UNL     1     127.023 147.357 106.137  1.00  0.00     0.293 HD
ENDBRANCH   4   9
TORSDOF 1
ENDMDL
