MODEL 1
REMARK VINA RESULT:    -4.688      0.000      0.000
REMARK INTER + INTRA:          -6.092
REMARK INTER:                  -5.785
REMARK INTRA:                  -0.307
REMARK UNBOUND:                -0.307
REMARK SMILES C=CC[C@@H](C)C(=O)CC
REMARK SMILES IDX 4 1 5 2 6 3 7 4 8 5 9 6 3 7 2 8 1 9
REMARK H PARENT
REMARK Flexibility Score: inf
ROOT
ATOM      1  C   UNL     1      -8.246  31.341  22.957  1.00  0.00     0.057 C 
ATOM      2  C   UNL     1      -7.544  32.398  23.821  1.00  0.00     0.016 C 
ENDROOT
BRANCH   1   3
ATOM      3  C   UNL     1      -8.794  31.984  21.701  1.00  0.00     0.135 C 
ATOM      4  O   UNL     1      -9.667  31.414  21.060  1.00  0.00    -0.299 OA
BRANCH   3   5
ATOM      5  C   UNL     1      -8.282  33.315  21.219  1.00  0.00     0.072 C 
ATOM      6  C   UNL     1      -7.249  33.127  20.112  1.00  0.00     0.012 C 
ENDBRANCH   3   5
ENDBRANCH   1   3
BRANCH   1   7
ATOM      7  C   UNL     1      -7.296  30.184  22.585  1.00  0.00     0.038 C 
BRANCH   7   8
ATOM      8  C   UNL     1      -7.823  28.843  23.025  1.00  0.00    -0.034 C 
ATOM      9  C   UNL     1      -8.754  28.190  22.325  1.00  0.00     0.004 C 
ENDBRANCH   7   8
ENDBRANCH   1   7
TORSDOF 4
ENDMDL
MODEL 2
REMARK VINA RESULT:    -4.603      1.521      3.874
REMARK INTER + INTRA:          -5.986
REMARK INTER:                  -5.711
REMARK INTRA:                  -0.276
REMARK UNBOUND:                -0.307
REMARK SMILES C=CC[C@@H](C)C(=O)CC
REMARK SMILES IDX 4 1 5 2 6 3 7 4 8 5 9 6 3 7 2 8 1 9
REMARK H PARENT
REMARK Flexibility Score: inf
ROOT
ATOM      1  C   UNL     1      -7.602  31.752  23.010  1.00  0.00     0.057 C 
ATOM      2  C   UNL     1      -7.852  32.022  24.501  1.00  0.00     0.016 C 
ENDROOT
BRANCH   1   3
ATOM      3  C   UNL     1      -7.530  30.259  22.762  1.00  0.00     0.135 C 
ATOM      4  O   UNL     1      -6.533  29.637  23.105  1.00  0.00    -0.299 OA
BRANCH   3   5
ATOM      5  C   UNL     1      -8.661  29.523  22.096  1.00  0.00     0.072 C 
ATOM      6  C   UNL     1      -8.646  28.048  22.481  1.00  0.00     0.012 C 
ENDBRANCH   3   5
ENDBRANCH   1   3
BRANCH   1   7
ATOM      7  C   UNL     1      -8.698  32.379  22.124  1.00  0.00     0.038 C 
BRANCH   7   8
ATOM      8  C   UNL     1      -8.152  33.425  21.188  1.00  0.00    -0.034 C 
ATOM      9  C   UNL     1      -7.356  33.104  20.163  1.00  0.00     0.004 C 
ENDBRANCH   7   8
ENDBRANCH   1   7
TORSDOF 4
ENDMDL
MODEL 3
REMARK VINA RESULT:    -4.552      1.308      1.756
REMARK INTER + INTRA:          -5.924
REMARK INTER:                  -5.487
REMARK INTRA:                  -0.437
REMARK UNBOUND:                -0.307
REMARK SMILES C=CC[C@@H](C)C(=O)CC
REMARK SMILES IDX 4 1 5 2 6 3 7 4 8 5 9 6 3 7 2 8 1 9
REMARK H PARENT
REMARK Flexibility Score: inf
ROOT
ATOM      1  C   UNL     1      -8.629  33.075  23.586  1.00  0.00     0.057 C 
ATOM      2  C   UNL     1      -7.491  34.014  24.013  1.00  0.00     0.016 C 
ENDROOT
BRANCH   1   3
ATOM      3  C   UNL     1      -8.812  33.137  22.084  1.00  0.00     0.135 C 
ATOM      4  O   UNL     1      -9.739  32.533  21.562  1.00  0.00    -0.299 OA
BRANCH   3   5
ATOM      5  C   UNL     1      -7.870  33.928  21.216  1.00  0.00     0.072 C 
ATOM      6  C   UNL     1      -7.289  33.051  20.112  1.00  0.00     0.012 C 
ENDBRANCH   3   5
ENDBRANCH   1   3
BRANCH   1   7
ATOM      7  C   UNL     1      -8.365  31.620  24.024  1.00  0.00     0.038 C 
BRANCH   7   8
ATOM      8  C   UNL     1      -7.047  31.097  23.515  1.00  0.00    -0.034 C 
ATOM      9  C   UNL     1      -6.888  29.819  23.161  1.00  0.00     0.004 C 
ENDBRANCH   7   8
ENDBRANCH   1   7
TORSDOF 4
ENDMDL
MODEL 4
REMARK VINA RESULT:    -4.492      1.483      3.161
REMARK INTER + INTRA:          -5.849
REMARK INTER:                  -5.404
REMARK INTRA:                  -0.445
REMARK UNBOUND:                -0.307
REMARK SMILES C=CC[C@@H](C)C(=O)CC
REMARK SMILES IDX 4 1 5 2 6 3 7 4 8 5 9 6 3 7 2 8 1 9
REMARK H PARENT
REMARK Flexibility Score: inf
ROOT
ATOM      1  C   UNL     1      -7.415  31.571  23.034  1.00  0.00     0.057 C 
ATOM      2  C   UNL     1      -6.833  30.252  23.562  1.00  0.00     0.016 C 
ENDROOT
BRANCH   1   3
ATOM      3  C   UNL     1      -8.403  31.289  21.921  1.00  0.00     0.135 C 
ATOM      4  O   UNL     1      -8.952  30.197  21.862  1.00  0.00    -0.299 OA
BRANCH   3   5
ATOM      5  C   UNL     1      -8.721  32.328  20.879  1.00  0.00     0.072 C 
ATOM      6  C   UNL     1      -7.442  32.911  20.290  1.00  0.00     0.012 C 
ENDBRANCH   3   5
ENDBRANCH   1   3
BRANCH   1   7
ATOM      7  C   UNL     1      -8.101  32.382  24.153  1.00  0.00     0.038 C 
BRANCH   7   8
ATOM      8  C   UNL     1      -7.467  33.733  24.355  1.00  0.00    -0.034 C 
ATOM      9  C   UNL     1      -7.684  34.745  23.511  1.00  0.00     0.004 C 
ENDBRANCH   7   8
ENDBRANCH   1   7
TORSDOF 4
ENDMDL
MODEL 5
REMARK VINA RESULT:    -4.434      1.678      3.700
REMARK INTER + INTRA:          -5.778
REMARK INTER:                  -5.397
REMARK INTRA:                  -0.381
REMARK UNBOUND:                -0.307
REMARK SMILES C=CC[C@@H](C)C(=O)CC
REMARK SMILES IDX 4 1 5 2 6 3 7 4 8 5 9 6 3 7 2 8 1 9
REMARK H PARENT
REMARK Flexibility Score: inf
ROOT
ATOM      1  C   UNL     1      -7.699  32.948  23.350  1.00  0.00     0.057 C 
ATOM      2  C   UNL     1      -7.509  34.073  24.377  1.00  0.00     0.016 C 
ENDROOT
BRANCH   1   3
ATOM      3  C   UNL     1      -8.299  31.732  24.024  1.00  0.00     0.135 C 
ATOM      4  O   UNL     1      -9.502  31.693  24.241  1.00  0.00    -0.299 OA
BRANCH   3   5
ATOM      5  C   UNL     1      -7.441  30.566  24.438  1.00  0.00     0.072 C 
ATOM      6  C   UNL     1      -6.730  29.964  23.231  1.00  0.00     0.012 C 
ENDBRANCH   3   5
ENDBRANCH   1   3
BRANCH   1   7
ATOM      7  C   UNL     1      -8.592  33.392  22.173  1.00  0.00     0.038 C 
BRANCH   7   8
ATOM      8  C   UNL     1      -8.257  32.671  20.894  1.00  0.00    -0.034 C 
ATOM      9  C   UNL     1      -7.258  33.071  20.102  1.00  0.00     0.004 C 
ENDBRANCH   7   8
ENDBRANCH   1   7
TORSDOF 4
ENDMDL
MODEL 6
REMARK VINA RESULT:    -4.397     16.450     17.240
REMARK INTER + INTRA:          -5.732
REMARK INTER:                  -5.388
REMARK INTRA:                  -0.344
REMARK UNBOUND:                -0.307
REMARK SMILES C=CC[C@@H](C)C(=O)CC
REMARK SMILES IDX 4 1 5 2 6 3 7 4 8 5 9 6 3 7 2 8 1 9
REMARK H PARENT
REMARK Flexibility Score: inf
ROOT
ATOM      1  C   UNL     1       7.255  31.323  28.030  1.00  0.00     0.057 C 
ATOM      2  C   UNL     1       5.966  31.870  27.399  1.00  0.00     0.016 C 
ENDROOT
BRANCH   1   3
ATOM      3  C   UNL     1       8.028  32.451  28.681  1.00  0.00     0.135 C 
ATOM      4  O   UNL     1       7.426  33.420  29.125  1.00  0.00    -0.299 OA
BRANCH   3   5
ATOM      5  C   UNL     1       9.529  32.407  28.789  1.00  0.00     0.072 C 
ATOM      6  C   UNL     1      10.125  31.545  27.682  1.00  0.00     0.012 C 
ENDBRANCH   3   5
ENDBRANCH   1   3
BRANCH   1   7
ATOM      7  C   UNL     1       6.960  30.220  29.068  1.00  0.00     0.038 C 
BRANCH   7   8
ATOM      8  C   UNL     1       7.491  28.876  28.644  1.00  0.00    -0.034 C 
ATOM      9  C   UNL     1       6.725  27.987  28.005  1.00  0.00     0.004 C 
ENDBRANCH   7   8
ENDBRANCH   1   7
TORSDOF 4
ENDMDL
MODEL 7
REMARK VINA RESULT:    -4.385      1.705      4.213
REMARK INTER + INTRA:          -5.718
REMARK INTER:                  -5.346
REMARK INTRA:                  -0.372
REMARK UNBOUND:                -0.307
REMARK SMILES C=CC[C@@H](C)C(=O)CC
REMARK SMILES IDX 4 1 5 2 6 3 7 4 8 5 9 6 3 7 2 8 1 9
REMARK H PARENT
REMARK Flexibility Score: inf
ROOT
ATOM      1  C   UNL     1      -8.237  33.870  21.595  1.00  0.00     0.057 C 
ATOM      2  C   UNL     1      -7.426  33.654  20.309  1.00  0.00     0.016 C 
ENDROOT
BRANCH   1   3
ATOM      3  C   UNL     1      -8.662  32.534  22.167  1.00  0.00     0.135 C 
ATOM      4  O   UNL     1      -9.830  32.357  22.487  1.00  0.00    -0.299 OA
BRANCH   3   5
ATOM      5  C   UNL     1      -7.672  31.415  22.354  1.00  0.00     0.072 C 
ATOM      6  C   UNL     1      -7.375  31.200  23.833  1.00  0.00     0.012 C 
ENDBRANCH   3   5
ENDBRANCH   1   3
BRANCH   1   7
ATOM      7  C   UNL     1      -7.436  34.663  22.649  1.00  0.00     0.038 C 
BRANCH   7   8
ATOM      8  C   UNL     1      -8.221  34.891  23.915  1.00  0.00    -0.034 C 
ATOM      9  C   UNL     1      -7.638  34.870  25.117  1.00  0.00     0.004 C 
ENDBRANCH   7   8
ENDBRANCH   1   7
TORSDOF 4
ENDMDL
MODEL 8
REMARK VINA RESULT:    -4.355      1.607      2.539
REMARK INTER + INTRA:          -5.681
REMARK INTER:                  -5.409
REMARK INTRA:                  -0.272
REMARK UNBOUND:                -0.307
REMARK SMILES C=CC[C@@H](C)C(=O)CC
REMARK SMILES IDX 4 1 5 2 6 3 7 4 8 5 9 6 3 7 2 8 1 9
REMARK H PARENT
REMARK Flexibility Score: inf
ROOT
ATOM      1  C   UNL     1      -7.880  32.142  21.802  1.00  0.00     0.057 C 
ATOM      2  C   UNL     1      -7.578  32.749  20.424  1.00  0.00     0.016 C 
ENDROOT
BRANCH   1   3
ATOM      3  C   UNL     1      -8.512  33.186  22.697  1.00  0.00     0.135 C 
ATOM      4  O   UNL     1      -9.555  32.930  23.282  1.00  0.00    -0.299 OA
BRANCH   3   5
ATOM      5  C   UNL     1      -7.881  34.541  22.880  1.00  0.00     0.072 C 
ATOM      6  C   UNL     1      -7.196  34.638  24.239  1.00  0.00     0.012 C 
ENDBRANCH   3   5
ENDBRANCH   1   3
BRANCH   1   7
ATOM      7  C   UNL     1      -8.804  30.911  21.694  1.00  0.00     0.038 C 
BRANCH   7   8
ATOM      8  C   UNL     1      -8.240  29.705  22.398  1.00  0.00    -0.034 C 
ATOM      9  C   UNL     1      -7.115  29.773  23.116  1.00  0.00     0.004 C 
ENDBRANCH   7   8
ENDBRANCH   1   7
TORSDOF 4
ENDMDL
MODEL 9
REMARK VINA RESULT:    -4.336      2.490      4.061
REMARK INTER + INTRA:          -5.657
REMARK INTER:                  -5.386
REMARK INTRA:                  -0.272
REMARK UNBOUND:                -0.307
REMARK SMILES C=CC[C@@H](C)C(=O)CC
REMARK SMILES IDX 4 1 5 2 6 3 7 4 8 5 9 6 3 7 2 8 1 9
REMARK H PARENT
REMARK Flexibility Score: inf
ROOT
ATOM      1  C   UNL     1      -7.490  33.129  23.690  1.00  0.00     0.057 C 
ATOM      2  C   UNL     1      -8.212  32.323  24.779  1.00  0.00     0.016 C 
ENDROOT
BRANCH   1   3
ATOM      3  C   UNL     1      -8.230  32.998  22.376  1.00  0.00     0.135 C 
ATOM      4  O   UNL     1      -9.131  32.177  22.268  1.00  0.00    -0.299 OA
BRANCH   3   5
ATOM      5  C   UNL     1      -7.877  33.858  21.192  1.00  0.00     0.072 C 
ATOM      6  C   UNL     1      -7.178  33.034  20.116  1.00  0.00     0.012 C 
ENDBRANCH   3   5
ENDBRANCH   1   3
BRANCH   1   7
ATOM      7  C   UNL     1      -7.358  34.618  24.073  1.00  0.00     0.038 C 
BRANCH   7   8
ATOM      8  C   UNL     1      -8.639  35.184  24.628  1.00  0.00    -0.034 C 
ATOM      9  C   UNL     1      -8.643  36.052  25.643  1.00  0.00     0.004 C 
ENDBRANCH   7   8
ENDBRANCH   1   7
TORSDOF 4
ENDMDL
