MODEL 1
REMARK VINA RESULT:    -6.292      0.000      0.000
REMARK INTER + INTRA:          -7.616
REMARK INTER:                  -7.395
REMARK INTRA:                  -0.221
REMARK UNBOUND:                -0.221
REMARK SMILES O=c1c(O)c(-c2ccc(O)cc2)oc2cc(O)cc(O)c12
REMARK SMILES IDX 5 1 3 2 2 3 1 4 21 5 19 6 18 7 16 8 15 9 14 10 13 11 6 12
REMARK SMILES IDX 7 13 8 14 9 15 12 16 11 17 10 18 4 20 20 22 17 24
REMARK H PARENT 10 19 4 21 20 23 17 25
REMARK Flexibility Score: inf
ROOT
ATOM      1  C   UNL     1       1.752  -3.827  21.745  1.00  0.00     0.180 A 
ATOM      2  C   UNL     1       2.825  -3.454  22.573  1.00  0.00     0.208 A 
ATOM      3  C   UNL     1       2.573  -3.151  23.921  1.00  0.00     0.238 A 
ATOM      4  O   UNL     1       3.526  -2.747  24.636  1.00  0.00    -0.285 OA
ATOM      5  C   UNL     1       1.261  -3.279  24.439  1.00  0.00     0.111 A 
ATOM      6  C   UNL     1       0.898  -3.043  25.799  1.00  0.00     0.134 A 
ATOM      7  C   UNL     1      -0.451  -3.097  26.174  1.00  0.00     0.093 A 
ATOM      8  C   UNL     1      -1.441  -3.443  25.252  1.00  0.00     0.123 A 
ATOM      9  C   UNL     1      -1.091  -3.729  23.936  1.00  0.00     0.094 A 
ATOM     10  C   UNL     1       0.241  -3.645  23.522  1.00  0.00     0.146 A 
ATOM     11  O   UNL     1       0.527  -3.906  22.251  1.00  0.00    -0.452 OA
ENDROOT
BRANCH   1  12
ATOM     12  C   UNL     1       1.936  -4.145  20.312  1.00  0.00     0.021 A 
ATOM     13  C   UNL     1       1.501  -3.267  19.302  1.00  0.00     0.016 A 
ATOM     14  C   UNL     1       1.665  -3.603  17.955  1.00  0.00     0.047 A 
ATOM     15  C   UNL     1       2.251  -4.824  17.599  1.00  0.00     0.115 A 
ATOM     16  C   UNL     1       2.504  -5.377  19.946  1.00  0.00     0.016 A 
ATOM     17  C   UNL     1       2.667  -5.710  18.597  1.00  0.00     0.047 A 
BRANCH  15  18
ATOM     18  O   UNL     1       2.421  -5.169  16.260  1.00  0.00    -0.508 OA
ATOM     19  H   UNL     1       3.343  -5.270  15.853  1.00  0.00     0.293 HD
ENDBRANCH  15  18
ENDBRANCH   1  12
BRANCH   2  20
ATOM     20  O   UNL     1       4.125  -3.407  22.061  1.00  0.00    -0.502 OA
ATOM     21  H   UNL     1       4.700  -4.235  21.964  1.00  0.00     0.293 HD
ENDBRANCH   2  20
BRANCH   6  22
ATOM     22  O   UNL     1       1.816  -2.777  26.820  1.00  0.00    -0.507 OA
ATOM     23  H   UNL     1       2.133  -3.450  27.501  1.00  0.00     0.293 HD
ENDBRANCH   6  22
BRANCH   8  24
ATOM     24  O   UNL     1      -2.778  -3.512  25.638  1.00  0.00    -0.508 OA
ATOM     25  H   UNL     1      -3.112  -4.235  26.264  1.00  0.00     0.293 HD
ENDBRANCH   8  24
TORSDOF 5
ENDMDL
MODEL 2
REMARK VINA RESULT:    -6.283      2.497      6.440
REMARK INTER + INTRA:          -7.606
REMARK INTER:                  -7.398
REMARK INTRA:                  -0.208
REMARK UNBOUND:                -0.221
REMARK SMILES O=c1c(O)c(-c2ccc(O)cc2)oc2cc(O)cc(O)c12
REMARK SMILES IDX 5 1 3 2 2 3 1 4 21 5 19 6 18 7 16 8 15 9 14 10 13 11 6 12
REMARK SMILES IDX 7 13 8 14 9 15 12 16 11 17 10 18 4 20 20 22 17 24
REMARK H PARENT 10 19 4 21 20 23 17 25
REMARK Flexibility Score: inf
ROOT
ATOM      1  C   UNL     1       2.491  -4.084  21.997  1.00  0.00     0.180 A 
ATOM      2  C   UNL     1       2.979  -5.090  21.145  1.00  0.00     0.208 A 
ATOM      3  C   UNL     1       2.614  -5.071  19.790  1.00  0.00     0.238 A 
ATOM      4  O   UNL     1       2.993  -6.016  19.050  1.00  0.00    -0.285 OA
ATOM      5  C   UNL     1       1.810  -4.017  19.290  1.00  0.00     0.111 A 
ATOM      6  C   UNL     1       1.417  -3.872  17.925  1.00  0.00     0.134 A 
ATOM      7  C   UNL     1       0.533  -2.846  17.566  1.00  0.00     0.093 A 
ATOM      8  C   UNL     1       0.080  -1.922  18.511  1.00  0.00     0.123 A 
ATOM      9  C   UNL     1       0.503  -2.022  19.833  1.00  0.00     0.094 A 
ATOM     10  C   UNL     1       1.353  -3.057  20.230  1.00  0.00     0.146 A 
ATOM     11  O   UNL     1       1.713  -3.126  21.507  1.00  0.00    -0.452 OA
ENDROOT
BRANCH   1  12
ATOM     12  C   UNL     1       2.819  -4.045  23.439  1.00  0.00     0.021 A 
ATOM     13  C   UNL     1       3.743  -3.119  23.958  1.00  0.00     0.016 A 
ATOM     14  C   UNL     1       4.054  -3.119  25.321  1.00  0.00     0.047 A 
ATOM     15  C   UNL     1       3.460  -4.052  26.180  1.00  0.00     0.115 A 
ATOM     16  C   UNL     1       2.244  -4.991  24.305  1.00  0.00     0.016 A 
ATOM     17  C   UNL     1       2.557  -4.989  25.667  1.00  0.00     0.047 A 
BRANCH  15  18
ATOM     18  O   UNL     1       3.762  -4.061  27.540  1.00  0.00    -0.508 OA
ATOM     19  H   UNL     1       3.107  -4.422  28.224  1.00  0.00     0.293 HD
ENDBRANCH  15  18
ENDBRANCH   1  12
BRANCH   2  20
ATOM     20  O   UNL     1       3.832  -6.079  21.642  1.00  0.00    -0.502 OA
ATOM     21  H   UNL     1       4.817  -5.914  21.807  1.00  0.00     0.293 HD
ENDBRANCH   2  20
BRANCH   6  22
ATOM     22  O   UNL     1       1.879  -4.685  16.886  1.00  0.00    -0.507 OA
ATOM     23  H   UNL     1       2.834  -4.724  16.564  1.00  0.00     0.293 HD
ENDBRANCH   6  22
BRANCH   8  24
ATOM     24  O   UNL     1      -0.784  -0.894  18.141  1.00  0.00    -0.508 OA
ATOM     25  H   UNL     1      -0.825  -0.552  17.188  1.00  0.00     0.293 HD
ENDBRANCH   8  24
TORSDOF 5
ENDMDL
MODEL 3
REMARK VINA RESULT:    -6.025      6.420      8.040
REMARK INTER + INTRA:          -7.303
REMARK INTER:                  -7.497
REMARK INTRA:                   0.194
REMARK UNBOUND:                -0.221
REMARK SMILES O=c1c(O)c(-c2ccc(O)cc2)oc2cc(O)cc(O)c12
REMARK SMILES IDX 5 1 3 2 2 3 1 4 21 5 19 6 18 7 16 8 15 9 14 10 13 11 6 12
REMARK SMILES IDX 7 13 8 14 9 15 12 16 11 17 10 18 4 20 20 22 17 24
REMARK H PARENT 10 19 4 21 20 23 17 25
REMARK Flexibility Score: inf
ROOT
ATOM      1  C   UNL     1      -2.610  -0.978  18.678  1.00  0.00     0.180 A 
ATOM      2  C   UNL     1      -3.175  -0.674  19.930  1.00  0.00     0.208 A 
ATOM      3  C   UNL     1      -4.375   0.053  19.977  1.00  0.00     0.238 A 
ATOM      4  O   UNL     1      -4.835   0.386  21.099  1.00  0.00    -0.285 OA
ATOM      5  C   UNL     1      -5.025   0.420  18.772  1.00  0.00     0.111 A 
ATOM      6  C   UNL     1      -6.268   1.118  18.701  1.00  0.00     0.134 A 
ATOM      7  C   UNL     1      -6.764   1.520  17.454  1.00  0.00     0.093 A 
ATOM      8  C   UNL     1      -6.094   1.193  16.273  1.00  0.00     0.123 A 
ATOM      9  C   UNL     1      -4.909   0.464  16.329  1.00  0.00     0.094 A 
ATOM     10  C   UNL     1      -4.369   0.082  17.560  1.00  0.00     0.146 A 
ATOM     11  O   UNL     1      -3.226  -0.593  17.567  1.00  0.00    -0.452 OA
ENDROOT
BRANCH   1  12
ATOM     12  C   UNL     1      -1.340  -1.727  18.548  1.00  0.00     0.021 A 
ATOM     13  C   UNL     1      -0.283  -1.544  19.458  1.00  0.00     0.016 A 
ATOM     14  C   UNL     1       0.916  -2.246  19.299  1.00  0.00     0.047 A 
ATOM     15  C   UNL     1       1.079  -3.127  18.223  1.00  0.00     0.115 A 
ATOM     16  C   UNL     1      -1.160  -2.597  17.460  1.00  0.00     0.016 A 
ATOM     17  C   UNL     1       0.040  -3.298  17.303  1.00  0.00     0.047 A 
BRANCH  15  18
ATOM     18  O   UNL     1       2.269  -3.833  18.055  1.00  0.00    -0.508 OA
ATOM     19  H   UNL     1       3.169  -3.396  18.213  1.00  0.00     0.293 HD
ENDBRANCH  15  18
ENDBRANCH   1  12
BRANCH   2  20
ATOM     20  O   UNL     1      -2.557  -1.110  21.105  1.00  0.00    -0.502 OA
ATOM     21  H   UNL     1      -2.638  -2.062  21.439  1.00  0.00     0.293 HD
ENDBRANCH   2  20
BRANCH   6  22
ATOM     22  O   UNL     1      -7.064   1.418  19.812  1.00  0.00    -0.507 OA
ATOM     23  H   UNL     1      -7.111   0.866  20.654  1.00  0.00     0.293 HD
ENDBRANCH   6  22
BRANCH   8  24
ATOM     24  O   UNL     1      -6.604   1.582  15.036  1.00  0.00    -0.508 OA
ATOM     25  H   UNL     1      -7.331   2.283  14.959  1.00  0.00     0.293 HD
ENDBRANCH   8  24
TORSDOF 5
ENDMDL
MODEL 4
REMARK VINA RESULT:    -5.632      3.152      5.674
REMARK INTER + INTRA:          -6.841
REMARK INTER:                  -6.548
REMARK INTRA:                  -0.293
REMARK UNBOUND:                -0.221
REMARK SMILES O=c1c(O)c(-c2ccc(O)cc2)oc2cc(O)cc(O)c12
REMARK SMILES IDX 5 1 3 2 2 3 1 4 21 5 19 6 18 7 16 8 15 9 14 10 13 11 6 12
REMARK SMILES IDX 7 13 8 14 9 15 12 16 11 17 10 18 4 20 20 22 17 24
REMARK H PARENT 10 19 4 21 20 23 17 25
REMARK Flexibility Score: inf
ROOT
ATOM      1  C   UNL     1      -0.415  -3.184  24.287  1.00  0.00     0.180 A 
ATOM      2  C   UNL     1       0.059  -2.731  25.531  1.00  0.00     0.208 A 
ATOM      3  C   UNL     1       1.314  -3.170  25.983  1.00  0.00     0.238 A 
ATOM      4  O   UNL     1       1.698  -2.820  27.128  1.00  0.00    -0.285 OA
ATOM      5  C   UNL     1       2.104  -4.012  25.161  1.00  0.00     0.111 A 
ATOM      6  C   UNL     1       3.409  -4.481  25.498  1.00  0.00     0.134 A 
ATOM      7  C   UNL     1       4.054  -5.395  24.654  1.00  0.00     0.093 A 
ATOM      8  C   UNL     1       3.467  -5.807  23.456  1.00  0.00     0.123 A 
ATOM      9  C   UNL     1       2.217  -5.311  23.092  1.00  0.00     0.094 A 
ATOM     10  C   UNL     1       1.533  -4.428  23.931  1.00  0.00     0.146 A 
ATOM     11  O   UNL     1       0.334  -3.999  23.554  1.00  0.00    -0.452 OA
ENDROOT
BRANCH   1  12
ATOM     12  C   UNL     1      -1.733  -2.777  23.751  1.00  0.00     0.021 A 
ATOM     13  C   UNL     1      -2.886  -3.554  23.970  1.00  0.00     0.016 A 
ATOM     14  C   UNL     1      -4.115  -3.160  23.432  1.00  0.00     0.047 A 
ATOM     15  C   UNL     1      -4.206  -1.996  22.658  1.00  0.00     0.115 A 
ATOM     16  C   UNL     1      -1.830  -1.623  22.957  1.00  0.00     0.016 A 
ATOM     17  C   UNL     1      -3.060  -1.232  22.420  1.00  0.00     0.047 A 
BRANCH  15  18
ATOM     18  O   UNL     1      -5.426  -1.594  22.118  1.00  0.00    -0.508 OA
ATOM     19  H   UNL     1      -6.193  -1.295  22.709  1.00  0.00     0.293 HD
ENDBRANCH  15  18
ENDBRANCH   1  12
BRANCH   2  20
ATOM     20  O   UNL     1      -0.703  -1.840  26.292  1.00  0.00    -0.502 OA
ATOM     21  H   UNL     1      -1.301  -1.140  25.871  1.00  0.00     0.293 HD
ENDBRANCH   2  20
BRANCH   6  22
ATOM     22  O   UNL     1       4.125  -4.067  26.626  1.00  0.00    -0.507 OA
ATOM     23  H   UNL     1       4.949  -3.486  26.606  1.00  0.00     0.293 HD
ENDBRANCH   6  22
BRANCH   8  24
ATOM     24  O   UNL     1       4.122  -6.702  22.614  1.00  0.00    -0.508 OA
ATOM     25  H   UNL     1       4.422  -7.614  22.940  1.00  0.00     0.293 HD
ENDBRANCH   8  24
TORSDOF 5
ENDMDL
MODEL 5
REMARK VINA RESULT:    -5.590      1.977      3.179
REMARK INTER + INTRA:          -6.791
REMARK INTER:                  -6.604
REMARK INTRA:                  -0.187
REMARK UNBOUND:                -0.221
REMARK SMILES O=c1c(O)c(-c2ccc(O)cc2)oc2cc(O)cc(O)c12
REMARK SMILES IDX 5 1 3 2 2 3 1 4 21 5 19 6 18 7 16 8 15 9 14 10 13 11 6 12
REMARK SMILES IDX 7 13 8 14 9 15 12 16 11 17 10 18 4 20 20 22 17 24
REMARK H PARENT 10 19 4 21 20 23 17 25
REMARK Flexibility Score: inf
ROOT
ATOM      1  C   UNL     1       0.634  -3.345  24.069  1.00  0.00     0.180 A 
ATOM      2  C   UNL     1       1.324  -3.060  25.260  1.00  0.00     0.208 A 
ATOM      3  C   UNL     1       0.633  -2.447  26.318  1.00  0.00     0.238 A 
ATOM      4  O   UNL     1       1.275  -2.127  27.352  1.00  0.00    -0.285 OA
ATOM      5  C   UNL     1      -0.752  -2.177  26.193  1.00  0.00     0.111 A 
ATOM      6  C   UNL     1      -1.562  -1.600  27.217  1.00  0.00     0.134 A 
ATOM      7  C   UNL     1      -2.899  -1.281  26.943  1.00  0.00     0.093 A 
ATOM      8  C   UNL     1      -3.470  -1.577  25.704  1.00  0.00     0.123 A 
ATOM      9  C   UNL     1      -2.703  -2.190  24.717  1.00  0.00     0.094 A 
ATOM     10  C   UNL     1      -1.357  -2.486  24.947  1.00  0.00     0.146 A 
ATOM     11  O   UNL     1      -0.657  -3.050  23.969  1.00  0.00    -0.452 OA
ENDROOT
BRANCH   1  12
ATOM     12  C   UNL     1       1.297  -3.975  22.906  1.00  0.00     0.021 A 
ATOM     13  C   UNL     1       1.716  -5.318  22.939  1.00  0.00     0.016 A 
ATOM     14  C   UNL     1       2.362  -5.883  21.835  1.00  0.00     0.047 A 
ATOM     15  C   UNL     1       2.611  -5.113  20.692  1.00  0.00     0.115 A 
ATOM     16  C   UNL     1       1.569  -3.204  21.764  1.00  0.00     0.016 A 
ATOM     17  C   UNL     1       2.215  -3.772  20.661  1.00  0.00     0.047 A 
BRANCH  15  18
ATOM     18  O   UNL     1       3.253  -5.666  19.586  1.00  0.00    -0.508 OA
ATOM     19  H   UNL     1       2.740  -5.917  18.749  1.00  0.00     0.293 HD
ENDBRANCH  15  18
ENDBRANCH   1  12
BRANCH   2  20
ATOM     20  O   UNL     1       2.672  -3.403  25.391  1.00  0.00    -0.502 OA
ATOM     21  H   UNL     1       3.399  -2.711  25.525  1.00  0.00     0.293 HD
ENDBRANCH   2  20
BRANCH   6  22
ATOM     22  O   UNL     1      -1.117  -1.345  28.518  1.00  0.00    -0.507 OA
ATOM     23  H   UNL     1      -0.376  -1.846  28.984  1.00  0.00     0.293 HD
ENDBRANCH   6  22
BRANCH   8  24
ATOM     24  O   UNL     1      -4.805  -1.273  25.446  1.00  0.00    -0.508 OA
ATOM     25  H   UNL     1      -5.442  -1.010  26.189  1.00  0.00     0.293 HD
ENDBRANCH   8  24
TORSDOF 5
ENDMDL
MODEL 6
REMARK VINA RESULT:    -5.461      4.689      6.181
REMARK INTER + INTRA:          -6.639
REMARK INTER:                  -6.377
REMARK INTRA:                  -0.262
REMARK UNBOUND:                -0.221
REMARK SMILES O=c1c(O)c(-c2ccc(O)cc2)oc2cc(O)cc(O)c12
REMARK SMILES IDX 5 1 3 2 2 3 1 4 21 5 19 6 18 7 16 8 15 9 14 10 13 11 6 12
REMARK SMILES IDX 7 13 8 14 9 15 12 16 11 17 10 18 4 20 20 22 17 24
REMARK H PARENT 10 19 4 21 20 23 17 25
REMARK Flexibility Score: inf
ROOT
ATOM      1  C   UNL     1      -3.020  -0.622  22.209  1.00  0.00     0.180 A 
ATOM      2  C   UNL     1      -3.163   0.227  23.320  1.00  0.00     0.208 A 
ATOM      3  C   UNL     1      -2.460  -0.068  24.498  1.00  0.00     0.238 A 
ATOM      4  O   UNL     1      -2.650   0.653  25.511  1.00  0.00    -0.285 OA
ATOM      5  C   UNL     1      -1.579  -1.177  24.534  1.00  0.00     0.111 A 
ATOM      6  C   UNL     1      -0.781  -1.544  25.660  1.00  0.00     0.134 A 
ATOM      7  C   UNL     1      -0.026  -2.723  25.616  1.00  0.00     0.093 A 
ATOM      8  C   UNL     1       0.011  -3.513  24.465  1.00  0.00     0.123 A 
ATOM      9  C   UNL     1      -0.721  -3.134  23.343  1.00  0.00     0.094 A 
ATOM     10  C   UNL     1      -1.514  -1.984  23.369  1.00  0.00     0.146 A 
ATOM     11  O   UNL     1      -2.212  -1.673  22.283  1.00  0.00    -0.452 OA
ENDROOT
BRANCH   1  12
ATOM     12  C   UNL     1      -3.740  -0.384  20.938  1.00  0.00     0.021 A 
ATOM     13  C   UNL     1      -5.100  -0.712  20.792  1.00  0.00     0.016 A 
ATOM     14  C   UNL     1      -5.751  -0.500  19.573  1.00  0.00     0.047 A 
ATOM     15  C   UNL     1      -5.050   0.027  18.481  1.00  0.00     0.115 A 
ATOM     16  C   UNL     1      -3.039   0.124  19.831  1.00  0.00     0.016 A 
ATOM     17  C   UNL     1      -3.693   0.335  18.613  1.00  0.00     0.047 A 
BRANCH  15  18
ATOM     18  O   UNL     1      -5.689   0.244  17.262  1.00  0.00    -0.508 OA
ATOM     19  H   UNL     1      -6.020   1.163  16.995  1.00  0.00     0.293 HD
ENDBRANCH  15  18
ENDBRANCH   1  12
BRANCH   2  20
ATOM     20  O   UNL     1      -3.979   1.360  23.239  1.00  0.00    -0.502 OA
ATOM     21  H   UNL     1      -3.928   2.114  23.912  1.00  0.00     0.293 HD
ENDBRANCH   2  20
BRANCH   6  22
ATOM     22  O   UNL     1      -0.674  -0.781  26.827  1.00  0.00    -0.507 OA
ATOM     23  H   UNL     1      -0.894  -1.111  27.755  1.00  0.00     0.293 HD
ENDBRANCH   6  22
BRANCH   8  24
ATOM     24  O   UNL     1       0.779  -4.675  24.424  1.00  0.00    -0.508 OA
ATOM     25  H   UNL     1       1.327  -4.976  25.222  1.00  0.00     0.293 HD
ENDBRANCH   8  24
TORSDOF 5
ENDMDL
MODEL 7
REMARK VINA RESULT:    -5.390      3.234      5.245
REMARK INTER + INTRA:          -6.557
REMARK INTER:                  -6.263
REMARK INTRA:                  -0.293
REMARK UNBOUND:                -0.221
REMARK SMILES O=c1c(O)c(-c2ccc(O)cc2)oc2cc(O)cc(O)c12
REMARK SMILES IDX 5 1 3 2 2 3 1 4 21 5 19 6 18 7 16 8 15 9 14 10 13 11 6 12
REMARK SMILES IDX 7 13 8 14 9 15 12 16 11 17 10 18 4 20 20 22 17 24
REMARK H PARENT 10 19 4 21 20 23 17 25
REMARK Flexibility Score: inf
ROOT
ATOM      1  C   UNL     1      -0.597  -2.929  24.027  1.00  0.00     0.180 A 
ATOM      2  C   UNL     1      -1.182  -2.845  25.303  1.00  0.00     0.208 A 
ATOM      3  C   UNL     1      -2.352  -2.088  25.467  1.00  0.00     0.238 A 
ATOM      4  O   UNL     1      -2.827  -1.958  26.625  1.00  0.00    -0.285 OA
ATOM      5  C   UNL     1      -2.955  -1.469  24.345  1.00  0.00     0.111 A 
ATOM      6  C   UNL     1      -4.167  -0.715  24.387  1.00  0.00     0.134 A 
ATOM      7  C   UNL     1      -4.613  -0.059  23.233  1.00  0.00     0.093 A 
ATOM      8  C   UNL     1      -3.926  -0.182  22.023  1.00  0.00     0.123 A 
ATOM      9  C   UNL     1      -2.773  -0.960  21.959  1.00  0.00     0.094 A 
ATOM     10  C   UNL     1      -2.282  -1.596  23.103  1.00  0.00     0.146 A 
ATOM     11  O   UNL     1      -1.167  -2.310  23.000  1.00  0.00    -0.452 OA
ENDROOT
BRANCH   1  12
ATOM     12  C   UNL     1       0.645  -3.695  23.777  1.00  0.00     0.021 A 
ATOM     13  C   UNL     1       1.914  -3.124  23.985  1.00  0.00     0.016 A 
ATOM     14  C   UNL     1       3.072  -3.862  23.719  1.00  0.00     0.047 A 
ATOM     15  C   UNL     1       2.978  -5.170  23.228  1.00  0.00     0.115 A 
ATOM     16  C   UNL     1       0.559  -5.000  23.265  1.00  0.00     0.016 A 
ATOM     17  C   UNL     1       1.719  -5.735  23.000  1.00  0.00     0.047 A 
BRANCH  15  18
ATOM     18  O   UNL     1       4.124  -5.915  22.960  1.00  0.00    -0.508 OA
ATOM     19  H   UNL     1       5.036  -5.616  23.285  1.00  0.00     0.293 HD
ENDBRANCH  15  18
ENDBRANCH   1  12
BRANCH   2  20
ATOM     20  O   UNL     1      -0.613  -3.527  26.382  1.00  0.00    -0.502 OA
ATOM     21  H   UNL     1       0.389  -3.604  26.509  1.00  0.00     0.293 HD
ENDBRANCH   2  20
BRANCH   6  22
ATOM     22  O   UNL     1      -4.979  -0.599  25.521  1.00  0.00    -0.507 OA
ATOM     23  H   UNL     1      -5.780  -1.177  25.718  1.00  0.00     0.293 HD
ENDBRANCH   6  22
BRANCH   8  24
ATOM     24  O   UNL     1      -4.386   0.459  20.876  1.00  0.00    -0.508 OA
ATOM     25  H   UNL     1      -5.377   0.568  20.690  1.00  0.00     0.293 HD
ENDBRANCH   8  24
TORSDOF 5
ENDMDL
MODEL 8
REMARK VINA RESULT:    -5.363      2.347      6.621
REMARK INTER + INTRA:          -6.525
REMARK INTER:                  -6.235
REMARK INTRA:                  -0.289
REMARK UNBOUND:                -0.221
REMARK SMILES O=c1c(O)c(-c2ccc(O)cc2)oc2cc(O)cc(O)c12
REMARK SMILES IDX 5 1 3 2 2 3 1 4 21 5 19 6 18 7 16 8 15 9 14 10 13 11 6 12
REMARK SMILES IDX 7 13 8 14 9 15 12 16 11 17 10 18 4 20 20 22 17 24
REMARK H PARENT 10 19 4 21 20 23 17 25
REMARK Flexibility Score: inf
ROOT
ATOM      1  C   UNL     1      -0.162  -2.441  24.618  1.00  0.00     0.180 A 
ATOM      2  C   UNL     1       0.649  -3.085  25.568  1.00  0.00     0.208 A 
ATOM      3  C   UNL     1       1.732  -3.860  25.125  1.00  0.00     0.238 A 
ATOM      4  O   UNL     1       2.408  -4.494  25.976  1.00  0.00    -0.285 OA
ATOM      5  C   UNL     1       2.025  -3.938  23.741  1.00  0.00     0.111 A 
ATOM      6  C   UNL     1       3.125  -4.657  23.183  1.00  0.00     0.134 A 
ATOM      7  C   UNL     1       3.254  -4.750  21.791  1.00  0.00     0.093 A 
ATOM      8  C   UNL     1       2.361  -4.097  20.939  1.00  0.00     0.123 A 
ATOM      9  C   UNL     1       1.317  -3.347  21.475  1.00  0.00     0.094 A 
ATOM     10  C   UNL     1       1.139  -3.267  22.859  1.00  0.00     0.146 A 
ATOM     11  O   UNL     1       0.117  -2.558  23.325  1.00  0.00    -0.452 OA
ENDROOT
BRANCH   1  12
ATOM     12  C   UNL     1      -1.330  -1.619  25.006  1.00  0.00     0.021 A 
ATOM     13  C   UNL     1      -1.200  -0.248  25.296  1.00  0.00     0.016 A 
ATOM     14  C   UNL     1      -2.315   0.501  25.685  1.00  0.00     0.047 A 
ATOM     15  C   UNL     1      -3.569  -0.111  25.803  1.00  0.00     0.115 A 
ATOM     16  C   UNL     1      -2.588  -2.229  25.149  1.00  0.00     0.016 A 
ATOM     17  C   UNL     1      -3.701  -1.477  25.538  1.00  0.00     0.047 A 
BRANCH  15  18
ATOM     18  O   UNL     1      -4.687   0.626  26.189  1.00  0.00    -0.508 OA
ATOM     19  H   UNL     1      -5.044   0.587  27.137  1.00  0.00     0.293 HD
ENDBRANCH  15  18
ENDBRANCH   1  12
BRANCH   2  20
ATOM     20  O   UNL     1       0.389  -2.934  26.933  1.00  0.00    -0.502 OA
ATOM     21  H   UNL     1       1.005  -3.302  27.647  1.00  0.00     0.293 HD
ENDBRANCH   2  20
BRANCH   6  22
ATOM     22  O   UNL     1       4.125  -5.273  23.942  1.00  0.00    -0.507 OA
ATOM     23  H   UNL     1       4.269  -5.133  24.930  1.00  0.00     0.293 HD
ENDBRANCH   6  22
BRANCH   8  24
ATOM     24  O   UNL     1       2.507  -4.180  19.556  1.00  0.00    -0.508 OA
ATOM     25  H   UNL     1       3.412  -4.075  19.112  1.00  0.00     0.293 HD
ENDBRANCH   8  24
TORSDOF 5
ENDMDL
MODEL 9
REMARK VINA RESULT:    -5.317      3.193      6.293
REMARK INTER + INTRA:          -6.470
REMARK INTER:                  -6.184
REMARK INTRA:                  -0.287
REMARK UNBOUND:                -0.221
REMARK SMILES O=c1c(O)c(-c2ccc(O)cc2)oc2cc(O)cc(O)c12
REMARK SMILES IDX 5 1 3 2 2 3 1 4 21 5 19 6 18 7 16 8 15 9 14 10 13 11 6 12
REMARK SMILES IDX 7 13 8 14 9 15 12 16 11 17 10 18 4 20 20 22 17 24
REMARK H PARENT 10 19 4 21 20 23 17 25
REMARK Flexibility Score: inf
ROOT
ATOM      1  C   UNL     1      -0.070  -2.697  24.636  1.00  0.00     0.180 A 
ATOM      2  C   UNL     1       0.446  -3.075  23.384  1.00  0.00     0.208 A 
ATOM      3  C   UNL     1       1.651  -3.792  23.331  1.00  0.00     0.238 A 
ATOM      4  O   UNL     1       2.144  -4.061  22.205  1.00  0.00    -0.285 OA
ATOM      5  C   UNL     1       2.299  -4.172  24.533  1.00  0.00     0.111 A 
ATOM      6  C   UNL     1       3.501  -4.939  24.599  1.00  0.00     0.134 A 
ATOM      7  C   UNL     1       4.108  -5.165  25.842  1.00  0.00     0.093 A 
ATOM      8  C   UNL     1       3.522  -4.707  27.024  1.00  0.00     0.123 A 
ATOM      9  C   UNL     1       2.321  -4.005  26.973  1.00  0.00     0.094 A 
ATOM     10  C   UNL     1       1.711  -3.730  25.746  1.00  0.00     0.146 A 
ATOM     11  O   UNL     1       0.577  -3.039  25.744  1.00  0.00    -0.452 OA
ENDROOT
BRANCH   1  12
ATOM     12  C   UNL     1      -1.326  -1.927  24.771  1.00  0.00     0.021 A 
ATOM     13  C   UNL     1      -1.319  -0.526  24.898  1.00  0.00     0.016 A 
ATOM     14  C   UNL     1      -2.519   0.176  25.049  1.00  0.00     0.047 A 
ATOM     15  C   UNL     1      -3.738  -0.512  25.090  1.00  0.00     0.115 A 
ATOM     16  C   UNL     1      -2.552  -2.611  24.835  1.00  0.00     0.016 A 
ATOM     17  C   UNL     1      -3.750  -1.906  24.986  1.00  0.00     0.047 A 
BRANCH  15  18
ATOM     18  O   UNL     1      -4.940   0.177  25.239  1.00  0.00    -0.508 OA
ATOM     19  H   UNL     1      -5.514   0.416  24.440  1.00  0.00     0.293 HD
ENDBRANCH  15  18
ENDBRANCH   1  12
BRANCH   2  20
ATOM     20  O   UNL     1      -0.248  -2.756  22.213  1.00  0.00    -0.502 OA
ATOM     21  H   UNL     1       0.120  -2.958  21.291  1.00  0.00     0.293 HD
ENDBRANCH   2  20
BRANCH   6  22
ATOM     22  O   UNL     1       4.123  -5.520  23.490  1.00  0.00    -0.507 OA
ATOM     23  H   UNL     1       4.997  -6.022  23.515  1.00  0.00     0.293 HD
ENDBRANCH   6  22
BRANCH   8  24
ATOM     24  O   UNL     1       4.124  -4.951  28.256  1.00  0.00    -0.508 OA
ATOM     25  H   UNL     1       3.588  -4.953  29.116  1.00  0.00     0.293 HD
ENDBRANCH   8  24
TORSDOF 5
ENDMDL
