MODEL 1
REMARK VINA RESULT:    -4.061      0.000      0.000
REMARK INTER + INTRA:          -4.550
REMARK INTER:                  -4.536
REMARK INTRA:                  -0.014
REMARK UNBOUND:                -0.014
REMARK SMILES CCCC(=O)[O-]
REMARK SMILES IDX 3 1 4 2 5 3 6 4 2 5 1 6
REMARK H PARENT
REMARK Flexibility Score: inf
ROOT
ATOM      1  C   UNL     1      28.983  -1.382  44.154  1.00  0.00     0.052 C 
ENDROOT
BRANCH   1   2
ATOM      2  C   UNL     1      29.149  -1.472  42.670  1.00  0.00     0.041 C 
ATOM      3  O   UNL     1      28.203  -1.889  41.951  1.00  0.00    -0.550 OA
ATOM      4  O   UNL     1      30.364  -1.142  42.085  1.00  0.00    -0.550 OA
ENDBRANCH   1   2
BRANCH   1   5
ATOM      5  C   UNL     1      30.289  -0.927  44.813  1.00  0.00     0.003 C 
ATOM      6  C   UNL     1      30.425  -1.502  46.219  1.00  0.00     0.004 C 
ENDBRANCH   1   5
TORSDOF 2
ENDMDL
MODEL 2
REMARK VINA RESULT:    -3.933      2.983      4.452
REMARK INTER + INTRA:          -4.407
REMARK INTER:                  -4.372
REMARK INTRA:                  -0.036
REMARK UNBOUND:                -0.014
REMARK SMILES CCCC(=O)[O-]
REMARK SMILES IDX 3 1 4 2 5 3 6 4 2 5 1 6
REMARK H PARENT
REMARK Flexibility Score: inf
ROOT
ATOM      1  C   UNL     1      28.982  -0.625  40.824  1.00  0.00     0.052 C 
ENDROOT
BRANCH   1   2
ATOM      2  C   UNL     1      30.311  -0.881  41.460  1.00  0.00     0.041 C 
ATOM      3  O   UNL     1      30.405  -0.988  42.711  1.00  0.00    -0.550 OA
ATOM      4  O   UNL     1      31.455  -0.954  40.675  1.00  0.00    -0.550 OA
ENDBRANCH   1   2
BRANCH   1   5
ATOM      5  C   UNL     1      29.116  -0.586  39.299  1.00  0.00     0.003 C 
ATOM      6  C   UNL     1      29.068   0.848  38.778  1.00  0.00     0.004 C 
ENDBRANCH   1   5
TORSDOF 2
ENDMDL
MODEL 3
REMARK VINA RESULT:    -3.928      2.942      4.503
REMARK INTER + INTRA:          -4.402
REMARK INTER:                  -4.368
REMARK INTRA:                  -0.034
REMARK UNBOUND:                -0.014
REMARK SMILES CCCC(=O)[O-]
REMARK SMILES IDX 3 1 4 2 5 3 6 4 2 5 1 6
REMARK H PARENT
REMARK Flexibility Score: inf
ROOT
ATOM      1  C   UNL     1      28.943  -0.553  40.868  1.00  0.00     0.052 C 
ENDROOT
BRANCH   1   2
ATOM      2  C   UNL     1      30.255  -0.916  41.489  1.00  0.00     0.041 C 
ATOM      3  O   UNL     1      31.295  -0.977  40.783  1.00  0.00    -0.550 OA
ATOM      4  O   UNL     1      30.320  -1.236  42.839  1.00  0.00    -0.550 OA
ENDBRANCH   1   2
BRANCH   1   5
ATOM      5  C   UNL     1      29.037  -0.617  39.341  1.00  0.00     0.003 C 
ATOM      6  C   UNL     1      29.018   0.781  38.730  1.00  0.00     0.004 C 
ENDBRANCH   1   5
TORSDOF 2
ENDMDL
MODEL 4
REMARK VINA RESULT:    -3.901      1.705      2.338
REMARK INTER + INTRA:          -4.371
REMARK INTER:                  -4.334
REMARK INTRA:                  -0.037
REMARK UNBOUND:                -0.014
REMARK SMILES CCCC(=O)[O-]
REMARK SMILES IDX 3 1 4 2 5 3 6 4 2 5 1 6
REMARK H PARENT
REMARK Flexibility Score: inf
ROOT
ATOM      1  C   UNL     1      28.374  -1.381  42.021  1.00  0.00     0.052 C 
ENDROOT
BRANCH   1   2
ATOM      2  C   UNL     1      29.482  -0.827  41.182  1.00  0.00     0.041 C 
ATOM      3  O   UNL     1      30.681  -0.988  41.529  1.00  0.00    -0.550 OA
ATOM      4  O   UNL     1      29.189  -0.090  40.042  1.00  0.00    -0.550 OA
ENDBRANCH   1   2
BRANCH   1   5
ATOM      5  C   UNL     1      28.376  -0.731  43.408  1.00  0.00     0.003 C 
ATOM      6  C   UNL     1      28.813  -1.725  44.481  1.00  0.00     0.004 C 
ENDBRANCH   1   5
TORSDOF 2
ENDMDL
MODEL 5
REMARK VINA RESULT:    -3.869      2.254      2.796
REMARK INTER + INTRA:          -4.335
REMARK INTER:                  -4.323
REMARK INTRA:                  -0.012
REMARK UNBOUND:                -0.014
REMARK SMILES CCCC(=O)[O-]
REMARK SMILES IDX 3 1 4 2 5 3 6 4 2 5 1 6
REMARK H PARENT
REMARK Flexibility Score: inf
ROOT
ATOM      1  C   UNL     1      30.318  -1.000  42.084  1.00  0.00     0.052 C 
ENDROOT
BRANCH   1   2
ATOM      2  C   UNL     1      30.685  -0.883  40.639  1.00  0.00     0.041 C 
ATOM      3  O   UNL     1      29.788  -0.889  39.755  1.00  0.00    -0.550 OA
ATOM      4  O   UNL     1      32.020  -0.817  40.263  1.00  0.00    -0.550 OA
ENDBRANCH   1   2
BRANCH   1   5
ATOM      5  C   UNL     1      28.801  -1.138  42.243  1.00  0.00     0.003 C 
ATOM      6  C   UNL     1      28.401  -1.153  43.715  1.00  0.00     0.004 C 
ENDBRANCH   1   5
TORSDOF 2
ENDMDL
MODEL 6
REMARK VINA RESULT:    -3.694      3.239      4.374
REMARK INTER + INTRA:          -4.140
REMARK INTER:                  -4.085
REMARK INTRA:                  -0.056
REMARK UNBOUND:                -0.014
REMARK SMILES CCCC(=O)[O-]
REMARK SMILES IDX 3 1 4 2 5 3 6 4 2 5 1 6
REMARK H PARENT
REMARK Flexibility Score: inf
ROOT
ATOM      1  C   UNL     1      31.543  -0.619  40.313  1.00  0.00     0.052 C 
ENDROOT
BRANCH   1   2
ATOM      2  C   UNL     1      30.381  -0.845  41.226  1.00  0.00     0.041 C 
ATOM      3  O   UNL     1      29.208  -0.855  40.769  1.00  0.00    -0.550 OA
ATOM      4  O   UNL     1      30.588  -0.995  42.591  1.00  0.00    -0.550 OA
ENDBRANCH   1   2
BRANCH   1   5
ATOM      5  C   UNL     1      31.230   0.496  39.311  1.00  0.00     0.003 C 
ATOM      6  C   UNL     1      31.448   1.872  39.934  1.00  0.00     0.004 C 
ENDBRANCH   1   5
TORSDOF 2
ENDMDL
MODEL 7
REMARK VINA RESULT:    -3.556      3.558      4.611
REMARK INTER + INTRA:          -3.986
REMARK INTER:                  -3.925
REMARK INTRA:                  -0.061
REMARK UNBOUND:                -0.014
REMARK SMILES CCCC(=O)[O-]
REMARK SMILES IDX 3 1 4 2 5 3 6 4 2 5 1 6
REMARK H PARENT
REMARK Flexibility Score: inf
ROOT
ATOM      1  C   UNL     1      31.642   0.019  40.052  1.00  0.00     0.052 C 
ENDROOT
BRANCH   1   2
ATOM      2  C   UNL     1      30.904   1.287  39.759  1.00  0.00     0.041 C 
ATOM      3  O   UNL     1      31.369   2.393  40.138  1.00  0.00    -0.550 OA
ATOM      4  O   UNL     1      29.677   1.242  39.109  1.00  0.00    -0.550 OA
ENDBRANCH   1   2
BRANCH   1   5
ATOM      5  C   UNL     1      30.682  -1.052  40.578  1.00  0.00     0.003 C 
ATOM      6  C   UNL     1      30.381  -0.842  42.059  1.00  0.00     0.004 C 
ENDBRANCH   1   5
TORSDOF 2
ENDMDL
MODEL 8
REMARK VINA RESULT:    -3.539      2.191      3.319
REMARK INTER + INTRA:          -3.967
REMARK INTER:                  -3.957
REMARK INTRA:                  -0.010
REMARK UNBOUND:                -0.014
REMARK SMILES CCCC(=O)[O-]
REMARK SMILES IDX 3 1 4 2 5 3 6 4 2 5 1 6
REMARK H PARENT
REMARK Flexibility Score: inf
ROOT
ATOM      1  C   UNL     1      30.267  -1.016  42.430  1.00  0.00     0.052 C 
ENDROOT
BRANCH   1   2
ATOM      2  C   UNL     1      28.816  -1.210  42.741  1.00  0.00     0.041 C 
ATOM      3  O   UNL     1      28.315  -0.695  43.774  1.00  0.00    -0.550 OA
ATOM      4  O   UNL     1      28.028  -2.001  41.915  1.00  0.00    -0.550 OA
ENDBRANCH   1   2
BRANCH   1   5
ATOM      5  C   UNL     1      30.438  -0.360  41.058  1.00  0.00     0.003 C 
ATOM      6  C   UNL     1      31.809  -0.670  40.466  1.00  0.00     0.004 C 
ENDBRANCH   1   5
TORSDOF 2
ENDMDL
