MODEL 1
REMARK VINA RESULT:    -6.265      0.000      0.000
REMARK INTER + INTRA:          -8.608
REMARK INTER:                  -7.914
REMARK INTRA:                  -0.694
REMARK UNBOUND:                -0.694
REMARK SMILES Oc1ccc(CCc2cc(O)cc(O)c2)cc1
REMARK SMILES IDX 6 1 5 2 4 3 3 4 2 5 16 6 17 7 1 8 7 10 8 11 15 12 9 13 13 14
REMARK SMILES IDX 10 15 12 16 14 17 11 19
REMARK H PARENT 1 9 14 18 11 20
REMARK Flexibility Score: inf
ROOT
ATOM      1  C   UNL     1      -1.514  -3.589  -0.726  1.00  0.00     0.040 C 
ENDROOT
BRANCH   1   2
ATOM      2  C   UNL     1      -0.573  -2.916  -1.688  1.00  0.00    -0.047 A 
ATOM      3  C   UNL     1       0.556  -3.599  -2.170  1.00  0.00     0.007 A 
ATOM      4  C   UNL     1       1.447  -2.962  -3.038  1.00  0.00     0.046 A 
ATOM      5  C   UNL     1       1.227  -1.635  -3.423  1.00  0.00     0.115 A 
ATOM      6  C   UNL     1      -0.784  -1.580  -2.067  1.00  0.00     0.007 A 
ATOM      7  C   UNL     1       0.110  -0.945  -2.935  1.00  0.00     0.046 A 
BRANCH   5   8
ATOM      8  O   UNL     1       2.124  -1.013  -4.290  1.00  0.00    -0.508 OA
ATOM      9  H   UNL     1       1.807  -0.378  -5.013  1.00  0.00     0.293 HD
ENDBRANCH   5   8
ENDBRANCH   1   2
BRANCH   1  10
ATOM     10  C   UNL     1      -0.871  -3.714   0.658  1.00  0.00     0.040 C 
BRANCH  10  11
ATOM     11  C   UNL     1      -1.240  -2.538   1.521  1.00  0.00    -0.040 A 
ATOM     12  C   UNL     1      -2.577  -2.325   1.894  1.00  0.00     0.050 A 
ATOM     13  C   UNL     1      -0.260  -1.610   1.911  1.00  0.00     0.050 A 
ATOM     14  C   UNL     1      -2.927  -1.214   2.669  1.00  0.00     0.119 A 
ATOM     15  C   UNL     1      -0.608  -0.497   2.687  1.00  0.00     0.119 A 
ATOM     16  C   UNL     1      -1.940  -0.302   3.067  1.00  0.00     0.092 A 
BRANCH  14  17
ATOM     17  O   UNL     1      -4.257  -1.025   3.037  1.00  0.00    -0.508 OA
ATOM     18  H   UNL     1      -4.513  -0.767   3.983  1.00  0.00     0.293 HD
ENDBRANCH  14  17
BRANCH  15  19
ATOM     19  O   UNL     1       0.361   0.423   3.083  1.00  0.00    -0.508 OA
ATOM     20  H   UNL     1       0.108   1.333   3.450  1.00  0.00     0.293 HD
ENDBRANCH  15  19
ENDBRANCH  10  11
ENDBRANCH   1  10
TORSDOF 6
ENDMDL
MODEL 2
REMARK VINA RESULT:    -6.229      0.044      2.035
REMARK INTER + INTRA:          -8.562
REMARK INTER:                  -7.874
REMARK INTRA:                  -0.688
REMARK UNBOUND:                -0.694
REMARK SMILES Oc1ccc(CCc2cc(O)cc(O)c2)cc1
REMARK SMILES IDX 6 1 5 2 4 3 3 4 2 5 16 6 17 7 1 8 7 10 8 11 15 12 9 13 13 14
REMARK SMILES IDX 10 15 12 16 14 17 11 19
REMARK H PARENT 1 9 14 18 11 20
REMARK Flexibility Score: inf
ROOT
ATOM      1  C   UNL     1      -1.481  -3.624  -0.765  1.00  0.00     0.040 C 
ENDROOT
BRANCH   1   2
ATOM      2  C   UNL     1      -0.539  -2.940  -1.718  1.00  0.00    -0.047 A 
ATOM      3  C   UNL     1       0.610  -3.604  -2.177  1.00  0.00     0.007 A 
ATOM      4  C   UNL     1       1.503  -2.956  -3.036  1.00  0.00     0.046 A 
ATOM      5  C   UNL     1       1.263  -1.637  -3.436  1.00  0.00     0.115 A 
ATOM      6  C   UNL     1      -0.770  -1.611  -2.111  1.00  0.00     0.007 A 
ATOM      7  C   UNL     1       0.124  -0.966  -2.970  1.00  0.00     0.046 A 
BRANCH   5   8
ATOM      8  O   UNL     1       2.160  -1.004  -4.293  1.00  0.00    -0.508 OA
ATOM      9  H   UNL     1       2.998  -0.554  -3.944  1.00  0.00     0.293 HD
ENDBRANCH   5   8
ENDBRANCH   1   2
BRANCH   1  10
ATOM     10  C   UNL     1      -0.866  -3.708   0.635  1.00  0.00     0.040 C 
BRANCH  10  11
ATOM     11  C   UNL     1      -1.248  -2.505   1.454  1.00  0.00    -0.040 A 
ATOM     12  C   UNL     1      -0.266  -1.592   1.870  1.00  0.00     0.050 A 
ATOM     13  C   UNL     1      -2.580  -2.316   1.857  1.00  0.00     0.050 A 
ATOM     14  C   UNL     1      -0.614  -0.490   2.659  1.00  0.00     0.119 A 
ATOM     15  C   UNL     1      -2.930  -1.214   2.647  1.00  0.00     0.119 A 
ATOM     16  C   UNL     1      -1.948  -0.301   3.044  1.00  0.00     0.092 A 
BRANCH  14  17
ATOM     17  O   UNL     1       0.373   0.410   3.055  1.00  0.00    -0.508 OA
ATOM     18  H   UNL     1       1.254   0.092   3.444  1.00  0.00     0.293 HD
ENDBRANCH  14  17
BRANCH  15  19
ATOM     19  O   UNL     1      -4.251  -1.017   3.045  1.00  0.00    -0.508 OA
ATOM     20  H   UNL     1      -4.491  -0.364   3.782  1.00  0.00     0.293 HD
ENDBRANCH  15  19
ENDBRANCH  10  11
ENDBRANCH   1  10
TORSDOF 6
ENDMDL
MODEL 3
REMARK VINA RESULT:    -5.833      2.517      4.318
REMARK INTER + INTRA:          -8.062
REMARK INTER:                  -7.348
REMARK INTRA:                  -0.714
REMARK UNBOUND:                -0.694
REMARK SMILES Oc1ccc(CCc2cc(O)cc(O)c2)cc1
REMARK SMILES IDX 6 1 5 2 4 3 3 4 2 5 16 6 17 7 1 8 7 10 8 11 15 12 9 13 13 14
REMARK SMILES IDX 10 15 12 16 14 17 11 19
REMARK H PARENT 1 9 14 18 11 20
REMARK Flexibility Score: inf
ROOT
ATOM      1  C   UNL     1      -0.063  -3.599  -0.276  1.00  0.00     0.040 C 
ENDROOT
BRANCH   1   2
ATOM      2  C   UNL     1      -0.828  -4.808   0.187  1.00  0.00    -0.047 A 
ATOM      3  C   UNL     1      -1.651  -5.512  -0.708  1.00  0.00     0.007 A 
ATOM      4  C   UNL     1      -2.388  -6.616  -0.269  1.00  0.00     0.046 A 
ATOM      5  C   UNL     1      -2.319  -7.021   1.068  1.00  0.00     0.115 A 
ATOM      6  C   UNL     1      -0.772  -5.211   1.532  1.00  0.00     0.007 A 
ATOM      7  C   UNL     1      -1.510  -6.315   1.968  1.00  0.00     0.046 A 
BRANCH   5   8
ATOM      8  O   UNL     1      -3.058  -8.125   1.491  1.00  0.00    -0.508 OA
ATOM      9  H   UNL     1      -2.696  -9.067   1.408  1.00  0.00     0.293 HD
ENDBRANCH   5   8
ENDBRANCH   1   2
BRANCH   1  10
ATOM     10  C   UNL     1      -1.015  -2.429  -0.546  1.00  0.00     0.040 C 
BRANCH  10  11
ATOM     11  C   UNL     1      -1.278  -1.659   0.719  1.00  0.00    -0.040 A 
ATOM     12  C   UNL     1      -2.546  -1.701   1.322  1.00  0.00     0.050 A 
ATOM     13  C   UNL     1      -0.277  -0.846   1.275  1.00  0.00     0.050 A 
ATOM     14  C   UNL     1      -2.803  -0.960   2.481  1.00  0.00     0.119 A 
ATOM     15  C   UNL     1      -0.533  -0.103   2.435  1.00  0.00     0.119 A 
ATOM     16  C   UNL     1      -1.793  -0.163   3.038  1.00  0.00     0.092 A 
BRANCH  14  17
ATOM     17  O   UNL     1      -4.064  -1.021   3.069  1.00  0.00    -0.508 OA
ATOM     18  H   UNL     1      -4.205  -0.785   4.045  1.00  0.00     0.293 HD
ENDBRANCH  14  17
BRANCH  15  19
ATOM     19  O   UNL     1       0.459   0.700   2.996  1.00  0.00    -0.508 OA
ATOM     20  H   UNL     1       0.742   1.571   2.563  1.00  0.00     0.293 HD
ENDBRANCH  15  19
ENDBRANCH  10  11
ENDBRANCH   1  10
TORSDOF 6
ENDMDL
MODEL 4
REMARK VINA RESULT:    -5.779      3.363      4.138
REMARK INTER + INTRA:          -7.994
REMARK INTER:                  -7.456
REMARK INTRA:                  -0.538
REMARK UNBOUND:                -0.694
REMARK SMILES Oc1ccc(CCc2cc(O)cc(O)c2)cc1
REMARK SMILES IDX 6 1 5 2 4 3 3 4 2 5 16 6 17 7 1 8 7 10 8 11 15 12 9 13 13 14
REMARK SMILES IDX 10 15 12 16 14 17 11 19
REMARK H PARENT 1 9 14 18 11 20
REMARK Flexibility Score: inf
ROOT
ATOM      1  C   UNL     1      -1.129  -5.033   2.294  1.00  0.00     0.040 C 
ENDROOT
BRANCH   1   2
ATOM      2  C   UNL     1      -1.509  -5.849   1.088  1.00  0.00    -0.047 A 
ATOM      3  C   UNL     1      -0.786  -5.723  -0.109  1.00  0.00     0.007 A 
ATOM      4  C   UNL     1      -1.160  -6.456  -1.239  1.00  0.00     0.046 A 
ATOM      5  C   UNL     1      -2.266  -7.312  -1.188  1.00  0.00     0.115 A 
ATOM      6  C   UNL     1      -2.627  -6.699   1.131  1.00  0.00     0.007 A 
ATOM      7  C   UNL     1      -2.999  -7.431  -0.000  1.00  0.00     0.046 A 
BRANCH   5   8
ATOM      8  O   UNL     1      -2.627  -8.037  -2.322  1.00  0.00    -0.508 OA
ATOM      9  H   UNL     1      -3.598  -8.205  -2.555  1.00  0.00     0.293 HD
ENDBRANCH   5   8
ENDBRANCH   1   2
BRANCH   1  10
ATOM     10  C   UNL     1      -0.181  -3.897   1.899  1.00  0.00     0.040 C 
BRANCH  10  11
ATOM     11  C   UNL     1      -0.761  -2.565   2.292  1.00  0.00    -0.040 A 
ATOM     12  C   UNL     1      -2.148  -2.414   2.445  1.00  0.00     0.050 A 
ATOM     13  C   UNL     1       0.075  -1.448   2.452  1.00  0.00     0.050 A 
ATOM     14  C   UNL     1      -2.692  -1.169   2.779  1.00  0.00     0.119 A 
ATOM     15  C   UNL     1      -0.467  -0.200   2.786  1.00  0.00     0.119 A 
ATOM     16  C   UNL     1      -1.849  -0.063   2.952  1.00  0.00     0.092 A 
BRANCH  14  17
ATOM     17  O   UNL     1      -4.071  -1.041   2.935  1.00  0.00    -0.508 OA
ATOM     18  H   UNL     1      -4.556  -1.459   3.721  1.00  0.00     0.293 HD
ENDBRANCH  14  17
BRANCH  15  19
ATOM     19  O   UNL     1       0.358   0.911   2.953  1.00  0.00    -0.508 OA
ATOM     20  H   UNL     1       0.142   1.634   3.629  1.00  0.00     0.293 HD
ENDBRANCH  15  19
ENDBRANCH  10  11
ENDBRANCH   1  10
TORSDOF 6
ENDMDL
MODEL 5
REMARK VINA RESULT:    -5.779      2.486      4.759
REMARK INTER + INTRA:          -7.994
REMARK INTER:                  -7.242
REMARK INTRA:                  -0.752
REMARK UNBOUND:                -0.694
REMARK SMILES Oc1ccc(CCc2cc(O)cc(O)c2)cc1
REMARK SMILES IDX 6 1 5 2 4 3 3 4 2 5 16 6 17 7 1 8 7 10 8 11 15 12 9 13 13 14
REMARK SMILES IDX 10 15 12 16 14 17 11 19
REMARK H PARENT 1 9 14 18 11 20
REMARK Flexibility Score: inf
ROOT
ATOM      1  C   UNL     1      -0.119  -3.530  -0.412  1.00  0.00     0.040 C 
ENDROOT
BRANCH   1   2
ATOM      2  C   UNL     1      -0.804  -4.724   0.196  1.00  0.00    -0.047 A 
ATOM      3  C   UNL     1      -0.517  -5.108   1.517  1.00  0.00     0.007 A 
ATOM      4  C   UNL     1      -1.129  -6.237   2.071  1.00  0.00     0.046 A 
ATOM      5  C   UNL     1      -2.022  -6.998   1.309  1.00  0.00     0.115 A 
ATOM      6  C   UNL     1      -1.691  -5.498  -0.569  1.00  0.00     0.007 A 
ATOM      7  C   UNL     1      -2.301  -6.626  -0.013  1.00  0.00     0.046 A 
BRANCH   5   8
ATOM      8  O   UNL     1      -2.625  -8.120   1.875  1.00  0.00    -0.508 OA
ATOM      9  H   UNL     1      -2.653  -9.008   1.387  1.00  0.00     0.293 HD
ENDBRANCH   5   8
ENDBRANCH   1   2
BRANCH   1  10
ATOM     10  C   UNL     1      -1.125  -2.405  -0.669  1.00  0.00     0.040 C 
BRANCH  10  11
ATOM     11  C   UNL     1      -1.394  -1.636   0.596  1.00  0.00    -0.040 A 
ATOM     12  C   UNL     1      -0.365  -0.907   1.213  1.00  0.00     0.050 A 
ATOM     13  C   UNL     1      -2.660  -1.689   1.202  1.00  0.00     0.050 A 
ATOM     14  C   UNL     1      -0.604  -0.218   2.407  1.00  0.00     0.119 A 
ATOM     15  C   UNL     1      -2.902  -1.000   2.397  1.00  0.00     0.119 A 
ATOM     16  C   UNL     1      -1.875  -0.264   2.997  1.00  0.00     0.092 A 
BRANCH  14  17
ATOM     17  O   UNL     1       0.427   0.507   3.000  1.00  0.00    -0.508 OA
ATOM     18  H   UNL     1       0.909   0.165   3.824  1.00  0.00     0.293 HD
ENDBRANCH  14  17
BRANCH  15  19
ATOM     19  O   UNL     1      -4.158  -1.043   3.000  1.00  0.00    -0.508 OA
ATOM     20  H   UNL     1      -4.289  -0.784   3.970  1.00  0.00     0.293 HD
ENDBRANCH  15  19
ENDBRANCH  10  11
ENDBRANCH   1  10
TORSDOF 6
ENDMDL
MODEL 6
REMARK VINA RESULT:    -5.772      2.005      3.360
REMARK INTER + INTRA:          -7.984
REMARK INTER:                  -7.235
REMARK INTRA:                  -0.750
REMARK UNBOUND:                -0.694
REMARK SMILES Oc1ccc(CCc2cc(O)cc(O)c2)cc1
REMARK SMILES IDX 6 1 5 2 4 3 3 4 2 5 16 6 17 7 1 8 7 10 8 11 15 12 9 13 13 14
REMARK SMILES IDX 10 15 12 16 14 17 11 19
REMARK H PARENT 1 9 14 18 11 20
REMARK Flexibility Score: inf
ROOT
ATOM      1  C   UNL     1      -1.099  -0.518  -1.415  1.00  0.00     0.040 C 
ENDROOT
BRANCH   1   2
ATOM      2  C   UNL     1      -0.717  -1.969  -1.519  1.00  0.00    -0.047 A 
ATOM      3  C   UNL     1      -1.496  -2.954  -0.889  1.00  0.00     0.007 A 
ATOM      4  C   UNL     1      -1.123  -4.299  -0.958  1.00  0.00     0.046 A 
ATOM      5  C   UNL     1       0.036  -4.674  -1.646  1.00  0.00     0.115 A 
ATOM      6  C   UNL     1       0.453  -2.348  -2.199  1.00  0.00     0.007 A 
ATOM      7  C   UNL     1       0.824  -3.694  -2.266  1.00  0.00     0.046 A 
BRANCH   5   8
ATOM      8  O   UNL     1       0.395  -6.019  -1.708  1.00  0.00    -0.508 OA
ATOM      9  H   UNL     1       0.424  -6.597  -0.877  1.00  0.00     0.293 HD
ENDBRANCH   5   8
ENDBRANCH   1   2
BRANCH   1  10
ATOM     10  C   UNL     1      -0.170   0.216  -0.443  1.00  0.00     0.040 C 
BRANCH  10  11
ATOM     11  C   UNL     1      -0.426  -0.229   0.971  1.00  0.00    -0.040 A 
ATOM     12  C   UNL     1       0.616  -0.764   1.745  1.00  0.00     0.050 A 
ATOM     13  C   UNL     1      -1.722  -0.167   1.509  1.00  0.00     0.050 A 
ATOM     14  C   UNL     1       0.372  -1.208   3.049  1.00  0.00     0.119 A 
ATOM     15  C   UNL     1      -1.968  -0.611   2.815  1.00  0.00     0.119 A 
ATOM     16  C   UNL     1      -0.921  -1.127   3.584  1.00  0.00     0.092 A 
BRANCH  14  17
ATOM     17  O   UNL     1       1.421  -1.728   3.805  1.00  0.00    -0.508 OA
ATOM     18  H   UNL     1       1.255  -2.379   4.563  1.00  0.00     0.293 HD
ENDBRANCH  14  17
BRANCH  15  19
ATOM     19  O   UNL     1      -3.250  -0.545   3.357  1.00  0.00    -0.508 OA
ATOM     20  H   UNL     1      -4.076  -0.634   2.777  1.00  0.00     0.293 HD
ENDBRANCH  15  19
ENDBRANCH  10  11
ENDBRANCH   1  10
TORSDOF 6
ENDMDL
MODEL 7
REMARK VINA RESULT:    -5.765      3.357      4.599
REMARK INTER + INTRA:          -7.976
REMARK INTER:                  -7.431
REMARK INTRA:                  -0.545
REMARK UNBOUND:                -0.694
REMARK SMILES Oc1ccc(CCc2cc(O)cc(O)c2)cc1
REMARK SMILES IDX 6 1 5 2 4 3 3 4 2 5 16 6 17 7 1 8 7 10 8 11 15 12 9 13 13 14
REMARK SMILES IDX 10 15 12 16 14 17 11 19
REMARK H PARENT 1 9 14 18 11 20
REMARK Flexibility Score: inf
ROOT
ATOM      1  C   UNL     1      -1.092  -4.994   2.366  1.00  0.00     0.040 C 
ENDROOT
BRANCH   1   2
ATOM      2  C   UNL     1      -1.505  -5.751   1.133  1.00  0.00    -0.047 A 
ATOM      3  C   UNL     1      -2.598  -6.632   1.175  1.00  0.00     0.007 A 
ATOM      4  C   UNL     1      -2.961  -7.360   0.038  1.00  0.00     0.046 A 
ATOM      5  C   UNL     1      -2.230  -7.225  -1.147  1.00  0.00     0.115 A 
ATOM      6  C   UNL     1      -0.765  -5.628  -0.055  1.00  0.00     0.007 A 
ATOM      7  C   UNL     1      -1.130  -6.358  -1.190  1.00  0.00     0.046 A 
BRANCH   5   8
ATOM      8  O   UNL     1      -2.603  -7.957  -2.273  1.00  0.00    -0.508 OA
ATOM      9  H   UNL     1      -1.928  -8.495  -2.801  1.00  0.00     0.293 HD
ENDBRANCH   5   8
ENDBRANCH   1   2
BRANCH   1  10
ATOM     10  C   UNL     1      -0.115  -3.871   2.007  1.00  0.00     0.040 C 
BRANCH  10  11
ATOM     11  C   UNL     1      -0.718  -2.527   2.315  1.00  0.00    -0.040 A 
ATOM     12  C   UNL     1       0.106  -1.402   2.477  1.00  0.00     0.050 A 
ATOM     13  C   UNL     1      -2.104  -2.398   2.501  1.00  0.00     0.050 A 
ATOM     14  C   UNL     1      -0.450  -0.158   2.795  1.00  0.00     0.119 A 
ATOM     15  C   UNL     1      -2.663  -1.154   2.819  1.00  0.00     0.119 A 
ATOM     16  C   UNL     1      -1.836  -0.035   2.963  1.00  0.00     0.092 A 
BRANCH  14  17
ATOM     17  O   UNL     1       0.383   0.949   2.943  1.00  0.00    -0.508 OA
ATOM     18  H   UNL     1       0.012   1.865   3.166  1.00  0.00     0.293 HD
ENDBRANCH  14  17
BRANCH  15  19
ATOM     19  O   UNL     1      -4.038  -1.018   2.998  1.00  0.00    -0.508 OA
ATOM     20  H   UNL     1      -4.635  -1.823   3.145  1.00  0.00     0.293 HD
ENDBRANCH  15  19
ENDBRANCH  10  11
ENDBRANCH   1  10
TORSDOF 6
ENDMDL
MODEL 8
REMARK VINA RESULT:    -5.652      2.012      2.778
REMARK INTER + INTRA:          -7.833
REMARK INTER:                  -7.098
REMARK INTRA:                  -0.735
REMARK UNBOUND:                -0.694
REMARK SMILES Oc1ccc(CCc2cc(O)cc(O)c2)cc1
REMARK SMILES IDX 6 1 5 2 4 3 3 4 2 5 16 6 17 7 1 8 7 10 8 11 15 12 9 13 13 14
REMARK SMILES IDX 10 15 12 16 14 17 11 19
REMARK H PARENT 1 9 14 18 11 20
REMARK Flexibility Score: inf
ROOT
ATOM      1  C   UNL     1      -1.159  -0.763  -1.567  1.00  0.00     0.040 C 
ENDROOT
BRANCH   1   2
ATOM      2  C   UNL     1      -0.724  -2.203  -1.601  1.00  0.00    -0.047 A 
ATOM      3  C   UNL     1      -1.493  -3.191  -0.964  1.00  0.00     0.007 A 
ATOM      4  C   UNL     1      -1.071  -4.524  -0.967  1.00  0.00     0.046 A 
ATOM      5  C   UNL     1       0.127  -4.881  -1.595  1.00  0.00     0.115 A 
ATOM      6  C   UNL     1       0.485  -2.564  -2.219  1.00  0.00     0.007 A 
ATOM      7  C   UNL     1       0.904  -3.897  -2.220  1.00  0.00     0.046 A 
BRANCH   5   8
ATOM      8  O   UNL     1       0.535  -6.214  -1.591  1.00  0.00    -0.508 OA
ATOM      9  H   UNL     1       1.372  -6.509  -1.103  1.00  0.00     0.293 HD
ENDBRANCH   5   8
ENDBRANCH   1   2
BRANCH   1  10
ATOM     10  C   UNL     1      -0.295   0.039  -0.590  1.00  0.00     0.040 C 
BRANCH  10  11
ATOM     11  C   UNL     1      -0.538  -0.412   0.825  1.00  0.00    -0.040 A 
ATOM     12  C   UNL     1      -1.830  -0.359   1.372  1.00  0.00     0.050 A 
ATOM     13  C   UNL     1       0.534  -0.835   1.628  1.00  0.00     0.050 A 
ATOM     14  C   UNL     1      -2.053  -0.747   2.697  1.00  0.00     0.119 A 
ATOM     15  C   UNL     1       0.312  -1.224   2.955  1.00  0.00     0.119 A 
ATOM     16  C   UNL     1      -0.980  -1.183   3.487  1.00  0.00     0.092 A 
BRANCH  14  17
ATOM     17  O   UNL     1      -3.344  -0.696   3.220  1.00  0.00    -0.508 OA
ATOM     18  H   UNL     1      -4.086  -1.282   2.855  1.00  0.00     0.293 HD
ENDBRANCH  14  17
BRANCH  15  19
ATOM     19  O   UNL     1       1.370  -1.650   3.756  1.00  0.00    -0.508 OA
ATOM     20  H   UNL     1       1.650  -2.624   3.790  1.00  0.00     0.293 HD
ENDBRANCH  15  19
ENDBRANCH  10  11
ENDBRANCH   1  10
TORSDOF 6
ENDMDL
MODEL 9
REMARK VINA RESULT:    -5.556      2.733      4.082
REMARK INTER + INTRA:          -7.712
REMARK INTER:                  -7.129
REMARK INTRA:                  -0.583
REMARK UNBOUND:                -0.694
REMARK SMILES Oc1ccc(CCc2cc(O)cc(O)c2)cc1
REMARK SMILES IDX 6 1 5 2 4 3 3 4 2 5 16 6 17 7 1 8 7 10 8 11 15 12 9 13 13 14
REMARK SMILES IDX 10 15 12 16 14 17 11 19
REMARK H PARENT 1 9 14 18 11 20
REMARK Flexibility Score: inf
ROOT
ATOM      1  C   UNL     1       0.043  -2.151  -1.807  1.00  0.00     0.040 C 
ENDROOT
BRANCH   1   2
ATOM      2  C   UNL     1      -0.277  -3.586  -1.490  1.00  0.00    -0.047 A 
ATOM      3  C   UNL     1       0.550  -4.618  -1.964  1.00  0.00     0.007 A 
ATOM      4  C   UNL     1       0.234  -5.953  -1.697  1.00  0.00     0.046 A 
ATOM      5  C   UNL     1      -0.915  -6.272  -0.964  1.00  0.00     0.115 A 
ATOM      6  C   UNL     1      -1.436  -3.911  -0.766  1.00  0.00     0.007 A 
ATOM      7  C   UNL     1      -1.749  -5.247  -0.500  1.00  0.00     0.046 A 
BRANCH   5   8
ATOM      8  O   UNL     1      -1.216  -7.607  -0.704  1.00  0.00    -0.508 OA
ATOM      9  H   UNL     1      -0.718  -8.134   0.003  1.00  0.00     0.293 HD
ENDBRANCH   5   8
ENDBRANCH   1   2
BRANCH   1  10
ATOM     10  C   UNL     1      -1.079  -1.228  -1.322  1.00  0.00     0.040 C 
BRANCH  10  11
ATOM     11  C   UNL     1      -0.648  -0.471  -0.095  1.00  0.00    -0.040 A 
ATOM     12  C   UNL     1       0.622   0.123  -0.040  1.00  0.00     0.050 A 
ATOM     13  C   UNL     1      -1.490  -0.402   1.027  1.00  0.00     0.050 A 
ATOM     14  C   UNL     1       1.038   0.799   1.112  1.00  0.00     0.119 A 
ATOM     15  C   UNL     1      -1.077   0.275   2.181  1.00  0.00     0.119 A 
ATOM     16  C   UNL     1       0.185   0.877   2.222  1.00  0.00     0.092 A 
BRANCH  14  17
ATOM     17  O   UNL     1       2.299   1.390   1.145  1.00  0.00    -0.508 OA
ATOM     18  H   UNL     1       2.434   2.332   1.493  1.00  0.00     0.293 HD
ENDBRANCH  14  17
BRANCH  15  19
ATOM     19  O   UNL     1      -1.910   0.352   3.296  1.00  0.00    -0.508 OA
ATOM     20  H   UNL     1      -2.663   1.029   3.348  1.00  0.00     0.293 HD
ENDBRANCH  15  19
ENDBRANCH  10  11
ENDBRANCH   1  10
TORSDOF 6
ENDMDL
