MODEL 1
REMARK VINA RESULT:    -4.139      0.000      0.000
REMARK INTER + INTRA:          -5.323
REMARK INTER:                  -4.985
REMARK INTRA:                  -0.337
REMARK UNBOUND:                -0.337
REMARK SMILES NC(=O)C[C@@H]([NH3+])C(=O)[O-]
REMARK SMILES IDX 4 1 5 2 6 3 7 7 8 8 9 9 2 10 3 11 1 12
REMARK H PARENT 6 4 6 5 6 6 1 13 1 14
REMARK Flexibility Score: inf
ROOT
ATOM      1  C   UNL     1      22.581  -4.463   0.357  1.00  0.00     0.171 C 
ENDROOT
BRANCH   1   2
ATOM      2  C   UNL     1      23.697  -3.868  -0.525  1.00  0.00     0.237 C 
BRANCH   2   3
ATOM      3  N   UNL     1      23.173  -3.524  -1.852  1.00  0.00    -0.350 N 
ATOM      4  H   UNL     1      23.644  -4.109  -2.582  1.00  0.00     0.345 HD
ATOM      5  H   UNL     1      22.147  -3.720  -1.890  1.00  0.00     0.345 HD
ATOM      6  H   UNL     1      23.336  -2.513  -2.063  1.00  0.00     0.345 HD
ENDBRANCH   2   3
BRANCH   2   7
ATOM      7  C   UNL     1      24.302  -2.649   0.122  1.00  0.00     0.100 C 
ATOM      8  O   UNL     1      25.332  -2.759   0.840  1.00  0.00    -0.544 OA
ATOM      9  O   UNL     1      23.724  -1.398  -0.058  1.00  0.00    -0.544 OA
ENDBRANCH   2   7
ENDBRANCH   1   2
BRANCH   1  10
ATOM     10  C   UNL     1      21.229  -4.295  -0.273  1.00  0.00     0.223 C 
ATOM     11  O   UNL     1      20.757  -3.140  -0.447  1.00  0.00    -0.275 OA
ATOM     12  N   UNL     1      20.457  -5.439  -0.642  1.00  0.00    -0.369 N 
ATOM     13  H   UNL     1      20.828  -6.402  -0.489  1.00  0.00     0.159 HD
ATOM     14  H   UNL     1      19.512  -5.321  -1.067  1.00  0.00     0.159 HD
ENDBRANCH   1  10
TORSDOF 4
ENDMDL
MODEL 2
REMARK VINA RESULT:    -3.935      1.903      3.810
REMARK INTER + INTRA:          -5.078
REMARK INTER:                  -4.855
REMARK INTRA:                  -0.223
REMARK UNBOUND:                -0.337
REMARK SMILES NC(=O)C[C@@H]([NH3+])C(=O)[O-]
REMARK SMILES IDX 4 1 5 2 6 3 7 7 8 8 9 9 2 10 3 11 1 12
REMARK H PARENT 6 4 6 5 6 6 1 13 1 14
REMARK Flexibility Score: inf
ROOT
ATOM      1  C   UNL     1      23.775  -3.948  -0.158  1.00  0.00     0.171 C 
ENDROOT
BRANCH   1   2
ATOM      2  C   UNL     1      22.265  -3.796  -0.430  1.00  0.00     0.237 C 
BRANCH   2   3
ATOM      3  N   UNL     1      22.008  -3.729  -1.873  1.00  0.00    -0.350 N 
ATOM      4  H   UNL     1      21.336  -4.483  -2.150  1.00  0.00     0.345 HD
ATOM      5  H   UNL     1      21.579  -2.806  -2.114  1.00  0.00     0.345 HD
ATOM      6  H   UNL     1      22.896  -3.843  -2.413  1.00  0.00     0.345 HD
ENDBRANCH   2   3
BRANCH   2   7
ATOM      7  C   UNL     1      21.491  -4.937   0.180  1.00  0.00     0.100 C 
ATOM      8  O   UNL     1      21.517  -5.126   1.425  1.00  0.00    -0.544 OA
ATOM      9  O   UNL     1      20.752  -5.794  -0.628  1.00  0.00    -0.544 OA
ENDBRANCH   2   7
ENDBRANCH   1   2
BRANCH   1  10
ATOM     10  C   UNL     1      24.426  -2.621   0.105  1.00  0.00     0.223 C 
ATOM     11  O   UNL     1      23.847  -1.557  -0.244  1.00  0.00    -0.275 OA
ATOM     12  N   UNL     1      25.715  -2.557   0.716  1.00  0.00    -0.369 N 
ATOM     13  H   UNL     1      26.214  -3.430   0.995  1.00  0.00     0.159 HD
ATOM     14  H   UNL     1      26.173  -1.635   0.885  1.00  0.00     0.159 HD
ENDBRANCH   1  10
TORSDOF 4
ENDMDL
MODEL 3
REMARK VINA RESULT:    -3.800      1.708      1.827
REMARK INTER + INTRA:          -4.915
REMARK INTER:                  -4.406
REMARK INTRA:                  -0.509
REMARK UNBOUND:                -0.337
REMARK SMILES NC(=O)C[C@@H]([NH3+])C(=O)[O-]
REMARK SMILES IDX 4 1 5 2 6 3 7 7 8 8 9 9 2 10 3 11 1 12
REMARK H PARENT 6 4 6 5 6 6 1 13 1 14
REMARK Flexibility Score: inf
ROOT
ATOM      1  C   UNL     1      21.476  -3.642   0.477  1.00  0.00     0.171 C 
ENDROOT
BRANCH   1   2
ATOM      2  C   UNL     1      22.599  -3.926  -0.542  1.00  0.00     0.237 C 
BRANCH   2   3
ATOM      3  N   UNL     1      22.145  -3.619  -1.903  1.00  0.00    -0.350 N 
ATOM      4  H   UNL     1      22.509  -2.683  -2.196  1.00  0.00     0.345 HD
ATOM      5  H   UNL     1      22.514  -4.336  -2.569  1.00  0.00     0.345 HD
ATOM      6  H   UNL     1      21.100  -3.614  -1.952  1.00  0.00     0.345 HD
ENDBRANCH   2   3
BRANCH   2   7
ATOM      7  C   UNL     1      23.835  -3.127  -0.217  1.00  0.00     0.100 C 
ATOM      8  O   UNL     1      24.874  -3.708   0.194  1.00  0.00    -0.544 OA
ATOM      9  O   UNL     1      23.834  -1.744  -0.360  1.00  0.00    -0.544 OA
ENDBRANCH   2   7
ENDBRANCH   1   2
BRANCH   1  10
ATOM     10  C   UNL     1      20.506  -2.619  -0.039  1.00  0.00     0.223 C 
ATOM     11  O   UNL     1      19.528  -2.982  -0.744  1.00  0.00    -0.275 OA
ATOM     12  N   UNL     1      20.706  -1.231   0.236  1.00  0.00    -0.369 N 
ATOM     13  H   UNL     1      21.520  -0.914   0.805  1.00  0.00     0.159 HD
ATOM     14  H   UNL     1      20.038  -0.520  -0.135  1.00  0.00     0.159 HD
ENDBRANCH   1  10
TORSDOF 4
ENDMDL
MODEL 4
REMARK VINA RESULT:    -3.790      1.323      3.736
REMARK INTER + INTRA:          -4.903
REMARK INTER:                  -4.796
REMARK INTRA:                  -0.107
REMARK UNBOUND:                -0.337
REMARK SMILES NC(=O)C[C@@H]([NH3+])C(=O)[O-]
REMARK SMILES IDX 4 1 5 2 6 3 7 7 8 8 9 9 2 10 3 11 1 12
REMARK H PARENT 6 4 6 5 6 6 1 13 1 14
REMARK Flexibility Score: inf
ROOT
ATOM      1  C   UNL     1      22.374  -4.595   0.253  1.00  0.00     0.171 C 
ENDROOT
BRANCH   1   2
ATOM      2  C   UNL     1      20.983  -4.142  -0.235  1.00  0.00     0.237 C 
BRANCH   2   3
ATOM      3  N   UNL     1      20.160  -5.304  -0.591  1.00  0.00    -0.350 N 
ATOM      4  H   UNL     1      20.296  -5.538  -1.602  1.00  0.00     0.345 HD
ATOM      5  H   UNL     1      20.450  -6.131  -0.022  1.00  0.00     0.345 HD
ATOM      6  H   UNL     1      19.148  -5.107  -0.416  1.00  0.00     0.345 HD
ENDBRANCH   2   3
BRANCH   2   7
ATOM      7  C   UNL     1      20.285  -3.318   0.817  1.00  0.00     0.100 C 
ATOM      8  O   UNL     1      20.184  -2.070   0.680  1.00  0.00    -0.544 OA
ATOM      9  O   UNL     1      19.758  -3.928   1.950  1.00  0.00    -0.544 OA
ENDBRANCH   2   7
ENDBRANCH   1   2
BRANCH   1  10
ATOM     10  C   UNL     1      23.475  -3.930  -0.520  1.00  0.00     0.223 C 
ATOM     11  O   UNL     1      24.614  -3.793   0.003  1.00  0.00    -0.275 OA
ATOM     12  N   UNL     1      23.231  -3.418  -1.830  1.00  0.00    -0.369 N 
ATOM     13  H   UNL     1      22.289  -3.510  -2.270  1.00  0.00     0.159 HD
ATOM     14  H   UNL     1      23.994  -2.943  -2.361  1.00  0.00     0.159 HD
ENDBRANCH   1  10
TORSDOF 4
ENDMDL
MODEL 5
REMARK VINA RESULT:    -3.748      2.275      3.019
REMARK INTER + INTRA:          -4.852
REMARK INTER:                  -4.622
REMARK INTRA:                  -0.230
REMARK UNBOUND:                -0.337
REMARK SMILES NC(=O)C[C@@H]([NH3+])C(=O)[O-]
REMARK SMILES IDX 4 1 5 2 6 3 7 7 8 8 9 9 2 10 3 11 1 12
REMARK H PARENT 6 4 6 5 6 6 1 13 1 14
REMARK Flexibility Score: inf
ROOT
ATOM      1  C   UNL     1      23.439  -2.109   0.105  1.00  0.00     0.171 C 
ENDROOT
BRANCH   1   2
ATOM      2  C   UNL     1      24.397  -2.173   1.312  1.00  0.00     0.237 C 
BRANCH   2   3
ATOM      3  N   UNL     1      25.767  -2.447   0.866  1.00  0.00    -0.350 N 
ATOM      4  H   UNL     1      26.139  -1.625   0.335  1.00  0.00     0.345 HD
ATOM      5  H   UNL     1      26.385  -2.607   1.694  1.00  0.00     0.345 HD
ATOM      6  H   UNL     1      25.794  -3.293   0.252  1.00  0.00     0.345 HD
ENDBRANCH   2   3
BRANCH   2   7
ATOM      7  C   UNL     1      24.357  -0.888   2.099  1.00  0.00     0.100 C 
ATOM      8  O   UNL     1      24.545  -0.903   3.345  1.00  0.00    -0.544 OA
ATOM      9  O   UNL     1      24.102   0.319   1.458  1.00  0.00    -0.544 OA
ENDBRANCH   2   7
ENDBRANCH   1   2
BRANCH   1  10
ATOM     10  C   UNL     1      23.495  -3.367  -0.713  1.00  0.00     0.223 C 
ATOM     11  O   UNL     1      24.072  -4.389  -0.255  1.00  0.00    -0.275 OA
ATOM     12  N   UNL     1      22.929  -3.401  -2.024  1.00  0.00    -0.369 N 
ATOM     13  H   UNL     1      22.462  -2.558  -2.424  1.00  0.00     0.159 HD
ATOM     14  H   UNL     1      22.980  -4.272  -2.597  1.00  0.00     0.159 HD
ENDBRANCH   1  10
TORSDOF 4
ENDMDL
MODEL 6
REMARK VINA RESULT:    -3.698      1.653      2.151
REMARK INTER + INTRA:          -4.792
REMARK INTER:                  -4.460
REMARK INTRA:                  -0.332
REMARK UNBOUND:                -0.337
REMARK SMILES NC(=O)C[C@@H]([NH3+])C(=O)[O-]
REMARK SMILES IDX 4 1 5 2 6 3 7 7 8 8 9 9 2 10 3 11 1 12
REMARK H PARENT 6 4 6 5 6 6 1 13 1 14
REMARK Flexibility Score: inf
ROOT
ATOM      1  C   UNL     1      23.814  -3.753  -0.130  1.00  0.00     0.171 C 
ENDROOT
BRANCH   1   2
ATOM      2  C   UNL     1      24.448  -2.390   0.215  1.00  0.00     0.237 C 
BRANCH   2   3
ATOM      3  N   UNL     1      23.578  -1.293  -0.224  1.00  0.00    -0.350 N 
ATOM      4  H   UNL     1      22.937  -1.629  -0.980  1.00  0.00     0.345 HD
ATOM      5  H   UNL     1      22.992  -0.963   0.577  1.00  0.00     0.345 HD
ATOM      6  H   UNL     1      24.145  -0.492  -0.584  1.00  0.00     0.345 HD
ENDBRANCH   2   3
BRANCH   2   7
ATOM      7  C   UNL     1      24.713  -2.279   1.695  1.00  0.00     0.100 C 
ATOM      8  O   UNL     1      23.813  -2.580   2.523  1.00  0.00    -0.544 OA
ATOM      9  O   UNL     1      25.946  -1.833   2.155  1.00  0.00    -0.544 OA
ENDBRANCH   2   7
ENDBRANCH   1   2
BRANCH   1  10
ATOM     10  C   UNL     1      22.399  -3.600  -0.607  1.00  0.00     0.223 C 
ATOM     11  O   UNL     1      21.479  -3.366   0.221  1.00  0.00    -0.275 OA
ATOM     12  N   UNL     1      22.084  -3.754  -1.992  1.00  0.00    -0.369 N 
ATOM     13  H   UNL     1      22.833  -3.963  -2.687  1.00  0.00     0.159 HD
ATOM     14  H   UNL     1      21.098  -3.661  -2.320  1.00  0.00     0.159 HD
ENDBRANCH   1  10
TORSDOF 4
ENDMDL
MODEL 7
REMARK VINA RESULT:    -3.593     14.875     16.115
REMARK INTER + INTRA:          -4.665
REMARK INTER:                  -4.533
REMARK INTRA:                  -0.132
REMARK UNBOUND:                -0.337
REMARK SMILES NC(=O)C[C@@H]([NH3+])C(=O)[O-]
REMARK SMILES IDX 4 1 5 2 6 3 7 7 8 8 9 9 2 10 3 11 1 12
REMARK H PARENT 6 4 6 5 6 6 1 13 1 14
REMARK Flexibility Score: inf
ROOT
ATOM      1  C   UNL     1      33.008  -3.208  11.047  1.00  0.00     0.171 C 
ENDROOT
BRANCH   1   2
ATOM      2  C   UNL     1      33.916  -3.992  12.015  1.00  0.00     0.237 C 
BRANCH   2   3
ATOM      3  N   UNL     1      34.799  -3.076  12.745  1.00  0.00    -0.350 N 
ATOM      4  H   UNL     1      34.547  -3.075  13.761  1.00  0.00     0.345 HD
ATOM      5  H   UNL     1      35.792  -3.393  12.656  1.00  0.00     0.345 HD
ATOM      6  H   UNL     1      34.716  -2.104  12.369  1.00  0.00     0.345 HD
ENDBRANCH   2   3
BRANCH   2   7
ATOM      7  C   UNL     1      33.096  -4.803  12.986  1.00  0.00     0.100 C 
ATOM      8  O   UNL     1      31.861  -4.961  12.793  1.00  0.00    -0.544 OA
ATOM      9  O   UNL     1      33.693  -5.372  14.104  1.00  0.00    -0.544 OA
ENDBRANCH   2   7
ENDBRANCH   1   2
BRANCH   1  10
ATOM     10  C   UNL     1      33.107  -3.736   9.645  1.00  0.00     0.223 C 
ATOM     11  O   UNL     1      32.732  -4.911   9.388  1.00  0.00    -0.275 OA
ATOM     12  N   UNL     1      33.657  -2.925   8.605  1.00  0.00    -0.369 N 
ATOM     13  H   UNL     1      33.986  -1.956   8.806  1.00  0.00     0.159 HD
ATOM     14  H   UNL     1      33.738  -3.298   7.634  1.00  0.00     0.159 HD
ENDBRANCH   1  10
TORSDOF 4
ENDMDL
MODEL 8
REMARK VINA RESULT:    -3.503      2.380      3.821
REMARK INTER + INTRA:          -4.558
REMARK INTER:                  -4.046
REMARK INTRA:                  -0.512
REMARK UNBOUND:                -0.337
REMARK SMILES NC(=O)C[C@@H]([NH3+])C(=O)[O-]
REMARK SMILES IDX 4 1 5 2 6 3 7 7 8 8 9 9 2 10 3 11 1 12
REMARK H PARENT 6 4 6 5 6 6 1 13 1 14
REMARK Flexibility Score: inf
ROOT
ATOM      1  C   UNL     1      23.348  -2.947   1.713  1.00  0.00     0.171 C 
ENDROOT
BRANCH   1   2
ATOM      2  C   UNL     1      22.256  -2.665   0.661  1.00  0.00     0.237 C 
BRANCH   2   3
ATOM      3  N   UNL     1      22.365  -1.288   0.165  1.00  0.00    -0.350 N 
ATOM      4  H   UNL     1      23.063  -1.246  -0.614  1.00  0.00     0.345 HD
ATOM      5  H   UNL     1      21.440  -0.972  -0.208  1.00  0.00     0.345 HD
ATOM      6  H   UNL     1      22.664  -0.642   0.930  1.00  0.00     0.345 HD
ENDBRANCH   2   3
BRANCH   2   7
ATOM      7  C   UNL     1      22.351  -3.637  -0.488  1.00  0.00     0.100 C 
ATOM      8  O   UNL     1      21.542  -4.598  -0.572  1.00  0.00    -0.544 OA
ATOM      9  O   UNL     1      23.338  -3.485  -1.455  1.00  0.00    -0.544 OA
ENDBRANCH   2   7
ENDBRANCH   1   2
BRANCH   1  10
ATOM     10  C   UNL     1      24.594  -2.153   1.444  1.00  0.00     0.223 C 
ATOM     11  O   UNL     1      24.729  -1.007   1.950  1.00  0.00    -0.275 OA
ATOM     12  N   UNL     1      25.611  -2.674   0.588  1.00  0.00    -0.369 N 
ATOM     13  H   UNL     1      25.507  -3.614   0.149  1.00  0.00     0.159 HD
ATOM     14  H   UNL     1      26.471  -2.115   0.392  1.00  0.00     0.159 HD
ENDBRANCH   1  10
TORSDOF 4
ENDMDL
MODEL 9
REMARK VINA RESULT:    -3.445     18.746     19.011
REMARK INTER + INTRA:          -4.487
REMARK INTER:                  -4.082
REMARK INTRA:                  -0.404
REMARK UNBOUND:                -0.337
REMARK SMILES NC(=O)C[C@@H]([NH3+])C(=O)[O-]
REMARK SMILES IDX 4 1 5 2 6 3 7 7 8 8 9 9 2 10 3 11 1 12
REMARK H PARENT 6 4 6 5 6 6 1 13 1 14
REMARK Flexibility Score: inf
ROOT
ATOM      1  C   UNL     1      18.341   6.289  14.772  1.00  0.00     0.171 C 
ENDROOT
BRANCH   1   2
ATOM      2  C   UNL     1      18.689   6.274  16.275  1.00  0.00     0.237 C 
BRANCH   2   3
ATOM      3  N   UNL     1      17.465   6.264  17.084  1.00  0.00    -0.350 N 
ATOM      4  H   UNL     1      16.626   6.225  16.459  1.00  0.00     0.345 HD
ATOM      5  H   UNL     1      17.454   5.418  17.698  1.00  0.00     0.345 HD
ATOM      6  H   UNL     1      17.410   7.120  17.682  1.00  0.00     0.345 HD
ENDBRANCH   2   3
BRANCH   2   7
ATOM      7  C   UNL     1      19.545   5.082  16.617  1.00  0.00     0.100 C 
ATOM      8  O   UNL     1      20.176   4.475  15.712  1.00  0.00    -0.544 OA
ATOM      9  O   UNL     1      19.636   4.638  17.931  1.00  0.00    -0.544 OA
ENDBRANCH   2   7
ENDBRANCH   1   2
BRANCH   1  10
ATOM     10  C   UNL     1      17.111   5.480  14.481  1.00  0.00     0.223 C 
ATOM     11  O   UNL     1      15.996   6.055  14.361  1.00  0.00    -0.275 OA
ATOM     12  N   UNL     1      17.190   4.058  14.374  1.00  0.00    -0.369 N 
ATOM     13  H   UNL     1      18.104   3.567  14.487  1.00  0.00     0.159 HD
ATOM     14  H   UNL     1      16.331   3.496  14.184  1.00  0.00     0.159 HD
ENDBRANCH   1  10
TORSDOF 4
ENDMDL
