MODEL 1
REMARK VINA RESULT:    -6.114      0.000      0.000
REMARK INTER + INTRA:          -6.114
REMARK INTER:                  -6.114
REMARK INTRA:                   0.000
REMARK UNBOUND:                 0.000
REMARK SMILES CC1=CC[C@]2(C)CCCC(C)(C)[C@]23C[C@H]13
REMARK SMILES IDX 1 1 2 2 3 3 4 4 5 5 7 6 8 7 9 8 10 9 13 10 15 11 14 12 11 13
REMARK SMILES IDX 12 14 6 15
REMARK H PARENT
REMARK Flexibility Score: inf
ROOT
ATOM      1  C   UNL     1     147.925 149.890 160.181  1.00  0.00     0.039 C 
ATOM      2  C   UNL     1     147.100 149.558 161.392  1.00  0.00    -0.074 C 
ATOM      3  C   UNL     1     145.961 150.245 161.622  1.00  0.00    -0.027 C 
ATOM      4  C   UNL     1     145.091 149.970 162.823  1.00  0.00     0.034 C 
ATOM      5  C   UNL     1     145.113 148.458 163.195  1.00  0.00    -0.022 C 
ATOM      6  C   UNL     1     144.356 148.260 164.531  1.00  0.00     0.008 C 
ATOM      7  C   UNL     1     144.442 146.821 165.072  1.00  0.00     0.001 C 
ATOM      8  C   UNL     1     145.892 146.347 165.250  1.00  0.00     0.007 C 
ATOM      9  C   UNL     1     146.780 146.466 163.979  1.00  0.00    -0.029 C 
ATOM     10  C   UNL     1     146.591 147.925 163.380  1.00  0.00    -0.012 C 
ATOM     11  C   UNL     1     147.575 148.454 162.325  1.00  0.00     0.022 C 
ATOM     12  C   UNL     1     147.704 148.938 163.768  1.00  0.00     0.017 C 
ATOM     13  C   UNL     1     146.394 145.388 162.935  1.00  0.00     0.012 C 
ATOM     14  C   UNL     1     148.235 146.129 164.424  1.00  0.00     0.012 C 
ATOM     15  C   UNL     1     144.374 147.712 162.040  1.00  0.00     0.012 C 
ENDROOT
TORSDOF 0
ENDMDL
MODEL 2
REMARK VINA RESULT:    -6.105      2.910      4.821
REMARK INTER + INTRA:          -6.105
REMARK INTER:                  -6.105
REMARK INTRA:                   0.000
REMARK UNBOUND:                 0.000
REMARK SMILES CC1=CC[C@]2(C)CCCC(C)(C)[C@]23C[C@H]13
REMARK SMILES IDX 1 1 2 2 3 3 4 4 5 5 7 6 8 7 9 8 10 9 13 10 15 11 14 12 11 13
REMARK SMILES IDX 12 14 6 15
REMARK H PARENT
REMARK Flexibility Score: inf
ROOT
ATOM      1  C   UNL     1     149.996 142.895 160.162  1.00  0.00     0.039 C 
ATOM      2  C   UNL     1     149.620 143.704 161.371  1.00  0.00    -0.074 C 
ATOM      3  C   UNL     1     150.247 144.877 161.599  1.00  0.00    -0.027 C 
ATOM      4  C   UNL     1     149.926 145.735 162.799  1.00  0.00     0.034 C 
ATOM      5  C   UNL     1     148.417 145.635 163.170  1.00  0.00    -0.022 C 
ATOM      6  C   UNL     1     148.180 146.383 164.504  1.00  0.00     0.008 C 
ATOM      7  C   UNL     1     146.748 146.223 165.045  1.00  0.00     0.001 C 
ATOM      8  C   UNL     1     146.349 144.751 165.226  1.00  0.00     0.007 C 
ATOM      9  C   UNL     1     146.515 143.868 163.956  1.00  0.00    -0.029 C 
ATOM     10  C   UNL     1     147.962 144.132 163.358  1.00  0.00    -0.012 C 
ATOM     11  C   UNL     1     148.542 143.174 162.305  1.00  0.00     0.022 C 
ATOM     12  C   UNL     1     149.031 143.073 163.748  1.00  0.00     0.017 C 
ATOM     13  C   UNL     1     145.418 144.195 162.912  1.00  0.00     0.012 C 
ATOM     14  C   UNL     1     146.254 142.399 164.404  1.00  0.00     0.012 C 
ATOM     15  C   UNL     1     147.635 146.332 162.013  1.00  0.00     0.012 C 
ENDROOT
TORSDOF 0
ENDMDL
MODEL 3
REMARK VINA RESULT:    -6.101      2.902      4.848
REMARK INTER + INTRA:          -6.101
REMARK INTER:                  -6.101
REMARK INTRA:                   0.000
REMARK UNBOUND:                 0.000
REMARK SMILES CC1=CC[C@]2(C)CCCC(C)(C)[C@]23C[C@H]13
REMARK SMILES IDX 1 1 2 2 3 3 4 4 5 5 7 6 8 7 9 8 10 9 13 10 15 11 14 12 11 13
REMARK SMILES IDX 12 14 6 15
REMARK H PARENT
REMARK Flexibility Score: inf
ROOT
ATOM      1  C   UNL     1     140.858 147.922 160.215  1.00  0.00     0.039 C 
ATOM      2  C   UNL     1     141.194 147.092 161.421  1.00  0.00    -0.074 C 
ATOM      3  C   UNL     1     140.528 145.936 161.631  1.00  0.00    -0.027 C 
ATOM      4  C   UNL     1     140.808 145.059 162.826  1.00  0.00     0.034 C 
ATOM      5  C   UNL     1     142.314 145.109 163.217  1.00  0.00    -0.022 C 
ATOM      6  C   UNL     1     142.512 144.342 164.547  1.00  0.00     0.008 C 
ATOM      7  C   UNL     1     143.942 144.453 165.107  1.00  0.00     0.001 C 
ATOM      8  C   UNL     1     144.383 145.910 165.306  1.00  0.00     0.007 C 
ATOM      9  C   UNL     1     144.260 146.810 164.042  1.00  0.00    -0.029 C 
ATOM     10  C   UNL     1     142.813 146.595 163.424  1.00  0.00    -0.012 C 
ATOM     11  C   UNL     1     142.276 147.580 162.373  1.00  0.00     0.022 C 
ATOM     12  C   UNL     1     141.772 147.683 163.811  1.00  0.00     0.017 C 
ATOM     13  C   UNL     1     145.359 146.458 163.008  1.00  0.00     0.012 C 
ATOM     14  C   UNL     1     144.561 148.266 164.507  1.00  0.00     0.012 C 
ATOM     15  C   UNL     1     143.089 144.399 162.064  1.00  0.00     0.012 C 
ENDROOT
TORSDOF 0
ENDMDL
MODEL 4
REMARK VINA RESULT:    -6.094      3.979      6.815
REMARK INTER + INTRA:          -6.094
REMARK INTER:                  -6.094
REMARK INTRA:                   0.000
REMARK UNBOUND:                 0.000
REMARK SMILES CC1=CC[C@]2(C)CCCC(C)(C)[C@]23C[C@H]13
REMARK SMILES IDX 1 1 2 2 3 3 4 4 5 5 7 6 8 7 9 8 10 9 13 10 15 11 14 12 11 13
REMARK SMILES IDX 12 14 6 15
REMARK H PARENT
REMARK Flexibility Score: inf
ROOT
ATOM      1  C   UNL     1     142.836 140.867 160.191  1.00  0.00     0.039 C 
ATOM      2  C   UNL     1     143.673 141.216 161.389  1.00  0.00    -0.074 C 
ATOM      3  C   UNL     1     144.845 140.575 161.582  1.00  0.00    -0.027 C 
ATOM      4  C   UNL     1     145.731 140.868 162.768  1.00  0.00     0.034 C 
ATOM      5  C   UNL     1     145.652 142.371 163.167  1.00  0.00    -0.022 C 
ATOM      6  C   UNL     1     146.431 142.580 164.488  1.00  0.00     0.008 C 
ATOM      7  C   UNL     1     146.295 144.004 165.056  1.00  0.00     0.001 C 
ATOM      8  C   UNL     1     144.831 144.413 165.275  1.00  0.00     0.007 C 
ATOM      9  C   UNL     1     143.919 144.275 164.022  1.00  0.00    -0.029 C 
ATOM     10  C   UNL     1     144.158 142.836 163.394  1.00  0.00    -0.012 C 
ATOM     11  C   UNL     1     143.172 142.283 162.352  1.00  0.00     0.022 C 
ATOM     12  C   UNL     1     143.098 141.770 163.789  1.00  0.00     0.017 C 
ATOM     13  C   UNL     1     144.234 145.387 162.989  1.00  0.00     0.012 C 
ATOM     14  C   UNL     1     142.462 144.542 164.505  1.00  0.00     0.012 C 
ATOM     15  C   UNL     1     146.331 143.167 162.008  1.00  0.00     0.012 C 
ENDROOT
TORSDOF 0
ENDMDL
MODEL 5
REMARK VINA RESULT:    -5.961      3.959      5.811
REMARK INTER + INTRA:          -5.961
REMARK INTER:                  -5.961
REMARK INTRA:                   0.000
REMARK UNBOUND:                 0.000
REMARK SMILES CC1=CC[C@]2(C)CCCC(C)(C)[C@]23C[C@H]13
REMARK SMILES IDX 1 1 2 2 3 3 4 4 5 5 7 6 8 7 9 8 10 9 13 10 15 11 14 12 11 13
REMARK SMILES IDX 12 14 6 15
REMARK H PARENT
REMARK Flexibility Score: inf
ROOT
ATOM      1  C   UNL     1     141.549 147.556 158.865  1.00  0.00     0.039 C 
ATOM      2  C   UNL     1     141.670 146.535 159.960  1.00  0.00    -0.074 C 
ATOM      3  C   UNL     1     142.205 145.328 159.678  1.00  0.00    -0.027 C 
ATOM      4  C   UNL     1     142.348 144.253 160.727  1.00  0.00     0.034 C 
ATOM      5  C   UNL     1     142.649 144.870 162.124  1.00  0.00    -0.022 C 
ATOM      6  C   UNL     1     142.607 143.746 163.188  1.00  0.00     0.008 C 
ATOM      7  C   UNL     1     142.744 144.268 164.630  1.00  0.00     0.001 C 
ATOM      8  C   UNL     1     141.680 145.320 164.978  1.00  0.00     0.007 C 
ATOM      9  C   UNL     1     141.613 146.530 164.003  1.00  0.00    -0.029 C 
ATOM     10  C   UNL     1     141.580 145.967 162.519  1.00  0.00    -0.012 C 
ATOM     11  C   UNL     1     141.185 146.892 161.357  1.00  0.00     0.022 C 
ATOM     12  C   UNL     1     140.163 145.887 161.884  1.00  0.00     0.017 C 
ATOM     13  C   UNL     1     142.829 147.469 164.209  1.00  0.00     0.012 C 
ATOM     14  C   UNL     1     140.359 147.358 164.414  1.00  0.00     0.012 C 
ATOM     15  C   UNL     1     144.085 145.475 162.035  1.00  0.00     0.012 C 
ENDROOT
TORSDOF 0
ENDMDL
MODEL 6
REMARK VINA RESULT:    -5.945      3.087      4.589
REMARK INTER + INTRA:          -5.945
REMARK INTER:                  -5.945
REMARK INTRA:                   0.000
REMARK UNBOUND:                 0.000
REMARK SMILES CC1=CC[C@]2(C)CCCC(C)(C)[C@]23C[C@H]13
REMARK SMILES IDX 1 1 2 2 3 3 4 4 5 5 7 6 8 7 9 8 10 9 13 10 15 11 14 12 11 13
REMARK SMILES IDX 12 14 6 15
REMARK H PARENT
REMARK Flexibility Score: inf
ROOT
ATOM      1  C   UNL     1     149.153 143.407 158.636  1.00  0.00     0.039 C 
ATOM      2  C   UNL     1     149.074 144.357 159.797  1.00  0.00    -0.074 C 
ATOM      3  C   UNL     1     148.612 145.609 159.594  1.00  0.00    -0.027 C 
ATOM      4  C   UNL     1     148.516 146.617 160.713  1.00  0.00     0.034 C 
ATOM      5  C   UNL     1     148.162 145.924 162.061  1.00  0.00    -0.022 C 
ATOM      6  C   UNL     1     148.253 146.969 163.200  1.00  0.00     0.008 C 
ATOM      7  C   UNL     1     148.067 146.359 164.601  1.00  0.00     0.001 C 
ATOM      8  C   UNL     1     149.065 145.227 164.887  1.00  0.00     0.007 C 
ATOM      9  C   UNL     1     149.077 144.084 163.832  1.00  0.00    -0.029 C 
ATOM     10  C   UNL     1     149.162 144.744 162.390  1.00  0.00    -0.012 C 
ATOM     11  C   UNL     1     149.520 143.878 161.172  1.00  0.00     0.022 C 
ATOM     12  C   UNL     1     150.590 144.785 161.776  1.00  0.00     0.017 C 
ATOM     13  C   UNL     1     147.808 143.204 163.961  1.00  0.00     0.012 C 
ATOM     14  C   UNL     1     150.277 143.160 164.197  1.00  0.00     0.012 C 
ATOM     15  C   UNL     1     146.695 145.410 161.917  1.00  0.00     0.012 C 
ENDROOT
TORSDOF 0
ENDMDL
MODEL 7
REMARK VINA RESULT:    -5.932      4.809      7.023
REMARK INTER + INTRA:          -5.932
REMARK INTER:                  -5.932
REMARK INTRA:                   0.000
REMARK UNBOUND:                 0.000
REMARK SMILES CC1=CC[C@]2(C)CCCC(C)(C)[C@]23C[C@H]13
REMARK SMILES IDX 1 1 2 2 3 3 4 4 5 5 7 6 8 7 9 8 10 9 13 10 15 11 14 12 11 13
REMARK SMILES IDX 12 14 6 15
REMARK H PARENT
REMARK Flexibility Score: inf
ROOT
ATOM      1  C   UNL     1     143.157 141.616 158.821  1.00  0.00     0.039 C 
ATOM      2  C   UNL     1     144.157 141.695 159.939  1.00  0.00    -0.074 C 
ATOM      3  C   UNL     1     145.402 142.145 159.677  1.00  0.00    -0.027 C 
ATOM      4  C   UNL     1     146.459 142.241 160.750  1.00  0.00     0.034 C 
ATOM      5  C   UNL     1     145.829 142.613 162.124  1.00  0.00    -0.022 C 
ATOM      6  C   UNL     1     146.921 142.522 163.217  1.00  0.00     0.008 C 
ATOM      7  C   UNL     1     146.375 142.726 164.642  1.00  0.00     0.001 C 
ATOM      8  C   UNL     1     145.248 141.741 164.985  1.00  0.00     0.007 C 
ATOM      9  C   UNL     1     144.059 141.731 163.981  1.00  0.00    -0.029 C 
ATOM     10  C   UNL     1     144.656 141.627 162.513  1.00  0.00    -0.012 C 
ATOM     11  C   UNL     1     143.734 141.266 161.337  1.00  0.00     0.022 C 
ATOM     12  C   UNL     1     144.657 140.194 161.911  1.00  0.00     0.017 C 
ATOM     13  C   UNL     1     143.197 143.009 164.137  1.00  0.00     0.012 C 
ATOM     14  C   UNL     1     143.142 140.542 164.397  1.00  0.00     0.012 C 
ATOM     15  C   UNL     1     145.321 144.083 161.989  1.00  0.00     0.012 C 
ENDROOT
TORSDOF 0
ENDMDL
MODEL 8
REMARK VINA RESULT:    -5.931      1.590      3.552
REMARK INTER + INTRA:          -5.931
REMARK INTER:                  -5.931
REMARK INTRA:                   0.000
REMARK UNBOUND:                 0.000
REMARK SMILES CC1=CC[C@]2(C)CCCC(C)(C)[C@]23C[C@H]13
REMARK SMILES IDX 1 1 2 2 3 3 4 4 5 5 7 6 8 7 9 8 10 9 13 10 15 11 14 12 11 13
REMARK SMILES IDX 12 14 6 15
REMARK H PARENT
REMARK Flexibility Score: inf
ROOT
ATOM      1  C   UNL     1     148.401 150.605 165.244  1.00  0.00     0.039 C 
ATOM      2  C   UNL     1     147.409 149.891 164.371  1.00  0.00    -0.074 C 
ATOM      3  C   UNL     1     146.094 149.972 164.664  1.00  0.00    -0.027 C 
ATOM      4  C   UNL     1     145.045 149.272 163.836  1.00  0.00     0.034 C 
ATOM      5  C   UNL     1     145.451 149.238 162.333  1.00  0.00    -0.022 C 
ATOM      6  C   UNL     1     144.438 148.359 161.561  1.00  0.00     0.008 C 
ATOM      7  C   UNL     1     144.827 148.133 160.088  1.00  0.00     0.001 C 
ATOM      8  C   UNL     1     146.228 147.522 159.937  1.00  0.00     0.007 C 
ATOM      9  C   UNL     1     147.365 148.310 160.649  1.00  0.00    -0.029 C 
ATOM     10  C   UNL     1     146.895 148.623 162.133  1.00  0.00    -0.012 C 
ATOM     11  C   UNL     1     147.919 149.096 163.177  1.00  0.00     0.022 C 
ATOM     12  C   UNL     1     147.442 147.645 163.209  1.00  0.00     0.017 C 
ATOM     13  C   UNL     1     147.687 149.620 159.885  1.00  0.00     0.012 C 
ATOM     14  C   UNL     1     148.645 147.429 160.544  1.00  0.00     0.012 C 
ATOM     15  C   UNL     1     145.381 150.713 161.827  1.00  0.00     0.012 C 
ENDROOT
TORSDOF 0
ENDMDL
MODEL 9
REMARK VINA RESULT:    -5.929      5.856      8.034
REMARK INTER + INTRA:          -5.929
REMARK INTER:                  -5.929
REMARK INTRA:                   0.000
REMARK UNBOUND:                 0.000
REMARK SMILES CC1=CC[C@]2(C)CCCC(C)(C)[C@]23C[C@H]13
REMARK SMILES IDX 1 1 2 2 3 3 4 4 5 5 7 6 8 7 9 8 10 9 13 10 15 11 14 12 11 13
REMARK SMILES IDX 12 14 6 15
REMARK H PARENT
REMARK Flexibility Score: inf
ROOT
ATOM      1  C   UNL     1     142.320 140.133 165.244  1.00  0.00     0.039 C 
ATOM      2  C   UNL     1     143.314 140.853 164.379  1.00  0.00    -0.074 C 
ATOM      3  C   UNL     1     144.628 140.771 164.679  1.00  0.00    -0.027 C 
ATOM      4  C   UNL     1     145.680 141.477 163.859  1.00  0.00     0.034 C 
ATOM      5  C   UNL     1     145.281 141.519 162.354  1.00  0.00    -0.022 C 
ATOM      6  C   UNL     1     146.297 142.404 161.592  1.00  0.00     0.008 C 
ATOM      7  C   UNL     1     145.915 142.639 160.119  1.00  0.00     0.001 C 
ATOM      8  C   UNL     1     144.514 143.249 159.966  1.00  0.00     0.007 C 
ATOM      9  C   UNL     1     143.374 142.456 160.667  1.00  0.00    -0.029 C 
ATOM     10  C   UNL     1     143.838 142.135 162.151  1.00  0.00    -0.012 C 
ATOM     11  C   UNL     1     142.810 141.655 163.188  1.00  0.00     0.022 C 
ATOM     12  C   UNL     1     143.285 143.106 163.231  1.00  0.00     0.017 C 
ATOM     13  C   UNL     1     143.057 141.151 159.894  1.00  0.00     0.012 C 
ATOM     14  C   UNL     1     142.094 143.338 160.562  1.00  0.00     0.012 C 
ATOM     15  C   UNL     1     145.355 140.047 161.840  1.00  0.00     0.012 C 
ENDROOT
TORSDOF 0
ENDMDL
