MODEL 1
REMARK VINA RESULT:    -4.173      0.000      0.000
REMARK INTER + INTRA:          -5.524
REMARK INTER:                  -5.393
REMARK INTRA:                  -0.131
REMARK UNBOUND:                -0.131
REMARK SMILES C=CC(=O)CCCCC
REMARK SMILES IDX 6 1 7 2 8 3 9 4 5 5 3 6 4 7 2 8 1 9
REMARK H PARENT
REMARK Flexibility Score: inf
ROOT
ATOM      1  C   UNL     1      87.023  38.038  28.890  1.00  0.00     0.008 C 
ENDROOT
BRANCH   1   2
ATOM      2  C   UNL     1      85.641  37.574  29.382  1.00  0.00     0.000 C 
BRANCH   2   3
ATOM      3  C   UNL     1      84.942  38.626  30.255  1.00  0.00    -0.003 C 
ATOM      4  C   UNL     1      83.445  38.735  29.968  1.00  0.00     0.004 C 
ENDBRANCH   2   3
ENDBRANCH   1   2
BRANCH   1   5
ATOM      5  C   UNL     1      87.308  37.580  27.451  1.00  0.00     0.080 C 
BRANCH   5   6
ATOM      6  C   UNL     1      88.445  38.324  26.787  1.00  0.00     0.155 C 
ATOM      7  O   UNL     1      88.258  38.897  25.679  1.00  0.00    -0.295 OA
BRANCH   6   8
ATOM      8  C   UNL     1      89.804  38.360  27.363  1.00  0.00     0.039 C 
ATOM      9  C   UNL     1      90.751  39.212  26.972  1.00  0.00     0.012 C 
ENDBRANCH   6   8
ENDBRANCH   5   6
ENDBRANCH   1   5
TORSDOF 5
ENDMDL
MODEL 2
REMARK VINA RESULT:    -4.159      1.905      5.023
REMARK INTER + INTRA:          -5.506
REMARK INTER:                  -5.334
REMARK INTRA:                  -0.172
REMARK UNBOUND:                -0.131
REMARK SMILES C=CC(=O)CCCCC
REMARK SMILES IDX 6 1 7 2 8 3 9 4 5 5 3 6 4 7 2 8 1 9
REMARK H PARENT
REMARK Flexibility Score: inf
ROOT
ATOM      1  C   UNL     1      87.150  37.579  26.917  1.00  0.00     0.008 C 
ENDROOT
BRANCH   1   2
ATOM      2  C   UNL     1      88.211  38.159  25.965  1.00  0.00     0.000 C 
BRANCH   2   3
ATOM      3  C   UNL     1      89.328  38.905  26.711  1.00  0.00    -0.003 C 
ATOM      4  C   UNL     1      89.545  40.324  26.187  1.00  0.00     0.004 C 
ENDBRANCH   2   3
ENDBRANCH   1   2
BRANCH   1   5
ATOM      5  C   UNL     1      87.395  37.996  28.377  1.00  0.00     0.080 C 
BRANCH   5   6
ATOM      6  C   UNL     1      86.220  37.732  29.293  1.00  0.00     0.155 C 
ATOM      7  O   UNL     1      85.780  36.558  29.427  1.00  0.00    -0.295 OA
BRANCH   6   8
ATOM      8  C   UNL     1      85.519  38.820  30.004  1.00  0.00     0.039 C 
ATOM      9  C   UNL     1      84.327  38.677  30.583  1.00  0.00     0.012 C 
ENDBRANCH   6   8
ENDBRANCH   5   6
ENDBRANCH   1   5
TORSDOF 5
ENDMDL
MODEL 3
REMARK VINA RESULT:    -4.152      3.209      5.067
REMARK INTER + INTRA:          -5.497
REMARK INTER:                  -5.348
REMARK INTRA:                  -0.150
REMARK UNBOUND:                -0.131
REMARK SMILES C=CC(=O)CCCCC
REMARK SMILES IDX 6 1 7 2 8 3 9 4 5 5 3 6 4 7 2 8 1 9
REMARK H PARENT
REMARK Flexibility Score: inf
ROOT
ATOM      1  C   UNL     1      87.258  37.474  26.342  1.00  0.00     0.008 C 
ENDROOT
BRANCH   1   2
ATOM      2  C   UNL     1      88.262  38.282  27.183  1.00  0.00     0.000 C 
BRANCH   2   3
ATOM      3  C   UNL     1      88.857  39.469  26.411  1.00  0.00    -0.003 C 
ATOM      4  C   UNL     1      90.354  39.646  26.657  1.00  0.00     0.004 C 
ENDBRANCH   2   3
ENDBRANCH   1   2
BRANCH   1   5
ATOM      5  C   UNL     1      87.727  37.307  24.887  1.00  0.00     0.080 C 
BRANCH   5   6
ATOM      6  C   UNL     1      87.050  36.170  24.154  1.00  0.00     0.155 C 
ATOM      7  O   UNL     1      85.798  36.034  24.225  1.00  0.00    -0.295 OA
BRANCH   6   8
ATOM      8  C   UNL     1      87.813  35.160  23.393  1.00  0.00     0.039 C 
ATOM      9  C   UNL     1      87.299  34.002  22.979  1.00  0.00     0.012 C 
ENDBRANCH   6   8
ENDBRANCH   5   6
ENDBRANCH   1   5
TORSDOF 5
ENDMDL
MODEL 4
REMARK VINA RESULT:    -4.125      3.161      4.663
REMARK INTER + INTRA:          -5.463
REMARK INTER:                  -5.309
REMARK INTRA:                  -0.154
REMARK UNBOUND:                -0.131
REMARK SMILES C=CC(=O)CCCCC
REMARK SMILES IDX 6 1 7 2 8 3 9 4 5 5 3 6 4 7 2 8 1 9
REMARK H PARENT
REMARK Flexibility Score: inf
ROOT
ATOM      1  C   UNL     1      86.567  37.006  25.605  1.00  0.00     0.008 C 
ENDROOT
BRANCH   1   2
ATOM      2  C   UNL     1      86.246  35.933  24.550  1.00  0.00     0.000 C 
BRANCH   2   3
ATOM      3  C   UNL     1      87.454  35.601  23.660  1.00  0.00    -0.003 C 
ATOM      4  C   UNL     1      87.329  34.241  22.975  1.00  0.00     0.004 C 
ENDBRANCH   2   3
ENDBRANCH   1   2
BRANCH   1   5
ATOM      5  C   UNL     1      87.999  37.546  25.462  1.00  0.00     0.080 C 
BRANCH   5   6
ATOM      6  C   UNL     1      88.482  38.323  26.667  1.00  0.00     0.155 C 
ATOM      7  O   UNL     1      87.838  38.266  27.750  1.00  0.00    -0.295 OA
BRANCH   6   8
ATOM      8  C   UNL     1      89.664  39.206  26.610  1.00  0.00     0.039 C 
ATOM      9  C   UNL     1      89.616  40.481  26.223  1.00  0.00     0.012 C 
ENDBRANCH   6   8
ENDBRANCH   5   6
ENDBRANCH   1   5
TORSDOF 5
ENDMDL
MODEL 5
REMARK VINA RESULT:    -4.124      1.757      4.834
REMARK INTER + INTRA:          -5.460
REMARK INTER:                  -5.223
REMARK INTRA:                  -0.238
REMARK UNBOUND:                -0.131
REMARK SMILES C=CC(=O)CCCCC
REMARK SMILES IDX 6 1 7 2 8 3 9 4 5 5 3 6 4 7 2 8 1 9
REMARK H PARENT
REMARK Flexibility Score: inf
ROOT
ATOM      1  C   UNL     1      88.209  38.452  27.427  1.00  0.00     0.008 C 
ENDROOT
BRANCH   1   2
ATOM      2  C   UNL     1      89.701  38.197  27.152  1.00  0.00     0.000 C 
BRANCH   2   3
ATOM      3  C   UNL     1      90.463  39.481  26.792  1.00  0.00    -0.003 C 
ATOM      4  C   UNL     1      89.574  40.531  26.126  1.00  0.00     0.004 C 
ENDBRANCH   2   3
ENDBRANCH   1   2
BRANCH   1   5
ATOM      5  C   UNL     1      87.307  37.444  26.698  1.00  0.00     0.080 C 
BRANCH   5   6
ATOM      6  C   UNL     1      86.335  36.725  27.607  1.00  0.00     0.155 C 
ATOM      7  O   UNL     1      85.579  35.832  27.136  1.00  0.00    -0.295 OA
BRANCH   6   8
ATOM      8  C   UNL     1      86.191  37.072  29.035  1.00  0.00     0.039 C 
ATOM      9  C   UNL     1      85.080  37.586  29.563  1.00  0.00     0.012 C 
ENDBRANCH   6   8
ENDBRANCH   5   6
ENDBRANCH   1   5
TORSDOF 5
ENDMDL
MODEL 6
REMARK VINA RESULT:    -4.103      2.291      4.895
REMARK INTER + INTRA:          -5.434
REMARK INTER:                  -5.202
REMARK INTRA:                  -0.233
REMARK UNBOUND:                -0.131
REMARK SMILES C=CC(=O)CCCCC
REMARK SMILES IDX 6 1 7 2 8 3 9 4 5 5 3 6 4 7 2 8 1 9
REMARK H PARENT
REMARK Flexibility Score: inf
ROOT
ATOM      1  C   UNL     1      88.182  38.305  27.242  1.00  0.00     0.008 C 
ENDROOT
BRANCH   1   2
ATOM      2  C   UNL     1      89.718  38.279  27.331  1.00  0.00     0.000 C 
BRANCH   2   3
ATOM      3  C   UNL     1      90.365  39.537  26.733  1.00  0.00    -0.003 C 
ATOM      4  C   UNL     1      89.339  40.515  26.160  1.00  0.00     0.004 C 
ENDBRANCH   2   3
ENDBRANCH   1   2
BRANCH   1   5
ATOM      5  C   UNL     1      87.521  38.023  28.601  1.00  0.00     0.080 C 
BRANCH   5   6
ATOM      6  C   UNL     1      86.240  37.224  28.502  1.00  0.00     0.155 C 
ATOM      7  O   UNL     1      85.367  37.323  29.408  1.00  0.00    -0.295 OA
BRANCH   6   8
ATOM      8  C   UNL     1      85.989  36.273  27.401  1.00  0.00     0.039 C 
ATOM      9  C   UNL     1      85.019  36.426  26.499  1.00  0.00     0.012 C 
ENDBRANCH   6   8
ENDBRANCH   5   6
ENDBRANCH   1   5
TORSDOF 5
ENDMDL
MODEL 7
REMARK VINA RESULT:    -3.746      2.406      2.734
REMARK INTER + INTRA:          -4.973
REMARK INTER:                  -4.800
REMARK INTRA:                  -0.172
REMARK UNBOUND:                -0.131
REMARK SMILES C=CC(=O)CCCCC
REMARK SMILES IDX 6 1 7 2 8 3 9 4 5 5 3 6 4 7 2 8 1 9
REMARK H PARENT
REMARK Flexibility Score: inf
ROOT
ATOM      1  C   UNL     1      87.009  37.280  25.824  1.00  0.00     0.008 C 
ENDROOT
BRANCH   1   2
ATOM      2  C   UNL     1      85.587  36.731  26.034  1.00  0.00     0.000 C 
BRANCH   2   3
ATOM      3  C   UNL     1      85.414  36.048  27.399  1.00  0.00    -0.003 C 
ATOM      4  C   UNL     1      83.977  35.595  27.658  1.00  0.00     0.004 C 
ENDBRANCH   2   3
ENDBRANCH   1   2
BRANCH   1   5
ATOM      5  C   UNL     1      87.675  37.680  27.151  1.00  0.00     0.080 C 
BRANCH   5   6
ATOM      6  C   UNL     1      88.917  38.526  26.980  1.00  0.00     0.155 C 
ATOM      7  O   UNL     1      90.003  38.160  27.506  1.00  0.00    -0.295 OA
BRANCH   6   8
ATOM      8  C   UNL     1      88.897  39.815  26.259  1.00  0.00     0.039 C 
ATOM      9  C   UNL     1      89.979  40.570  26.066  1.00  0.00     0.012 C 
ENDBRANCH   6   8
ENDBRANCH   5   6
ENDBRANCH   1   5
TORSDOF 5
ENDMDL
MODEL 8
REMARK VINA RESULT:    -3.731      1.684      2.394
REMARK INTER + INTRA:          -4.952
REMARK INTER:                  -4.844
REMARK INTRA:                  -0.108
REMARK UNBOUND:                -0.131
REMARK SMILES C=CC(=O)CCCCC
REMARK SMILES IDX 6 1 7 2 8 3 9 4 5 5 3 6 4 7 2 8 1 9
REMARK H PARENT
REMARK Flexibility Score: inf
ROOT
ATOM      1  C   UNL     1      86.597  36.873  27.515  1.00  0.00     0.008 C 
ENDROOT
BRANCH   1   2
ATOM      2  C   UNL     1      85.817  36.499  28.787  1.00  0.00     0.000 C 
BRANCH   2   3
ATOM      3  C   UNL     1      85.233  35.080  28.726  1.00  0.00    -0.003 C 
ATOM      4  C   UNL     1      86.021  34.077  29.568  1.00  0.00     0.004 C 
ENDBRANCH   2   3
ENDBRANCH   1   2
BRANCH   1   5
ATOM      5  C   UNL     1      87.675  37.934  27.789  1.00  0.00     0.080 C 
BRANCH   5   6
ATOM      6  C   UNL     1      88.392  38.412  26.546  1.00  0.00     0.155 C 
ATOM      7  O   UNL     1      88.054  37.966  25.415  1.00  0.00    -0.295 OA
BRANCH   6   8
ATOM      8  C   UNL     1      89.531  39.351  26.607  1.00  0.00     0.039 C 
ATOM      9  C   UNL     1      90.743  39.015  27.048  1.00  0.00     0.012 C 
ENDBRANCH   6   8
ENDBRANCH   5   6
ENDBRANCH   1   5
TORSDOF 5
ENDMDL
MODEL 9
REMARK VINA RESULT:    -3.723      2.965      5.183
REMARK INTER + INTRA:          -4.942
REMARK INTER:                  -4.819
REMARK INTRA:                  -0.124
REMARK UNBOUND:                -0.131
REMARK SMILES C=CC(=O)CCCCC
REMARK SMILES IDX 6 1 7 2 8 3 9 4 5 5 3 6 4 7 2 8 1 9
REMARK H PARENT
REMARK Flexibility Score: inf
ROOT
ATOM      1  C   UNL     1      87.966  37.703  25.922  1.00  0.00     0.008 C 
ENDROOT
BRANCH   1   2
ATOM      2  C   UNL     1      88.549  38.405  27.161  1.00  0.00     0.000 C 
BRANCH   2   3
ATOM      3  C   UNL     1      89.880  39.113  26.867  1.00  0.00    -0.003 C 
ATOM      4  C   UNL     1      89.696  40.441  26.134  1.00  0.00     0.004 C 
ENDBRANCH   2   3
ENDBRANCH   1   2
BRANCH   1   5
ATOM      5  C   UNL     1      86.589  37.081  26.206  1.00  0.00     0.080 C 
BRANCH   5   6
ATOM      6  C   UNL     1      85.968  36.398  25.007  1.00  0.00     0.155 C 
ATOM      7  O   UNL     1      86.709  35.899  24.116  1.00  0.00    -0.295 OA
BRANCH   6   8
ATOM      8  C   UNL     1      84.507  36.342  24.804  1.00  0.00     0.039 C 
ATOM      9  C   UNL     1      83.640  37.118  25.454  1.00  0.00     0.012 C 
ENDBRANCH   6   8
ENDBRANCH   5   6
ENDBRANCH   1   5
TORSDOF 5
ENDMDL
