MODEL 1
REMARK VINA RESULT:    -4.827      0.000      0.000
REMARK INTER + INTRA:          -8.743
REMARK INTER:                  -7.649
REMARK INTRA:                  -1.093
REMARK UNBOUND:                -1.093
REMARK SMILES CCCCCCCCCCCC(=O)[O-]
REMARK SMILES IDX 7 1 8 2 9 3 10 4 11 5 12 6 13 7 14 8 6 9 5 10 4 11 3 12 2 13
REMARK SMILES IDX 1 14
REMARK H PARENT
REMARK Flexibility Score: inf
ROOT
ATOM      1  C   UNL     1      16.905  18.129  35.260  1.00  0.00     0.000 C 
ENDROOT
BRANCH   1   2
ATOM      2  C   UNL     1      18.013  17.216  35.805  1.00  0.00     0.000 C 
BRANCH   2   3
ATOM      3  C   UNL     1      18.029  15.872  35.067  1.00  0.00     0.000 C 
BRANCH   3   4
ATOM      4  C   UNL     1      19.431  15.557  34.523  1.00  0.00     0.006 C 
BRANCH   4   5
ATOM      5  C   UNL     1      20.274  16.822  34.323  1.00  0.00     0.053 C 
BRANCH   5   6
ATOM      6  C   UNL     1      20.288  17.259  32.891  1.00  0.00     0.041 C 
ATOM      7  O   UNL     1      19.287  17.842  32.395  1.00  0.00    -0.550 OA
ATOM      8  O   UNL     1      21.419  17.053  32.112  1.00  0.00    -0.550 OA
ENDBRANCH   5   6
ENDBRANCH   4   5
ENDBRANCH   3   4
ENDBRANCH   2   3
ENDBRANCH   1   2
BRANCH   1   9
ATOM      9  C   UNL     1      15.826  18.445  36.308  1.00  0.00     0.000 C 
BRANCH   9  10
ATOM     10  C   UNL     1      16.275  18.104  37.739  1.00  0.00    -0.000 C 
BRANCH  10  11
ATOM     11  C   UNL     1      15.354  17.078  38.419  1.00  0.00    -0.000 C 
BRANCH  11  12
ATOM     12  C   UNL     1      15.833  15.631  38.226  1.00  0.00    -0.000 C 
BRANCH  12  13
ATOM     13  C   UNL     1      14.677  14.725  37.787  1.00  0.00    -0.003 C 
ATOM     14  C   UNL     1      13.927  15.323  36.599  1.00  0.00     0.004 C 
ENDBRANCH  12  13
ENDBRANCH  11  12
ENDBRANCH  10  11
ENDBRANCH   9  10
ENDBRANCH   1   9
TORSDOF 10
ENDMDL
MODEL 2
REMARK VINA RESULT:    -4.804      1.641      2.459
REMARK INTER + INTRA:          -8.705
REMARK INTER:                  -7.532
REMARK INTRA:                  -1.173
REMARK UNBOUND:                -1.093
REMARK SMILES CCCCCCCCCCCC(=O)[O-]
REMARK SMILES IDX 7 1 8 2 9 3 10 4 11 5 12 6 13 7 14 8 6 9 5 10 4 11 3 12 2 13
REMARK SMILES IDX 1 14
REMARK H PARENT
REMARK Flexibility Score: inf
ROOT
ATOM      1  C   UNL     1      16.531  17.797  37.155  1.00  0.00     0.000 C 
ENDROOT
BRANCH   1   2
ATOM      2  C   UNL     1      16.936  18.477  35.839  1.00  0.00     0.000 C 
BRANCH   2   3
ATOM      3  C   UNL     1      16.898  17.483  34.673  1.00  0.00     0.000 C 
BRANCH   3   4
ATOM      4  C   UNL     1      18.205  17.529  33.867  1.00  0.00     0.006 C 
BRANCH   4   5
ATOM      5  C   UNL     1      19.386  16.927  34.637  1.00  0.00     0.053 C 
BRANCH   5   6
ATOM      6  C   UNL     1      20.527  17.890  34.745  1.00  0.00     0.041 C 
ATOM      7  O   UNL     1      21.693  17.470  34.972  1.00  0.00    -0.550 OA
ATOM      8  O   UNL     1      20.309  19.250  34.561  1.00  0.00    -0.550 OA
ENDBRANCH   5   6
ENDBRANCH   4   5
ENDBRANCH   3   4
ENDBRANCH   2   3
ENDBRANCH   1   2
BRANCH   1   9
ATOM      9  C   UNL     1      16.545  16.263  37.060  1.00  0.00     0.000 C 
BRANCH   9  10
ATOM     10  C   UNL     1      15.821  15.591  38.240  1.00  0.00    -0.000 C 
BRANCH  10  11
ATOM     11  C   UNL     1      14.291  15.673  38.119  1.00  0.00    -0.000 C 
BRANCH  11  12
ATOM     12  C   UNL     1      13.800  15.509  36.672  1.00  0.00    -0.000 C 
BRANCH  12  13
ATOM     13  C   UNL     1      12.708  16.534  36.345  1.00  0.00    -0.003 C 
ATOM     14  C   UNL     1      13.230  17.614  35.400  1.00  0.00     0.004 C 
ENDBRANCH  12  13
ENDBRANCH  11  12
ENDBRANCH  10  11
ENDBRANCH   9  10
ENDBRANCH   1   9
TORSDOF 10
ENDMDL
MODEL 3
REMARK VINA RESULT:    -4.707      3.075      6.399
REMARK INTER + INTRA:          -8.553
REMARK INTER:                  -7.843
REMARK INTRA:                  -0.709
REMARK UNBOUND:                -1.093
REMARK SMILES CCCCCCCCCCCC(=O)[O-]
REMARK SMILES IDX 7 1 8 2 9 3 10 4 11 5 12 6 13 7 14 8 6 9 5 10 4 11 3 12 2 13
REMARK SMILES IDX 1 14
REMARK H PARENT
REMARK Flexibility Score: inf
ROOT
ATOM      1  C   UNL     1      17.705  17.725  36.016  1.00  0.00     0.000 C 
ENDROOT
BRANCH   1   2
ATOM      2  C   UNL     1      16.283  18.151  36.413  1.00  0.00     0.000 C 
BRANCH   2   3
ATOM      3  C   UNL     1      16.105  18.114  37.935  1.00  0.00     0.000 C 
BRANCH   3   4
ATOM      4  C   UNL     1      14.940  17.195  38.331  1.00  0.00     0.006 C 
BRANCH   4   5
ATOM      5  C   UNL     1      15.347  15.717  38.358  1.00  0.00     0.053 C 
BRANCH   5   6
ATOM      6  C   UNL     1      14.525  14.897  37.412  1.00  0.00     0.041 C 
ATOM      7  O   UNL     1      14.333  13.673  37.635  1.00  0.00    -0.550 OA
ATOM      8  O   UNL     1      13.944  15.493  36.300  1.00  0.00    -0.550 OA
ENDBRANCH   5   6
ENDBRANCH   4   5
ENDBRANCH   3   4
ENDBRANCH   2   3
ENDBRANCH   1   2
BRANCH   1   9
ATOM      9  C   UNL     1      17.820  16.217  35.744  1.00  0.00     0.000 C 
BRANCH   9  10
ATOM     10  C   UNL     1      18.793  15.895  34.597  1.00  0.00    -0.000 C 
BRANCH  10  11
ATOM     11  C   UNL     1      19.652  17.104  34.194  1.00  0.00    -0.000 C 
BRANCH  11  12
ATOM     12  C   UNL     1      21.133  16.929  34.565  1.00  0.00    -0.000 C 
BRANCH  12  13
ATOM     13  C   UNL     1      22.012  16.892  33.309  1.00  0.00    -0.003 C 
ATOM     14  C   UNL     1      21.269  17.450  32.098  1.00  0.00     0.004 C 
ENDBRANCH  12  13
ENDBRANCH  11  12
ENDBRANCH  10  11
ENDBRANCH   9  10
ENDBRANCH   1   9
TORSDOF 10
ENDMDL
MODEL 4
REMARK VINA RESULT:    -4.678      1.424      2.012
REMARK INTER + INTRA:          -8.506
REMARK INTER:                  -7.629
REMARK INTRA:                  -0.877
REMARK UNBOUND:                -1.093
REMARK SMILES CCCCCCCCCCCC(=O)[O-]
REMARK SMILES IDX 7 1 8 2 9 3 10 4 11 5 12 6 13 7 14 8 6 9 5 10 4 11 3 12 2 13
REMARK SMILES IDX 1 14
REMARK H PARENT
REMARK Flexibility Score: inf
ROOT
ATOM      1  C   UNL     1      17.997  16.308  35.148  1.00  0.00     0.000 C 
ENDROOT
BRANCH   1   2
ATOM      2  C   UNL     1      17.551  17.382  34.144  1.00  0.00     0.000 C 
BRANCH   2   3
ATOM      3  C   UNL     1      18.762  18.066  33.499  1.00  0.00     0.000 C 
BRANCH   3   4
ATOM      4  C   UNL     1      19.689  18.667  34.565  1.00  0.00     0.006 C 
BRANCH   4   5
ATOM      5  C   UNL     1      21.168  18.567  34.173  1.00  0.00     0.053 C 
BRANCH   5   6
ATOM      6  C   UNL     1      21.507  17.215  33.625  1.00  0.00     0.041 C 
ATOM      7  O   UNL     1      21.573  16.217  34.391  1.00  0.00    -0.550 OA
ATOM      8  O   UNL     1      21.718  17.050  32.261  1.00  0.00    -0.550 OA
ENDBRANCH   5   6
ENDBRANCH   4   5
ENDBRANCH   3   4
ENDBRANCH   2   3
ENDBRANCH   1   2
BRANCH   1   9
ATOM      9  C   UNL     1      17.265  16.412  36.495  1.00  0.00     0.000 C 
BRANCH   9  10
ATOM     10  C   UNL     1      16.889  17.861  36.853  1.00  0.00    -0.000 C 
BRANCH  10  11
ATOM     11  C   UNL     1      15.775  17.939  37.908  1.00  0.00    -0.000 C 
BRANCH  11  12
ATOM     12  C   UNL     1      15.415  16.565  38.495  1.00  0.00    -0.000 C 
BRANCH  12  13
ATOM     13  C   UNL     1      13.918  16.277  38.337  1.00  0.00    -0.003 C 
ATOM     14  C   UNL     1      13.555  16.028  36.875  1.00  0.00     0.004 C 
ENDBRANCH  12  13
ENDBRANCH  11  12
ENDBRANCH  10  11
ENDBRANCH   9  10
ENDBRANCH   1   9
TORSDOF 10
ENDMDL
MODEL 5
REMARK VINA RESULT:    -4.678      3.266      6.495
REMARK INTER + INTRA:          -8.506
REMARK INTER:                  -7.627
REMARK INTRA:                  -0.879
REMARK UNBOUND:                -1.093
REMARK SMILES CCCCCCCCCCCC(=O)[O-]
REMARK SMILES IDX 7 1 8 2 9 3 10 4 11 5 12 6 13 7 14 8 6 9 5 10 4 11 3 12 2 13
REMARK SMILES IDX 1 14
REMARK H PARENT
REMARK Flexibility Score: inf
ROOT
ATOM      1  C   UNL     1      17.376  16.528  35.629  1.00  0.00     0.000 C 
ENDROOT
BRANCH   1   2
ATOM      2  C   UNL     1      16.470  17.766  35.554  1.00  0.00     0.000 C 
BRANCH   2   3
ATOM      3  C   UNL     1      16.047  18.222  36.955  1.00  0.00     0.000 C 
BRANCH   3   4
ATOM      4  C   UNL     1      16.102  17.058  37.954  1.00  0.00     0.006 C 
BRANCH   4   5
ATOM      5  C   UNL     1      14.709  16.508  38.284  1.00  0.00     0.053 C 
BRANCH   5   6
ATOM      6  C   UNL     1      14.493  15.151  37.688  1.00  0.00     0.041 C 
ATOM      7  O   UNL     1      13.890  15.029  36.588  1.00  0.00    -0.550 OA
ATOM      8  O   UNL     1      14.985  14.023  38.331  1.00  0.00    -0.550 OA
ENDBRANCH   5   6
ENDBRANCH   4   5
ENDBRANCH   3   4
ENDBRANCH   2   3
ENDBRANCH   1   2
BRANCH   1   9
ATOM      9  C   UNL     1      18.700  16.713  34.871  1.00  0.00     0.000 C 
BRANCH   9  10
ATOM     10  C   UNL     1      19.252  18.144  34.986  1.00  0.00    -0.000 C 
BRANCH  10  11
ATOM     11  C   UNL     1      19.385  18.838  33.621  1.00  0.00    -0.000 C 
BRANCH  11  12
ATOM     12  C   UNL     1      19.660  17.850  32.477  1.00  0.00    -0.000 C 
BRANCH  12  13
ATOM     13  C   UNL     1      21.093  18.002  31.954  1.00  0.00    -0.003 C 
ATOM     14  C   UNL     1      22.062  17.115  32.730  1.00  0.00     0.004 C 
ENDBRANCH  12  13
ENDBRANCH  11  12
ENDBRANCH  10  11
ENDBRANCH   9  10
ENDBRANCH   1   9
TORSDOF 10
ENDMDL
MODEL 6
REMARK VINA RESULT:    -4.667      3.364      6.637
REMARK INTER + INTRA:          -8.488
REMARK INTER:                  -7.686
REMARK INTRA:                  -0.803
REMARK UNBOUND:                -1.093
REMARK SMILES CCCCCCCCCCCC(=O)[O-]
REMARK SMILES IDX 7 1 8 2 9 3 10 4 11 5 12 6 13 7 14 8 6 9 5 10 4 11 3 12 2 13
REMARK SMILES IDX 1 14
REMARK H PARENT
REMARK Flexibility Score: inf
ROOT
ATOM      1  C   UNL     1      16.473  17.200  35.305  1.00  0.00     0.000 C 
ENDROOT
BRANCH   1   2
ATOM      2  C   UNL     1      16.201  18.456  36.147  1.00  0.00     0.000 C 
BRANCH   2   3
ATOM      3  C   UNL     1      16.151  18.114  37.640  1.00  0.00     0.000 C 
BRANCH   3   4
ATOM      4  C   UNL     1      15.789  16.637  37.857  1.00  0.00     0.006 C 
BRANCH   4   5
ATOM      5  C   UNL     1      14.372  16.461  38.414  1.00  0.00     0.053 C 
BRANCH   5   6
ATOM      6  C   UNL     1      13.362  16.293  37.321  1.00  0.00     0.041 C 
ATOM      7  O   UNL     1      13.583  15.498  36.369  1.00  0.00    -0.550 OA
ATOM      8  O   UNL     1      12.162  16.991  37.370  1.00  0.00    -0.550 OA
ENDBRANCH   5   6
ENDBRANCH   4   5
ENDBRANCH   3   4
ENDBRANCH   2   3
ENDBRANCH   1   2
BRANCH   1   9
ATOM      9  C   UNL     1      17.630  17.390  34.310  1.00  0.00     0.000 C 
BRANCH   9  10
ATOM     10  C   UNL     1      18.980  17.618  35.011  1.00  0.00    -0.000 C 
BRANCH  10  11
ATOM     11  C   UNL     1      19.872  18.623  34.265  1.00  0.00    -0.000 C 
BRANCH  11  12
ATOM     12  C   UNL     1      19.593  18.656  32.754  1.00  0.00    -0.000 C 
BRANCH  12  13
ATOM     13  C   UNL     1      20.873  18.393  31.954  1.00  0.00    -0.003 C 
ATOM     14  C   UNL     1      21.672  17.239  32.554  1.00  0.00     0.004 C 
ENDBRANCH  12  13
ENDBRANCH  11  12
ENDBRANCH  10  11
ENDBRANCH   9  10
ENDBRANCH   1   9
TORSDOF 10
ENDMDL
MODEL 7
REMARK VINA RESULT:    -4.666      1.150      2.038
REMARK INTER + INTRA:          -8.486
REMARK INTER:                  -7.560
REMARK INTRA:                  -0.926
REMARK UNBOUND:                -1.093
REMARK SMILES CCCCCCCCCCCC(=O)[O-]
REMARK SMILES IDX 7 1 8 2 9 3 10 4 11 5 12 6 13 7 14 8 6 9 5 10 4 11 3 12 2 13
REMARK SMILES IDX 1 14
REMARK H PARENT
REMARK Flexibility Score: inf
ROOT
ATOM      1  C   UNL     1      17.735  16.547  35.625  1.00  0.00     0.000 C 
ENDROOT
BRANCH   1   2
ATOM      2  C   UNL     1      18.998  16.606  34.753  1.00  0.00     0.000 C 
BRANCH   2   3
ATOM      3  C   UNL     1      19.824  17.858  35.067  1.00  0.00     0.000 C 
BRANCH   3   4
ATOM      4  C   UNL     1      19.606  18.944  34.004  1.00  0.00     0.006 C 
BRANCH   4   5
ATOM      5  C   UNL     1      19.778  18.405  32.578  1.00  0.00     0.053 C 
BRANCH   5   6
ATOM      6  C   UNL     1      21.220  18.209  32.229  1.00  0.00     0.041 C 
ATOM      7  O   UNL     1      21.946  19.199  31.946  1.00  0.00    -0.550 OA
ATOM      8  O   UNL     1      21.772  16.934  32.246  1.00  0.00    -0.550 OA
ENDBRANCH   5   6
ENDBRANCH   4   5
ENDBRANCH   3   4
ENDBRANCH   2   3
ENDBRANCH   1   2
BRANCH   1   9
ATOM      9  C   UNL     1      16.547  17.298  35.003  1.00  0.00     0.000 C 
BRANCH   9  10
ATOM     10  C   UNL     1      15.732  18.083  36.045  1.00  0.00    -0.000 C 
BRANCH  10  11
ATOM     11  C   UNL     1      16.250  17.877  37.477  1.00  0.00    -0.000 C 
BRANCH  11  12
ATOM     12  C   UNL     1      15.285  17.055  38.345  1.00  0.00    -0.000 C 
BRANCH  12  13
ATOM     13  C   UNL     1      15.732  15.591  38.426  1.00  0.00    -0.003 C 
ATOM     14  C   UNL     1      14.691  14.661  37.808  1.00  0.00     0.004 C 
ENDBRANCH  12  13
ENDBRANCH  11  12
ENDBRANCH  10  11
ENDBRANCH   9  10
ENDBRANCH   1   9
TORSDOF 10
ENDMDL
MODEL 8
REMARK VINA RESULT:    -4.647      9.010     11.068
REMARK INTER + INTRA:          -8.456
REMARK INTER:                  -7.307
REMARK INTRA:                  -1.150
REMARK UNBOUND:                -1.093
REMARK SMILES CCCCCCCCCCCC(=O)[O-]
REMARK SMILES IDX 7 1 8 2 9 3 10 4 11 5 12 6 13 7 14 8 6 9 5 10 4 11 3 12 2 13
REMARK SMILES IDX 1 14
REMARK H PARENT
REMARK Flexibility Score: inf
ROOT
ATOM      1  C   UNL     1      10.050  19.090  32.035  1.00  0.00     0.000 C 
ENDROOT
BRANCH   1   2
ATOM      2  C   UNL     1       9.735  18.584  33.451  1.00  0.00     0.000 C 
BRANCH   2   3
ATOM      3  C   UNL     1       8.230  18.357  33.631  1.00  0.00     0.000 C 
BRANCH   3   4
ATOM      4  C   UNL     1       7.876  18.150  35.110  1.00  0.00     0.006 C 
BRANCH   4   5
ATOM      5  C   UNL     1       8.403  19.283  35.999  1.00  0.00     0.053 C 
BRANCH   5   6
ATOM      6  C   UNL     1       8.699  18.808  37.387  1.00  0.00     0.041 C 
ATOM      7  O   UNL     1       9.508  17.860  37.575  1.00  0.00    -0.550 OA
ATOM      8  O   UNL     1       8.108  19.433  38.478  1.00  0.00    -0.550 OA
ENDBRANCH   5   6
ENDBRANCH   4   5
ENDBRANCH   3   4
ENDBRANCH   2   3
ENDBRANCH   1   2
BRANCH   1   9
ATOM      9  C   UNL     1       8.939  18.759  31.026  1.00  0.00     0.000 C 
BRANCH   9  10
ATOM     10  C   UNL     1       8.410  20.007  30.299  1.00  0.00    -0.000 C 
BRANCH  10  11
ATOM     11  C   UNL     1       7.943  21.103  31.270  1.00  0.00    -0.000 C 
BRANCH  11  12
ATOM     12  C   UNL     1       8.572  22.471  30.968  1.00  0.00    -0.000 C 
BRANCH  12  13
ATOM     13  C   UNL     1       9.304  23.022  32.198  1.00  0.00    -0.003 C 
ATOM     14  C   UNL     1       8.887  22.281  33.466  1.00  0.00     0.004 C 
ENDBRANCH  12  13
ENDBRANCH  11  12
ENDBRANCH  10  11
ENDBRANCH   9  10
ENDBRANCH   1   9
TORSDOF 10
ENDMDL
MODEL 9
REMARK VINA RESULT:    -4.547      3.990      6.741
REMARK INTER + INTRA:          -8.298
REMARK INTER:                  -7.473
REMARK INTRA:                  -0.825
REMARK UNBOUND:                -1.093
REMARK SMILES CCCCCCCCCCCC(=O)[O-]
REMARK SMILES IDX 7 1 8 2 9 3 10 4 11 5 12 6 13 7 14 8 6 9 5 10 4 11 3 12 2 13
REMARK SMILES IDX 1 14
REMARK H PARENT
REMARK Flexibility Score: inf
ROOT
ATOM      1  C   UNL     1      15.886  17.809  38.047  1.00  0.00     0.000 C 
ENDROOT
BRANCH   1   2
ATOM      2  C   UNL     1      15.332  16.423  38.411  1.00  0.00     0.000 C 
BRANCH   2   3
ATOM      3  C   UNL     1      13.817  16.479  38.635  1.00  0.00     0.000 C 
BRANCH   3   4
ATOM      4  C   UNL     1      13.149  17.448  37.648  1.00  0.00     0.006 C 
BRANCH   4   5
ATOM      5  C   UNL     1      12.650  16.738  36.383  1.00  0.00     0.053 C 
BRANCH   5   6
ATOM      6  C   UNL     1      11.199  17.007  36.131  1.00  0.00     0.041 C 
ATOM      7  O   UNL     1      10.814  17.406  35.000  1.00  0.00    -0.550 OA
ATOM      8  O   UNL     1      10.266  16.787  37.137  1.00  0.00    -0.550 OA
ENDBRANCH   5   6
ENDBRANCH   4   5
ENDBRANCH   3   4
ENDBRANCH   2   3
ENDBRANCH   1   2
BRANCH   1   9
ATOM      9  C   UNL     1      16.803  17.777  36.813  1.00  0.00     0.000 C 
BRANCH   9  10
ATOM     10  C   UNL     1      17.153  16.345  36.374  1.00  0.00    -0.000 C 
BRANCH  10  11
ATOM     11  C   UNL     1      18.012  16.310  35.100  1.00  0.00    -0.000 C 
BRANCH  11  12
ATOM     12  C   UNL     1      17.669  17.443  34.122  1.00  0.00    -0.000 C 
BRANCH  12  13
ATOM     13  C   UNL     1      18.937  18.168  33.656  1.00  0.00    -0.003 C 
ATOM     14  C   UNL     1      19.952  18.290  34.789  1.00  0.00     0.004 C 
ENDBRANCH  12  13
ENDBRANCH  11  12
ENDBRANCH  10  11
ENDBRANCH   9  10
ENDBRANCH   1   9
TORSDOF 10
ENDMDL
