MODEL 1
REMARK VINA RESULT:    -4.414      0.000      0.000
REMARK INTER + INTRA:          -9.982
REMARK INTER:                  -8.026
REMARK INTRA:                  -1.956
REMARK UNBOUND:                -1.956
REMARK SMILES CCCCCCCCCCCCCCCC(=O)[O-]
REMARK SMILES IDX 9 1 10 2 11 3 12 4 13 5 14 6 15 7 16 8 17 9 18 10 8 11 7 12
REMARK SMILES IDX 6 13 5 14 4 15 3 16 2 17 1 18
REMARK H PARENT
REMARK Flexibility Score: inf
ROOT
ATOM      1  C   UNL     1      10.058  -1.377   1.997  1.00  0.00     0.000 C 
ENDROOT
BRANCH   1   2
ATOM      2  C   UNL     1      11.130  -1.753   0.954  1.00  0.00     0.000 C 
BRANCH   2   3
ATOM      3  C   UNL     1      11.657  -0.581   0.106  1.00  0.00     0.000 C 
BRANCH   3   4
ATOM      4  C   UNL     1      13.188  -0.455   0.147  1.00  0.00     0.000 C 
BRANCH   4   5
ATOM      5  C   UNL     1      13.830  -0.467  -1.253  1.00  0.00     0.000 C 
BRANCH   5   6
ATOM      6  C   UNL     1      15.343  -0.181  -1.283  1.00  0.00     0.006 C 
BRANCH   6   7
ATOM      7  C   UNL     1      16.118  -0.940  -0.198  1.00  0.00     0.053 C 
BRANCH   7   8
ATOM      8  C   UNL     1      16.877   0.017   0.665  1.00  0.00     0.041 C 
ATOM      9  O   UNL     1      18.120   0.154   0.519  1.00  0.00    -0.550 OA
ATOM     10  O   UNL     1      16.220   0.721   1.667  1.00  0.00    -0.550 OA
ENDBRANCH   7   8
ENDBRANCH   6   7
ENDBRANCH   5   6
ENDBRANCH   4   5
ENDBRANCH   3   4
ENDBRANCH   2   3
ENDBRANCH   1   2
BRANCH   1  11
ATOM     11  C   UNL     1       9.892   0.135   2.255  1.00  0.00     0.000 C 
BRANCH  11  12
ATOM     12  C   UNL     1      10.441   0.633   3.605  1.00  0.00    -0.000 C 
BRANCH  12  13
ATOM     13  C   UNL     1      11.977   0.671   3.647  1.00  0.00    -0.000 C 
BRANCH  13  14
ATOM     14  C   UNL     1      12.580  -0.501   4.439  1.00  0.00    -0.000 C 
BRANCH  14  15
ATOM     15  C   UNL     1      14.000  -0.895   3.979  1.00  0.00    -0.000 C 
BRANCH  15  16
ATOM     16  C   UNL     1      13.997  -2.183   3.137  1.00  0.00    -0.000 C 
BRANCH  16  17
ATOM     17  C   UNL     1      15.392  -2.819   3.026  1.00  0.00    -0.003 C 
ATOM     18  C   UNL     1      15.463  -3.905   1.953  1.00  0.00     0.004 C 
ENDBRANCH  16  17
ENDBRANCH  15  16
ENDBRANCH  14  15
ENDBRANCH  13  14
ENDBRANCH  12  13
ENDBRANCH  11  12
ENDBRANCH   1  11
TORSDOF 14
ENDMDL
MODEL 2
REMARK VINA RESULT:    -4.401      2.758      5.039
REMARK INTER + INTRA:          -9.958
REMARK INTER:                  -8.101
REMARK INTRA:                  -1.857
REMARK UNBOUND:                -1.956
REMARK SMILES CCCCCCCCCCCCCCCC(=O)[O-]
REMARK SMILES IDX 9 1 10 2 11 3 12 4 13 5 14 6 15 7 16 8 17 9 18 10 8 11 7 12
REMARK SMILES IDX 6 13 5 14 4 15 3 16 2 17 1 18
REMARK H PARENT
REMARK Flexibility Score: inf
ROOT
ATOM      1  C   UNL     1      12.738  -1.145   4.219  1.00  0.00     0.000 C 
ENDROOT
BRANCH   1   2
ATOM      2  C   UNL     1      12.539   0.251   3.594  1.00  0.00     0.000 C 
BRANCH   2   3
ATOM      3  C   UNL     1      11.075   0.717   3.488  1.00  0.00     0.000 C 
BRANCH   3   4
ATOM      4  C   UNL     1      10.382   0.218   2.210  1.00  0.00     0.000 C 
BRANCH   4   5
ATOM      5  C   UNL     1      11.312   0.220   0.982  1.00  0.00     0.000 C 
BRANCH   5   6
ATOM      6  C   UNL     1      11.505  -1.149   0.303  1.00  0.00     0.006 C 
BRANCH   6   7
ATOM      7  C   UNL     1      10.687  -2.267   0.964  1.00  0.00     0.053 C 
BRANCH   7   8
ATOM      8  C   UNL     1      10.674  -3.486   0.097  1.00  0.00     0.041 C 
ATOM      9  O   UNL     1      11.756  -4.009  -0.276  1.00  0.00    -0.550 OA
ATOM     10  O   UNL     1       9.466  -4.015  -0.340  1.00  0.00    -0.550 OA
ENDBRANCH   7   8
ENDBRANCH   6   7
ENDBRANCH   5   6
ENDBRANCH   4   5
ENDBRANCH   3   4
ENDBRANCH   2   3
ENDBRANCH   1   2
BRANCH   1  11
ATOM     11  C   UNL     1      13.561  -2.135   3.369  1.00  0.00     0.000 C 
BRANCH  11  12
ATOM     12  C   UNL     1      14.891  -2.589   3.997  1.00  0.00    -0.000 C 
BRANCH  12  13
ATOM     13  C   UNL     1      16.111  -2.247   3.126  1.00  0.00    -0.000 C 
BRANCH  13  14
ATOM     14  C   UNL     1      16.317  -0.732   2.958  1.00  0.00    -0.000 C 
BRANCH  14  15
ATOM     15  C   UNL     1      16.508  -0.292   1.491  1.00  0.00    -0.000 C 
BRANCH  15  16
ATOM     16  C   UNL     1      15.609  -1.087   0.528  1.00  0.00    -0.000 C 
BRANCH  16  17
ATOM     17  C   UNL     1      14.864  -0.183  -0.467  1.00  0.00    -0.003 C 
ATOM     18  C   UNL     1      15.146  -0.547  -1.923  1.00  0.00     0.004 C 
ENDBRANCH  16  17
ENDBRANCH  15  16
ENDBRANCH  14  15
ENDBRANCH  13  14
ENDBRANCH  12  13
ENDBRANCH  11  12
ENDBRANCH   1  11
TORSDOF 14
ENDMDL
MODEL 3
REMARK VINA RESULT:    -4.368      3.758      5.449
REMARK INTER + INTRA:          -9.899
REMARK INTER:                  -8.173
REMARK INTRA:                  -1.726
REMARK UNBOUND:                -1.956
REMARK SMILES CCCCCCCCCCCCCCCC(=O)[O-]
REMARK SMILES IDX 9 1 10 2 11 3 12 4 13 5 14 6 15 7 16 8 17 9 18 10 8 11 7 12
REMARK SMILES IDX 6 13 5 14 4 15 3 16 2 17 1 18
REMARK H PARENT
REMARK Flexibility Score: inf
ROOT
ATOM      1  C   UNL     1      11.170   0.298   3.149  1.00  0.00     0.000 C 
ENDROOT
BRANCH   1   2
ATOM      2  C   UNL     1      11.774   0.657   1.776  1.00  0.00     0.000 C 
BRANCH   2   3
ATOM      3  C   UNL     1      11.363  -0.272   0.618  1.00  0.00     0.000 C 
BRANCH   3   4
ATOM      4  C   UNL     1      10.989  -1.686   1.091  1.00  0.00     0.000 C 
BRANCH   4   5
ATOM      5  C   UNL     1      11.918  -2.775   0.524  1.00  0.00     0.000 C 
BRANCH   5   6
ATOM      6  C   UNL     1      11.211  -3.903  -0.250  1.00  0.00     0.006 C 
BRANCH   6   7
ATOM      7  C   UNL     1       9.686  -3.879  -0.084  1.00  0.00     0.053 C 
BRANCH   7   8
ATOM      8  C   UNL     1       9.059  -4.993  -0.861  1.00  0.00     0.041 C 
ATOM      9  O   UNL     1       8.045  -4.777  -1.574  1.00  0.00    -0.550 OA
ATOM     10  O   UNL     1       9.567  -6.283  -0.758  1.00  0.00    -0.550 OA
ENDBRANCH   7   8
ENDBRANCH   6   7
ENDBRANCH   5   6
ENDBRANCH   4   5
ENDBRANCH   3   4
ENDBRANCH   2   3
ENDBRANCH   1   2
BRANCH   1  11
ATOM     11  C   UNL     1      12.192  -0.100   4.234  1.00  0.00     0.000 C 
BRANCH  11  12
ATOM     12  C   UNL     1      12.850  -1.478   4.038  1.00  0.00    -0.000 C 
BRANCH  12  13
ATOM     13  C   UNL     1      14.375  -1.393   3.864  1.00  0.00    -0.000 C 
BRANCH  13  14
ATOM     14  C   UNL     1      14.841  -1.823   2.464  1.00  0.00    -0.000 C 
BRANCH  14  15
ATOM     15  C   UNL     1      16.104  -1.083   1.976  1.00  0.00    -0.000 C 
BRANCH  15  16
ATOM     16  C   UNL     1      15.772  -0.003   0.932  1.00  0.00    -0.000 C 
BRANCH  16  17
ATOM     17  C   UNL     1      15.851  -0.530  -0.510  1.00  0.00    -0.003 C 
ATOM     18  C   UNL     1      14.500  -0.504  -1.223  1.00  0.00     0.004 C 
ENDBRANCH  16  17
ENDBRANCH  15  16
ENDBRANCH  14  15
ENDBRANCH  13  14
ENDBRANCH  12  13
ENDBRANCH  11  12
ENDBRANCH   1  11
TORSDOF 14
ENDMDL
MODEL 4
REMARK VINA RESULT:    -4.235      1.537      2.904
REMARK INTER + INTRA:          -9.656
REMARK INTER:                  -7.944
REMARK INTRA:                  -1.712
REMARK UNBOUND:                -1.956
REMARK SMILES CCCCCCCCCCCCCCCC(=O)[O-]
REMARK SMILES IDX 9 1 10 2 11 3 12 4 13 5 14 6 15 7 16 8 17 9 18 10 8 11 7 12
REMARK SMILES IDX 6 13 5 14 4 15 3 16 2 17 1 18
REMARK H PARENT
REMARK Flexibility Score: inf
ROOT
ATOM      1  C   UNL     1      11.382   0.658   3.243  1.00  0.00     0.000 C 
ENDROOT
BRANCH   1   2
ATOM      2  C   UNL     1      10.199  -0.116   2.627  1.00  0.00     0.000 C 
BRANCH   2   3
ATOM      3  C   UNL     1      10.503  -1.575   2.241  1.00  0.00     0.000 C 
BRANCH   3   4
ATOM      4  C   UNL     1      10.962  -1.723   0.782  1.00  0.00     0.000 C 
BRANCH   4   5
ATOM      5  C   UNL     1      11.762  -0.507   0.277  1.00  0.00     0.000 C 
BRANCH   5   6
ATOM      6  C   UNL     1      13.080  -0.843  -0.445  1.00  0.00     0.006 C 
BRANCH   6   7
ATOM      7  C   UNL     1      14.302  -0.173   0.197  1.00  0.00     0.053 C 
BRANCH   7   8
ATOM      8  C   UNL     1      15.486  -0.266  -0.713  1.00  0.00     0.041 C 
ATOM      9  O   UNL     1      15.326  -0.262  -1.962  1.00  0.00    -0.550 OA
ATOM     10  O   UNL     1      16.762  -0.408  -0.183  1.00  0.00    -0.550 OA
ENDBRANCH   7   8
ENDBRANCH   6   7
ENDBRANCH   5   6
ENDBRANCH   4   5
ENDBRANCH   3   4
ENDBRANCH   2   3
ENDBRANCH   1   2
BRANCH   1  11
ATOM     11  C   UNL     1      12.138  -0.081   4.366  1.00  0.00     0.000 C 
BRANCH  11  12
ATOM     12  C   UNL     1      13.516  -0.641   3.969  1.00  0.00    -0.000 C 
BRANCH  12  13
ATOM     13  C   UNL     1      13.538  -2.177   3.898  1.00  0.00    -0.000 C 
BRANCH  13  14
ATOM     14  C   UNL     1      14.412  -2.707   2.749  1.00  0.00    -0.000 C 
BRANCH  14  15
ATOM     15  C   UNL     1      15.899  -2.312   2.868  1.00  0.00    -0.000 C 
BRANCH  15  16
ATOM     16  C   UNL     1      16.745  -3.433   3.498  1.00  0.00    -0.000 C 
BRANCH  16  17
ATOM     17  C   UNL     1      17.441  -2.990   4.795  1.00  0.00    -0.003 C 
ATOM     18  C   UNL     1      16.486  -2.924   5.986  1.00  0.00     0.004 C 
ENDBRANCH  16  17
ENDBRANCH  15  16
ENDBRANCH  14  15
ENDBRANCH  13  14
ENDBRANCH  12  13
ENDBRANCH  11  12
ENDBRANCH   1  11
TORSDOF 14
ENDMDL
MODEL 5
REMARK VINA RESULT:    -4.196      2.361      5.149
REMARK INTER + INTRA:          -9.587
REMARK INTER:                  -7.465
REMARK INTRA:                  -2.121
REMARK UNBOUND:                -1.956
REMARK SMILES CCCCCCCCCCCCCCCC(=O)[O-]
REMARK SMILES IDX 9 1 10 2 11 3 12 4 13 5 14 6 15 7 16 8 17 9 18 10 8 11 7 12
REMARK SMILES IDX 6 13 5 14 4 15 3 16 2 17 1 18
REMARK H PARENT
REMARK Flexibility Score: inf
ROOT
ATOM      1  C   UNL     1      15.071  -2.375   3.427  1.00  0.00     0.000 C 
ENDROOT
BRANCH   1   2
ATOM      2  C   UNL     1      13.952  -1.674   4.224  1.00  0.00     0.000 C 
BRANCH   2   3
ATOM      3  C   UNL     1      13.511  -0.308   3.668  1.00  0.00     0.000 C 
BRANCH   3   4
ATOM      4  C   UNL     1      12.006  -0.050   3.847  1.00  0.00     0.000 C 
BRANCH   4   5
ATOM      5  C   UNL     1      11.291   0.285   2.524  1.00  0.00     0.000 C 
BRANCH   5   6
ATOM      6  C   UNL     1      12.200   0.332   1.282  1.00  0.00     0.006 C 
BRANCH   6   7
ATOM      7  C   UNL     1      11.665  -0.510   0.115  1.00  0.00     0.053 C 
BRANCH   7   8
ATOM      8  C   UNL     1      11.825  -1.968   0.409  1.00  0.00     0.041 C 
ATOM      9  O   UNL     1      12.912  -2.406   0.868  1.00  0.00    -0.550 OA
ATOM     10  O   UNL     1      10.790  -2.851   0.129  1.00  0.00    -0.550 OA
ENDBRANCH   7   8
ENDBRANCH   6   7
ENDBRANCH   5   6
ENDBRANCH   4   5
ENDBRANCH   3   4
ENDBRANCH   2   3
ENDBRANCH   1   2
BRANCH   1  11
ATOM     11  C   UNL     1      16.489  -2.232   4.017  1.00  0.00     0.000 C 
BRANCH  11  12
ATOM     12  C   UNL     1      17.403  -1.230   3.289  1.00  0.00    -0.000 C 
BRANCH  12  13
ATOM     13  C   UNL     1      17.198   0.218   3.765  1.00  0.00    -0.000 C 
BRANCH  13  14
ATOM     14  C   UNL     1      16.912   1.190   2.608  1.00  0.00    -0.000 C 
BRANCH  14  15
ATOM     15  C   UNL     1      17.048   0.547   1.211  1.00  0.00    -0.000 C 
BRANCH  15  16
ATOM     16  C   UNL     1      15.678   0.228   0.588  1.00  0.00    -0.000 C 
BRANCH  16  17
ATOM     17  C   UNL     1      15.754  -0.888  -0.466  1.00  0.00    -0.003 C 
ATOM     18  C   UNL     1      15.122  -0.487  -1.799  1.00  0.00     0.004 C 
ENDBRANCH  16  17
ENDBRANCH  15  16
ENDBRANCH  14  15
ENDBRANCH  13  14
ENDBRANCH  12  13
ENDBRANCH  11  12
ENDBRANCH   1  11
TORSDOF 14
ENDMDL
MODEL 6
REMARK VINA RESULT:    -4.182      1.806      3.753
REMARK INTER + INTRA:          -9.560
REMARK INTER:                  -7.067
REMARK INTRA:                  -2.493
REMARK UNBOUND:                -1.956
REMARK SMILES CCCCCCCCCCCCCCCC(=O)[O-]
REMARK SMILES IDX 9 1 10 2 11 3 12 4 13 5 14 6 15 7 16 8 17 9 18 10 8 11 7 12
REMARK SMILES IDX 6 13 5 14 4 15 3 16 2 17 1 18
REMARK H PARENT
REMARK Flexibility Score: inf
ROOT
ATOM      1  C   UNL     1      13.396  -2.532   3.223  1.00  0.00     0.000 C 
ENDROOT
BRANCH   1   2
ATOM      2  C   UNL     1      14.847  -2.209   2.814  1.00  0.00     0.000 C 
BRANCH   2   3
ATOM      3  C   UNL     1      15.183  -2.467   1.333  1.00  0.00     0.000 C 
BRANCH   3   4
ATOM      4  C   UNL     1      15.801  -1.243   0.639  1.00  0.00     0.000 C 
BRANCH   4   5
ATOM      5  C   UNL     1      15.486   0.081   1.362  1.00  0.00     0.000 C 
BRANCH   5   6
ATOM      6  C   UNL     1      16.716   0.891   1.811  1.00  0.00     0.006 C 
BRANCH   6   7
ATOM      7  C   UNL     1      16.684   1.253   3.302  1.00  0.00     0.053 C 
BRANCH   7   8
ATOM      8  C   UNL     1      17.177   0.106   4.127  1.00  0.00     0.041 C 
ATOM      9  O   UNL     1      16.794  -0.029   5.318  1.00  0.00    -0.550 OA
ATOM     10  O   UNL     1      18.098  -0.788   3.595  1.00  0.00    -0.550 OA
ENDBRANCH   7   8
ENDBRANCH   6   7
ENDBRANCH   5   6
ENDBRANCH   4   5
ENDBRANCH   3   4
ENDBRANCH   2   3
ENDBRANCH   1   2
BRANCH   1  11
ATOM     11  C   UNL     1      12.779  -1.579   4.267  1.00  0.00     0.000 C 
BRANCH  11  12
ATOM     12  C   UNL     1      13.159  -0.096   4.105  1.00  0.00    -0.000 C 
BRANCH  12  13
ATOM     13  C   UNL     1      11.961   0.789   3.725  1.00  0.00    -0.000 C 
BRANCH  13  14
ATOM     14  C   UNL     1      10.773  -0.019   3.177  1.00  0.00    -0.000 C 
BRANCH  14  15
ATOM     15  C   UNL     1      10.525   0.190   1.668  1.00  0.00    -0.000 C 
BRANCH  15  16
ATOM     16  C   UNL     1      11.830   0.468   0.902  1.00  0.00    -0.000 C 
BRANCH  16  17
ATOM     17  C   UNL     1      12.157  -0.626  -0.127  1.00  0.00    -0.003 C 
ATOM     18  C   UNL     1      11.601  -1.993   0.267  1.00  0.00     0.004 C 
ENDBRANCH  16  17
ENDBRANCH  15  16
ENDBRANCH  14  15
ENDBRANCH  13  14
ENDBRANCH  12  13
ENDBRANCH  11  12
ENDBRANCH   1  11
TORSDOF 14
ENDMDL
MODEL 7
REMARK VINA RESULT:    -4.177      1.898      4.122
REMARK INTER + INTRA:          -9.552
REMARK INTER:                  -7.404
REMARK INTRA:                  -2.148
REMARK UNBOUND:                -1.956
REMARK SMILES CCCCCCCCCCCCCCCC(=O)[O-]
REMARK SMILES IDX 9 1 10 2 11 3 12 4 13 5 14 6 15 7 16 8 17 9 18 10 8 11 7 12
REMARK SMILES IDX 6 13 5 14 4 15 3 16 2 17 1 18
REMARK H PARENT
REMARK Flexibility Score: inf
ROOT
ATOM      1  C   UNL     1      12.220  -1.060  -0.064  1.00  0.00     0.000 C 
ENDROOT
BRANCH   1   2
ATOM      2  C   UNL     1      13.488  -0.510  -0.748  1.00  0.00     0.000 C 
BRANCH   2   3
ATOM      3  C   UNL     1      14.814  -0.866  -0.051  1.00  0.00     0.000 C 
BRANCH   3   4
ATOM      4  C   UNL     1      15.798   0.313  -0.001  1.00  0.00     0.000 C 
BRANCH   4   5
ATOM      5  C   UNL     1      16.717   0.279   1.234  1.00  0.00     0.000 C 
BRANCH   5   6
ATOM      6  C   UNL     1      16.008   0.484   2.586  1.00  0.00     0.006 C 
BRANCH   6   7
ATOM      7  C   UNL     1      16.889   0.116   3.787  1.00  0.00     0.053 C 
BRANCH   7   8
ATOM      8  C   UNL     1      16.519  -1.237   4.309  1.00  0.00     0.041 C 
ATOM      9  O   UNL     1      15.914  -1.349   5.407  1.00  0.00    -0.550 OA
ATOM     10  O   UNL     1      16.886  -2.377   3.605  1.00  0.00    -0.550 OA
ENDBRANCH   7   8
ENDBRANCH   6   7
ENDBRANCH   5   6
ENDBRANCH   4   5
ENDBRANCH   3   4
ENDBRANCH   2   3
ENDBRANCH   1   2
BRANCH   1  11
ATOM     11  C   UNL     1      12.384  -2.433   0.619  1.00  0.00     0.000 C 
BRANCH  11  12
ATOM     12  C   UNL     1      12.012  -2.470   2.112  1.00  0.00    -0.000 C 
BRANCH  12  13
ATOM     13  C   UNL     1      13.136  -1.945   3.021  1.00  0.00    -0.000 C 
BRANCH  13  14
ATOM     14  C   UNL     1      12.664  -0.831   3.969  1.00  0.00    -0.000 C 
BRANCH  14  15
ATOM     15  C   UNL     1      12.137   0.423   3.240  1.00  0.00    -0.000 C 
BRANCH  15  16
ATOM     16  C   UNL     1      10.649   0.678   3.532  1.00  0.00    -0.000 C 
BRANCH  16  17
ATOM     17  C   UNL     1       9.751   0.400   2.316  1.00  0.00    -0.003 C 
ATOM     18  C   UNL     1       8.816  -0.789   2.531  1.00  0.00     0.004 C 
ENDBRANCH  16  17
ENDBRANCH  15  16
ENDBRANCH  14  15
ENDBRANCH  13  14
ENDBRANCH  12  13
ENDBRANCH  11  12
ENDBRANCH   1  11
TORSDOF 14
ENDMDL
MODEL 8
REMARK VINA RESULT:    -4.089      1.740      4.229
REMARK INTER + INTRA:          -9.391
REMARK INTER:                  -7.227
REMARK INTRA:                  -2.164
REMARK UNBOUND:                -1.956
REMARK SMILES CCCCCCCCCCCCCCCC(=O)[O-]
REMARK SMILES IDX 9 1 10 2 11 3 12 4 13 5 14 6 15 7 16 8 17 9 18 10 8 11 7 12
REMARK SMILES IDX 6 13 5 14 4 15 3 16 2 17 1 18
REMARK H PARENT
REMARK Flexibility Score: inf
ROOT
ATOM      1  C   UNL     1      10.700  -1.257   2.195  1.00  0.00     0.000 C 
ENDROOT
BRANCH   1   2
ATOM      2  C   UNL     1      10.543   0.248   2.494  1.00  0.00     0.000 C 
BRANCH   2   3
ATOM      3  C   UNL     1      11.325   0.756   3.719  1.00  0.00     0.000 C 
BRANCH   3   4
ATOM      4  C   UNL     1      12.363  -0.258   4.227  1.00  0.00     0.000 C 
BRANCH   4   5
ATOM      5  C   UNL     1      13.791   0.045   3.734  1.00  0.00     0.000 C 
BRANCH   5   6
ATOM      6  C   UNL     1      14.816  -1.080   3.965  1.00  0.00     0.006 C 
BRANCH   6   7
ATOM      7  C   UNL     1      14.369  -2.428   3.384  1.00  0.00     0.053 C 
BRANCH   7   8
ATOM      8  C   UNL     1      15.533  -3.146   2.777  1.00  0.00     0.041 C 
ATOM      9  O   UNL     1      16.673  -3.064   3.304  1.00  0.00    -0.550 OA
ATOM     10  O   UNL     1      15.369  -3.865   1.599  1.00  0.00    -0.550 OA
ENDBRANCH   7   8
ENDBRANCH   6   7
ENDBRANCH   5   6
ENDBRANCH   4   5
ENDBRANCH   3   4
ENDBRANCH   2   3
ENDBRANCH   1   2
BRANCH   1  11
ATOM     11  C   UNL     1      11.151  -1.599   0.760  1.00  0.00     0.000 C 
BRANCH  11  12
ATOM     12  C   UNL     1      12.166  -0.620   0.142  1.00  0.00    -0.000 C 
BRANCH  12  13
ATOM     13  C   UNL     1      13.594  -1.188   0.099  1.00  0.00    -0.000 C 
BRANCH  13  14
ATOM     14  C   UNL     1      14.626  -0.166  -0.405  1.00  0.00    -0.000 C 
BRANCH  14  15
ATOM     15  C   UNL     1      16.067  -0.457   0.066  1.00  0.00    -0.000 C 
BRANCH  15  16
ATOM     16  C   UNL     1      16.524   0.522   1.162  1.00  0.00    -0.000 C 
BRANCH  16  17
ATOM     17  C   UNL     1      18.051   0.547   1.333  1.00  0.00    -0.003 C 
ATOM     18  C   UNL     1      18.515  -0.146   2.613  1.00  0.00     0.004 C 
ENDBRANCH  16  17
ENDBRANCH  15  16
ENDBRANCH  14  15
ENDBRANCH  13  14
ENDBRANCH  12  13
ENDBRANCH  11  12
ENDBRANCH   1  11
TORSDOF 14
ENDMDL
MODEL 9
REMARK VINA RESULT:    -4.039      2.537      5.254
REMARK INTER + INTRA:          -9.301
REMARK INTER:                  -6.723
REMARK INTRA:                  -2.578
REMARK UNBOUND:                -1.956
REMARK SMILES CCCCCCCCCCCCCCCC(=O)[O-]
REMARK SMILES IDX 9 1 10 2 11 3 12 4 13 5 14 6 15 7 16 8 17 9 18 10 8 11 7 12
REMARK SMILES IDX 6 13 5 14 4 15 3 16 2 17 1 18
REMARK H PARENT
REMARK Flexibility Score: inf
ROOT
ATOM      1  C   UNL     1      16.764   0.862   4.689  1.00  0.00     0.000 C 
ENDROOT
BRANCH   1   2
ATOM      2  C   UNL     1      17.197   0.888   3.209  1.00  0.00     0.000 C 
BRANCH   2   3
ATOM      3  C   UNL     1      16.062   0.666   2.192  1.00  0.00     0.000 C 
BRANCH   3   4
ATOM      4  C   UNL     1      16.474  -0.253   1.031  1.00  0.00     0.000 C 
BRANCH   4   5
ATOM      5  C   UNL     1      15.272  -0.922   0.337  1.00  0.00     0.000 C 
BRANCH   5   6
ATOM      6  C   UNL     1      13.932  -0.180   0.488  1.00  0.00     0.006 C 
BRANCH   6   7
ATOM      7  C   UNL     1      12.767  -0.896  -0.210  1.00  0.00     0.053 C 
BRANCH   7   8
ATOM      8  C   UNL     1      11.489  -0.655   0.529  1.00  0.00     0.041 C 
ATOM      9  O   UNL     1      10.855  -1.621   1.029  1.00  0.00    -0.550 OA
ATOM     10  O   UNL     1      10.972   0.631   0.623  1.00  0.00    -0.550 OA
ENDBRANCH   7   8
ENDBRANCH   6   7
ENDBRANCH   5   6
ENDBRANCH   4   5
ENDBRANCH   3   4
ENDBRANCH   2   3
ENDBRANCH   1   2
BRANCH   1  11
ATOM     11  C   UNL     1      16.955  -0.490   5.407  1.00  0.00     0.000 C 
BRANCH  11  12
ATOM     12  C   UNL     1      17.607  -1.596   4.557  1.00  0.00    -0.000 C 
BRANCH  12  13
ATOM     13  C   UNL     1      16.613  -2.693   4.141  1.00  0.00    -0.000 C 
BRANCH  13  14
ATOM     14  C   UNL     1      15.182  -2.417   4.630  1.00  0.00    -0.000 C 
BRANCH  14  15
ATOM     15  C   UNL     1      14.136  -2.378   3.496  1.00  0.00    -0.000 C 
BRANCH  15  16
ATOM     16  C   UNL     1      12.843  -1.666   3.928  1.00  0.00    -0.000 C 
BRANCH  16  17
ATOM     17  C   UNL     1      13.042  -0.157   4.144  1.00  0.00    -0.003 C 
ATOM     18  C   UNL     1      11.737   0.632   4.046  1.00  0.00     0.004 C 
ENDBRANCH  16  17
ENDBRANCH  15  16
ENDBRANCH  14  15
ENDBRANCH  13  14
ENDBRANCH  12  13
ENDBRANCH  11  12
ENDBRANCH   1  11
TORSDOF 14
ENDMDL
