MODEL 1
REMARK VINA RESULT:    -6.771      0.000      0.000
REMARK INTER + INTRA:          -8.255
REMARK INTER:                  -7.959
REMARK INTRA:                  -0.296
REMARK UNBOUND:                -0.296
REMARK SMILES O=c1c(O)c(-c2ccc(O)cc2)oc2cc(O)cc(O)c12
REMARK SMILES IDX 5 1 3 2 2 3 1 4 21 5 19 6 18 7 16 8 15 9 14 10 13 11 6 12
REMARK SMILES IDX 7 13 8 14 9 15 12 16 11 17 10 18 4 20 20 22 17 24
REMARK H PARENT 10 19 4 21 20 23 17 25
REMARK Flexibility Score: inf
ROOT
ATOM      1  C   UNL     1     107.853 121.986 119.478  1.00  0.00     0.180 A 
ATOM      2  C   UNL     1     107.911 123.055 118.567  1.00  0.00     0.208 A 
ATOM      3  C   UNL     1     106.729 123.735 118.239  1.00  0.00     0.238 A 
ATOM      4  O   UNL     1     106.796 124.724 117.464  1.00  0.00    -0.285 OA
ATOM      5  C   UNL     1     105.500 123.330 118.813  1.00  0.00     0.111 A 
ATOM      6  C   UNL     1     104.235 123.922 118.520  1.00  0.00     0.134 A 
ATOM      7  C   UNL     1     103.103 123.528 119.245  1.00  0.00     0.093 A 
ATOM      8  C   UNL     1     103.178 122.518 120.204  1.00  0.00     0.123 A 
ATOM      9  C   UNL     1     104.399 121.890 120.455  1.00  0.00     0.094 A 
ATOM     10  C   UNL     1     105.552 122.287 119.774  1.00  0.00     0.146 A 
ATOM     11  O   UNL     1     106.696 121.672 120.051  1.00  0.00    -0.452 OA
ENDROOT
BRANCH   1  12
ATOM     12  C   UNL     1     109.052 121.203 119.856  1.00  0.00     0.021 A 
ATOM     13  C   UNL     1     109.425 120.047 119.147  1.00  0.00     0.016 A 
ATOM     14  C   UNL     1     110.548 119.310 119.536  1.00  0.00     0.047 A 
ATOM     15  C   UNL     1     111.304 119.710 120.641  1.00  0.00     0.115 A 
ATOM     16  C   UNL     1     109.805 121.588 120.978  1.00  0.00     0.016 A 
ATOM     17  C   UNL     1     110.927 120.850 121.364  1.00  0.00     0.047 A 
BRANCH  15  18
ATOM     18  O   UNL     1     112.421 118.968 121.017  1.00  0.00    -0.508 OA
ATOM     19  H   UNL     1     112.616 118.760 121.989  1.00  0.00     0.293 HD
ENDBRANCH  15  18
ENDBRANCH   1  12
BRANCH   2  20
ATOM     20  O   UNL     1     109.139 123.451 118.029  1.00  0.00    -0.502 OA
ATOM     21  H   UNL     1     110.008 123.376 118.545  1.00  0.00     0.293 HD
ENDBRANCH   2  20
BRANCH   6  22
ATOM     22  O   UNL     1     104.032 124.875 117.519  1.00  0.00    -0.507 OA
ATOM     23  H   UNL     1     103.981 124.670 116.532  1.00  0.00     0.293 HD
ENDBRANCH   6  22
BRANCH   8  24
ATOM     24  O   UNL     1     102.029 122.139 120.895  1.00  0.00    -0.508 OA
ATOM     25  H   UNL     1     101.720 122.637 121.722  1.00  0.00     0.293 HD
ENDBRANCH   8  24
TORSDOF 5
ENDMDL
MODEL 2
REMARK VINA RESULT:    -6.680      1.339      3.048
REMARK INTER + INTRA:          -8.148
REMARK INTER:                  -7.890
REMARK INTRA:                  -0.257
REMARK UNBOUND:                -0.296
REMARK SMILES O=c1c(O)c(-c2ccc(O)cc2)oc2cc(O)cc(O)c12
REMARK SMILES IDX 5 1 3 2 2 3 1 4 21 5 19 6 18 7 16 8 15 9 14 10 13 11 6 12
REMARK SMILES IDX 7 13 8 14 9 15 12 16 11 17 10 18 4 20 20 22 17 24
REMARK H PARENT 10 19 4 21 20 23 17 25
REMARK Flexibility Score: inf
ROOT
ATOM      1  C   UNL     1     106.958 121.363 120.427  1.00  0.00     0.180 A 
ATOM      2  C   UNL     1     105.958 120.873 121.285  1.00  0.00     0.208 A 
ATOM      3  C   UNL     1     104.674 121.436 121.226  1.00  0.00     0.238 A 
ATOM      4  O   UNL     1     103.769 120.958 121.958  1.00  0.00    -0.285 OA
ATOM      5  C   UNL     1     104.408 122.491 120.320  1.00  0.00     0.111 A 
ATOM      6  C   UNL     1     103.154 123.163 120.203  1.00  0.00     0.134 A 
ATOM      7  C   UNL     1     102.967 124.104 119.182  1.00  0.00     0.093 A 
ATOM      8  C   UNL     1     104.006 124.445 118.317  1.00  0.00     0.123 A 
ATOM      9  C   UNL     1     105.255 123.838 118.461  1.00  0.00     0.094 A 
ATOM     10  C   UNL     1     105.461 122.869 119.446  1.00  0.00     0.146 A 
ATOM     11  O   UNL     1     106.661 122.308 119.542  1.00  0.00    -0.452 OA
ENDROOT
BRANCH   1  12
ATOM     12  C   UNL     1     108.343 120.838 120.448  1.00  0.00     0.021 A 
ATOM     13  C   UNL     1     108.778 119.882 119.512  1.00  0.00     0.016 A 
ATOM     14  C   UNL     1     110.083 119.382 119.566  1.00  0.00     0.047 A 
ATOM     15  C   UNL     1     110.963 119.820 120.559  1.00  0.00     0.115 A 
ATOM     16  C   UNL     1     109.227 121.258 121.456  1.00  0.00     0.016 A 
ATOM     17  C   UNL     1     110.531 120.757 121.507  1.00  0.00     0.047 A 
BRANCH  15  18
ATOM     18  O   UNL     1     112.261 119.315 120.600  1.00  0.00    -0.508 OA
ATOM     19  H   UNL     1     112.772 119.238 121.472  1.00  0.00     0.293 HD
ENDBRANCH  15  18
ENDBRANCH   1  12
BRANCH   2  20
ATOM     20  O   UNL     1     106.236 119.816 122.157  1.00  0.00    -0.502 OA
ATOM     21  H   UNL     1     106.671 118.955 121.845  1.00  0.00     0.293 HD
ENDBRANCH   2  20
BRANCH   6  22
ATOM     22  O   UNL     1     102.079 122.964 121.072  1.00  0.00    -0.507 OA
ATOM     23  H   UNL     1     101.505 123.700 121.456  1.00  0.00     0.293 HD
ENDBRANCH   6  22
BRANCH   8  24
ATOM     24  O   UNL     1     103.789 125.397 117.324  1.00  0.00    -0.508 OA
ATOM     25  H   UNL     1     104.463 126.131 117.137  1.00  0.00     0.293 HD
ENDBRANCH   8  24
TORSDOF 5
ENDMDL
MODEL 3
REMARK VINA RESULT:    -6.269      2.078      6.978
REMARK INTER + INTRA:          -7.665
REMARK INTER:                  -7.375
REMARK INTRA:                  -0.290
REMARK UNBOUND:                -0.296
REMARK SMILES O=c1c(O)c(-c2ccc(O)cc2)oc2cc(O)cc(O)c12
REMARK SMILES IDX 5 1 3 2 2 3 1 4 21 5 19 6 18 7 16 8 15 9 14 10 13 11 6 12
REMARK SMILES IDX 7 13 8 14 9 15 12 16 11 17 10 18 4 20 20 22 17 24
REMARK H PARENT 10 19 4 21 20 23 17 25
REMARK Flexibility Score: inf
ROOT
ATOM      1  C   UNL     1     106.216 121.664 120.132  1.00  0.00     0.180 A 
ATOM      2  C   UNL     1     105.706 120.964 121.240  1.00  0.00     0.208 A 
ATOM      3  C   UNL     1     106.600 120.320 122.109  1.00  0.00     0.238 A 
ATOM      4  O   UNL     1     106.141 119.741 123.128  1.00  0.00    -0.285 OA
ATOM      5  C   UNL     1     107.992 120.369 121.853  1.00  0.00     0.111 A 
ATOM      6  C   UNL     1     108.985 119.719 122.645  1.00  0.00     0.134 A 
ATOM      7  C   UNL     1     110.341 119.945 122.374  1.00  0.00     0.093 A 
ATOM      8  C   UNL     1     110.738 120.743 121.302  1.00  0.00     0.123 A 
ATOM      9  C   UNL     1     109.775 121.335 120.484  1.00  0.00     0.094 A 
ATOM     10  C   UNL     1     108.415 121.158 120.751  1.00  0.00     0.146 A 
ATOM     11  O   UNL     1     107.530 121.748 119.956  1.00  0.00    -0.452 OA
ENDROOT
BRANCH   1  12
ATOM     12  C   UNL     1     105.336 122.347 119.157  1.00  0.00     0.021 A 
ATOM     13  C   UNL     1     104.739 121.647 118.093  1.00  0.00     0.016 A 
ATOM     14  C   UNL     1     103.931 122.317 117.169  1.00  0.00     0.047 A 
ATOM     15  C   UNL     1     103.719 123.694 117.289  1.00  0.00     0.115 A 
ATOM     16  C   UNL     1     105.135 123.734 119.259  1.00  0.00     0.016 A 
ATOM     17  C   UNL     1     104.326 124.402 118.335  1.00  0.00     0.047 A 
BRANCH  15  18
ATOM     18  O   UNL     1     102.911 124.349 116.364  1.00  0.00    -0.508 OA
ATOM     19  H   UNL     1     101.903 124.371 116.462  1.00  0.00     0.293 HD
ENDBRANCH  15  18
ENDBRANCH   1  12
BRANCH   2  20
ATOM     20  O   UNL     1     104.330 120.946 121.486  1.00  0.00    -0.502 OA
ATOM     21  H   UNL     1     103.834 120.099 121.736  1.00  0.00     0.293 HD
ENDBRANCH   2  20
BRANCH   6  22
ATOM     22  O   UNL     1     108.697 118.829 123.683  1.00  0.00    -0.507 OA
ATOM     23  H   UNL     1     108.157 119.059 124.504  1.00  0.00     0.293 HD
ENDBRANCH   6  22
BRANCH   8  24
ATOM     24  O   UNL     1     112.095 120.932 121.052  1.00  0.00    -0.508 OA
ATOM     25  H   UNL     1     112.802 120.648 121.721  1.00  0.00     0.293 HD
ENDBRANCH   8  24
TORSDOF 5
ENDMDL
MODEL 4
REMARK VINA RESULT:    -6.121      1.373      1.830
REMARK INTER + INTRA:          -7.490
REMARK INTER:                  -7.211
REMARK INTRA:                  -0.278
REMARK UNBOUND:                -0.296
REMARK SMILES O=c1c(O)c(-c2ccc(O)cc2)oc2cc(O)cc(O)c12
REMARK SMILES IDX 5 1 3 2 2 3 1 4 21 5 19 6 18 7 16 8 15 9 14 10 13 11 6 12
REMARK SMILES IDX 7 13 8 14 9 15 12 16 11 17 10 18 4 20 20 22 17 24
REMARK H PARENT 10 19 4 21 20 23 17 25
REMARK Flexibility Score: inf
ROOT
ATOM      1  C   UNL     1     107.156 121.154 119.559  1.00  0.00     0.180 A 
ATOM      2  C   UNL     1     106.964 122.326 118.807  1.00  0.00     0.208 A 
ATOM      3  C   UNL     1     105.657 122.728 118.492  1.00  0.00     0.238 A 
ATOM      4  O   UNL     1     105.490 123.806 117.865  1.00  0.00    -0.285 OA
ATOM      5  C   UNL     1     104.557 121.946 118.921  1.00  0.00     0.111 A 
ATOM      6  C   UNL     1     103.191 122.237 118.625  1.00  0.00     0.134 A 
ATOM      7  C   UNL     1     102.178 121.466 119.210  1.00  0.00     0.093 A 
ATOM      8  C   UNL     1     102.482 120.377 120.026  1.00  0.00     0.123 A 
ATOM      9  C   UNL     1     103.815 120.047 120.273  1.00  0.00     0.094 A 
ATOM     10  C   UNL     1     104.847 120.819 119.733  1.00  0.00     0.146 A 
ATOM     11  O   UNL     1     106.102 120.477 120.002  1.00  0.00    -0.452 OA
ENDROOT
BRANCH   1  12
ATOM     12  C   UNL     1     108.505 120.652 119.908  1.00  0.00     0.021 A 
ATOM     13  C   UNL     1     109.202 121.143 121.027  1.00  0.00     0.016 A 
ATOM     14  C   UNL     1     110.484 120.672 121.324  1.00  0.00     0.047 A 
ATOM     15  C   UNL     1     111.090 119.717 120.504  1.00  0.00     0.115 A 
ATOM     16  C   UNL     1     109.128 119.707 119.077  1.00  0.00     0.016 A 
ATOM     17  C   UNL     1     110.410 119.237 119.377  1.00  0.00     0.047 A 
BRANCH  15  18
ATOM     18  O   UNL     1     112.367 119.255 120.813  1.00  0.00    -0.508 OA
ATOM     19  H   UNL     1     113.170 119.873 120.807  1.00  0.00     0.293 HD
ENDBRANCH  15  18
ENDBRANCH   1  12
BRANCH   2  20
ATOM     20  O   UNL     1     108.063 123.095 118.413  1.00  0.00    -0.502 OA
ATOM     21  H   UNL     1     108.179 123.431 117.464  1.00  0.00     0.293 HD
ENDBRANCH   2  20
BRANCH   6  22
ATOM     22  O   UNL     1     102.781 123.245 117.749  1.00  0.00    -0.507 OA
ATOM     23  H   UNL     1     103.117 123.359 116.805  1.00  0.00     0.293 HD
ENDBRANCH   6  22
BRANCH   8  24
ATOM     24  O   UNL     1     101.450 119.623 120.578  1.00  0.00    -0.508 OA
ATOM     25  H   UNL     1     101.019 119.879 121.460  1.00  0.00     0.293 HD
ENDBRANCH   8  24
TORSDOF 5
ENDMDL
MODEL 5
REMARK VINA RESULT:    -5.915      2.811      4.759
REMARK INTER + INTRA:          -7.248
REMARK INTER:                  -6.956
REMARK INTRA:                  -0.292
REMARK UNBOUND:                -0.296
REMARK SMILES O=c1c(O)c(-c2ccc(O)cc2)oc2cc(O)cc(O)c12
REMARK SMILES IDX 5 1 3 2 2 3 1 4 21 5 19 6 18 7 16 8 15 9 14 10 13 11 6 12
REMARK SMILES IDX 7 13 8 14 9 15 12 16 11 17 10 18 4 20 20 22 17 24
REMARK H PARENT 10 19 4 21 20 23 17 25
REMARK Flexibility Score: inf
ROOT
ATOM      1  C   UNL     1     106.169 120.611 120.528  1.00  0.00     0.180 A 
ATOM      2  C   UNL     1     107.554 120.663 120.292  1.00  0.00     0.208 A 
ATOM      3  C   UNL     1     108.073 121.708 119.512  1.00  0.00     0.238 A 
ATOM      4  O   UNL     1     109.319 121.779 119.349  1.00  0.00    -0.285 OA
ATOM      5  C   UNL     1     107.201 122.681 118.966  1.00  0.00     0.111 A 
ATOM      6  C   UNL     1     107.614 123.760 118.128  1.00  0.00     0.134 A 
ATOM      7  C   UNL     1     106.683 124.737 117.752  1.00  0.00     0.093 A 
ATOM      8  C   UNL     1     105.344 124.639 118.127  1.00  0.00     0.123 A 
ATOM      9  C   UNL     1     104.917 123.555 118.896  1.00  0.00     0.094 A 
ATOM     10  C   UNL     1     105.829 122.584 119.317  1.00  0.00     0.146 A 
ATOM     11  O   UNL     1     105.385 121.575 120.057  1.00  0.00    -0.452 OA
ENDROOT
BRANCH   1  12
ATOM     12  C   UNL     1     105.543 119.527 121.319  1.00  0.00     0.021 A 
ATOM     13  C   UNL     1     105.039 118.367 120.701  1.00  0.00     0.016 A 
ATOM     14  C   UNL     1     104.430 117.367 121.465  1.00  0.00     0.047 A 
ATOM     15  C   UNL     1     104.306 117.516 122.849  1.00  0.00     0.115 A 
ATOM     16  C   UNL     1     105.396 119.679 122.707  1.00  0.00     0.016 A 
ATOM     17  C   UNL     1     104.787 118.677 123.469  1.00  0.00     0.047 A 
BRANCH  15  18
ATOM     18  O   UNL     1     103.699 116.511 123.598  1.00  0.00    -0.508 OA
ATOM     19  H   UNL     1     103.257 115.714 123.155  1.00  0.00     0.293 HD
ENDBRANCH  15  18
ENDBRANCH   1  12
BRANCH   2  20
ATOM     20  O   UNL     1     108.399 119.705 120.859  1.00  0.00    -0.502 OA
ATOM     21  H   UNL     1     108.692 119.745 121.828  1.00  0.00     0.293 HD
ENDBRANCH   2  20
BRANCH   6  22
ATOM     22  O   UNL     1     108.908 123.903 117.621  1.00  0.00    -0.507 OA
ATOM     23  H   UNL     1     109.740 123.532 118.054  1.00  0.00     0.293 HD
ENDBRANCH   6  22
BRANCH   8  24
ATOM     24  O   UNL     1     104.443 125.620 117.721  1.00  0.00    -0.508 OA
ATOM     25  H   UNL     1     104.264 125.802 116.740  1.00  0.00     0.293 HD
ENDBRANCH   8  24
TORSDOF 5
ENDMDL
MODEL 6
REMARK VINA RESULT:    -5.842      2.680      3.671
REMARK INTER + INTRA:          -7.162
REMARK INTER:                  -6.885
REMARK INTRA:                  -0.277
REMARK UNBOUND:                -0.296
REMARK SMILES O=c1c(O)c(-c2ccc(O)cc2)oc2cc(O)cc(O)c12
REMARK SMILES IDX 5 1 3 2 2 3 1 4 21 5 19 6 18 7 16 8 15 9 14 10 13 11 6 12
REMARK SMILES IDX 7 13 8 14 9 15 12 16 11 17 10 18 4 20 20 22 17 24
REMARK H PARENT 10 19 4 21 20 23 17 25
REMARK Flexibility Score: inf
ROOT
ATOM      1  C   UNL     1     107.363 120.246 121.108  1.00  0.00     0.180 A 
ATOM      2  C   UNL     1     106.549 121.048 120.289  1.00  0.00     0.208 A 
ATOM      3  C   UNL     1     105.155 120.932 120.391  1.00  0.00     0.238 A 
ATOM      4  O   UNL     1     104.432 121.690 119.694  1.00  0.00    -0.285 OA
ATOM      5  C   UNL     1     104.589 120.005 121.301  1.00  0.00     0.111 A 
ATOM      6  C   UNL     1     103.190 119.776 121.459  1.00  0.00     0.134 A 
ATOM      7  C   UNL     1     102.739 118.930 122.481  1.00  0.00     0.093 A 
ATOM      8  C   UNL     1     103.639 118.256 123.306  1.00  0.00     0.123 A 
ATOM      9  C   UNL     1     105.011 118.427 123.121  1.00  0.00     0.094 A 
ATOM     10  C   UNL     1     105.490 119.292 122.134  1.00  0.00     0.146 A 
ATOM     11  O   UNL     1     106.803 119.435 121.998  1.00  0.00    -0.452 OA
ENDROOT
BRANCH   1  12
ATOM     12  C   UNL     1     108.842 120.293 121.040  1.00  0.00     0.021 A 
ATOM     13  C   UNL     1     109.551 119.608 120.037  1.00  0.00     0.016 A 
ATOM     14  C   UNL     1     110.948 119.647 120.006  1.00  0.00     0.047 A 
ATOM     15  C   UNL     1     111.654 120.357 120.981  1.00  0.00     0.115 A 
ATOM     16  C   UNL     1     109.558 120.988 122.028  1.00  0.00     0.016 A 
ATOM     17  C   UNL     1     110.955 121.026 121.995  1.00  0.00     0.047 A 
BRANCH  15  18
ATOM     18  O   UNL     1     113.045 120.389 120.938  1.00  0.00    -0.508 OA
ATOM     19  H   UNL     1     113.578 119.663 120.474  1.00  0.00     0.293 HD
ENDBRANCH  15  18
ENDBRANCH   1  12
BRANCH   2  20
ATOM     20  O   UNL     1     107.128 121.971 119.413  1.00  0.00    -0.502 OA
ATOM     21  H   UNL     1     106.929 122.964 119.461  1.00  0.00     0.293 HD
ENDBRANCH   2  20
BRANCH   6  22
ATOM     22  O   UNL     1     102.210 120.328 120.630  1.00  0.00    -0.507 OA
ATOM     23  H   UNL     1     102.067 121.317 120.487  1.00  0.00     0.293 HD
ENDBRANCH   6  22
BRANCH   8  24
ATOM     24  O   UNL     1     103.156 117.410 124.302  1.00  0.00    -0.508 OA
ATOM     25  H   UNL     1     103.727 117.147 125.097  1.00  0.00     0.293 HD
ENDBRANCH   8  24
TORSDOF 5
ENDMDL
MODEL 7
REMARK VINA RESULT:    -5.767      3.425      6.553
REMARK INTER + INTRA:          -7.074
REMARK INTER:                  -6.796
REMARK INTRA:                  -0.278
REMARK UNBOUND:                -0.296
REMARK SMILES O=c1c(O)c(-c2ccc(O)cc2)oc2cc(O)cc(O)c12
REMARK SMILES IDX 5 1 3 2 2 3 1 4 21 5 19 6 18 7 16 8 15 9 14 10 13 11 6 12
REMARK SMILES IDX 7 13 8 14 9 15 12 16 11 17 10 18 4 20 20 22 17 24
REMARK H PARENT 10 19 4 21 20 23 17 25
REMARK Flexibility Score: inf
ROOT
ATOM      1  C   UNL     1     105.675 119.848 122.124  1.00  0.00     0.180 A 
ATOM      2  C   UNL     1     105.204 120.614 121.043  1.00  0.00     0.208 A 
ATOM      3  C   UNL     1     106.131 121.244 120.200  1.00  0.00     0.238 A 
ATOM      4  O   UNL     1     105.704 121.884 119.203  1.00  0.00    -0.285 OA
ATOM      5  C   UNL     1     107.518 121.115 120.454  1.00  0.00     0.111 A 
ATOM      6  C   UNL     1     108.544 121.744 119.688  1.00  0.00     0.134 A 
ATOM      7  C   UNL     1     109.887 121.440 119.951  1.00  0.00     0.093 A 
ATOM      8  C   UNL     1     110.240 120.583 120.993  1.00  0.00     0.123 A 
ATOM      9  C   UNL     1     109.246 120.010 121.787  1.00  0.00     0.094 A 
ATOM     10  C   UNL     1     107.898 120.265 121.526  1.00  0.00     0.146 A 
ATOM     11  O   UNL     1     106.982 119.691 122.298  1.00  0.00    -0.452 OA
ENDROOT
BRANCH   1  12
ATOM     12  C   UNL     1     104.759 119.173 123.072  1.00  0.00     0.021 A 
ATOM     13  C   UNL     1     104.214 117.908 122.789  1.00  0.00     0.016 A 
ATOM     14  C   UNL     1     103.332 117.300 123.688  1.00  0.00     0.047 A 
ATOM     15  C   UNL     1     102.975 117.952 124.872  1.00  0.00     0.115 A 
ATOM     16  C   UNL     1     104.379 119.831 124.254  1.00  0.00     0.016 A 
ATOM     17  C   UNL     1     103.498 119.221 125.152  1.00  0.00     0.047 A 
BRANCH  15  18
ATOM     18  O   UNL     1     102.097 117.334 125.760  1.00  0.00    -0.508 OA
ATOM     19  H   UNL     1     101.155 117.082 125.484  1.00  0.00     0.293 HD
ENDBRANCH  15  18
ENDBRANCH   1  12
BRANCH   2  20
ATOM     20  O   UNL     1     103.831 120.710 120.797  1.00  0.00    -0.502 OA
ATOM     21  H   UNL     1     103.424 120.491 119.895  1.00  0.00     0.293 HD
ENDBRANCH   2  20
BRANCH   6  22
ATOM     22  O   UNL     1     108.304 122.686 118.685  1.00  0.00    -0.507 OA
ATOM     23  H   UNL     1     107.634 122.572 117.938  1.00  0.00     0.293 HD
ENDBRANCH   6  22
BRANCH   8  24
ATOM     24  O   UNL     1     111.586 120.317 121.237  1.00  0.00    -0.508 OA
ATOM     25  H   UNL     1     112.007 120.501 122.140  1.00  0.00     0.293 HD
ENDBRANCH   8  24
TORSDOF 5
ENDMDL
MODEL 8
REMARK VINA RESULT:    -5.705      3.633      6.274
REMARK INTER + INTRA:          -7.001
REMARK INTER:                  -6.708
REMARK INTRA:                  -0.293
REMARK UNBOUND:                -0.296
REMARK SMILES O=c1c(O)c(-c2ccc(O)cc2)oc2cc(O)cc(O)c12
REMARK SMILES IDX 5 1 3 2 2 3 1 4 21 5 19 6 18 7 16 8 15 9 14 10 13 11 6 12
REMARK SMILES IDX 7 13 8 14 9 15 12 16 11 17 10 18 4 20 20 22 17 24
REMARK H PARENT 10 19 4 21 20 23 17 25
REMARK Flexibility Score: inf
ROOT
ATOM      1  C   UNL     1     105.916 119.818 122.330  1.00  0.00     0.180 A 
ATOM      2  C   UNL     1     107.292 119.597 122.511  1.00  0.00     0.208 A 
ATOM      3  C   UNL     1     108.202 120.229 121.650  1.00  0.00     0.238 A 
ATOM      4  O   UNL     1     109.434 120.070 121.851  1.00  0.00    -0.285 OA
ATOM      5  C   UNL     1     107.726 121.063 120.609  1.00  0.00     0.111 A 
ATOM      6  C   UNL     1     108.557 121.721 119.654  1.00  0.00     0.134 A 
ATOM      7  C   UNL     1     107.987 122.625 118.749  1.00  0.00     0.093 A 
ATOM      8  C   UNL     1     106.610 122.845 118.721  1.00  0.00     0.123 A 
ATOM      9  C   UNL     1     105.781 122.160 119.611  1.00  0.00     0.094 A 
ATOM     10  C   UNL     1     106.325 121.280 120.550  1.00  0.00     0.146 A 
ATOM     11  O   UNL     1     105.503 120.658 121.386  1.00  0.00    -0.452 OA
ENDROOT
BRANCH   1  12
ATOM     12  C   UNL     1     104.893 119.168 123.181  1.00  0.00     0.021 A 
ATOM     13  C   UNL     1     104.305 117.944 122.814  1.00  0.00     0.016 A 
ATOM     14  C   UNL     1     103.324 117.360 123.621  1.00  0.00     0.047 A 
ATOM     15  C   UNL     1     102.909 117.995 124.795  1.00  0.00     0.115 A 
ATOM     16  C   UNL     1     104.457 119.810 124.352  1.00  0.00     0.016 A 
ATOM     17  C   UNL     1     103.476 119.224 125.157  1.00  0.00     0.047 A 
BRANCH  15  18
ATOM     18  O   UNL     1     101.932 117.401 125.590  1.00  0.00    -0.508 OA
ATOM     19  H   UNL     1     100.964 117.354 125.294  1.00  0.00     0.293 HD
ENDBRANCH  15  18
ENDBRANCH   1  12
BRANCH   2  20
ATOM     20  O   UNL     1     107.741 118.788 123.559  1.00  0.00    -0.502 OA
ATOM     21  H   UNL     1     108.700 118.804 123.885  1.00  0.00     0.293 HD
ENDBRANCH   2  20
BRANCH   6  22
ATOM     22  O   UNL     1     109.932 121.504 119.535  1.00  0.00    -0.507 OA
ATOM     23  H   UNL     1     110.589 121.544 120.300  1.00  0.00     0.293 HD
ENDBRANCH   6  22
BRANCH   8  24
ATOM     24  O   UNL     1     106.075 123.739 117.796  1.00  0.00    -0.508 OA
ATOM     25  H   UNL     1     105.508 124.527 118.088  1.00  0.00     0.293 HD
ENDBRANCH   8  24
TORSDOF 5
ENDMDL
