MODEL 1
REMARK VINA RESULT:    -3.634      0.000      0.000
REMARK INTER + INTRA:          -4.719
REMARK INTER:                  -5.333
REMARK INTRA:                   0.614
REMARK UNBOUND:                 0.614
REMARK SMILES C=C1CC=CC(C)(C)CC=C(C)CCC1
REMARK SMILES IDX 2 1 1 2 15 3 14 4 13 5 11 6 12 7 10 8 3 10 4 11 5 12 6 13
REMARK SMILES IDX 7 14 8 15 9 16
REMARK H PARENT
REMARK Flexibility Score: 60.00
ROOT
ATOM      1  C   UNL     1      32.245  11.296  30.582  1.00  0.00    -0.074 C 
ATOM      2  C   UNL     1      33.074  12.330  30.803  1.00  0.00     0.008 C 
ENDROOT
BRANCH   1   3
ATOM      3  C   UNL     1      31.571  10.598  31.748  1.00  0.00     0.031 C 
BRANCH   3   4
ATOM      4  C   UNL     1      32.518   9.664  32.527  1.00  0.00     0.009 C 
BRANCH   4   5
ATOM      5  C   UNL     1      32.089   8.182  32.514  1.00  0.00     0.030 C 
BRANCH   5   6
ATOM      6  C   UNL     1      30.577   7.979  32.492  1.00  0.00    -0.077 C 
ATOM      7  C   UNL     1      29.783   8.278  33.743  1.00  0.00     0.039 C 
ATOM      8  C   UNL     1      29.904   7.404  31.464  1.00  0.00    -0.027 CG0
ATOM      9  G   UNL     1      30.488   6.864  30.172  1.00  0.00     0.000 G0
ENDBRANCH   5   6
ENDBRANCH   4   5
ENDBRANCH   3   4
ENDBRANCH   1   3
BRANCH   1  10
ATOM     10  C   UNL     1      31.885  10.910  29.167  1.00  0.00     0.057 C 
BRANCH  10  11
ATOM     11  C   UNL     1      31.560   9.448  29.095  1.00  0.00    -0.026 C 
ATOM     12  C   UNL     1      30.308   9.016  28.872  1.00  0.00    -0.024 C 
BRANCH  12  13
ATOM     13  C   UNL     1      29.930   7.542  28.894  1.00  0.00    -0.014 C 
ATOM     14  C   UNL     1      30.497   6.833  27.643  1.00  0.00     0.016 C 
ATOM     15  C   UNL     1      28.390   7.417  28.847  1.00  0.00     0.016 C 
BRANCH  13  16
ATOM     16  C   UNL     1      30.489   6.852  30.171  1.00  0.00     0.038 CG0
ATOM     17  G   UNL     1      29.922   7.425  31.456  1.00  0.00     0.000 G0
ENDBRANCH  13  16
ENDBRANCH  12  13
ENDBRANCH  10  11
ENDBRANCH   1  10
TORSDOF 0
ENDMDL
MODEL 2
REMARK VINA RESULT:    -3.522      2.969      5.289
REMARK INTER + INTRA:          -4.556
REMARK INTER:                  -5.158
REMARK INTRA:                   0.602
REMARK UNBOUND:                 0.614
REMARK SMILES C=C1CC=CC(C)(C)CC=C(C)CCC1
REMARK SMILES IDX 2 1 1 2 15 3 14 4 13 5 11 6 12 7 10 8 3 10 4 11 5 12 6 13
REMARK SMILES IDX 7 14 8 15 9 16
REMARK H PARENT
REMARK Flexibility Score: 60.00
ROOT
ATOM      1  C   UNL     1      32.196  11.362  32.808  1.00  0.00    -0.074 C 
ATOM      2  C   UNL     1      31.830  12.235  31.853  1.00  0.00     0.008 C 
ENDROOT
BRANCH   1   3
ATOM      3  C   UNL     1      32.773  10.013  32.426  1.00  0.00     0.031 C 
BRANCH   3   4
ATOM      4  C   UNL     1      31.699   8.926  32.224  1.00  0.00     0.009 C 
BRANCH   4   5
ATOM      5  C   UNL     1      31.889   7.683  33.117  1.00  0.00     0.030 C 
BRANCH   5   6
ATOM      6  C   UNL     1      30.585   7.123  33.678  1.00  0.00    -0.077 C 
ATOM      7  C   UNL     1      29.570   6.540  32.720  1.00  0.00     0.039 C 
ATOM      8  C   UNL     1      30.202   7.243  34.974  1.00  0.00    -0.027 CG0
ATOM      9  G   UNL     1      30.959   7.932  36.094  1.00  0.00     0.000 G0
ENDBRANCH   5   6
ENDBRANCH   4   5
ENDBRANCH   3   4
ENDBRANCH   1   3
BRANCH   1  10
ATOM     10  C   UNL     1      32.151  11.774  34.261  1.00  0.00     0.057 C 
BRANCH  10  11
ATOM     11  C   UNL     1      31.847  10.588  35.126  1.00  0.00    -0.026 C 
ATOM     12  C   UNL     1      30.621  10.387  35.639  1.00  0.00    -0.024 C 
BRANCH  12  13
ATOM     13  C   UNL     1      30.308   9.249  36.600  1.00  0.00    -0.014 C 
ATOM     14  C   UNL     1      28.778   9.060  36.714  1.00  0.00     0.016 C 
ATOM     15  C   UNL     1      30.841   9.616  38.004  1.00  0.00     0.016 C 
BRANCH  13  16
ATOM     16  C   UNL     1      30.953   7.923  36.107  1.00  0.00     0.038 CG0
ATOM     17  G   UNL     1      30.190   7.276  34.966  1.00  0.00     0.000 G0
ENDBRANCH  13  16
ENDBRANCH  12  13
ENDBRANCH  10  11
ENDBRANCH   1  10
TORSDOF 0
ENDMDL
MODEL 3
REMARK VINA RESULT:    -3.494      2.557      4.329
REMARK INTER + INTRA:          -4.515
REMARK INTER:                  -5.048
REMARK INTRA:                   0.533
REMARK UNBOUND:                 0.614
REMARK SMILES C=C1CC=CC(C)(C)CC=C(C)CCC1
REMARK SMILES IDX 2 1 1 2 15 3 14 4 13 5 11 6 12 7 10 8 3 10 4 11 5 12 6 13
REMARK SMILES IDX 7 14 8 15 9 16
REMARK H PARENT
REMARK Flexibility Score: 60.00
ROOT
ATOM      1  C   UNL     1      31.518   9.765  30.770  1.00  0.00    -0.074 C 
ATOM      2  C   UNL     1      31.975   9.516  32.010  1.00  0.00     0.008 C 
ENDROOT
BRANCH   1   3
ATOM      3  C   UNL     1      30.437   8.888  30.168  1.00  0.00     0.031 C 
BRANCH   3   4
ATOM      4  C   UNL     1      30.953   7.509  29.714  1.00  0.00     0.009 C 
BRANCH   4   5
ATOM      5  C   UNL     1      31.074   7.357  28.183  1.00  0.00     0.030 C 
BRANCH   5   6
ATOM      6  C   UNL     1      29.829   7.798  27.420  1.00  0.00    -0.077 C 
ATOM      7  C   UNL     1      28.558   6.992  27.571  1.00  0.00     0.039 C 
ATOM      8  C   UNL     1      29.818   8.788  26.493  1.00  0.00    -0.027 CG0
ATOM      9  G   UNL     1      30.993   9.631  26.037  1.00  0.00     0.000 G0
ENDBRANCH   5   6
ENDBRANCH   4   5
ENDBRANCH   3   4
ENDBRANCH   1   3
BRANCH   1  10
ATOM     10  C   UNL     1      31.992  10.991  30.025  1.00  0.00     0.057 C 
BRANCH  10  11
ATOM     11  C   UNL     1      31.903  10.764  28.545  1.00  0.00    -0.026 C 
ATOM     12  C   UNL     1      31.021  11.432  27.783  1.00  0.00    -0.024 C 
BRANCH  12  13
ATOM     13  C   UNL     1      30.840  11.153  26.298  1.00  0.00    -0.014 C 
ATOM     14  C   UNL     1      31.889  11.940  25.481  1.00  0.00     0.016 C 
ATOM     15  C   UNL     1      29.440  11.643  25.863  1.00  0.00     0.016 C 
BRANCH  13  16
ATOM     16  C   UNL     1      30.995   9.633  26.005  1.00  0.00     0.038 CG0
ATOM     17  G   UNL     1      29.810   8.810  26.473  1.00  0.00     0.000 G0
ENDBRANCH  13  16
ENDBRANCH  12  13
ENDBRANCH  10  11
ENDBRANCH   1  10
TORSDOF 0
ENDMDL
MODEL 4
REMARK VINA RESULT:    -3.461      1.570      3.338
REMARK INTER + INTRA:          -4.467
REMARK INTER:                  -5.349
REMARK INTRA:                   0.882
REMARK UNBOUND:                 0.614
REMARK SMILES C=C1CC=CC(C)(C)CC=C(C)CCC1
REMARK SMILES IDX 2 1 1 2 15 3 14 4 13 5 11 6 12 7 10 8 3 10 4 11 5 12 6 13
REMARK SMILES IDX 7 14 8 15 9 16
REMARK H PARENT
REMARK Flexibility Score: 60.00
ROOT
ATOM      1  C   UNL     1      32.222  10.572  32.942  1.00  0.00    -0.074 C 
ATOM      2  C   UNL     1      31.955  10.896  34.219  1.00  0.00     0.008 C 
ENDROOT
BRANCH   1   3
ATOM      3  C   UNL     1      32.127   9.128  32.488  1.00  0.00     0.031 C 
BRANCH   3   4
ATOM      4  C   UNL     1      30.793   8.796  31.790  1.00  0.00     0.009 C 
BRANCH   4   5
ATOM      5  C   UNL     1      30.885   7.634  30.779  1.00  0.00     0.030 C 
BRANCH   5   6
ATOM      6  C   UNL     1      30.013   7.824  29.542  1.00  0.00    -0.077 C 
ATOM      7  C   UNL     1      28.760   6.990  29.398  1.00  0.00     0.039 C 
ATOM      8  C   UNL     1      30.360   8.593  28.480  1.00  0.00    -0.027 CG0
ATOM      9  G   UNL     1      31.637   9.392  28.304  1.00  0.00     0.000 G0
ENDBRANCH   5   6
ENDBRANCH   4   5
ENDBRANCH   3   4
ENDBRANCH   1   3
BRANCH   1  10
ATOM     10  C   UNL     1      32.494  11.660  31.931  1.00  0.00     0.057 C 
BRANCH  10  11
ATOM     11  C   UNL     1      32.436  11.102  30.540  1.00  0.00    -0.026 C 
ATOM     12  C   UNL     1      31.559  11.563  29.633  1.00  0.00    -0.024 C 
BRANCH  12  13
ATOM     13  C   UNL     1      31.409  10.950  28.248  1.00  0.00    -0.014 C 
ATOM     14  C   UNL     1      32.432  11.583  27.277  1.00  0.00     0.016 C 
ATOM     15  C   UNL     1      29.994  11.264  27.711  1.00  0.00     0.016 C 
BRANCH  13  16
ATOM     16  C   UNL     1      31.637   9.413  28.303  1.00  0.00     0.038 CG0
ATOM     17  G   UNL     1      30.354   8.625  28.483  1.00  0.00     0.000 G0
ENDBRANCH  13  16
ENDBRANCH  12  13
ENDBRANCH  10  11
ENDBRANCH   1  10
TORSDOF 0
ENDMDL
MODEL 5
REMARK VINA RESULT:    -3.438      1.862      4.327
REMARK INTER + INTRA:          -4.432
REMARK INTER:                  -5.014
REMARK INTRA:                   0.581
REMARK UNBOUND:                 0.614
REMARK SMILES C=C1CC=CC(C)(C)CC=C(C)CCC1
REMARK SMILES IDX 2 1 1 2 15 3 14 4 13 5 11 6 12 7 10 8 3 10 4 11 5 12 6 13
REMARK SMILES IDX 7 14 8 15 9 16
REMARK H PARENT
REMARK Flexibility Score: 60.00
ROOT
ATOM      1  C   UNL     1      29.826   7.617  29.659  1.00  0.00    -0.074 C 
ATOM      2  C   UNL     1      28.661   7.000  29.396  1.00  0.00     0.008 C 
ENDROOT
BRANCH   1   3
ATOM      3  C   UNL     1      30.851   6.956  30.560  1.00  0.00     0.031 C 
BRANCH   3   4
ATOM      4  C   UNL     1      30.589   7.198  32.060  1.00  0.00     0.009 C 
BRANCH   4   5
ATOM      5  C   UNL     1      31.831   7.665  32.847  1.00  0.00     0.030 C 
BRANCH   5   6
ATOM      6  C   UNL     1      31.536   8.762  33.866  1.00  0.00    -0.077 C 
ATOM      7  C   UNL     1      30.569   8.471  34.991  1.00  0.00     0.039 C 
ATOM      8  C   UNL     1      31.973  10.041  33.751  1.00  0.00    -0.027 CG0
ATOM      9  G   UNL     1      32.811  10.628  32.631  1.00  0.00     0.000 G0
ENDBRANCH   5   6
ENDBRANCH   4   5
ENDBRANCH   3   4
ENDBRANCH   1   3
BRANCH   1  10
ATOM     10  C   UNL     1      30.168   8.910  28.956  1.00  0.00     0.057 C 
BRANCH  10  11
ATOM     11  C   UNL     1      30.436   9.990  29.961  1.00  0.00    -0.026 C 
ATOM     12  C   UNL     1      31.682  10.267  30.381  1.00  0.00    -0.024 C 
BRANCH  12  13
ATOM     13  C   UNL     1      31.976  11.287  31.471  1.00  0.00    -0.014 C 
ATOM     14  C   UNL     1      30.653  11.836  32.051  1.00  0.00     0.016 C 
ATOM     15  C   UNL     1      32.748  12.475  30.852  1.00  0.00     0.016 C 
BRANCH  13  16
ATOM     16  C   UNL     1      32.808  10.640  32.615  1.00  0.00     0.038 CG0
ATOM     17  G   UNL     1      31.949  10.055  33.721  1.00  0.00     0.000 G0
ENDBRANCH  13  16
ENDBRANCH  12  13
ENDBRANCH  10  11
ENDBRANCH   1  10
TORSDOF 0
ENDMDL
MODEL 6
REMARK VINA RESULT:    -3.423      3.000      5.441
REMARK INTER + INTRA:          -4.410
REMARK INTER:                  -4.731
REMARK INTRA:                   0.321
REMARK UNBOUND:                 0.614
REMARK SMILES C=C1CC=CC(C)(C)CC=C(C)CCC1
REMARK SMILES IDX 2 1 1 2 15 3 14 4 13 5 11 6 12 7 10 8 3 10 4 11 5 12 6 13
REMARK SMILES IDX 7 14 8 15 9 16
REMARK H PARENT
REMARK Flexibility Score: 60.00
ROOT
ATOM      1  C   UNL     1      30.225   9.681  37.501  1.00  0.00    -0.074 C 
ATOM      2  C   UNL     1      28.967  10.143  37.608  1.00  0.00     0.008 C 
ENDROOT
BRANCH   1   3
ATOM      3  C   UNL     1      30.500   8.193  37.598  1.00  0.00     0.031 C 
BRANCH   3   4
ATOM      4  C   UNL     1      29.817   7.373  36.485  1.00  0.00     0.009 C 
BRANCH   4   5
ATOM      5  C   UNL     1      30.782   6.875  35.390  1.00  0.00     0.030 C 
BRANCH   5   6
ATOM      6  C   UNL     1      30.233   7.019  33.973  1.00  0.00    -0.077 C 
ATOM      7  C   UNL     1      29.144   6.076  33.515  1.00  0.00     0.039 C 
ATOM      8  C   UNL     1      30.758   7.848  33.037  1.00  0.00    -0.027 CG0
ATOM      9  G   UNL     1      31.953   8.769  33.192  1.00  0.00     0.000 G0
ENDBRANCH   5   6
ENDBRANCH   4   5
ENDBRANCH   3   4
ENDBRANCH   1   3
BRANCH   1  10
ATOM     10  C   UNL     1      31.349  10.631  37.159  1.00  0.00     0.057 C 
BRANCH  10  11
ATOM     11  C   UNL     1      31.866  10.346  35.781  1.00  0.00    -0.026 C 
ATOM     12  C   UNL     1      31.153  10.654  34.684  1.00  0.00    -0.024 C 
BRANCH  12  13
ATOM     13  C   UNL     1      31.607  10.288  33.278  1.00  0.00    -0.014 C 
ATOM     14  C   UNL     1      32.847  11.125  32.888  1.00  0.00     0.016 C 
ATOM     15  C   UNL     1      30.476  10.630  32.281  1.00  0.00     0.016 C 
BRANCH  13  16
ATOM     16  C   UNL     1      31.962   8.776  33.195  1.00  0.00     0.038 CG0
ATOM     17  G   UNL     1      30.745   7.885  33.034  1.00  0.00     0.000 G0
ENDBRANCH  13  16
ENDBRANCH  12  13
ENDBRANCH  10  11
ENDBRANCH   1  10
TORSDOF 0
ENDMDL
MODEL 7
REMARK VINA RESULT:    -3.277      2.169      4.293
REMARK INTER + INTRA:          -4.196
REMARK INTER:                  -4.688
REMARK INTRA:                   0.492
REMARK UNBOUND:                 0.614
REMARK SMILES C=C1CC=CC(C)(C)CC=C(C)CCC1
REMARK SMILES IDX 2 1 1 2 15 3 14 4 13 5 11 6 12 7 10 8 3 10 4 11 5 12 6 13
REMARK SMILES IDX 7 14 8 15 9 16
REMARK H PARENT
REMARK Flexibility Score: 60.00
ROOT
ATOM      1  C   UNL     1      30.303   7.338  29.612  1.00  0.00    -0.074 C 
ATOM      2  C   UNL     1      29.009   6.980  29.689  1.00  0.00     0.008 C 
ENDROOT
BRANCH   1   3
ATOM      3  C   UNL     1      31.185   7.273  30.843  1.00  0.00     0.031 C 
BRANCH   3   4
ATOM      4  C   UNL     1      30.959   8.447  31.817  1.00  0.00     0.009 C 
BRANCH   4   5
ATOM      5  C   UNL     1      31.958   9.609  31.642  1.00  0.00     0.030 C 
BRANCH   5   6
ATOM      6  C   UNL     1      31.313  10.991  31.712  1.00  0.00    -0.077 C 
ATOM      7  C   UNL     1      30.333  11.282  32.826  1.00  0.00     0.039 C 
ATOM      8  C   UNL     1      31.446  11.939  30.752  1.00  0.00    -0.027 CG0
ATOM      9  G   UNL     1      32.231  11.832  29.458  1.00  0.00     0.000 G0
ENDBRANCH   5   6
ENDBRANCH   4   5
ENDBRANCH   3   4
ENDBRANCH   1   3
BRANCH   1  10
ATOM     10  C   UNL     1      30.908   7.684  28.272  1.00  0.00     0.057 C 
BRANCH  10  11
ATOM     11  C   UNL     1      31.511   9.057  28.315  1.00  0.00    -0.026 C 
ATOM     12  C   UNL     1      30.748  10.162  28.253  1.00  0.00    -0.024 C 
BRANCH  12  13
ATOM     13  C   UNL     1      31.336  11.564  28.194  1.00  0.00    -0.014 C 
ATOM     14  C   UNL     1      30.200  12.611  28.139  1.00  0.00     0.016 C 
ATOM     15  C   UNL     1      32.169  11.706  26.899  1.00  0.00     0.016 C 
BRANCH  13  16
ATOM     16  C   UNL     1      32.225  11.838  29.441  1.00  0.00     0.038 CG0
ATOM     17  G   UNL     1      31.432  11.929  30.731  1.00  0.00     0.000 G0
ENDBRANCH  13  16
ENDBRANCH  12  13
ENDBRANCH  10  11
ENDBRANCH   1  10
TORSDOF 0
ENDMDL
MODEL 8
REMARK VINA RESULT:    -3.268      3.008      4.629
REMARK INTER + INTRA:          -4.182
REMARK INTER:                  -4.632
REMARK INTRA:                   0.450
REMARK UNBOUND:                 0.614
REMARK SMILES C=C1CC=CC(C)(C)CC=C(C)CCC1
REMARK SMILES IDX 2 1 1 2 15 3 14 4 13 5 11 6 12 7 10 8 3 10 4 11 5 12 6 13
REMARK SMILES IDX 7 14 8 15 9 16
REMARK H PARENT
REMARK Flexibility Score: 60.00
ROOT
ATOM      1  C   UNL     1      30.910  11.578  24.460  1.00  0.00    -0.074 C 
ATOM      2  C   UNL     1      31.633  12.215  23.523  1.00  0.00     0.008 C 
ENDROOT
BRANCH   1   3
ATOM      3  C   UNL     1      30.776  12.171  25.850  1.00  0.00     0.031 C 
BRANCH   3   4
ATOM      4  C   UNL     1      32.110  12.225  26.621  1.00  0.00     0.009 C 
BRANCH   4   5
ATOM      5  C   UNL     1      32.472  10.910  27.342  1.00  0.00     0.030 C 
BRANCH   5   6
ATOM      6  C   UNL     1      31.588  10.606  28.548  1.00  0.00    -0.077 C 
ATOM      7  C   UNL     1      31.542  11.598  29.687  1.00  0.00     0.039 C 
ATOM      8  C   UNL     1      30.945   9.427  28.739  1.00  0.00    -0.027 CG0
ATOM      9  G   UNL     1      30.967   8.212  27.831  1.00  0.00     0.000 G0
ENDBRANCH   5   6
ENDBRANCH   4   5
ENDBRANCH   3   4
ENDBRANCH   1   3
BRANCH   1  10
ATOM     10  C   UNL     1      30.130  10.338  24.094  1.00  0.00     0.057 C 
BRANCH  10  11
ATOM     11  C   UNL     1      30.344   9.268  25.123  1.00  0.00    -0.026 C 
ATOM     12  C   UNL     1      29.385   8.940  26.006  1.00  0.00    -0.024 C 
BRANCH  12  13
ATOM     13  C   UNL     1      29.607   7.931  27.123  1.00  0.00    -0.014 C 
ATOM     14  C   UNL     1      29.609   6.497  26.547  1.00  0.00     0.016 C 
ATOM     15  C   UNL     1      28.437   8.031  28.130  1.00  0.00     0.016 C 
BRANCH  13  16
ATOM     16  C   UNL     1      30.961   8.197  27.840  1.00  0.00     0.038 CG0
ATOM     17  G   UNL     1      30.934   9.425  28.731  1.00  0.00     0.000 G0
ENDBRANCH  13  16
ENDBRANCH  12  13
ENDBRANCH  10  11
ENDBRANCH   1  10
TORSDOF 0
ENDMDL
MODEL 9
REMARK VINA RESULT:    -3.118      3.058      5.469
REMARK INTER + INTRA:          -3.963
REMARK INTER:                  -4.629
REMARK INTRA:                   0.666
REMARK UNBOUND:                 0.614
REMARK SMILES C=C1CC=CC(C)(C)CC=C(C)CCC1
REMARK SMILES IDX 2 1 1 2 15 3 14 4 13 5 11 6 12 7 10 8 3 10 4 11 5 12 6 13
REMARK SMILES IDX 7 14 8 15 9 16
REMARK H PARENT
REMARK Flexibility Score: 60.00
ROOT
ATOM      1  C   UNL     1      30.274   9.498  25.601  1.00  0.00    -0.074 C 
ATOM      2  C   UNL     1      30.777   9.953  24.440  1.00  0.00     0.008 C 
ENDROOT
BRANCH   1   3
ATOM      3  C   UNL     1      28.775   9.508  25.836  1.00  0.00     0.031 C 
BRANCH   3   4
ATOM      4  C   UNL     1      28.247  10.868  26.336  1.00  0.00     0.009 C 
BRANCH   4   5
ATOM      5  C   UNL     1      28.274  11.026  27.870  1.00  0.00     0.030 C 
BRANCH   5   6
ATOM      6  C   UNL     1      29.021  12.268  28.348  1.00  0.00    -0.077 C 
ATOM      7  C   UNL     1      29.074  13.479  27.445  1.00  0.00     0.039 C 
ATOM      8  C   UNL     1      29.773  12.313  29.476  1.00  0.00    -0.027 CG0
ATOM      9  G   UNL     1      30.021  11.186  30.460  1.00  0.00     0.000 G0
ENDBRANCH   5   6
ENDBRANCH   4   5
ENDBRANCH   3   4
ENDBRANCH   1   3
BRANCH   1  10
ATOM     10  C   UNL     1      31.189   8.860  26.619  1.00  0.00     0.057 C 
BRANCH  10  11
ATOM     11  C   UNL     1      31.444   9.808  27.752  1.00  0.00    -0.026 C 
ATOM     12  C   UNL     1      31.221   9.454  29.029  1.00  0.00    -0.024 C 
BRANCH  12  13
ATOM     13  C   UNL     1      31.375  10.425  30.191  1.00  0.00    -0.014 C 
ATOM     14  C   UNL     1      32.487  11.452  29.878  1.00  0.00     0.016 C 
ATOM     15  C   UNL     1      31.803   9.638  31.450  1.00  0.00     0.016 C 
BRANCH  13  16
ATOM     16  C   UNL     1      30.040  11.180  30.454  1.00  0.00     0.038 CG0
ATOM     17  G   UNL     1      29.790  12.310  29.474  1.00  0.00     0.000 G0
ENDBRANCH  13  16
ENDBRANCH  12  13
ENDBRANCH  10  11
ENDBRANCH   1  10
TORSDOF 0
ENDMDL
