MODEL 1
REMARK VINA RESULT:    -6.227      0.000      0.000
REMARK INTER + INTRA:          -6.227
REMARK INTER:                  -6.227
REMARK INTRA:                   0.000
REMARK UNBOUND:                 0.000
REMARK SMILES C=C1CCCC(C)(C)[C@@]12CC=C(C)CC2
REMARK SMILES IDX 13 1 12 2 11 3 10 4 9 5 15 6 14 7 2 8 1 9 3 10 4 11 5 12
REMARK SMILES IDX 6 13 7 14 8 15
REMARK H PARENT
REMARK Flexibility Score: inf
ROOT
ATOM      1  C   UNL     1     103.087 107.113 122.515  1.00  0.00     0.039 C 
ATOM      2  C   UNL     1     102.646 106.616 123.865  1.00  0.00    -0.077 C 
ATOM      3  C   UNL     1     101.912 107.422 124.650  1.00  0.00    -0.027 C 
ATOM      4  C   UNL     1     101.393 106.957 125.980  1.00  0.00     0.039 C 
ATOM      5  C   UNL     1     102.435 106.064 126.723  1.00  0.00    -0.000 C 
ATOM      6  C   UNL     1     102.670 104.847 125.759  1.00  0.00     0.017 C 
ATOM      7  C   UNL     1     103.082 105.236 124.314  1.00  0.00     0.031 C 
ATOM      8  C   UNL     1     103.717 106.894 126.988  1.00  0.00    -0.070 C 
ATOM      9  C   UNL     1     104.965 106.478 126.681  1.00  0.00     0.008 C 
ATOM     10  C   UNL     1     103.578 108.102 127.885  1.00  0.00     0.031 C 
ATOM     11  C   UNL     1     103.056 107.654 129.248  1.00  0.00     0.005 C 
ATOM     12  C   UNL     1     101.763 106.830 129.121  1.00  0.00     0.008 C 
ATOM     13  C   UNL     1     101.882 105.602 128.154  1.00  0.00    -0.026 C 
ATOM     14  C   UNL     1     102.825 104.552 128.804  1.00  0.00     0.012 C 
ATOM     15  C   UNL     1     100.472 104.953 128.085  1.00  0.00     0.012 C 
ENDROOT
TORSDOF 0
ENDMDL
MODEL 2
REMARK VINA RESULT:    -6.219      4.128      5.527
REMARK INTER + INTRA:          -6.219
REMARK INTER:                  -6.219
REMARK INTRA:                   0.000
REMARK UNBOUND:                 0.000
REMARK SMILES C=C1CCCC(C)(C)[C@@]12CC=C(C)CC2
REMARK SMILES IDX 13 1 12 2 11 3 10 4 9 5 15 6 14 7 2 8 1 9 3 10 4 11 5 12
REMARK SMILES IDX 6 13 7 14 8 15
REMARK H PARENT
REMARK Flexibility Score: inf
ROOT
ATOM      1  C   UNL     1     105.611 103.088 122.368  1.00  0.00     0.039 C 
ATOM      2  C   UNL     1     106.047 102.660 123.743  1.00  0.00    -0.077 C 
ATOM      3  C   UNL     1     105.206 101.935 124.499  1.00  0.00    -0.027 C 
ATOM      4  C   UNL     1     105.610 101.430 125.854  1.00  0.00     0.039 C 
ATOM      5  C   UNL     1     106.471 102.479 126.625  1.00  0.00    -0.000 C 
ATOM      6  C   UNL     1     107.729 102.703 125.714  1.00  0.00     0.017 C 
ATOM      7  C   UNL     1     107.406 103.101 124.248  1.00  0.00     0.031 C 
ATOM      8  C   UNL     1     105.632 103.765 126.839  1.00  0.00    -0.070 C 
ATOM      9  C   UNL     1     106.062 105.009 126.537  1.00  0.00     0.008 C 
ATOM     10  C   UNL     1     104.384 103.636 127.682  1.00  0.00     0.031 C 
ATOM     11  C   UNL     1     104.770 103.128 129.070  1.00  0.00     0.005 C 
ATOM     12  C   UNL     1     105.598 101.834 128.994  1.00  0.00     0.008 C 
ATOM     13  C   UNL     1     106.868 101.941 128.081  1.00  0.00    -0.026 C 
ATOM     14  C   UNL     1     107.888 102.890 128.767  1.00  0.00     0.012 C 
ATOM     15  C   UNL     1     107.518 100.530 128.055  1.00  0.00     0.012 C 
ENDROOT
TORSDOF 0
ENDMDL
MODEL 3
REMARK VINA RESULT:    -6.208      5.443      7.755
REMARK INTER + INTRA:          -6.208
REMARK INTER:                  -6.208
REMARK INTRA:                   0.000
REMARK UNBOUND:                 0.000
REMARK SMILES C=C1CCCC(C)(C)[C@@]12CC=C(C)CC2
REMARK SMILES IDX 13 1 12 2 11 3 10 4 9 5 15 6 14 7 2 8 1 9 3 10 4 11 5 12
REMARK SMILES IDX 6 13 7 14 8 15
REMARK H PARENT
REMARK Flexibility Score: inf
ROOT
ATOM      1  C   UNL     1     109.315 105.616 122.276  1.00  0.00     0.039 C 
ATOM      2  C   UNL     1     109.765 106.040 123.647  1.00  0.00    -0.077 C 
ATOM      3  C   UNL     1     110.497 105.191 124.387  1.00  0.00    -0.027 C 
ATOM      4  C   UNL     1     111.025 105.583 125.736  1.00  0.00     0.039 C 
ATOM      5  C   UNL     1     109.992 106.444 126.529  1.00  0.00    -0.000 C 
ATOM      6  C   UNL     1     109.761 107.710 125.629  1.00  0.00     0.017 C 
ATOM      7  C   UNL     1     109.340 107.398 124.168  1.00  0.00     0.031 C 
ATOM      8  C   UNL     1     108.705 105.611 126.757  1.00  0.00    -0.070 C 
ATOM      9  C   UNL     1     107.459 106.050 126.477  1.00  0.00     0.008 C 
ATOM     10  C   UNL     1     108.840 104.357 127.590  1.00  0.00     0.031 C 
ATOM     11  C   UNL     1     109.371 104.731 128.973  1.00  0.00     0.005 C 
ATOM     12  C   UNL     1     110.669 105.552 128.882  1.00  0.00     0.008 C 
ATOM     13  C   UNL     1     110.554 106.829 127.979  1.00  0.00    -0.026 C 
ATOM     14  C   UNL     1     109.621 107.850 128.686  1.00  0.00     0.012 C 
ATOM     15  C   UNL     1     111.968 107.471 127.936  1.00  0.00     0.012 C 
ENDROOT
TORSDOF 0
ENDMDL
MODEL 4
REMARK VINA RESULT:    -6.147      4.010      5.410
REMARK INTER + INTRA:          -6.147
REMARK INTER:                  -6.147
REMARK INTRA:                   0.000
REMARK UNBOUND:                 0.000
REMARK SMILES C=C1CCCC(C)(C)[C@@]12CC=C(C)CC2
REMARK SMILES IDX 13 1 12 2 11 3 10 4 9 5 15 6 14 7 2 8 1 9 3 10 4 11 5 12
REMARK SMILES IDX 6 13 7 14 8 15
REMARK H PARENT
REMARK Flexibility Score: inf
ROOT
ATOM      1  C   UNL     1     106.770 109.267 122.349  1.00  0.00     0.039 C 
ATOM      2  C   UNL     1     106.346 109.730 123.716  1.00  0.00    -0.077 C 
ATOM      3  C   UNL     1     107.187 110.487 124.440  1.00  0.00    -0.027 C 
ATOM      4  C   UNL     1     106.793 111.028 125.783  1.00  0.00     0.039 C 
ATOM      5  C   UNL     1     105.954 109.993 126.597  1.00  0.00    -0.000 C 
ATOM      6  C   UNL     1     104.687 109.727 125.708  1.00  0.00     0.017 C 
ATOM      7  C   UNL     1     104.998 109.290 124.251  1.00  0.00     0.031 C 
ATOM      8  C   UNL     1     106.811 108.723 126.838  1.00  0.00    -0.070 C 
ATOM      9  C   UNL     1     106.392 107.466 126.579  1.00  0.00     0.008 C 
ATOM     10  C   UNL     1     108.067 108.892 127.662  1.00  0.00     0.031 C 
ATOM     11  C   UNL     1     107.692 109.437 129.039  1.00  0.00     0.005 C 
ATOM     12  C   UNL     1     106.848 110.719 128.934  1.00  0.00     0.008 C 
ATOM     13  C   UNL     1     105.569 110.570 128.040  1.00  0.00    -0.026 C 
ATOM     14  C   UNL     1     104.567 109.630 128.767  1.00  0.00     0.012 C 
ATOM     15  C   UNL     1     104.902 111.972 127.981  1.00  0.00     0.012 C 
ENDROOT
TORSDOF 0
ENDMDL
MODEL 5
REMARK VINA RESULT:    -6.100      1.185      2.422
REMARK INTER + INTRA:          -6.100
REMARK INTER:                  -6.100
REMARK INTRA:                   0.000
REMARK UNBOUND:                 0.000
REMARK SMILES C=C1CCCC(C)(C)[C@@]12CC=C(C)CC2
REMARK SMILES IDX 13 1 12 2 11 3 10 4 9 5 15 6 14 7 2 8 1 9 3 10 4 11 5 12
REMARK SMILES IDX 6 13 7 14 8 15
REMARK H PARENT
REMARK Flexibility Score: inf
ROOT
ATOM      1  C   UNL     1     104.374 108.648 123.332  1.00  0.00     0.039 C 
ATOM      2  C   UNL     1     103.577 108.125 124.496  1.00  0.00    -0.077 C 
ATOM      3  C   UNL     1     104.141 108.096 125.715  1.00  0.00    -0.027 C 
ATOM      4  C   UNL     1     103.374 107.643 126.922  1.00  0.00     0.039 C 
ATOM      5  C   UNL     1     102.437 106.440 126.589  1.00  0.00    -0.000 C 
ATOM      6  C   UNL     1     101.466 106.991 125.484  1.00  0.00     0.017 C 
ATOM      7  C   UNL     1     102.175 107.606 124.247  1.00  0.00     0.031 C 
ATOM      8  C   UNL     1     103.298 105.243 126.108  1.00  0.00    -0.070 C 
ATOM      9  C   UNL     1     103.058 104.544 124.978  1.00  0.00     0.008 C 
ATOM     10  C   UNL     1     104.282 104.667 127.099  1.00  0.00     0.031 C 
ATOM     11  C   UNL     1     103.523 104.191 128.336  1.00  0.00     0.005 C 
ATOM     12  C   UNL     1     102.638 105.303 128.924  1.00  0.00     0.008 C 
ATOM     13  C   UNL     1     101.648 105.944 127.892  1.00  0.00    -0.026 C 
ATOM     14  C   UNL     1     100.569 104.889 127.523  1.00  0.00     0.012 C 
ATOM     15  C   UNL     1     100.912 107.093 128.635  1.00  0.00     0.012 C 
ENDROOT
TORSDOF 0
ENDMDL
MODEL 6
REMARK VINA RESULT:    -6.001      2.007      4.122
REMARK INTER + INTRA:          -6.001
REMARK INTER:                  -6.001
REMARK INTRA:                   0.000
REMARK UNBOUND:                 0.000
REMARK SMILES C=C1CCCC(C)(C)[C@@]12CC=C(C)CC2
REMARK SMILES IDX 13 1 12 2 11 3 10 4 9 5 15 6 14 7 2 8 1 9 3 10 4 11 5 12
REMARK SMILES IDX 6 13 7 14 8 15
REMARK H PARENT
REMARK Flexibility Score: inf
ROOT
ATOM      1  C   UNL     1     105.229 101.569 127.244  1.00  0.00     0.039 C 
ATOM      2  C   UNL     1     104.914 103.018 127.495  1.00  0.00    -0.077 C 
ATOM      3  C   UNL     1     104.501 103.396 128.716  1.00  0.00    -0.027 C 
ATOM      4  C   UNL     1     104.230 104.837 129.040  1.00  0.00     0.039 C 
ATOM      5  C   UNL     1     103.552 105.577 127.845  1.00  0.00    -0.000 C 
ATOM      6  C   UNL     1     104.584 105.453 126.668  1.00  0.00     0.017 C 
ATOM      7  C   UNL     1     105.029 104.001 126.346  1.00  0.00     0.031 C 
ATOM      8  C   UNL     1     102.189 104.904 127.539  1.00  0.00    -0.070 C 
ATOM      9  C   UNL     1     101.799 104.508 126.308  1.00  0.00     0.008 C 
ATOM     10  C   UNL     1     101.143 104.950 128.629  1.00  0.00     0.031 C 
ATOM     11  C   UNL     1     100.845 106.409 128.972  1.00  0.00     0.005 C 
ATOM     12  C   UNL     1     102.127 107.186 129.316  1.00  0.00     0.008 C 
ATOM     13  C   UNL     1     103.239 107.103 128.214  1.00  0.00    -0.026 C 
ATOM     14  C   UNL     1     102.755 107.892 126.966  1.00  0.00     0.012 C 
ATOM     15  C   UNL     1     104.474 107.864 128.771  1.00  0.00     0.012 C 
ENDROOT
TORSDOF 0
ENDMDL
MODEL 7
REMARK VINA RESULT:    -5.979      4.333      6.455
REMARK INTER + INTRA:          -5.979
REMARK INTER:                  -5.979
REMARK INTRA:                   0.000
REMARK UNBOUND:                 0.000
REMARK SMILES C=C1CCCC(C)(C)[C@@]12CC=C(C)CC2
REMARK SMILES IDX 13 1 12 2 11 3 10 4 9 5 15 6 14 7 2 8 1 9 3 10 4 11 5 12
REMARK SMILES IDX 6 13 7 14 8 15
REMARK H PARENT
REMARK Flexibility Score: inf
ROOT
ATOM      1  C   UNL     1     110.897 105.251 127.288  1.00  0.00     0.039 C 
ATOM      2  C   UNL     1     109.446 104.948 127.544  1.00  0.00    -0.077 C 
ATOM      3  C   UNL     1     109.076 104.499 128.755  1.00  0.00    -0.027 C 
ATOM      4  C   UNL     1     107.635 104.238 129.086  1.00  0.00     0.039 C 
ATOM      5  C   UNL     1     106.871 103.614 127.876  1.00  0.00    -0.000 C 
ATOM      6  C   UNL     1     106.998 104.685 126.735  1.00  0.00     0.017 C 
ATOM      7  C   UNL     1     108.453 105.118 126.412  1.00  0.00     0.031 C 
ATOM      8  C   UNL     1     107.519 102.252 127.515  1.00  0.00    -0.070 C 
ATOM      9  C   UNL     1     107.895 101.900 126.266  1.00  0.00     0.008 C 
ATOM     10  C   UNL     1     107.469 101.169 128.568  1.00  0.00     0.031 C 
ATOM     11  C   UNL     1     106.010 100.882 128.918  1.00  0.00     0.005 C 
ATOM     12  C   UNL     1     105.256 102.162 129.316  1.00  0.00     0.008 C 
ATOM     13  C   UNL     1     105.344 103.311 128.253  1.00  0.00    -0.026 C 
ATOM     14  C   UNL     1     104.534 102.883 126.998  1.00  0.00     0.012 C 
ATOM     15  C   UNL     1     104.609 104.537 128.861  1.00  0.00     0.012 C 
ENDROOT
TORSDOF 0
ENDMDL
MODEL 8
REMARK VINA RESULT:    -5.976      5.621      7.231
REMARK INTER + INTRA:          -5.976
REMARK INTER:                  -5.976
REMARK INTRA:                   0.000
REMARK UNBOUND:                 0.000
REMARK SMILES C=C1CCCC(C)(C)[C@@]12CC=C(C)CC2
REMARK SMILES IDX 13 1 12 2 11 3 10 4 9 5 15 6 14 7 2 8 1 9 3 10 4 11 5 12
REMARK SMILES IDX 6 13 7 14 8 15
REMARK H PARENT
REMARK Flexibility Score: inf
ROOT
ATOM      1  C   UNL     1     107.262 110.925 127.277  1.00  0.00     0.039 C 
ATOM      2  C   UNL     1     107.580 109.480 127.545  1.00  0.00    -0.077 C 
ATOM      3  C   UNL     1     108.026 109.122 128.760  1.00  0.00    -0.027 C 
ATOM      4  C   UNL     1     108.301 107.687 129.102  1.00  0.00     0.039 C 
ATOM      5  C   UNL     1     108.943 106.923 127.901  1.00  0.00    -0.000 C 
ATOM      6  C   UNL     1     107.877 107.030 126.753  1.00  0.00     0.017 C 
ATOM      7  C   UNL     1     107.428 108.477 126.418  1.00  0.00     0.031 C 
ATOM      8  C   UNL     1     110.298 107.585 127.544  1.00  0.00    -0.070 C 
ATOM      9  C   UNL     1     110.653 107.957 126.295  1.00  0.00     0.008 C 
ATOM     10  C   UNL     1     111.375 107.554 128.604  1.00  0.00     0.031 C 
ATOM     11  C   UNL     1     111.678 106.101 128.965  1.00  0.00     0.005 C 
ATOM     12  C   UNL     1     110.404 105.334 129.360  1.00  0.00     0.008 C 
ATOM     13  C   UNL     1     109.261 105.402 128.289  1.00  0.00    -0.026 C 
ATOM     14  C   UNL     1     109.705 104.589 127.042  1.00  0.00     0.012 C 
ATOM     15  C   UNL     1     108.040 104.656 128.895  1.00  0.00     0.012 C 
ENDROOT
TORSDOF 0
ENDMDL
MODEL 9
REMARK VINA RESULT:    -5.973      2.932      5.126
REMARK INTER + INTRA:          -5.973
REMARK INTER:                  -5.973
REMARK INTRA:                   0.000
REMARK UNBOUND:                 0.000
REMARK SMILES C=C1CCCC(C)(C)[C@@]12CC=C(C)CC2
REMARK SMILES IDX 13 1 12 2 11 3 10 4 9 5 15 6 14 7 2 8 1 9 3 10 4 11 5 12
REMARK SMILES IDX 6 13 7 14 8 15
REMARK H PARENT
REMARK Flexibility Score: inf
ROOT
ATOM      1  C   UNL     1     101.557 107.135 127.255  1.00  0.00     0.039 C 
ATOM      2  C   UNL     1     102.998 107.473 127.523  1.00  0.00    -0.077 C 
ATOM      3  C   UNL     1     103.345 107.947 128.731  1.00  0.00    -0.027 C 
ATOM      4  C   UNL     1     104.775 108.245 129.074  1.00  0.00     0.039 C 
ATOM      5  C   UNL     1     105.538 108.870 127.864  1.00  0.00    -0.000 C 
ATOM      6  C   UNL     1     105.448 107.781 126.737  1.00  0.00     0.017 C 
ATOM      7  C   UNL     1     104.007 107.310 126.404  1.00  0.00     0.031 C 
ATOM      8  C   UNL     1     104.864 110.211 127.477  1.00  0.00    -0.070 C 
ATOM      9  C   UNL     1     104.494 110.537 126.220  1.00  0.00     0.008 C 
ATOM     10  C   UNL     1     104.878 111.309 128.515  1.00  0.00     0.031 C 
ATOM     11  C   UNL     1     106.326 111.635 128.877  1.00  0.00     0.005 C 
ATOM     12  C   UNL     1     107.104 110.377 129.301  1.00  0.00     0.008 C 
ATOM     13  C   UNL     1     107.054 109.212 128.253  1.00  0.00    -0.026 C 
ATOM     14  C   UNL     1     107.868 109.640 127.001  1.00  0.00     0.012 C 
ATOM     15  C   UNL     1     107.809 108.011 128.887  1.00  0.00     0.012 C 
ENDROOT
TORSDOF 0
ENDMDL
