MODEL 1
REMARK VINA RESULT:    -4.923      0.000      0.000
REMARK INTER + INTRA:          -5.855
REMARK INTER:                  -5.642
REMARK INTRA:                  -0.213
REMARK UNBOUND:                -0.213
REMARK SMILES COc1ccc(C=O)c(O)c1
REMARK SMILES IDX 3 1 11 2 9 3 6 4 5 5 4 6 2 7 1 8 10 9 7 11 8 12
REMARK H PARENT 10 10
REMARK Flexibility Score: inf
ROOT
ATOM      1  C   UNL     1     -14.373   0.278 -10.164  1.00  0.00     0.122 A 
ATOM      2  C   UNL     1     -13.021   0.148  -9.837  1.00  0.00     0.093 A 
ATOM      3  C   UNL     1     -12.289   1.227  -9.326  1.00  0.00     0.129 A 
ATOM      4  C   UNL     1     -12.929   2.476  -9.123  1.00  0.00     0.056 A 
ATOM      5  C   UNL     1     -14.291   2.601  -9.459  1.00  0.00     0.019 A 
ATOM      6  C   UNL     1     -15.005   1.517  -9.973  1.00  0.00     0.047 A 
ENDROOT
BRANCH   1   7
ATOM      7  O   UNL     1     -15.047  -0.841 -10.673  1.00  0.00    -0.497 OA
ATOM      8  C   UNL     1     -15.099  -2.110 -10.031  1.00  0.00     0.278 C 
ENDBRANCH   1   7
BRANCH   3   9
ATOM      9  O   UNL     1     -10.937   1.012  -9.047  1.00  0.00    -0.507 OA
ATOM     10  H   UNL     1     -10.570   0.805  -8.130  1.00  0.00     0.293 HD
ENDBRANCH   3   9
BRANCH   4  11
ATOM     11  C   UNL     1     -12.218   3.648  -8.558  1.00  0.00     0.263 C 
ATOM     12  O   UNL     1     -11.016   3.559  -8.190  1.00  0.00    -0.298 OA
ENDBRANCH   4  11
TORSDOF 3
ENDMDL
MODEL 2
REMARK VINA RESULT:    -4.746      6.488      7.692
REMARK INTER + INTRA:          -5.653
REMARK INTER:                  -5.402
REMARK INTRA:                  -0.250
REMARK UNBOUND:                -0.213
REMARK SMILES COc1ccc(C=O)c(O)c1
REMARK SMILES IDX 3 1 11 2 9 3 6 4 5 5 4 6 2 7 1 8 10 9 7 11 8 12
REMARK H PARENT 10 10
REMARK Flexibility Score: inf
ROOT
ATOM      1  C   UNL     1     -12.075  -6.269  -6.476  1.00  0.00     0.122 A 
ATOM      2  C   UNL     1     -10.960  -5.492  -6.153  1.00  0.00     0.093 A 
ATOM      3  C   UNL     1     -10.310  -4.715  -7.120  1.00  0.00     0.129 A 
ATOM      4  C   UNL     1     -10.796  -4.702  -8.452  1.00  0.00     0.056 A 
ATOM      5  C   UNL     1     -11.917  -5.492  -8.771  1.00  0.00     0.019 A 
ATOM      6  C   UNL     1     -12.550  -6.267  -7.797  1.00  0.00     0.047 A 
ENDROOT
BRANCH   1   7
ATOM      7  O   UNL     1     -12.677  -7.027  -5.461  1.00  0.00    -0.497 OA
ATOM      8  C   UNL     1     -12.043  -8.101  -4.775  1.00  0.00     0.278 C 
ENDBRANCH   1   7
BRANCH   3   9
ATOM      9  O   UNL     1      -9.191  -3.985  -6.711  1.00  0.00    -0.507 OA
ATOM     10  H   UNL     1      -8.528  -3.558  -7.341  1.00  0.00     0.293 HD
ENDBRANCH   3   9
BRANCH   4  11
ATOM     11  C   UNL     1     -10.171  -3.878  -9.515  1.00  0.00     0.263 C 
ATOM     12  O   UNL     1      -8.950  -3.573  -9.462  1.00  0.00    -0.298 OA
ENDBRANCH   4  11
TORSDOF 3
ENDMDL
MODEL 3
REMARK VINA RESULT:    -4.737      5.767      7.545
REMARK INTER + INTRA:          -5.642
REMARK INTER:                  -5.384
REMARK INTRA:                  -0.258
REMARK UNBOUND:                -0.213
REMARK SMILES COc1ccc(C=O)c(O)c1
REMARK SMILES IDX 3 1 11 2 9 3 6 4 5 5 4 6 2 7 1 8 10 9 7 11 8 12
REMARK H PARENT 10 10
REMARK Flexibility Score: inf
ROOT
ATOM      1  C   UNL     1     -10.215  -3.062  -9.211  1.00  0.00     0.122 A 
ATOM      2  C   UNL     1     -10.727  -4.284  -9.654  1.00  0.00     0.093 A 
ATOM      3  C   UNL     1     -10.828  -5.385  -8.795  1.00  0.00     0.129 A 
ATOM      4  C   UNL     1     -10.415  -5.261  -7.444  1.00  0.00     0.056 A 
ATOM      5  C   UNL     1      -9.895  -4.028  -7.006  1.00  0.00     0.019 A 
ATOM      6  C   UNL     1      -9.795  -2.941  -7.877  1.00  0.00     0.047 A 
ENDROOT
BRANCH   1   7
ATOM      7  O   UNL     1     -10.139  -2.000 -10.123  1.00  0.00    -0.497 OA
ATOM      8  C   UNL     1     -10.966  -0.842 -10.081  1.00  0.00     0.278 C 
ENDBRANCH   1   7
BRANCH   3   9
ATOM      9  O   UNL     1     -11.333  -6.573  -9.330  1.00  0.00    -0.507 OA
ATOM     10  H   UNL     1     -10.846  -7.456  -9.317  1.00  0.00     0.293 HD
ENDBRANCH   3   9
BRANCH   4  11
ATOM     11  C   UNL     1     -10.523  -6.380  -6.477  1.00  0.00     0.263 C 
ATOM     12  O   UNL     1     -10.357  -7.572  -6.847  1.00  0.00    -0.298 OA
ENDBRANCH   4  11
TORSDOF 3
ENDMDL
MODEL 4
REMARK VINA RESULT:    -4.547      1.921      2.897
REMARK INTER + INTRA:          -5.424
REMARK INTER:                  -5.197
REMARK INTRA:                  -0.227
REMARK UNBOUND:                -0.213
REMARK SMILES COc1ccc(C=O)c(O)c1
REMARK SMILES IDX 3 1 11 2 9 3 6 4 5 5 4 6 2 7 1 8 10 9 7 11 8 12
REMARK H PARENT 10 10
REMARK Flexibility Score: inf
ROOT
ATOM      1  C   UNL     1     -11.750  -0.425 -10.055  1.00  0.00     0.122 A 
ATOM      2  C   UNL     1     -11.377   0.817  -9.536  1.00  0.00     0.093 A 
ATOM      3  C   UNL     1     -12.328   1.810  -9.271  1.00  0.00     0.129 A 
ATOM      4  C   UNL     1     -13.700   1.552  -9.520  1.00  0.00     0.056 A 
ATOM      5  C   UNL     1     -14.068   0.300 -10.048  1.00  0.00     0.019 A 
ATOM      6  C   UNL     1     -13.107  -0.677 -10.313  1.00  0.00     0.047 A 
ENDROOT
BRANCH   1   7
ATOM      7  O   UNL     1     -10.748  -1.374 -10.301  1.00  0.00    -0.497 OA
ATOM      8  C   UNL     1     -10.546  -2.550  -9.525  1.00  0.00     0.278 C 
ENDBRANCH   1   7
BRANCH   3   9
ATOM      9  O   UNL     1     -11.862   3.029  -8.772  1.00  0.00    -0.507 OA
ATOM     10  H   UNL     1     -11.540   3.794  -9.345  1.00  0.00     0.293 HD
ENDBRANCH   3   9
BRANCH   4  11
ATOM     11  C   UNL     1     -14.758   2.550  -9.232  1.00  0.00     0.263 C 
ATOM     12  O   UNL     1     -14.512   3.570  -8.535  1.00  0.00    -0.298 OA
ENDBRANCH   4  11
TORSDOF 3
ENDMDL
MODEL 5
REMARK VINA RESULT:    -4.496      1.212      4.268
REMARK INTER + INTRA:          -5.366
REMARK INTER:                  -5.124
REMARK INTRA:                  -0.242
REMARK UNBOUND:                -0.213
REMARK SMILES COc1ccc(C=O)c(O)c1
REMARK SMILES IDX 3 1 11 2 9 3 6 4 5 5 4 6 2 7 1 8 10 9 7 11 8 12
REMARK H PARENT 10 10
REMARK Flexibility Score: inf
ROOT
ATOM      1  C   UNL     1     -13.198   2.295  -9.251  1.00  0.00     0.122 A 
ATOM      2  C   UNL     1     -12.336   1.255  -9.608  1.00  0.00     0.093 A 
ATOM      3  C   UNL     1     -12.828   0.028 -10.070  1.00  0.00     0.129 A 
ATOM      4  C   UNL     1     -14.229  -0.165 -10.191  1.00  0.00     0.056 A 
ATOM      5  C   UNL     1     -15.091   0.886  -9.825  1.00  0.00     0.019 A 
ATOM      6  C   UNL     1     -14.584   2.101  -9.360  1.00  0.00     0.047 A 
ENDROOT
BRANCH   1   7
ATOM      7  O   UNL     1     -12.639   3.498  -8.794  1.00  0.00    -0.497 OA
ATOM      8  C   UNL     1     -11.306   3.635  -8.316  1.00  0.00     0.278 C 
ENDBRANCH   1   7
BRANCH   3   9
ATOM      9  O   UNL     1     -11.894  -0.962 -10.384  1.00  0.00    -0.507 OA
ATOM     10  H   UNL     1     -11.930  -1.910 -10.040  1.00  0.00     0.293 HD
ENDBRANCH   3   9
BRANCH   4  11
ATOM     11  C   UNL     1     -14.812  -1.429 -10.701  1.00  0.00     0.263 C 
ATOM     12  O   UNL     1     -14.582  -2.526 -10.125  1.00  0.00    -0.298 OA
ENDBRANCH   4  11
TORSDOF 3
ENDMDL
MODEL 6
REMARK VINA RESULT:    -4.487      6.778      7.766
REMARK INTER + INTRA:          -5.356
REMARK INTER:                  -5.105
REMARK INTRA:                  -0.251
REMARK UNBOUND:                -0.213
REMARK SMILES COc1ccc(C=O)c(O)c1
REMARK SMILES IDX 3 1 11 2 9 3 6 4 5 5 4 6 2 7 1 8 10 9 7 11 8 12
REMARK H PARENT 10 10
REMARK Flexibility Score: inf
ROOT
ATOM      1  C   UNL     1     -12.230  -6.757  -7.004  1.00  0.00     0.122 A 
ATOM      2  C   UNL     1     -11.904  -6.344  -8.298  1.00  0.00     0.093 A 
ATOM      3  C   UNL     1     -10.979  -5.316  -8.522  1.00  0.00     0.129 A 
ATOM      4  C   UNL     1     -10.350  -4.686  -7.418  1.00  0.00     0.056 A 
ATOM      5  C   UNL     1     -10.687  -5.104  -6.117  1.00  0.00     0.019 A 
ATOM      6  C   UNL     1     -11.616  -6.126  -5.910  1.00  0.00     0.047 A 
ENDROOT
BRANCH   1   7
ATOM      7  O   UNL     1     -13.166  -7.790  -6.849  1.00  0.00    -0.497 OA
ATOM      8  C   UNL     1     -13.798  -8.124  -5.619  1.00  0.00     0.278 C 
ENDBRANCH   1   7
BRANCH   3   9
ATOM      9  O   UNL     1     -10.729  -4.954  -9.848  1.00  0.00    -0.507 OA
ATOM     10  H   UNL     1     -11.330  -4.361 -10.400  1.00  0.00     0.293 HD
ENDBRANCH   3   9
BRANCH   4  11
ATOM     11  C   UNL     1      -9.341  -3.612  -7.589  1.00  0.00     0.263 C 
ATOM     12  O   UNL     1      -8.681  -3.510  -8.657  1.00  0.00    -0.298 OA
ENDBRANCH   4  11
TORSDOF 3
ENDMDL
MODEL 7
REMARK VINA RESULT:    -4.372      6.410      8.280
REMARK INTER + INTRA:          -5.224
REMARK INTER:                  -4.961
REMARK INTRA:                  -0.263
REMARK UNBOUND:                -0.213
REMARK SMILES COc1ccc(C=O)c(O)c1
REMARK SMILES IDX 3 1 11 2 9 3 6 4 5 5 4 6 2 7 1 8 10 9 7 11 8 12
REMARK H PARENT 10 10
REMARK Flexibility Score: inf
ROOT
ATOM      1  C   UNL     1     -10.449  -4.904  -8.537  1.00  0.00     0.122 A 
ATOM      2  C   UNL     1     -10.187  -5.107  -7.180  1.00  0.00     0.093 A 
ATOM      3  C   UNL     1     -11.138  -5.692  -6.335  1.00  0.00     0.129 A 
ATOM      4  C   UNL     1     -12.390  -6.100  -6.863  1.00  0.00     0.056 A 
ATOM      5  C   UNL     1     -12.649  -5.887  -8.230  1.00  0.00     0.019 A 
ATOM      6  C   UNL     1     -11.692  -5.296  -9.058  1.00  0.00     0.047 A 
ENDROOT
BRANCH   1   7
ATOM      7  O   UNL     1      -9.455  -4.310  -9.328  1.00  0.00    -0.497 OA
ATOM      8  C   UNL     1      -9.654  -3.158 -10.139  1.00  0.00     0.278 C 
ENDBRANCH   1   7
BRANCH   3   9
ATOM      9  O   UNL     1     -10.797  -5.838  -4.988  1.00  0.00    -0.507 OA
ATOM     10  H   UNL     1     -11.448  -5.746  -4.222  1.00  0.00     0.293 HD
ENDBRANCH   3   9
BRANCH   4  11
ATOM     11  C   UNL     1     -13.427  -6.752  -6.027  1.00  0.00     0.263 C 
ATOM     12  O   UNL     1     -13.127  -7.689  -5.240  1.00  0.00    -0.298 OA
ENDBRANCH   4  11
TORSDOF 3
ENDMDL
MODEL 8
REMARK VINA RESULT:    -4.339     14.531     15.997
REMARK INTER + INTRA:          -5.186
REMARK INTER:                  -4.920
REMARK INTRA:                  -0.266
REMARK UNBOUND:                -0.213
REMARK SMILES COc1ccc(C=O)c(O)c1
REMARK SMILES IDX 3 1 11 2 9 3 6 4 5 5 4 6 2 7 1 8 10 9 7 11 8 12
REMARK H PARENT 10 10
REMARK Flexibility Score: inf
ROOT
ATOM      1  C   UNL     1     -13.963   5.936   5.004  1.00  0.00     0.122 A 
ATOM      2  C   UNL     1     -13.026   4.968   4.637  1.00  0.00     0.093 A 
ATOM      3  C   UNL     1     -12.402   4.159   5.596  1.00  0.00     0.129 A 
ATOM      4  C   UNL     1     -12.734   4.312   6.966  1.00  0.00     0.056 A 
ATOM      5  C   UNL     1     -13.677   5.293   7.329  1.00  0.00     0.019 A 
ATOM      6  C   UNL     1     -14.284   6.096   6.362  1.00  0.00     0.047 A 
ENDROOT
BRANCH   1   7
ATOM      7  O   UNL     1     -14.549   6.715   3.996  1.00  0.00    -0.497 OA
ATOM      8  C   UNL     1     -14.349   6.507   2.602  1.00  0.00     0.278 C 
ENDBRANCH   1   7
BRANCH   3   9
ATOM      9  O   UNL     1     -11.462   3.231   5.140  1.00  0.00    -0.507 OA
ATOM     10  H   UNL     1     -10.617   2.987   5.634  1.00  0.00     0.293 HD
ENDBRANCH   3   9
BRANCH   4  11
ATOM     11  C   UNL     1     -12.132   3.467   8.026  1.00  0.00     0.263 C 
ATOM     12  O   UNL     1     -10.944   3.060   7.930  1.00  0.00    -0.298 OA
ENDBRANCH   4  11
TORSDOF 3
ENDMDL
MODEL 9
REMARK VINA RESULT:    -4.118      6.405      8.285
REMARK INTER + INTRA:          -4.932
REMARK INTER:                  -4.664
REMARK INTRA:                  -0.268
REMARK UNBOUND:                -0.213
REMARK SMILES COc1ccc(C=O)c(O)c1
REMARK SMILES IDX 3 1 11 2 9 3 6 4 5 5 4 6 2 7 1 8 10 9 7 11 8 12
REMARK H PARENT 10 10
REMARK Flexibility Score: inf
ROOT
ATOM      1  C   UNL     1     -10.141  -4.614  -8.375  1.00  0.00     0.122 A 
ATOM      2  C   UNL     1     -11.237  -5.189  -9.022  1.00  0.00     0.093 A 
ATOM      3  C   UNL     1     -12.225  -5.876  -8.306  1.00  0.00     0.129 A 
ATOM      4  C   UNL     1     -12.123  -5.984  -6.895  1.00  0.00     0.056 A 
ATOM      5  C   UNL     1     -11.013  -5.406  -6.251  1.00  0.00     0.019 A 
ATOM      6  C   UNL     1     -10.032  -4.730  -6.980  1.00  0.00     0.047 A 
ENDROOT
BRANCH   1   7
ATOM      7  O   UNL     1      -9.185  -3.942  -9.151  1.00  0.00    -0.497 OA
ATOM      8  C   UNL     1      -9.485  -3.184 -10.318  1.00  0.00     0.278 C 
ENDBRANCH   1   7
BRANCH   3   9
ATOM      9  O   UNL     1     -13.276  -6.437  -9.037  1.00  0.00    -0.507 OA
ATOM     10  H   UNL     1     -13.610  -7.382  -8.921  1.00  0.00     0.293 HD
ENDBRANCH   3   9
BRANCH   4  11
ATOM     11  C   UNL     1     -13.151  -6.672  -6.077  1.00  0.00     0.263 C 
ATOM     12  O   UNL     1     -13.696  -7.733  -6.484  1.00  0.00    -0.298 OA
ENDBRANCH   4  11
TORSDOF 3
ENDMDL
