MODEL 1
REMARK VINA RESULT:    -9.072      0.000      0.000
REMARK INTER + INTRA:         -12.620
REMARK INTER:                 -12.254
REMARK INTRA:                  -0.366
REMARK UNBOUND:                -0.366
REMARK SMILES O=c1c(-c2ccc(O)cc2)coc2c([C@H]3O[C@@H](CO)[C@@H](O)[C@H](O)[C@H]3O)c(O)ccc12
REMARK SMILES IDX 3 1 11 2 12 3 13 4 30 5 2 6 1 7 29 8 28 9 26 10 14 11 4 12
REMARK SMILES IDX 5 13 6 14 7 15 10 16 9 17 8 18 15 20 24 21 16 22 22 23 17 24
REMARK SMILES IDX 20 25 25 26 23 28 18 30 19 31 21 33 27 35
REMARK H PARENT 8 19 25 27 23 29 19 32 21 34 27 36
REMARK Flexibility Score: inf
ROOT
ATOM      1  C   UNL     1      17.231 -47.962  70.376  1.00  0.00     0.065 A 
ATOM      2  C   UNL     1      18.318 -47.254  70.906  1.00  0.00     0.208 A 
ATOM      3  O   UNL     1      19.338 -46.896  70.136  1.00  0.00    -0.463 OA
ATOM      4  C   UNL     1      19.405 -47.176  68.837  1.00  0.00     0.147 A 
ATOM      5  C   UNL     1      18.349 -47.889  68.220  1.00  0.00     0.066 A 
ATOM      6  C   UNL     1      17.256 -48.291  69.008  1.00  0.00     0.200 A 
ATOM      7  O   UNL     1      16.312 -48.956  68.497  1.00  0.00    -0.288 OA
ATOM      8  C   UNL     1      18.414 -48.172  66.848  1.00  0.00     0.020 A 
ATOM      9  C   UNL     1      19.503 -47.741  66.093  1.00  0.00     0.047 A 
ATOM     10  C   UNL     1      20.551 -47.030  66.691  1.00  0.00     0.125 A 
ATOM     11  C   UNL     1      20.526 -46.762  68.081  1.00  0.00     0.069 A 
ENDROOT
BRANCH   1  12
ATOM     12  C   UNL     1      16.098 -48.347  71.256  1.00  0.00    -0.011 A 
ATOM     13  C   UNL     1      16.316 -49.119  72.411  1.00  0.00     0.013 A 
ATOM     14  C   UNL     1      15.244 -49.485  73.230  1.00  0.00     0.047 A 
ATOM     15  C   UNL     1      13.941 -49.090  72.903  1.00  0.00     0.115 A 
ATOM     16  C   UNL     1      14.785 -47.960  70.931  1.00  0.00     0.013 A 
ATOM     17  C   UNL     1      13.715 -48.328  71.752  1.00  0.00     0.047 A 
BRANCH  15  18
ATOM     18  O   UNL     1      12.864 -49.449  73.711  1.00  0.00    -0.508 OA
ATOM     19  H   UNL     1      12.393 -48.769  74.297  1.00  0.00     0.293 HD
ENDBRANCH  15  18
ENDBRANCH   1  12
BRANCH  11  20
ATOM     20  C   UNL     1      21.643 -45.974  68.756  1.00  0.00     0.188 C 
ATOM     21  C   UNL     1      21.111 -44.621  69.293  1.00  0.00     0.179 C 
ATOM     22  O   UNL     1      22.723 -45.776  67.857  1.00  0.00    -0.362 OA
ATOM     23  C   UNL     1      22.257 -43.830  69.950  1.00  0.00     0.177 C 
ATOM     24  C   UNL     1      23.834 -45.201  68.528  1.00  0.00     0.176 C 
ATOM     25  C   UNL     1      23.489 -43.775  69.024  1.00  0.00     0.177 C 
BRANCH  21  26
ATOM     26  O   UNL     1      20.559 -43.855  68.251  1.00  0.00    -0.387 OA
ATOM     27  H   UNL     1      21.108 -44.024  67.441  1.00  0.00     0.211 HD
ENDBRANCH  21  26
BRANCH  23  28
ATOM     28  O   UNL     1      22.597 -44.437  71.172  1.00  0.00    -0.387 OA
ATOM     29  H   UNL     1      23.269 -43.850  71.609  1.00  0.00     0.211 HD
ENDBRANCH  23  28
BRANCH  24  30
ATOM     30  C   UNL     1      25.039 -45.185  67.576  1.00  0.00     0.191 C 
BRANCH  30  31
ATOM     31  O   UNL     1      24.617 -45.362  66.252  1.00  0.00    -0.394 OA
ATOM     32  H   UNL     1      25.436 -45.456  65.700  1.00  0.00     0.210 HD
ENDBRANCH  30  31
ENDBRANCH  24  30
BRANCH  25  33
ATOM     33  O   UNL     1      23.211 -42.930  67.936  1.00  0.00    -0.388 OA
ATOM     34  H   UNL     1      22.488 -43.358  67.407  1.00  0.00     0.211 HD
ENDBRANCH  25  33
ENDBRANCH  11  20
BRANCH  10  35
ATOM     35  O   UNL     1      21.609 -46.584  65.899  1.00  0.00    -0.507 OA
ATOM     36  H   UNL     1      21.453 -46.080  65.034  1.00  0.00     0.293 HD
ENDBRANCH  10  35
TORSDOF 9
ENDMDL
MODEL 2
REMARK VINA RESULT:    -8.442      1.807      2.491
REMARK INTER + INTRA:         -11.770
REMARK INTER:                 -11.155
REMARK INTRA:                  -0.614
REMARK UNBOUND:                -0.366
REMARK SMILES O=c1c(-c2ccc(O)cc2)coc2c([C@H]3O[C@@H](CO)[C@@H](O)[C@H](O)[C@H]3O)c(O)ccc12
REMARK SMILES IDX 3 1 11 2 12 3 13 4 30 5 2 6 1 7 29 8 28 9 26 10 14 11 4 12
REMARK SMILES IDX 5 13 6 14 7 15 10 16 9 17 8 18 15 20 24 21 16 22 22 23 17 24
REMARK SMILES IDX 20 25 25 26 23 28 18 30 19 31 21 33 27 35
REMARK H PARENT 8 19 25 27 23 29 19 32 21 34 27 36
REMARK Flexibility Score: inf
ROOT
ATOM      1  C   UNL     1      15.606 -47.251  70.766  1.00  0.00     0.065 A 
ATOM      2  C   UNL     1      16.391 -46.113  70.994  1.00  0.00     0.208 A 
ATOM      3  O   UNL     1      17.620 -46.022  70.500  1.00  0.00    -0.463 OA
ATOM      4  C   UNL     1      18.184 -46.980  69.770  1.00  0.00     0.147 A 
ATOM      5  C   UNL     1      17.462 -48.164  69.491  1.00  0.00     0.066 A 
ATOM      6  C   UNL     1      16.161 -48.298  70.006  1.00  0.00     0.200 A 
ATOM      7  O   UNL     1      15.500 -49.354  69.804  1.00  0.00    -0.288 OA
ATOM      8  C   UNL     1      18.053 -49.169  68.710  1.00  0.00     0.020 A 
ATOM      9  C   UNL     1      19.338 -48.995  68.198  1.00  0.00     0.047 A 
ATOM     10  C   UNL     1      20.060 -47.825  68.462  1.00  0.00     0.125 A 
ATOM     11  C   UNL     1      19.500 -46.812  69.277  1.00  0.00     0.069 A 
ENDROOT
BRANCH   1  12
ATOM     12  C   UNL     1      14.233 -47.327  71.324  1.00  0.00    -0.011 A 
ATOM     13  C   UNL     1      13.317 -46.279  71.123  1.00  0.00     0.013 A 
ATOM     14  C   UNL     1      12.028 -46.352  71.659  1.00  0.00     0.047 A 
ATOM     15  C   UNL     1      11.639 -47.471  72.407  1.00  0.00     0.115 A 
ATOM     16  C   UNL     1      13.837 -48.443  72.083  1.00  0.00     0.013 A 
ATOM     17  C   UNL     1      12.546 -48.514  72.618  1.00  0.00     0.047 A 
BRANCH  15  18
ATOM     18  O   UNL     1      10.357 -47.556  72.946  1.00  0.00    -0.508 OA
ATOM     19  H   UNL     1       9.789 -48.387  72.830  1.00  0.00     0.293 HD
ENDBRANCH  15  18
ENDBRANCH   1  12
BRANCH  11  20
ATOM     20  C   UNL     1      20.254 -45.519  69.566  1.00  0.00     0.188 C 
ATOM     21  C   UNL     1      20.205 -44.570  68.342  1.00  0.00     0.179 C 
ATOM     22  O   UNL     1      21.595 -45.800  69.938  1.00  0.00    -0.362 OA
ATOM     23  C   UNL     1      20.990 -43.281  68.644  1.00  0.00     0.177 C 
ATOM     24  C   UNL     1      22.250 -44.621  70.378  1.00  0.00     0.176 C 
ATOM     25  C   UNL     1      22.386 -43.609  69.215  1.00  0.00     0.177 C 
BRANCH  21  26
ATOM     26  O   UNL     1      20.756 -45.192  67.208  1.00  0.00    -0.387 OA
ATOM     27  H   UNL     1      21.648 -45.542  67.470  1.00  0.00     0.211 HD
ENDBRANCH  21  26
BRANCH  23  28
ATOM     28  O   UNL     1      20.265 -42.501  69.561  1.00  0.00    -0.387 OA
ATOM     29  H   UNL     1      20.863 -42.334  70.336  1.00  0.00     0.211 HD
ENDBRANCH  23  28
BRANCH  24  30
ATOM     30  C   UNL     1      23.623 -44.998  70.954  1.00  0.00     0.191 C 
BRANCH  30  31
ATOM     31  O   UNL     1      24.548 -43.971  70.722  1.00  0.00    -0.394 OA
ATOM     32  H   UNL     1      24.958 -44.150  69.836  1.00  0.00     0.210 HD
ENDBRANCH  30  31
ENDBRANCH  24  30
BRANCH  25  33
ATOM     33  O   UNL     1      23.189 -44.141  68.191  1.00  0.00    -0.388 OA
ATOM     34  H   UNL     1      24.014 -43.591  68.147  1.00  0.00     0.211 HD
ENDBRANCH  25  33
ENDBRANCH  11  20
BRANCH  10  35
ATOM     35  O   UNL     1      21.330 -47.669  67.906  1.00  0.00    -0.507 OA
ATOM     36  H   UNL     1      21.540 -46.922  67.255  1.00  0.00     0.293 HD
ENDBRANCH  10  35
TORSDOF 9
ENDMDL
MODEL 3
REMARK VINA RESULT:    -8.385      1.714      2.070
REMARK INTER + INTRA:         -11.692
REMARK INTER:                 -11.427
REMARK INTRA:                  -0.265
REMARK UNBOUND:                -0.366
REMARK SMILES O=c1c(-c2ccc(O)cc2)coc2c([C@H]3O[C@@H](CO)[C@@H](O)[C@H](O)[C@H]3O)c(O)ccc12
REMARK SMILES IDX 3 1 11 2 12 3 13 4 30 5 2 6 1 7 29 8 28 9 26 10 14 11 4 12
REMARK SMILES IDX 5 13 6 14 7 15 10 16 9 17 8 18 15 20 24 21 16 22 22 23 17 24
REMARK SMILES IDX 20 25 25 26 23 28 18 30 19 31 21 33 27 35
REMARK H PARENT 8 19 25 27 23 29 19 32 21 34 27 36
REMARK Flexibility Score: inf
ROOT
ATOM      1  C   UNL     1      16.794 -47.568  71.094  1.00  0.00     0.065 A 
ATOM      2  C   UNL     1      18.167 -47.608  71.373  1.00  0.00     0.208 A 
ATOM      3  O   UNL     1      19.024 -46.858  70.690  1.00  0.00    -0.463 OA
ATOM      4  C   UNL     1      18.653 -46.033  69.714  1.00  0.00     0.147 A 
ATOM      5  C   UNL     1      17.286 -45.930  69.367  1.00  0.00     0.066 A 
ATOM      6  C   UNL     1      16.352 -46.717  70.064  1.00  0.00     0.200 A 
ATOM      7  O   UNL     1      15.127 -46.673  69.759  1.00  0.00    -0.288 OA
ATOM      8  C   UNL     1      16.895 -45.050  68.347  1.00  0.00     0.020 A 
ATOM      9  C   UNL     1      17.844 -44.270  67.690  1.00  0.00     0.047 A 
ATOM     10  C   UNL     1      19.200 -44.359  68.029  1.00  0.00     0.125 A 
ATOM     11  C   UNL     1      19.625 -45.265  69.030  1.00  0.00     0.069 A 
ENDROOT
BRANCH   1  12
ATOM     12  C   UNL     1      15.855 -48.411  71.875  1.00  0.00    -0.011 A 
ATOM     13  C   UNL     1      14.465 -48.235  71.755  1.00  0.00     0.013 A 
ATOM     14  C   UNL     1      13.585 -49.026  72.501  1.00  0.00     0.047 A 
ATOM     15  C   UNL     1      14.083 -49.999  73.377  1.00  0.00     0.115 A 
ATOM     16  C   UNL     1      16.346 -49.384  72.763  1.00  0.00     0.013 A 
ATOM     17  C   UNL     1      15.464 -50.174  73.507  1.00  0.00     0.047 A 
BRANCH  15  18
ATOM     18  O   UNL     1      13.216 -50.793  74.125  1.00  0.00    -0.508 OA
ATOM     19  H   UNL     1      12.843 -51.660  73.756  1.00  0.00     0.293 HD
ENDBRANCH  15  18
ENDBRANCH   1  12
BRANCH  11  20
ATOM     20  C   UNL     1      21.091 -45.370  69.434  1.00  0.00     0.188 C 
ATOM     21  C   UNL     1      21.486 -44.204  70.376  1.00  0.00     0.179 C 
ATOM     22  O   UNL     1      21.922 -45.399  68.284  1.00  0.00    -0.362 OA
ATOM     23  C   UNL     1      22.974 -44.314  70.754  1.00  0.00     0.177 C 
ATOM     24  C   UNL     1      23.267 -45.674  68.643  1.00  0.00     0.176 C 
ATOM     25  C   UNL     1      23.846 -44.521  69.498  1.00  0.00     0.177 C 
BRANCH  21  26
ATOM     26  O   UNL     1      21.258 -42.964  69.752  1.00  0.00    -0.387 OA
ATOM     27  H   UNL     1      22.141 -42.613  69.466  1.00  0.00     0.211 HD
ENDBRANCH  21  26
BRANCH  23  28
ATOM     28  O   UNL     1      23.147 -45.388  71.645  1.00  0.00    -0.387 OA
ATOM     29  H   UNL     1      23.705 -46.064  71.178  1.00  0.00     0.211 HD
ENDBRANCH  23  28
BRANCH  24  30
ATOM     30  C   UNL     1      24.091 -45.891  67.366  1.00  0.00     0.191 C 
BRANCH  30  31
ATOM     31  O   UNL     1      25.373 -45.345  67.513  1.00  0.00    -0.394 OA
ATOM     32  H   UNL     1      25.258 -44.364  67.608  1.00  0.00     0.210 HD
ENDBRANCH  30  31
ENDBRANCH  24  30
BRANCH  25  33
ATOM     33  O   UNL     1      23.878 -43.327  68.757  1.00  0.00    -0.388 OA
ATOM     34  H   UNL     1      23.447 -42.625  69.311  1.00  0.00     0.211 HD
ENDBRANCH  25  33
ENDBRANCH  11  20
BRANCH  10  35
ATOM     35  O   UNL     1      20.120 -43.539  67.375  1.00  0.00    -0.507 OA
ATOM     36  H   UNL     1      21.118 -43.626  67.531  1.00  0.00     0.293 HD
ENDBRANCH  10  35
TORSDOF 9
ENDMDL
MODEL 4
REMARK VINA RESULT:    -8.027      2.652      3.425
REMARK INTER + INTRA:         -11.209
REMARK INTER:                 -10.268
REMARK INTRA:                  -0.941
REMARK UNBOUND:                -0.366
REMARK SMILES O=c1c(-c2ccc(O)cc2)coc2c([C@H]3O[C@@H](CO)[C@@H](O)[C@H](O)[C@H]3O)c(O)ccc12
REMARK SMILES IDX 3 1 11 2 12 3 13 4 30 5 2 6 1 7 29 8 28 9 26 10 14 11 4 12
REMARK SMILES IDX 5 13 6 14 7 15 10 16 9 17 8 18 15 20 24 21 16 22 22 23 17 24
REMARK SMILES IDX 20 25 25 26 23 28 18 30 19 31 21 33 27 35
REMARK H PARENT 8 19 25 27 23 29 19 32 21 34 27 36
REMARK Flexibility Score: inf
ROOT
ATOM      1  C   UNL     1      15.800 -47.474  70.686  1.00  0.00     0.065 A 
ATOM      2  C   UNL     1      16.091 -46.143  71.013  1.00  0.00     0.208 A 
ATOM      3  O   UNL     1      16.839 -45.392  70.214  1.00  0.00    -0.463 OA
ATOM      4  C   UNL     1      17.357 -45.836  69.071  1.00  0.00     0.147 A 
ATOM      5  C   UNL     1      17.113 -47.168  68.663  1.00  0.00     0.066 A 
ATOM      6  C   UNL     1      16.331 -47.994  69.491  1.00  0.00     0.200 A 
ATOM      7  O   UNL     1      16.120 -49.198  69.173  1.00  0.00    -0.288 OA
ATOM      8  C   UNL     1      17.649 -47.631  67.452  1.00  0.00     0.020 A 
ATOM      9  C   UNL     1      18.402 -46.779  66.647  1.00  0.00     0.047 A 
ATOM     10  C   UNL     1      18.645 -45.456  67.037  1.00  0.00     0.125 A 
ATOM     11  C   UNL     1      18.146 -44.976  68.272  1.00  0.00     0.069 A 
ENDROOT
BRANCH   1  12
ATOM     12  C   UNL     1      14.956 -48.292  71.592  1.00  0.00    -0.011 A 
ATOM     13  C   UNL     1      15.539 -49.061  72.616  1.00  0.00     0.013 A 
ATOM     14  C   UNL     1      14.739 -49.837  73.461  1.00  0.00     0.047 A 
ATOM     15  C   UNL     1      13.349 -49.859  73.290  1.00  0.00     0.115 A 
ATOM     16  C   UNL     1      13.561 -48.327  71.423  1.00  0.00     0.013 A 
ATOM     17  C   UNL     1      12.763 -49.104  72.269  1.00  0.00     0.047 A 
BRANCH  15  18
ATOM     18  O   UNL     1      12.542 -50.628  74.125  1.00  0.00    -0.508 OA
ATOM     19  H   UNL     1      12.836 -51.544  74.448  1.00  0.00     0.293 HD
ENDBRANCH  15  18
ENDBRANCH   1  12
BRANCH  11  20
ATOM     20  C   UNL     1      18.378 -43.536  68.714  1.00  0.00     0.188 C 
ATOM     21  C   UNL     1      17.255 -42.610  68.181  1.00  0.00     0.179 C 
ATOM     22  O   UNL     1      19.654 -43.085  68.286  1.00  0.00    -0.362 OA
ATOM     23  C   UNL     1      17.518 -41.158  68.617  1.00  0.00     0.177 C 
ATOM     24  C   UNL     1      19.949 -41.814  68.843  1.00  0.00     0.176 C 
ATOM     25  C   UNL     1      18.971 -40.744  68.301  1.00  0.00     0.177 C 
BRANCH  21  26
ATOM     26  O   UNL     1      17.191 -42.667  66.777  1.00  0.00    -0.387 OA
ATOM     27  H   UNL     1      17.078 -41.736  66.451  1.00  0.00     0.211 HD
ENDBRANCH  21  26
BRANCH  23  28
ATOM     28  O   UNL     1      17.271 -41.037  69.996  1.00  0.00    -0.387 OA
ATOM     29  H   UNL     1      17.251 -41.958  70.367  1.00  0.00     0.211 HD
ENDBRANCH  23  28
BRANCH  24  30
ATOM     30  C   UNL     1      21.407 -41.453  68.520  1.00  0.00     0.191 C 
BRANCH  30  31
ATOM     31  O   UNL     1      22.000 -40.798  69.609  1.00  0.00    -0.394 OA
ATOM     32  H   UNL     1      22.436 -39.982  69.250  1.00  0.00     0.210 HD
ENDBRANCH  30  31
ENDBRANCH  24  30
BRANCH  25  33
ATOM     33  O   UNL     1      19.117 -40.603  66.910  1.00  0.00    -0.388 OA
ATOM     34  H   UNL     1      19.571 -39.735  66.748  1.00  0.00     0.211 HD
ENDBRANCH  25  33
ENDBRANCH  11  20
BRANCH  10  35
ATOM     35  O   UNL     1      19.374 -44.621  66.191  1.00  0.00    -0.507 OA
ATOM     36  H   UNL     1      19.617 -43.673  66.456  1.00  0.00     0.293 HD
ENDBRANCH  10  35
TORSDOF 9
ENDMDL
MODEL 5
REMARK VINA RESULT:    -7.951      2.707      4.132
REMARK INTER + INTRA:         -11.106
REMARK INTER:                 -10.712
REMARK INTRA:                  -0.394
REMARK UNBOUND:                -0.366
REMARK SMILES O=c1c(-c2ccc(O)cc2)coc2c([C@H]3O[C@@H](CO)[C@@H](O)[C@H](O)[C@H]3O)c(O)ccc12
REMARK SMILES IDX 3 1 11 2 12 3 13 4 30 5 2 6 1 7 29 8 28 9 26 10 14 11 4 12
REMARK SMILES IDX 5 13 6 14 7 15 10 16 9 17 8 18 15 20 24 21 16 22 22 23 17 24
REMARK SMILES IDX 20 25 25 26 23 28 18 30 19 31 21 33 27 35
REMARK H PARENT 8 19 25 27 23 29 19 32 21 34 27 36
REMARK Flexibility Score: inf
ROOT
ATOM      1  C   UNL     1      16.114 -47.319  71.179  1.00  0.00     0.065 A 
ATOM      2  C   UNL     1      15.733 -46.112  70.579  1.00  0.00     0.208 A 
ATOM      3  O   UNL     1      16.630 -45.332  69.987  1.00  0.00    -0.463 OA
ATOM      4  C   UNL     1      17.925 -45.631  69.920  1.00  0.00     0.147 A 
ATOM      5  C   UNL     1      18.396 -46.832  70.499  1.00  0.00     0.066 A 
ATOM      6  C   UNL     1      17.475 -47.678  71.143  1.00  0.00     0.200 A 
ATOM      7  O   UNL     1      17.866 -48.742  71.699  1.00  0.00    -0.288 OA
ATOM      8  C   UNL     1      19.759 -47.153  70.417  1.00  0.00     0.020 A 
ATOM      9  C   UNL     1      20.642 -46.303  69.754  1.00  0.00     0.047 A 
ATOM     10  C   UNL     1      20.186 -45.114  69.171  1.00  0.00     0.125 A 
ATOM     11  C   UNL     1      18.822 -44.750  69.272  1.00  0.00     0.069 A 
ENDROOT
BRANCH   1  12
ATOM     12  C   UNL     1      15.093 -48.177  71.830  1.00  0.00    -0.011 A 
ATOM     13  C   UNL     1      13.748 -48.130  71.419  1.00  0.00     0.013 A 
ATOM     14  C   UNL     1      12.789 -48.933  72.043  1.00  0.00     0.047 A 
ATOM     15  C   UNL     1      13.159 -49.789  73.088  1.00  0.00     0.115 A 
ATOM     16  C   UNL     1      15.454 -49.034  72.885  1.00  0.00     0.013 A 
ATOM     17  C   UNL     1      14.493 -49.836  73.507  1.00  0.00     0.047 A 
BRANCH  15  18
ATOM     18  O   UNL     1      12.213 -50.595  73.718  1.00  0.00    -0.508 OA
ATOM     19  H   UNL     1      11.530 -51.122  73.186  1.00  0.00     0.293 HD
ENDBRANCH  15  18
ENDBRANCH   1  12
BRANCH  11  20
ATOM     20  C   UNL     1      18.293 -43.472  68.631  1.00  0.00     0.188 C 
ATOM     21  C   UNL     1      18.064 -43.674  67.111  1.00  0.00     0.179 C 
ATOM     22  O   UNL     1      19.181 -42.392  68.872  1.00  0.00    -0.362 OA
ATOM     23  C   UNL     1      17.553 -42.368  66.478  1.00  0.00     0.177 C 
ATOM     24  C   UNL     1      18.613 -41.168  68.433  1.00  0.00     0.176 C 
ATOM     25  C   UNL     1      18.434 -41.173  66.896  1.00  0.00     0.177 C 
BRANCH  21  26
ATOM     26  O   UNL     1      19.258 -44.059  66.476  1.00  0.00    -0.387 OA
ATOM     27  H   UNL     1      19.162 -43.840  65.513  1.00  0.00     0.211 HD
ENDBRANCH  21  26
BRANCH  23  28
ATOM     28  O   UNL     1      16.222 -42.150  66.877  1.00  0.00    -0.387 OA
ATOM     29  H   UNL     1      15.736 -41.801  66.084  1.00  0.00     0.211 HD
ENDBRANCH  23  28
BRANCH  24  30
ATOM     30  C   UNL     1      19.512 -40.008  68.888  1.00  0.00     0.191 C 
BRANCH  30  31
ATOM     31  O   UNL     1      20.799 -40.477  69.186  1.00  0.00    -0.394 OA
ATOM     32  H   UNL     1      20.686 -41.308  69.716  1.00  0.00     0.210 HD
ENDBRANCH  30  31
ENDBRANCH  24  30
BRANCH  25  33
ATOM     33  O   UNL     1      19.681 -41.273  66.256  1.00  0.00    -0.388 OA
ATOM     34  H   UNL     1      20.376 -41.049  66.928  1.00  0.00     0.211 HD
ENDBRANCH  25  33
ENDBRANCH  11  20
BRANCH  10  35
ATOM     35  O   UNL     1      21.090 -44.302  68.486  1.00  0.00    -0.507 OA
ATOM     36  H   UNL     1      20.783 -43.612  67.810  1.00  0.00     0.293 HD
ENDBRANCH  10  35
TORSDOF 9
ENDMDL
MODEL 6
REMARK VINA RESULT:    -7.791      5.950      6.930
REMARK INTER + INTRA:         -10.890
REMARK INTER:                  -9.769
REMARK INTRA:                  -1.121
REMARK UNBOUND:                -0.366
REMARK SMILES O=c1c(-c2ccc(O)cc2)coc2c([C@H]3O[C@@H](CO)[C@@H](O)[C@H](O)[C@H]3O)c(O)ccc12
REMARK SMILES IDX 3 1 11 2 12 3 13 4 30 5 2 6 1 7 29 8 28 9 26 10 14 11 4 12
REMARK SMILES IDX 5 13 6 14 7 15 10 16 9 17 8 18 15 20 24 21 16 22 22 23 17 24
REMARK SMILES IDX 20 25 25 26 23 28 18 30 19 31 21 33 27 35
REMARK H PARENT 8 19 25 27 23 29 19 32 21 34 27 36
REMARK Flexibility Score: inf
ROOT
ATOM      1  C   UNL     1      13.093 -45.117  68.751  1.00  0.00     0.065 A 
ATOM      2  C   UNL     1      14.381 -44.584  68.618  1.00  0.00     0.208 A 
ATOM      3  O   UNL     1      14.698 -43.817  67.582  1.00  0.00    -0.463 OA
ATOM      4  C   UNL     1      13.838 -43.505  66.616  1.00  0.00     0.147 A 
ATOM      5  C   UNL     1      12.514 -44.000  66.671  1.00  0.00     0.066 A 
ATOM      6  C   UNL     1      12.147 -44.824  67.751  1.00  0.00     0.200 A 
ATOM      7  O   UNL     1      10.983 -45.309  67.815  1.00  0.00    -0.288 OA
ATOM      8  C   UNL     1      11.604 -43.661  65.659  1.00  0.00     0.020 A 
ATOM      9  C   UNL     1      11.995 -42.826  64.615  1.00  0.00     0.047 A 
ATOM     10  C   UNL     1      13.301 -42.323  64.552  1.00  0.00     0.125 A 
ATOM     11  C   UNL     1      14.249 -42.681  65.541  1.00  0.00     0.069 A 
ENDROOT
BRANCH   1  12
ATOM     12  C   UNL     1      12.760 -45.968  69.921  1.00  0.00    -0.011 A 
ATOM     13  C   UNL     1      12.333 -45.389  71.130  1.00  0.00     0.013 A 
ATOM     14  C   UNL     1      12.031 -46.195  72.232  1.00  0.00     0.047 A 
ATOM     15  C   UNL     1      12.156 -47.587  72.142  1.00  0.00     0.115 A 
ATOM     16  C   UNL     1      12.891 -47.366  69.842  1.00  0.00     0.013 A 
ATOM     17  C   UNL     1      12.587 -48.169  70.946  1.00  0.00     0.047 A 
BRANCH  15  18
ATOM     18  O   UNL     1      11.858 -48.401  73.233  1.00  0.00    -0.508 OA
ATOM     19  H   UNL     1      11.832 -49.411  73.148  1.00  0.00     0.293 HD
ENDBRANCH  15  18
ENDBRANCH   1  12
BRANCH  11  20
ATOM     20  C   UNL     1      15.671 -42.135  65.510  1.00  0.00     0.188 C 
ATOM     21  C   UNL     1      15.720 -40.697  66.085  1.00  0.00     0.179 C 
ATOM     22  O   UNL     1      16.188 -42.172  64.189  1.00  0.00    -0.362 OA
ATOM     23  C   UNL     1      17.159 -40.154  66.024  1.00  0.00     0.177 C 
ATOM     24  C   UNL     1      17.566 -41.834  64.180  1.00  0.00     0.176 C 
ATOM     25  C   UNL     1      17.766 -40.364  64.622  1.00  0.00     0.177 C 
BRANCH  21  26
ATOM     26  O   UNL     1      14.873 -39.843  65.357  1.00  0.00    -0.387 OA
ATOM     27  H   UNL     1      15.263 -39.746  64.450  1.00  0.00     0.211 HD
ENDBRANCH  21  26
BRANCH  23  28
ATOM     28  O   UNL     1      17.941 -40.808  66.993  1.00  0.00    -0.387 OA
ATOM     29  H   UNL     1      18.289 -40.107  67.604  1.00  0.00     0.211 HD
ENDBRANCH  23  28
BRANCH  24  30
ATOM     30  C   UNL     1      18.131 -42.077  62.773  1.00  0.00     0.191 C 
BRANCH  30  31
ATOM     31  O   UNL     1      19.218 -41.226  62.530  1.00  0.00    -0.394 OA
ATOM     32  H   UNL     1      20.036 -41.723  62.792  1.00  0.00     0.210 HD
ENDBRANCH  30  31
ENDBRANCH  24  30
BRANCH  25  33
ATOM     33  O   UNL     1      17.145 -39.488  63.714  1.00  0.00    -0.388 OA
ATOM     34  H   UNL     1      17.865 -39.031  63.207  1.00  0.00     0.211 HD
ENDBRANCH  25  33
ENDBRANCH  11  20
BRANCH  10  35
ATOM     35  O   UNL     1      13.650 -41.464  63.511  1.00  0.00    -0.507 OA
ATOM     36  H   UNL     1      14.252 -41.761  62.751  1.00  0.00     0.293 HD
ENDBRANCH  10  35
TORSDOF 9
ENDMDL
MODEL 7
REMARK VINA RESULT:    -7.724      5.347      7.778
REMARK INTER + INTRA:         -10.799
REMARK INTER:                  -9.878
REMARK INTRA:                  -0.921
REMARK UNBOUND:                -0.366
REMARK SMILES O=c1c(-c2ccc(O)cc2)coc2c([C@H]3O[C@@H](CO)[C@@H](O)[C@H](O)[C@H]3O)c(O)ccc12
REMARK SMILES IDX 3 1 11 2 12 3 13 4 30 5 2 6 1 7 29 8 28 9 26 10 14 11 4 12
REMARK SMILES IDX 5 13 6 14 7 15 10 16 9 17 8 18 15 20 24 21 16 22 22 23 17 24
REMARK SMILES IDX 20 25 25 26 23 28 18 30 19 31 21 33 27 35
REMARK H PARENT 8 19 25 27 23 29 19 32 21 34 27 36
REMARK Flexibility Score: inf
ROOT
ATOM      1  C   UNL     1      17.087 -40.335  68.288  1.00  0.00     0.065 A 
ATOM      2  C   UNL     1      17.920 -41.199  69.012  1.00  0.00     0.208 A 
ATOM      3  O   UNL     1      18.042 -42.475  68.667  1.00  0.00    -0.463 OA
ATOM      4  C   UNL     1      17.400 -43.016  67.634  1.00  0.00     0.147 A 
ATOM      5  C   UNL     1      16.539 -42.215  66.849  1.00  0.00     0.066 A 
ATOM      6  C   UNL     1      16.379 -40.860  67.192  1.00  0.00     0.200 A 
ATOM      7  O   UNL     1      15.593 -40.124  66.532  1.00  0.00    -0.288 OA
ATOM      8  C   UNL     1      15.872 -42.782  65.753  1.00  0.00     0.020 A 
ATOM      9  C   UNL     1      16.069 -44.123  65.429  1.00  0.00     0.047 A 
ATOM     10  C   UNL     1      16.924 -44.925  66.195  1.00  0.00     0.125 A 
ATOM     11  C   UNL     1      17.580 -44.385  67.328  1.00  0.00     0.069 A 
ENDROOT
BRANCH   1  12
ATOM     12  C   UNL     1      16.971 -38.911  68.690  1.00  0.00    -0.011 A 
ATOM     13  C   UNL     1      17.270 -37.882  67.779  1.00  0.00     0.013 A 
ATOM     14  C   UNL     1      17.168 -36.542  68.166  1.00  0.00     0.047 A 
ATOM     15  C   UNL     1      16.770 -36.214  69.468  1.00  0.00     0.115 A 
ATOM     16  C   UNL     1      16.579 -38.572  69.998  1.00  0.00     0.013 A 
ATOM     17  C   UNL     1      16.477 -37.231  70.382  1.00  0.00     0.047 A 
BRANCH  15  18
ATOM     18  O   UNL     1      16.664 -34.883  69.866  1.00  0.00    -0.508 OA
ATOM     19  H   UNL     1      16.099 -34.612  70.663  1.00  0.00     0.293 HD
ENDBRANCH  15  18
ENDBRANCH   1  12
BRANCH  11  20
ATOM     20  C   UNL     1      18.531 -45.228  68.170  1.00  0.00     0.188 C 
ATOM     21  C   UNL     1      19.954 -45.229  67.555  1.00  0.00     0.179 C 
ATOM     22  O   UNL     1      18.035 -46.551  68.304  1.00  0.00    -0.362 OA
ATOM     23  C   UNL     1      20.894 -46.103  68.405  1.00  0.00     0.177 C 
ATOM     24  C   UNL     1      18.819 -47.289  69.228  1.00  0.00     0.176 C 
ATOM     25  C   UNL     1      20.257 -47.480  68.688  1.00  0.00     0.177 C 
BRANCH  21  26
ATOM     26  O   UNL     1      19.926 -45.724  66.239  1.00  0.00    -0.387 OA
ATOM     27  H   UNL     1      19.094 -46.257  66.144  1.00  0.00     0.211 HD
ENDBRANCH  21  26
BRANCH  23  28
ATOM     28  O   UNL     1      21.173 -45.442  69.614  1.00  0.00    -0.387 OA
ATOM     29  H   UNL     1      21.584 -44.569  69.378  1.00  0.00     0.211 HD
ENDBRANCH  23  28
BRANCH  24  30
ATOM     30  C   UNL     1      18.138 -48.640  69.494  1.00  0.00     0.191 C 
BRANCH  30  31
ATOM     31  O   UNL     1      19.072 -49.572  69.966  1.00  0.00    -0.394 OA
ATOM     32  H   UNL     1      18.854 -49.738  70.920  1.00  0.00     0.210 HD
ENDBRANCH  30  31
ENDBRANCH  24  30
BRANCH  25  33
ATOM     33  O   UNL     1      20.242 -48.233  67.502  1.00  0.00    -0.388 OA
ATOM     34  H   UNL     1      19.977 -49.159  67.744  1.00  0.00     0.211 HD
ENDBRANCH  25  33
ENDBRANCH  11  20
BRANCH  10  35
ATOM     35  O   UNL     1      17.125 -46.254  65.823  1.00  0.00    -0.507 OA
ATOM     36  H   UNL     1      16.355 -46.909  65.746  1.00  0.00     0.293 HD
ENDBRANCH  10  35
TORSDOF 9
ENDMDL
MODEL 8
REMARK VINA RESULT:    -7.711      6.273      8.192
REMARK INTER + INTRA:         -10.782
REMARK INTER:                 -10.057
REMARK INTRA:                  -0.725
REMARK UNBOUND:                -0.366
REMARK SMILES O=c1c(-c2ccc(O)cc2)coc2c([C@H]3O[C@@H](CO)[C@@H](O)[C@H](O)[C@H]3O)c(O)ccc12
REMARK SMILES IDX 3 1 11 2 12 3 13 4 30 5 2 6 1 7 29 8 28 9 26 10 14 11 4 12
REMARK SMILES IDX 5 13 6 14 7 15 10 16 9 17 8 18 15 20 24 21 16 22 22 23 17 24
REMARK SMILES IDX 20 25 25 26 23 28 18 30 19 31 21 33 27 35
REMARK H PARENT 8 19 25 27 23 29 19 32 21 34 27 36
REMARK Flexibility Score: inf
ROOT
ATOM      1  C   UNL     1      16.384 -45.012  68.847  1.00  0.00     0.065 A 
ATOM      2  C   UNL     1      15.401 -45.311  67.893  1.00  0.00     0.208 A 
ATOM      3  O   UNL     1      15.134 -44.469  66.902  1.00  0.00    -0.463 OA
ATOM      4  C   UNL     1      15.764 -43.308  66.743  1.00  0.00     0.147 A 
ATOM      5  C   UNL     1      16.771 -42.926  67.660  1.00  0.00     0.066 A 
ATOM      6  C   UNL     1      17.073 -43.791  68.728  1.00  0.00     0.200 A 
ATOM      7  O   UNL     1      17.945 -43.467  69.583  1.00  0.00    -0.288 OA
ATOM      8  C   UNL     1      17.443 -41.708  67.484  1.00  0.00     0.020 A 
ATOM      9  C   UNL     1      17.133 -40.885  66.403  1.00  0.00     0.047 A 
ATOM     10  C   UNL     1      16.142 -41.254  65.485  1.00  0.00     0.125 A 
ATOM     11  C   UNL     1      15.424 -42.462  65.661  1.00  0.00     0.069 A 
ENDROOT
BRANCH   1  12
ATOM     12  C   UNL     1      16.668 -45.971  69.943  1.00  0.00    -0.011 A 
ATOM     13  C   UNL     1      17.989 -46.359  70.233  1.00  0.00     0.013 A 
ATOM     14  C   UNL     1      18.250 -47.270  71.260  1.00  0.00     0.047 A 
ATOM     15  C   UNL     1      17.195 -47.809  72.008  1.00  0.00     0.115 A 
ATOM     16  C   UNL     1      15.615 -46.523  70.694  1.00  0.00     0.013 A 
ATOM     17  C   UNL     1      15.879 -47.434  71.721  1.00  0.00     0.047 A 
BRANCH  15  18
ATOM     18  O   UNL     1      17.443 -48.718  73.034  1.00  0.00    -0.508 OA
ATOM     19  H   UNL     1      16.741 -49.389  73.327  1.00  0.00     0.293 HD
ENDBRANCH  15  18
ENDBRANCH   1  12
BRANCH  11  20
ATOM     20  C   UNL     1      14.354 -42.900  64.668  1.00  0.00     0.188 C 
ATOM     21  C   UNL     1      14.954 -43.840  63.593  1.00  0.00     0.179 C 
ATOM     22  O   UNL     1      13.741 -41.768  64.069  1.00  0.00    -0.362 OA
ATOM     23  C   UNL     1      13.865 -44.253  62.587  1.00  0.00     0.177 C 
ATOM     24  C   UNL     1      12.628 -42.160  63.280  1.00  0.00     0.176 C 
ATOM     25  C   UNL     1      13.091 -43.019  62.078  1.00  0.00     0.177 C 
BRANCH  21  26
ATOM     26  O   UNL     1      16.002 -43.202  62.904  1.00  0.00    -0.387 OA
ATOM     27  H   UNL     1      15.608 -42.428  62.424  1.00  0.00     0.211 HD
ENDBRANCH  21  26
BRANCH  23  28
ATOM     28  O   UNL     1      12.982 -45.156  63.205  1.00  0.00    -0.387 OA
ATOM     29  H   UNL     1      12.906 -44.880  64.156  1.00  0.00     0.211 HD
ENDBRANCH  23  28
BRANCH  24  30
ATOM     30  C   UNL     1      11.879 -40.903  62.813  1.00  0.00     0.191 C 
BRANCH  30  31
ATOM     31  O   UNL     1      11.326 -41.108  61.542  1.00  0.00    -0.394 OA
ATOM     32  H   UNL     1      10.397 -41.428  61.682  1.00  0.00     0.210 HD
ENDBRANCH  30  31
ENDBRANCH  24  30
BRANCH  25  33
ATOM     33  O   UNL     1      13.925 -42.269  61.230  1.00  0.00    -0.388 OA
ATOM     34  H   UNL     1      14.476 -41.678  61.806  1.00  0.00     0.211 HD
ENDBRANCH  25  33
ENDBRANCH  11  20
BRANCH  10  35
ATOM     35  O   UNL     1      15.880 -40.423  64.396  1.00  0.00    -0.507 OA
ATOM     36  H   UNL     1      16.611 -39.883  63.948  1.00  0.00     0.293 HD
ENDBRANCH  10  35
TORSDOF 9
ENDMDL
MODEL 9
REMARK VINA RESULT:    -7.569      6.485      9.896
REMARK INTER + INTRA:         -10.590
REMARK INTER:                  -9.598
REMARK INTRA:                  -0.992
REMARK UNBOUND:                -0.366
REMARK SMILES O=c1c(-c2ccc(O)cc2)coc2c([C@H]3O[C@@H](CO)[C@@H](O)[C@H](O)[C@H]3O)c(O)ccc12
REMARK SMILES IDX 3 1 11 2 12 3 13 4 30 5 2 6 1 7 29 8 28 9 26 10 14 11 4 12
REMARK SMILES IDX 5 13 6 14 7 15 10 16 9 17 8 18 15 20 24 21 16 22 22 23 17 24
REMARK SMILES IDX 20 25 25 26 23 28 18 30 19 31 21 33 27 35
REMARK H PARENT 8 19 25 27 23 29 19 32 21 34 27 36
REMARK Flexibility Score: inf
ROOT
ATOM      1  C   UNL     1      19.583 -41.929  67.966  1.00  0.00     0.065 A 
ATOM      2  C   UNL     1      18.809 -42.657  67.054  1.00  0.00     0.208 A 
ATOM      3  O   UNL     1      17.685 -42.153  66.559  1.00  0.00    -0.463 OA
ATOM      4  C   UNL     1      17.221 -40.949  66.884  1.00  0.00     0.147 A 
ATOM      5  C   UNL     1      17.941 -40.145  67.799  1.00  0.00     0.066 A 
ATOM      6  C   UNL     1      19.132 -40.652  68.349  1.00  0.00     0.200 A 
ATOM      7  O   UNL     1      19.783 -39.975  69.193  1.00  0.00    -0.288 OA
ATOM      8  C   UNL     1      17.458 -38.871  68.131  1.00  0.00     0.020 A 
ATOM      9  C   UNL     1      16.286 -38.391  67.551  1.00  0.00     0.047 A 
ATOM     10  C   UNL     1      15.567 -39.175  66.639  1.00  0.00     0.125 A 
ATOM     11  C   UNL     1      16.014 -40.479  66.315  1.00  0.00     0.069 A 
ENDROOT
BRANCH   1  12
ATOM     12  C   UNL     1      20.840 -42.511  68.502  1.00  0.00    -0.011 A 
ATOM     13  C   UNL     1      20.814 -43.687  69.272  1.00  0.00     0.013 A 
ATOM     14  C   UNL     1      21.999 -44.226  69.782  1.00  0.00     0.047 A 
ATOM     15  C   UNL     1      23.224 -43.594  69.532  1.00  0.00     0.115 A 
ATOM     16  C   UNL     1      22.073 -41.879  68.262  1.00  0.00     0.013 A 
ATOM     17  C   UNL     1      23.257 -42.420  68.773  1.00  0.00     0.047 A 
BRANCH  15  18
ATOM     18  O   UNL     1      24.412 -44.121  70.034  1.00  0.00    -0.508 OA
ATOM     19  H   UNL     1      25.255 -44.153  69.472  1.00  0.00     0.293 HD
ENDBRANCH  15  18
ENDBRANCH   1  12
BRANCH  11  20
ATOM     20  C   UNL     1      15.263 -41.347  65.313  1.00  0.00     0.188 C 
ATOM     21  C   UNL     1      15.684 -40.999  63.862  1.00  0.00     0.179 C 
ATOM     22  O   UNL     1      13.862 -41.205  65.484  1.00  0.00    -0.362 OA
ATOM     23  C   UNL     1      14.899 -41.869  62.864  1.00  0.00     0.177 C 
ATOM     24  C   UNL     1      13.161 -42.139  64.678  1.00  0.00     0.176 C 
ATOM     25  C   UNL     1      13.389 -41.839  63.177  1.00  0.00     0.177 C 
BRANCH  21  26
ATOM     26  O   UNL     1      15.437 -39.642  63.586  1.00  0.00    -0.387 OA
ATOM     27  H   UNL     1      14.931 -39.273  64.357  1.00  0.00     0.211 HD
ENDBRANCH  21  26
BRANCH  23  28
ATOM     28  O   UNL     1      15.379 -43.189  62.924  1.00  0.00    -0.387 OA
ATOM     29  H   UNL     1      15.927 -43.260  63.750  1.00  0.00     0.211 HD
ENDBRANCH  23  28
BRANCH  24  30
ATOM     30  C   UNL     1      11.668 -42.088  65.038  1.00  0.00     0.191 C 
BRANCH  30  31
ATOM     31  O   UNL     1      11.321 -40.811  65.498  1.00  0.00    -0.394 OA
ATOM     32  H   UNL     1      10.659 -40.939  66.226  1.00  0.00     0.210 HD
ENDBRANCH  30  31
ENDBRANCH  24  30
BRANCH  25  33
ATOM     33  O   UNL     1      12.874 -40.574  62.843  1.00  0.00    -0.388 OA
ATOM     34  H   UNL     1      13.281 -39.917  63.466  1.00  0.00     0.211 HD
ENDBRANCH  25  33
ENDBRANCH  11  20
BRANCH  10  35
ATOM     35  O   UNL     1      14.415 -38.651  66.052  1.00  0.00    -0.507 OA
ATOM     36  H   UNL     1      14.342 -37.672  65.800  1.00  0.00     0.293 HD
ENDBRANCH  10  35
TORSDOF 9
ENDMDL
