MODEL 1
REMARK VINA RESULT:    -2.781      0.000      0.000
REMARK INTER + INTRA:          -2.781
REMARK INTER:                  -2.781
REMARK INTRA:                   0.000
REMARK UNBOUND:                 0.000
REMARK SMILES CC(=O)[O-]
REMARK SMILES IDX 1 1 2 2 3 3 4 4
REMARK H PARENT
REMARK Flexibility Score: inf
ROOT
ATOM      1  C   UNL     1     -16.694  -0.303   1.146  1.00  0.00     0.063 C 
ATOM      2  C   UNL     1     -15.811  -0.453   2.337  1.00  0.00     0.038 C 
ATOM      3  O   UNL     1     -16.307  -0.724   3.462  1.00  0.00    -0.550 OA
ATOM      4  O   UNL     1     -14.433  -0.346   2.200  1.00  0.00    -0.550 OA
ENDROOT
TORSDOF 0
ENDMDL
MODEL 2
REMARK VINA RESULT:    -2.660     19.194     19.831
REMARK INTER + INTRA:          -2.660
REMARK INTER:                  -2.660
REMARK INTRA:                   0.000
REMARK UNBOUND:                 0.000
REMARK SMILES CC(=O)[O-]
REMARK SMILES IDX 1 1 2 2 3 3 4 4
REMARK H PARENT
REMARK Flexibility Score: inf
ROOT
ATOM      1  C   UNL     1       2.640   8.746   4.630  1.00  0.00     0.063 C 
ATOM      2  C   UNL     1       1.540   8.736   3.624  1.00  0.00     0.038 C 
ATOM      3  O   UNL     1       1.804   8.610   2.399  1.00  0.00    -0.550 OA
ATOM      4  O   UNL     1       0.217   8.810   4.040  1.00  0.00    -0.550 OA
ENDROOT
TORSDOF 0
ENDMDL
MODEL 3
REMARK VINA RESULT:    -2.607      1.406      1.763
REMARK INTER + INTRA:          -2.607
REMARK INTER:                  -2.607
REMARK INTRA:                   0.000
REMARK UNBOUND:                 0.000
REMARK SMILES CC(=O)[O-]
REMARK SMILES IDX 1 1 2 2 3 3 4 4
REMARK H PARENT
REMARK Flexibility Score: inf
ROOT
ATOM      1  C   UNL     1     -16.778  -0.571   2.568  1.00  0.00     0.063 C 
ATOM      2  C   UNL     1     -15.632  -0.557   1.615  1.00  0.00     0.038 C 
ATOM      3  O   UNL     1     -15.836  -0.672   0.378  1.00  0.00    -0.550 OA
ATOM      4  O   UNL     1     -14.338  -0.363   2.084  1.00  0.00    -0.550 OA
ENDROOT
TORSDOF 0
ENDMDL
MODEL 4
REMARK VINA RESULT:    -2.579     19.278     19.843
REMARK INTER + INTRA:          -2.579
REMARK INTER:                  -2.579
REMARK INTRA:                   0.000
REMARK UNBOUND:                 0.000
REMARK SMILES CC(=O)[O-]
REMARK SMILES IDX 1 1 2 2 3 3 4 4
REMARK H PARENT
REMARK Flexibility Score: inf
ROOT
ATOM      1  C   UNL     1       2.662   8.767   4.713  1.00  0.00     0.063 C 
ATOM      2  C   UNL     1       1.582   8.716   3.687  1.00  0.00     0.038 C 
ATOM      3  O   UNL     1       0.376   8.820   4.033  1.00  0.00    -0.550 OA
ATOM      4  O   UNL     1       1.906   8.607   2.341  1.00  0.00    -0.550 OA
ENDROOT
TORSDOF 0
ENDMDL
MODEL 5
REMARK VINA RESULT:    -2.532     15.164     15.399
REMARK INTER + INTRA:          -2.532
REMARK INTER:                  -2.532
REMARK INTRA:                   0.000
REMARK UNBOUND:                 0.000
REMARK SMILES CC(=O)[O-]
REMARK SMILES IDX 1 1 2 2 3 3 4 4
REMARK H PARENT
REMARK Flexibility Score: inf
ROOT
ATOM      1  C   UNL     1     -10.282  12.544  10.125  1.00  0.00     0.063 C 
ATOM      2  C   UNL     1     -11.701  12.145   9.899  1.00  0.00     0.038 C 
ATOM      3  O   UNL     1     -12.632  12.962  10.125  1.00  0.00    -0.550 OA
ATOM      4  O   UNL     1     -11.997  10.888   9.386  1.00  0.00    -0.550 OA
ENDROOT
TORSDOF 0
ENDMDL
MODEL 6
REMARK VINA RESULT:    -2.463     15.253     15.457
REMARK INTER + INTRA:          -2.463
REMARK INTER:                  -2.463
REMARK INTRA:                   0.000
REMARK UNBOUND:                 0.000
REMARK SMILES CC(=O)[O-]
REMARK SMILES IDX 1 1 2 2 3 3 4 4
REMARK H PARENT
REMARK Flexibility Score: inf
ROOT
ATOM      1  C   UNL     1     -12.184  10.901   9.744  1.00  0.00     0.063 C 
ATOM      2  C   UNL     1     -11.768  12.315   9.965  1.00  0.00     0.038 C 
ATOM      3  O   UNL     1     -12.636  13.212  10.125  1.00  0.00    -0.550 OA
ATOM      4  O   UNL     1     -10.419  12.638  10.050  1.00  0.00    -0.550 OA
ENDROOT
TORSDOF 0
ENDMDL
MODEL 7
REMARK VINA RESULT:    -2.407      3.135      3.638
REMARK INTER + INTRA:          -2.407
REMARK INTER:                  -2.407
REMARK INTRA:                   0.000
REMARK UNBOUND:                 0.000
REMARK SMILES CC(=O)[O-]
REMARK SMILES IDX 1 1 2 2 3 3 4 4
REMARK H PARENT
REMARK Flexibility Score: inf
ROOT
ATOM      1  C   UNL     1     -16.093  -0.292   0.400  1.00  0.00     0.063 C 
ATOM      2  C   UNL     1     -16.273   0.984  -0.350  1.00  0.00     0.038 C 
ATOM      3  O   UNL     1     -15.619   2.008  -0.023  1.00  0.00    -0.550 OA
ATOM      4  O   UNL     1     -17.125   1.032  -1.447  1.00  0.00    -0.550 OA
ENDROOT
TORSDOF 0
ENDMDL
MODEL 8
REMARK VINA RESULT:    -2.263      1.857      2.446
REMARK INTER + INTRA:          -2.263
REMARK INTER:                  -2.263
REMARK INTRA:                   0.000
REMARK UNBOUND:                 0.000
REMARK SMILES CC(=O)[O-]
REMARK SMILES IDX 1 1 2 2 3 3 4 4
REMARK H PARENT
REMARK Flexibility Score: inf
ROOT
ATOM      1  C   UNL     1     -16.808  -0.669  -0.265  1.00  0.00     0.063 C 
ATOM      2  C   UNL     1     -15.781   0.187   0.396  1.00  0.00     0.038 C 
ATOM      3  O   UNL     1     -15.619   1.379   0.027  1.00  0.00    -0.550 OA
ATOM      4  O   UNL     1     -15.038  -0.313   1.458  1.00  0.00    -0.550 OA
ENDROOT
TORSDOF 0
ENDMDL
MODEL 9
REMARK VINA RESULT:    -2.138     18.118     18.455
REMARK INTER + INTRA:          -2.138
REMARK INTER:                  -2.138
REMARK INTRA:                   0.000
REMARK UNBOUND:                 0.000
REMARK SMILES CC(=O)[O-]
REMARK SMILES IDX 1 1 2 2 3 3 4 4
REMARK H PARENT
REMARK Flexibility Score: inf
ROOT
ATOM      1  C   UNL     1      -6.427  15.125   3.104  1.00  0.00     0.063 C 
ATOM      2  C   UNL     1      -6.233  15.074   4.581  1.00  0.00     0.038 C 
ATOM      3  O   UNL     1      -5.071  15.052   5.066  1.00  0.00    -0.550 OA
ATOM      4  O   UNL     1      -7.333  15.105   5.429  1.00  0.00    -0.550 OA
ENDROOT
TORSDOF 0
ENDMDL
