MODEL 1
REMARK VINA RESULT:    20.765      0.000      0.000
REMARK INTER + INTRA:          28.661
REMARK INTER:                  29.262
REMARK INTRA:                  -0.601
REMARK UNBOUND:                -0.601
REMARK SMILES O=C(C=Cc1ccc(O)cc1)CC(=O)C=Cc1ccc(O)cc1
REMARK SMILES IDX 12 1 2 2 1 3 3 4 4 5 5 6 6 7 7 8 8 9 11 10 10 11 9 12 13 14
REMARK SMILES IDX 14 15 15 16 16 17 17 18 18 19 23 20 19 21 22 22 20 23 21 24
REMARK H PARENT 9 13 21 25
REMARK Flexibility Score: inf
ROOT
ATOM      1  C   UNL     1      19.220 -15.814 -14.410  1.00  0.00     0.160 C 
ENDROOT
BRANCH   1   2
ATOM      2  C   UNL     1      19.265 -14.320 -14.515  1.00  0.00     0.163 C 
ATOM      3  O   UNL     1      18.276 -13.645 -14.120  1.00  0.00    -0.294 OA
BRANCH   2   4
ATOM      4  C   UNL     1      20.466 -13.651 -15.056  1.00  0.00     0.048 C 
ATOM      5  C   UNL     1      20.438 -12.936 -16.188  1.00  0.00     0.012 C 
BRANCH   5   6
ATOM      6  C   UNL     1      21.634 -12.284 -16.775  1.00  0.00    -0.025 A 
ATOM      7  C   UNL     1      21.713 -12.149 -18.172  1.00  0.00     0.012 A 
ATOM      8  C   UNL     1      22.838 -11.567 -18.767  1.00  0.00     0.047 A 
ATOM      9  C   UNL     1      23.903 -11.124 -17.975  1.00  0.00     0.115 A 
ATOM     10  C   UNL     1      22.716 -11.844 -15.986  1.00  0.00     0.012 A 
ATOM     11  C   UNL     1      23.840 -11.266 -16.585  1.00  0.00     0.047 A 
BRANCH   9  12
ATOM     12  O   UNL     1      25.033 -10.551 -18.556  1.00  0.00    -0.508 OA
ATOM     13  H   UNL     1      25.115  -9.548 -18.678  1.00  0.00     0.293 HD
ENDBRANCH   9  12
ENDBRANCH   5   6
ENDBRANCH   2   4
ENDBRANCH   1   2
BRANCH   1  14
ATOM     14  C   UNL     1      20.397 -16.315 -13.629  1.00  0.00     0.163 C 
ATOM     15  O   UNL     1      20.264 -16.548 -12.396  1.00  0.00    -0.294 OA
BRANCH  14  16
ATOM     16  C   UNL     1      21.687 -16.552 -14.308  1.00  0.00     0.048 C 
ATOM     17  C   UNL     1      22.240 -17.770 -14.390  1.00  0.00     0.012 C 
BRANCH  17  18
ATOM     18  C   UNL     1      23.540 -18.041 -15.053  1.00  0.00    -0.025 A 
ATOM     19  C   UNL     1      23.630 -18.547 -16.367  1.00  0.00     0.012 A 
ATOM     20  C   UNL     1      24.726 -17.739 -14.361  1.00  0.00     0.012 A 
ATOM     21  C   UNL     1      24.879 -18.766 -16.957  1.00  0.00     0.047 A 
ATOM     22  C   UNL     1      25.973 -17.962 -14.954  1.00  0.00     0.047 A 
ATOM     23  C   UNL     1      26.053 -18.477 -16.250  1.00  0.00     0.115 A 
BRANCH  23  24
ATOM     24  O   UNL     1      27.302 -18.696 -16.829  1.00  0.00    -0.508 OA
ATOM     25  H   UNL     1      27.444 -18.621 -17.829  1.00  0.00     0.293 HD
ENDBRANCH  23  24
ENDBRANCH  17  18
ENDBRANCH  14  16
ENDBRANCH   1  14
TORSDOF 8
ENDMDL
MODEL 2
REMARK VINA RESULT:    20.945      0.057      6.340
REMARK INTER + INTRA:          28.915
REMARK INTER:                  29.527
REMARK INTRA:                  -0.612
REMARK UNBOUND:                -0.601
REMARK SMILES O=C(C=Cc1ccc(O)cc1)CC(=O)C=Cc1ccc(O)cc1
REMARK SMILES IDX 12 1 2 2 1 3 3 4 4 5 5 6 6 7 7 8 8 9 11 10 10 11 9 12 13 14
REMARK SMILES IDX 14 15 15 16 16 17 17 18 18 19 23 20 19 21 22 22 20 23 21 24
REMARK H PARENT 9 13 21 25
REMARK Flexibility Score: inf
ROOT
ATOM      1  C   UNL     1      19.253 -15.868 -14.419  1.00  0.00     0.160 C 
ENDROOT
BRANCH   1   2
ATOM      2  C   UNL     1      20.423 -16.348 -13.617  1.00  0.00     0.163 C 
ATOM      3  O   UNL     1      20.276 -16.568 -12.384  1.00  0.00    -0.294 OA
BRANCH   2   4
ATOM      4  C   UNL     1      21.725 -16.580 -14.273  1.00  0.00     0.048 C 
ATOM      5  C   UNL     1      22.212 -17.811 -14.482  1.00  0.00     0.012 C 
BRANCH   5   6
ATOM      6  C   UNL     1      23.533 -18.075 -15.104  1.00  0.00    -0.025 A 
ATOM      7  C   UNL     1      24.696 -17.736 -14.392  1.00  0.00     0.012 A 
ATOM      8  C   UNL     1      25.960 -17.941 -14.955  1.00  0.00     0.047 A 
ATOM      9  C   UNL     1      26.078 -18.477 -16.243  1.00  0.00     0.115 A 
ATOM     10  C   UNL     1      23.661 -18.606 -16.405  1.00  0.00     0.012 A 
ATOM     11  C   UNL     1      24.927 -18.806 -16.965  1.00  0.00     0.047 A 
BRANCH   9  12
ATOM     12  O   UNL     1      27.332 -18.678 -16.818  1.00  0.00    -0.508 OA
ATOM     13  H   UNL     1      28.070 -17.990 -16.733  1.00  0.00     0.293 HD
ENDBRANCH   9  12
ENDBRANCH   5   6
ENDBRANCH   2   4
ENDBRANCH   1   2
BRANCH   1  14
ATOM     14  C   UNL     1      19.278 -14.374 -14.532  1.00  0.00     0.163 C 
ATOM     15  O   UNL     1      18.275 -13.709 -14.152  1.00  0.00    -0.294 OA
BRANCH  14  16
ATOM     16  C   UNL     1      20.478 -13.694 -15.063  1.00  0.00     0.048 C 
ATOM     17  C   UNL     1      20.461 -13.002 -16.210  1.00  0.00     0.012 C 
BRANCH  17  18
ATOM     18  C   UNL     1      21.650 -12.319 -16.777  1.00  0.00    -0.025 A 
ATOM     19  C   UNL     1      22.718 -11.865 -15.974  1.00  0.00     0.012 A 
ATOM     20  C   UNL     1      21.736 -12.158 -18.171  1.00  0.00     0.012 A 
ATOM     21  C   UNL     1      23.828 -11.246 -16.557  1.00  0.00     0.047 A 
ATOM     22  C   UNL     1      22.846 -11.535 -18.749  1.00  0.00     0.047 A 
ATOM     23  C   UNL     1      23.893 -11.076 -17.945  1.00  0.00     0.115 A 
BRANCH  23  24
ATOM     24  O   UNL     1      24.993 -10.456 -18.535  1.00  0.00    -0.508 OA
ATOM     25  H   UNL     1      25.407  -9.622 -18.136  1.00  0.00     0.293 HD
ENDBRANCH  23  24
ENDBRANCH  17  18
ENDBRANCH  14  16
ENDBRANCH   1  14
TORSDOF 8
ENDMDL
MODEL 3
REMARK VINA RESULT:    22.722      5.240      9.858
REMARK INTER + INTRA:          31.419
REMARK INTER:                  31.978
REMARK INTRA:                  -0.559
REMARK UNBOUND:                -0.601
REMARK SMILES O=C(C=Cc1ccc(O)cc1)CC(=O)C=Cc1ccc(O)cc1
REMARK SMILES IDX 12 1 2 2 1 3 3 4 4 5 5 6 6 7 7 8 8 9 11 10 10 11 9 12 13 14
REMARK SMILES IDX 14 15 15 16 16 17 17 18 18 19 23 20 19 21 22 22 20 23 21 24
REMARK H PARENT 9 13 21 25
REMARK Flexibility Score: inf
ROOT
ATOM      1  C   UNL     1      24.276  -5.705 -20.687  1.00  0.00     0.160 C 
ENDROOT
BRANCH   1   2
ATOM      2  C   UNL     1      23.076  -6.344 -20.059  1.00  0.00     0.163 C 
ATOM      3  O   UNL     1      22.145  -5.613 -19.622  1.00  0.00    -0.294 OA
BRANCH   2   4
ATOM      4  C   UNL     1      22.979  -7.815 -19.975  1.00  0.00     0.048 C 
ATOM      5  C   UNL     1      22.692  -8.450 -18.830  1.00  0.00     0.012 C 
BRANCH   5   6
ATOM      6  C   UNL     1      22.625  -9.927 -18.707  1.00  0.00    -0.025 A 
ATOM      7  C   UNL     1      23.103 -10.530 -17.530  1.00  0.00     0.012 A 
ATOM      8  C   UNL     1      23.085 -11.921 -17.387  1.00  0.00     0.047 A 
ATOM      9  C   UNL     1      22.601 -12.729 -18.422  1.00  0.00     0.115 A 
ATOM     10  C   UNL     1      22.148 -10.750 -19.748  1.00  0.00     0.012 A 
ATOM     11  C   UNL     1      22.135 -12.140 -19.601  1.00  0.00     0.047 A 
BRANCH   9  12
ATOM     12  O   UNL     1      22.586 -14.117 -18.294  1.00  0.00    -0.508 OA
ATOM     13  H   UNL     1      23.137 -14.590 -17.588  1.00  0.00     0.293 HD
ENDBRANCH   9  12
ENDBRANCH   5   6
ENDBRANCH   2   4
ENDBRANCH   1   2
BRANCH   1  14
ATOM     14  C   UNL     1      24.514  -6.275 -22.052  1.00  0.00     0.163 C 
ATOM     15  O   UNL     1      24.096  -5.647 -23.064  1.00  0.00    -0.294 OA
BRANCH  14  16
ATOM     16  C   UNL     1      25.250  -7.547 -22.203  1.00  0.00     0.048 C 
ATOM     17  C   UNL     1      26.501  -7.597 -22.681  1.00  0.00     0.012 C 
BRANCH  17  18
ATOM     18  C   UNL     1      27.264  -8.858 -22.858  1.00  0.00    -0.025 A 
ATOM     19  C   UNL     1      28.337  -9.219 -22.015  1.00  0.00     0.012 A 
ATOM     20  C   UNL     1      26.875  -9.746 -23.876  1.00  0.00     0.012 A 
ATOM     21  C   UNL     1      29.012 -10.428 -22.208  1.00  0.00     0.047 A 
ATOM     22  C   UNL     1      27.555 -10.953 -24.066  1.00  0.00     0.047 A 
ATOM     23  C   UNL     1      28.625 -11.296 -23.236  1.00  0.00     0.115 A 
BRANCH  23  24
ATOM     24  O   UNL     1      29.295 -12.502 -23.439  1.00  0.00    -0.508 OA
ATOM     25  H   UNL     1      29.510 -13.124 -22.669  1.00  0.00     0.293 HD
ENDBRANCH  23  24
ENDBRANCH  17  18
ENDBRANCH  14  16
ENDBRANCH   1  14
TORSDOF 8
ENDMDL
MODEL 4
REMARK VINA RESULT:    22.986      5.230      9.587
REMARK INTER + INTRA:          31.792
REMARK INTER:                  32.322
REMARK INTRA:                  -0.530
REMARK UNBOUND:                -0.601
REMARK SMILES O=C(C=Cc1ccc(O)cc1)CC(=O)C=Cc1ccc(O)cc1
REMARK SMILES IDX 12 1 2 2 1 3 3 4 4 5 5 6 6 7 7 8 8 9 11 10 10 11 9 12 13 14
REMARK SMILES IDX 14 15 15 16 16 17 17 18 18 19 23 20 19 21 22 22 20 23 21 24
REMARK H PARENT 9 13 21 25
REMARK Flexibility Score: inf
ROOT
ATOM      1  C   UNL     1      24.242  -5.735 -20.658  1.00  0.00     0.160 C 
ENDROOT
BRANCH   1   2
ATOM      2  C   UNL     1      24.483  -6.270 -22.036  1.00  0.00     0.163 C 
ATOM      3  O   UNL     1      24.097  -5.601 -23.034  1.00  0.00    -0.294 OA
BRANCH   2   4
ATOM      4  C   UNL     1      25.185  -7.556 -22.219  1.00  0.00     0.048 C 
ATOM      5  C   UNL     1      26.445  -7.627 -22.669  1.00  0.00     0.012 C 
BRANCH   5   6
ATOM      6  C   UNL     1      27.163  -8.904 -22.899  1.00  0.00    -0.025 A 
ATOM      7  C   UNL     1      28.282  -9.204 -22.102  1.00  0.00     0.012 A 
ATOM      8  C   UNL     1      29.004 -10.385 -22.306  1.00  0.00     0.047 A 
ATOM      9  C   UNL     1      28.625 -11.275 -23.318  1.00  0.00     0.115 A 
ATOM     10  C   UNL     1      26.794  -9.803 -23.921  1.00  0.00     0.012 A 
ATOM     11  C   UNL     1      27.521 -10.980 -24.123  1.00  0.00     0.047 A 
BRANCH   9  12
ATOM     12  O   UNL     1      29.342 -12.451 -23.536  1.00  0.00    -0.508 OA
ATOM     13  H   UNL     1      28.875 -13.321 -23.762  1.00  0.00     0.293 HD
ENDBRANCH   9  12
ENDBRANCH   5   6
ENDBRANCH   2   4
ENDBRANCH   1   2
BRANCH   1  14
ATOM     14  C   UNL     1      23.039  -6.390 -20.050  1.00  0.00     0.163 C 
ATOM     15  O   UNL     1      22.093  -5.670 -19.628  1.00  0.00    -0.294 OA
BRANCH  14  16
ATOM     16  C   UNL     1      22.962  -7.863 -19.970  1.00  0.00     0.048 C 
ATOM     17  C   UNL     1      22.708  -8.506 -18.822  1.00  0.00     0.012 C 
BRANCH  17  18
ATOM     18  C   UNL     1      22.637  -9.984 -18.706  1.00  0.00    -0.025 A 
ATOM     19  C   UNL     1      22.124 -10.802 -19.735  1.00  0.00     0.012 A 
ATOM     20  C   UNL     1      23.138 -10.594 -17.543  1.00  0.00     0.012 A 
ATOM     21  C   UNL     1      22.097 -12.192 -19.587  1.00  0.00     0.047 A 
ATOM     22  C   UNL     1      23.107 -11.985 -17.398  1.00  0.00     0.047 A 
ATOM     23  C   UNL     1      22.585 -12.786 -18.417  1.00  0.00     0.115 A 
BRANCH  23  24
ATOM     24  O   UNL     1      22.558 -14.171 -18.258  1.00  0.00    -0.508 OA
ATOM     25  H   UNL     1      21.785 -14.636 -17.798  1.00  0.00     0.293 HD
ENDBRANCH  23  24
ENDBRANCH  17  18
ENDBRANCH  14  16
ENDBRANCH   1  14
TORSDOF 8
ENDMDL
