MODEL 1
REMARK VINA RESULT:    -6.366      0.000      0.000
REMARK INTER + INTRA:          -6.366
REMARK INTER:                  -6.366
REMARK INTRA:                   0.000
REMARK UNBOUND:                 0.000
REMARK SMILES O=c1ccc2ccccc2o1
REMARK SMILES IDX 7 1 8 2 9 3 10 4 5 5 6 6 4 7 3 8 2 9 1 10 11 11
REMARK H PARENT
REMARK Flexibility Score: inf
ROOT
ATOM      1  C   UNL     1     -21.350 -13.875 -14.818  1.00  0.00     0.001 A 
ATOM      2  C   UNL     1     -21.059 -14.701 -13.726  1.00  0.00     0.004 A 
ATOM      3  C   UNL     1     -21.916 -15.754 -13.393  1.00  0.00     0.048 A 
ATOM      4  C   UNL     1     -23.070 -15.985 -14.150  1.00  0.00     0.138 A 
ATOM      5  C   UNL     1     -23.365 -15.152 -15.252  1.00  0.00     0.018 A 
ATOM      6  C   UNL     1     -22.500 -14.098 -15.581  1.00  0.00     0.012 A 
ATOM      7  C   UNL     1     -24.524 -15.406 -15.990  1.00  0.00     0.019 A 
ATOM      8  C   UNL     1     -25.351 -16.468 -15.621  1.00  0.00     0.094 A 
ATOM      9  C   UNL     1     -24.996 -17.252 -14.517  1.00  0.00     0.336 A 
ATOM     10  O   UNL     1     -25.730 -18.214 -14.169  1.00  0.00    -0.246 OA
ATOM     11  O   UNL     1     -23.887 -16.988 -13.832  1.00  0.00    -0.423 OA
ENDROOT
TORSDOF 0
ENDMDL
MODEL 2
REMARK VINA RESULT:    -6.342      1.681      3.848
REMARK INTER + INTRA:          -6.342
REMARK INTER:                  -6.342
REMARK INTRA:                   0.000
REMARK UNBOUND:                 0.000
REMARK SMILES O=c1ccc2ccccc2o1
REMARK SMILES IDX 7 1 8 2 9 3 10 4 5 5 6 6 4 7 3 8 2 9 1 10 11 11
REMARK H PARENT
REMARK Flexibility Score: inf
ROOT
ATOM      1  C   UNL     1     -25.405 -16.877 -15.239  1.00  0.00     0.001 A 
ATOM      2  C   UNL     1     -24.853 -17.633 -14.199  1.00  0.00     0.004 A 
ATOM      3  C   UNL     1     -23.638 -17.253 -13.620  1.00  0.00     0.048 A 
ATOM      4  C   UNL     1     -22.969 -16.114 -14.081  1.00  0.00     0.138 A 
ATOM      5  C   UNL     1     -23.525 -15.349 -15.131  1.00  0.00     0.018 A 
ATOM      6  C   UNL     1     -24.744 -15.736 -15.706  1.00  0.00     0.012 A 
ATOM      7  C   UNL     1     -22.834 -14.217 -15.570  1.00  0.00     0.019 A 
ATOM      8  C   UNL     1     -21.625 -13.875 -14.964  1.00  0.00     0.094 A 
ATOM      9  C   UNL     1     -21.134 -14.679 -13.929  1.00  0.00     0.336 A 
ATOM     10  O   UNL     1     -20.044 -14.388 -13.370  1.00  0.00    -0.246 OA
ATOM     11  O   UNL     1     -21.812 -15.752 -13.531  1.00  0.00    -0.423 OA
ENDROOT
TORSDOF 0
ENDMDL
MODEL 3
REMARK VINA RESULT:    -6.222      0.983      2.152
REMARK INTER + INTRA:          -6.222
REMARK INTER:                  -6.222
REMARK INTRA:                   0.000
REMARK UNBOUND:                 0.000
REMARK SMILES O=c1ccc2ccccc2o1
REMARK SMILES IDX 7 1 8 2 9 3 10 4 5 5 6 6 4 7 3 8 2 9 1 10 11 11
REMARK H PARENT
REMARK Flexibility Score: inf
ROOT
ATOM      1  C   UNL     1     -21.511 -13.927 -14.434  1.00  0.00     0.001 A 
ATOM      2  C   UNL     1     -22.245 -13.875 -15.624  1.00  0.00     0.004 A 
ATOM      3  C   UNL     1     -23.260 -14.806 -15.865  1.00  0.00     0.048 A 
ATOM      4  C   UNL     1     -23.545 -15.794 -14.916  1.00  0.00     0.138 A 
ATOM      5  C   UNL     1     -22.804 -15.847 -13.713  1.00  0.00     0.018 A 
ATOM      6  C   UNL     1     -21.788 -14.909 -13.478  1.00  0.00     0.012 A 
ATOM      7  C   UNL     1     -23.111 -16.844 -12.784  1.00  0.00     0.019 A 
ATOM      8  C   UNL     1     -24.132 -17.752 -13.067  1.00  0.00     0.094 A 
ATOM      9  C   UNL     1     -24.824 -17.639 -14.278  1.00  0.00     0.336 A 
ATOM     10  O   UNL     1     -25.748 -18.450 -14.551  1.00  0.00    -0.246 OA
ATOM     11  O   UNL     1     -24.511 -16.680 -15.145  1.00  0.00    -0.423 OA
ENDROOT
TORSDOF 0
ENDMDL
MODEL 4
REMARK VINA RESULT:    -6.190      1.313      2.052
REMARK INTER + INTRA:          -6.190
REMARK INTER:                  -6.190
REMARK INTRA:                   0.000
REMARK UNBOUND:                 0.000
REMARK SMILES O=c1ccc2ccccc2o1
REMARK SMILES IDX 7 1 8 2 9 3 10 4 5 5 6 6 4 7 3 8 2 9 1 10 11 11
REMARK H PARENT
REMARK Flexibility Score: inf
ROOT
ATOM      1  C   UNL     1     -23.569 -14.228 -16.406  1.00  0.00     0.001 A 
ATOM      2  C   UNL     1     -22.624 -13.976 -15.405  1.00  0.00     0.004 A 
ATOM      3  C   UNL     1     -22.550 -14.806 -14.283  1.00  0.00     0.048 A 
ATOM      4  C   UNL     1     -23.421 -15.894 -14.156  1.00  0.00     0.138 A 
ATOM      5  C   UNL     1     -24.375 -16.150 -15.167  1.00  0.00     0.018 A 
ATOM      6  C   UNL     1     -24.444 -15.312 -16.290  1.00  0.00     0.012 A 
ATOM      7  C   UNL     1     -25.232 -17.243 -15.015  1.00  0.00     0.019 A 
ATOM      8  C   UNL     1     -25.123 -18.045 -13.878  1.00  0.00     0.094 A 
ATOM      9  C   UNL     1     -24.154 -17.732 -12.918  1.00  0.00     0.336 A 
ATOM     10  O   UNL     1     -24.040 -18.443 -11.886  1.00  0.00    -0.246 OA
ATOM     11  O   UNL     1     -23.351 -16.685 -13.088  1.00  0.00    -0.423 OA
ENDROOT
TORSDOF 0
ENDMDL
MODEL 5
REMARK VINA RESULT:    -6.006      2.794      4.441
REMARK INTER + INTRA:          -6.006
REMARK INTER:                  -6.006
REMARK INTRA:                   0.000
REMARK UNBOUND:                 0.000
REMARK SMILES O=c1ccc2ccccc2o1
REMARK SMILES IDX 7 1 8 2 9 3 10 4 5 5 6 6 4 7 3 8 2 9 1 10 11 11
REMARK H PARENT
REMARK Flexibility Score: inf
ROOT
ATOM      1  C   UNL     1     -25.000 -19.136 -10.515  1.00  0.00     0.001 A 
ATOM      2  C   UNL     1     -23.922 -18.455  -9.938  1.00  0.00     0.004 A 
ATOM      3  C   UNL     1     -23.152 -17.577 -10.708  1.00  0.00     0.048 A 
ATOM      4  C   UNL     1     -23.458 -17.377 -12.058  1.00  0.00     0.138 A 
ATOM      5  C   UNL     1     -24.547 -18.064 -12.641  1.00  0.00     0.018 A 
ATOM      6  C   UNL     1     -25.315 -18.942 -11.863  1.00  0.00     0.012 A 
ATOM      7  C   UNL     1     -24.828 -17.844 -13.992  1.00  0.00     0.019 A 
ATOM      8  C   UNL     1     -24.033 -16.960 -14.722  1.00  0.00     0.094 A 
ATOM      9  C   UNL     1     -22.971 -16.314 -14.078  1.00  0.00     0.336 A 
ATOM     10  O   UNL     1     -22.242 -15.513 -14.720  1.00  0.00    -0.246 OA
ATOM     11  O   UNL     1     -22.725 -16.542 -12.791  1.00  0.00    -0.423 OA
ENDROOT
TORSDOF 0
ENDMDL
MODEL 6
REMARK VINA RESULT:    -5.916      1.244      2.669
REMARK INTER + INTRA:          -5.916
REMARK INTER:                  -5.916
REMARK INTRA:                   0.000
REMARK UNBOUND:                 0.000
REMARK SMILES O=c1ccc2ccccc2o1
REMARK SMILES IDX 7 1 8 2 9 3 10 4 5 5 6 6 4 7 3 8 2 9 1 10 11 11
REMARK H PARENT
REMARK Flexibility Score: inf
ROOT
ATOM      1  C   UNL     1     -23.195 -13.875 -16.190  1.00  0.00     0.001 A 
ATOM      2  C   UNL     1     -24.240 -14.617 -16.752  1.00  0.00     0.004 A 
ATOM      3  C   UNL     1     -24.734 -15.747 -16.094  1.00  0.00     0.048 A 
ATOM      4  C   UNL     1     -24.184 -16.141 -14.868  1.00  0.00     0.138 A 
ATOM      5  C   UNL     1     -23.130 -15.391 -14.299  1.00  0.00     0.018 A 
ATOM      6  C   UNL     1     -22.640 -14.258 -14.965  1.00  0.00     0.012 A 
ATOM      7  C   UNL     1     -22.601 -15.807 -13.074  1.00  0.00     0.019 A 
ATOM      8  C   UNL     1     -23.125 -16.941 -12.453  1.00  0.00     0.094 A 
ATOM      9  C   UNL     1     -24.170 -17.634 -13.075  1.00  0.00     0.336 A 
ATOM     10  O   UNL     1     -24.655 -18.660 -12.530  1.00  0.00    -0.246 OA
ATOM     11  O   UNL     1     -24.654 -17.216 -14.241  1.00  0.00    -0.423 OA
ENDROOT
TORSDOF 0
ENDMDL
MODEL 7
REMARK VINA RESULT:    -5.817      2.781      4.429
REMARK INTER + INTRA:          -5.817
REMARK INTER:                  -5.817
REMARK INTRA:                   0.000
REMARK UNBOUND:                 0.000
REMARK SMILES O=c1ccc2ccccc2o1
REMARK SMILES IDX 7 1 8 2 9 3 10 4 5 5 6 6 4 7 3 8 2 9 1 10 11 11
REMARK H PARENT
REMARK Flexibility Score: inf
ROOT
ATOM      1  C   UNL     1     -23.826 -18.602  -9.928  1.00  0.00     0.001 A 
ATOM      2  C   UNL     1     -24.900 -19.239 -10.559  1.00  0.00     0.004 A 
ATOM      3  C   UNL     1     -25.220 -18.931 -11.885  1.00  0.00     0.048 A 
ATOM      4  C   UNL     1     -24.466 -17.983 -12.586  1.00  0.00     0.138 A 
ATOM      5  C   UNL     1     -23.381 -17.339 -11.949  1.00  0.00     0.018 A 
ATOM      6  C   UNL     1     -23.066 -17.653 -10.619  1.00  0.00     0.012 A 
ATOM      7  C   UNL     1     -22.646 -16.396 -12.673  1.00  0.00     0.019 A 
ATOM      8  C   UNL     1     -23.001 -16.120 -13.994  1.00  0.00     0.094 A 
ATOM      9  C   UNL     1     -24.087 -16.797 -14.560  1.00  0.00     0.336 A 
ATOM     10  O   UNL     1     -24.423 -16.561 -15.750  1.00  0.00    -0.246 OA
ATOM     11  O   UNL     1     -24.770 -17.689 -13.848  1.00  0.00    -0.423 OA
ENDROOT
TORSDOF 0
ENDMDL
MODEL 8
REMARK VINA RESULT:    -5.802      1.942      3.492
REMARK INTER + INTRA:          -5.802
REMARK INTER:                  -5.802
REMARK INTRA:                   0.000
REMARK UNBOUND:                 0.000
REMARK SMILES O=c1ccc2ccccc2o1
REMARK SMILES IDX 7 1 8 2 9 3 10 4 5 5 6 6 4 7 3 8 2 9 1 10 11 11
REMARK H PARENT
REMARK Flexibility Score: inf
ROOT
ATOM      1  C   UNL     1     -23.377 -17.259 -12.123  1.00  0.00     0.001 A 
ATOM      2  C   UNL     1     -24.290 -18.010 -12.872  1.00  0.00     0.004 A 
ATOM      3  C   UNL     1     -24.584 -17.648 -14.190  1.00  0.00     0.048 A 
ATOM      4  C   UNL     1     -23.968 -16.530 -14.764  1.00  0.00     0.138 A 
ATOM      5  C   UNL     1     -23.046 -15.772 -14.008  1.00  0.00     0.018 A 
ATOM      6  C   UNL     1     -22.754 -16.141 -12.687  1.00  0.00     0.012 A 
ATOM      7  C   UNL     1     -22.445 -14.661 -14.608  1.00  0.00     0.019 A 
ATOM      8  C   UNL     1     -22.770 -14.336 -15.925  1.00  0.00     0.094 A 
ATOM      9  C   UNL     1     -23.691 -15.134 -16.614  1.00  0.00     0.336 A 
ATOM     10  O   UNL     1     -23.997 -14.856 -17.803  1.00  0.00    -0.246 OA
ATOM     11  O   UNL     1     -24.249 -16.185 -16.019  1.00  0.00    -0.423 OA
ENDROOT
TORSDOF 0
ENDMDL
MODEL 9
REMARK VINA RESULT:    -5.417      2.389      3.693
REMARK INTER + INTRA:          -5.417
REMARK INTER:                  -5.417
REMARK INTRA:                   0.000
REMARK UNBOUND:                 0.000
REMARK SMILES O=c1ccc2ccccc2o1
REMARK SMILES IDX 7 1 8 2 9 3 10 4 5 5 6 6 4 7 3 8 2 9 1 10 11 11
REMARK H PARENT
REMARK Flexibility Score: inf
ROOT
ATOM      1  C   UNL     1     -23.168 -15.767 -14.935  1.00  0.00     0.001 A 
ATOM      2  C   UNL     1     -24.213 -16.586 -15.377  1.00  0.00     0.004 A 
ATOM      3  C   UNL     1     -24.788 -17.522 -14.512  1.00  0.00     0.048 A 
ATOM      4  C   UNL     1     -24.319 -17.644 -13.199  1.00  0.00     0.138 A 
ATOM      5  C   UNL     1     -23.264 -16.816 -12.751  1.00  0.00     0.018 A 
ATOM      6  C   UNL     1     -22.693 -15.879 -13.624  1.00  0.00     0.012 A 
ATOM      7  C   UNL     1     -22.817 -16.959 -11.435  1.00  0.00     0.019 A 
ATOM      8  C   UNL     1     -23.419 -17.907 -10.607  1.00  0.00     0.094 A 
ATOM      9  C   UNL     1     -24.460 -18.691 -11.118  1.00  0.00     0.336 A 
ATOM     10  O   UNL     1     -25.015 -19.552 -10.386  1.00  0.00    -0.246 OA
ATOM     11  O   UNL     1     -24.866 -18.535 -12.375  1.00  0.00    -0.423 OA
ENDROOT
TORSDOF 0
ENDMDL
