MODEL 1
REMARK VINA RESULT:    -3.920      0.000      0.000
REMARK INTER + INTRA:          -5.333
REMARK INTER:                  -5.066
REMARK INTRA:                  -0.267
REMARK UNBOUND:                -0.267
REMARK SMILES CCCCCCC(=O)[O-]
REMARK SMILES IDX 5 1 6 2 7 3 8 4 9 5 4 6 3 7 2 8 1 9
REMARK H PARENT
REMARK Flexibility Score: inf
ROOT
ATOM      1  C   UNL     1      20.364  53.781  16.456  1.00  0.00     0.006 C 
ENDROOT
BRANCH   1   2
ATOM      2  C   UNL     1      21.851  54.103  16.242  1.00  0.00     0.053 C 
BRANCH   2   3
ATOM      3  C   UNL     1      22.135  55.567  16.375  1.00  0.00     0.041 C 
ATOM      4  O   UNL     1      23.246  55.960  16.818  1.00  0.00    -0.550 OA
ATOM      5  O   UNL     1      21.159  56.498  16.044  1.00  0.00    -0.550 OA
ENDBRANCH   2   3
ENDBRANCH   1   2
BRANCH   1   6
ATOM      6  C   UNL     1      19.694  53.073  15.265  1.00  0.00     0.000 C 
BRANCH   6   7
ATOM      7  C   UNL     1      19.687  53.933  13.989  1.00  0.00    -0.000 C 
BRANCH   7   8
ATOM      8  C   UNL     1      18.641  55.056  14.042  1.00  0.00    -0.003 C 
ATOM      9  C   UNL     1      17.644  54.989  12.885  1.00  0.00     0.004 C 
ENDBRANCH   7   8
ENDBRANCH   6   7
ENDBRANCH   1   6
TORSDOF 5
ENDMDL
MODEL 2
REMARK VINA RESULT:    -3.888      2.270      3.332
REMARK INTER + INTRA:          -5.292
REMARK INTER:                  -4.971
REMARK INTRA:                  -0.321
REMARK UNBOUND:                -0.267
REMARK SMILES CCCCCCC(=O)[O-]
REMARK SMILES IDX 5 1 6 2 7 3 8 4 9 5 4 6 3 7 2 8 1 9
REMARK H PARENT
REMARK Flexibility Score: inf
ROOT
ATOM      1  C   UNL     1      18.856  56.466  15.166  1.00  0.00     0.006 C 
ENDROOT
BRANCH   1   2
ATOM      2  C   UNL     1      18.163  56.707  16.517  1.00  0.00     0.053 C 
BRANCH   2   3
ATOM      3  C   UNL     1      19.109  56.560  17.669  1.00  0.00     0.041 C 
ATOM      4  O   UNL     1      19.603  57.580  18.218  1.00  0.00    -0.550 OA
ATOM      5  O   UNL     1      19.474  55.295  18.113  1.00  0.00    -0.550 OA
ENDBRANCH   2   3
ENDBRANCH   1   2
BRANCH   1   6
ATOM      6  C   UNL     1      18.066  55.560  14.205  1.00  0.00     0.000 C 
BRANCH   6   7
ATOM      7  C   UNL     1      18.913  54.403  13.647  1.00  0.00    -0.000 C 
BRANCH   7   8
ATOM      8  C   UNL     1      20.062  54.009  14.587  1.00  0.00    -0.003 C 
ATOM      9  C   UNL     1      19.725  52.797  15.455  1.00  0.00     0.004 C 
ENDBRANCH   7   8
ENDBRANCH   6   7
ENDBRANCH   1   6
TORSDOF 5
ENDMDL
MODEL 3
REMARK VINA RESULT:    -3.884      1.795      2.854
REMARK INTER + INTRA:          -5.287
REMARK INTER:                  -4.877
REMARK INTRA:                  -0.409
REMARK UNBOUND:                -0.267
REMARK SMILES CCCCCCC(=O)[O-]
REMARK SMILES IDX 5 1 6 2 7 3 8 4 9 5 4 6 3 7 2 8 1 9
REMARK H PARENT
REMARK Flexibility Score: inf
ROOT
ATOM      1  C   UNL     1      19.499  53.864  13.636  1.00  0.00     0.006 C 
ENDROOT
BRANCH   1   2
ATOM      2  C   UNL     1      19.812  53.426  15.075  1.00  0.00     0.053 C 
BRANCH   2   3
ATOM      3  C   UNL     1      21.051  54.078  15.606  1.00  0.00     0.041 C 
ATOM      4  O   UNL     1      21.252  55.307  15.415  1.00  0.00    -0.550 OA
ATOM      5  O   UNL     1      22.002  53.322  16.279  1.00  0.00    -0.550 OA
ENDBRANCH   2   3
ENDBRANCH   1   2
BRANCH   1   6
ATOM      6  C   UNL     1      18.308  54.832  13.516  1.00  0.00     0.000 C 
BRANCH   6   7
ATOM      7  C   UNL     1      17.548  55.007  14.842  1.00  0.00    -0.000 C 
BRANCH   7   8
ATOM      8  C   UNL     1      17.685  56.425  15.415  1.00  0.00    -0.003 C 
ATOM      9  C   UNL     1      18.179  56.432  16.862  1.00  0.00     0.004 C 
ENDBRANCH   7   8
ENDBRANCH   6   7
ENDBRANCH   1   6
TORSDOF 5
ENDMDL
MODEL 4
REMARK VINA RESULT:    -3.881      2.205      2.752
REMARK INTER + INTRA:          -5.282
REMARK INTER:                  -4.995
REMARK INTRA:                  -0.287
REMARK UNBOUND:                -0.267
REMARK SMILES CCCCCCC(=O)[O-]
REMARK SMILES IDX 5 1 6 2 7 3 8 4 9 5 4 6 3 7 2 8 1 9
REMARK H PARENT
REMARK Flexibility Score: inf
ROOT
ATOM      1  C   UNL     1      20.756  55.711  15.715  1.00  0.00     0.006 C 
ENDROOT
BRANCH   1   2
ATOM      2  C   UNL     1      19.468  56.534  15.871  1.00  0.00     0.053 C 
BRANCH   2   3
ATOM      3  C   UNL     1      19.058  56.673  17.305  1.00  0.00     0.041 C 
ATOM      4  O   UNL     1      18.105  55.987  17.761  1.00  0.00    -0.550 OA
ATOM      5  O   UNL     1      19.704  57.586  18.128  1.00  0.00    -0.550 OA
ENDBRANCH   2   3
ENDBRANCH   1   2
BRANCH   1   6
ATOM      6  C   UNL     1      20.618  54.493  14.784  1.00  0.00     0.000 C 
BRANCH   6   7
ATOM      7  C   UNL     1      19.156  54.053  14.593  1.00  0.00    -0.000 C 
BRANCH   7   8
ATOM      8  C   UNL     1      18.706  54.126  13.126  1.00  0.00    -0.003 C 
ATOM      9  C   UNL     1      17.604  55.160  12.897  1.00  0.00     0.004 C 
ENDBRANCH   7   8
ENDBRANCH   6   7
ENDBRANCH   1   6
TORSDOF 5
ENDMDL
MODEL 5
REMARK VINA RESULT:    -3.806      2.174      2.682
REMARK INTER + INTRA:          -5.185
REMARK INTER:                  -4.897
REMARK INTRA:                  -0.288
REMARK UNBOUND:                -0.267
REMARK SMILES CCCCCCC(=O)[O-]
REMARK SMILES IDX 5 1 6 2 7 3 8 4 9 5 4 6 3 7 2 8 1 9
REMARK H PARENT
REMARK Flexibility Score: inf
ROOT
ATOM      1  C   UNL     1      21.235  53.696  15.893  1.00  0.00     0.006 C 
ENDROOT
BRANCH   1   2
ATOM      2  C   UNL     1      20.174  52.974  16.739  1.00  0.00     0.053 C 
BRANCH   2   3
ATOM      3  C   UNL     1      20.073  53.544  18.120  1.00  0.00     0.041 C 
ATOM      4  O   UNL     1      19.827  54.768  18.284  1.00  0.00    -0.550 OA
ATOM      5  O   UNL     1      20.286  52.731  19.226  1.00  0.00    -0.550 OA
ENDBRANCH   2   3
ENDBRANCH   1   2
BRANCH   1   6
ATOM      6  C   UNL     1      20.658  54.530  14.735  1.00  0.00     0.000 C 
BRANCH   6   7
ATOM      7  C   UNL     1      19.579  53.776  13.939  1.00  0.00    -0.000 C 
BRANCH   7   8
ATOM      8  C   UNL     1      18.392  54.675  13.560  1.00  0.00    -0.003 C 
ATOM      9  C   UNL     1      18.141  55.784  14.582  1.00  0.00     0.004 C 
ENDBRANCH   7   8
ENDBRANCH   6   7
ENDBRANCH   1   6
TORSDOF 5
ENDMDL
MODEL 6
REMARK VINA RESULT:    -3.794      2.397      3.963
REMARK INTER + INTRA:          -5.171
REMARK INTER:                  -4.743
REMARK INTRA:                  -0.427
REMARK UNBOUND:                -0.267
REMARK SMILES CCCCCCC(=O)[O-]
REMARK SMILES IDX 5 1 6 2 7 3 8 4 9 5 4 6 3 7 2 8 1 9
REMARK H PARENT
REMARK Flexibility Score: inf
ROOT
ATOM      1  C   UNL     1      17.999  55.276  13.646  1.00  0.00     0.006 C 
ENDROOT
BRANCH   1   2
ATOM      2  C   UNL     1      16.994  55.207  14.807  1.00  0.00     0.053 C 
BRANCH   2   3
ATOM      3  C   UNL     1      17.403  56.073  15.958  1.00  0.00     0.041 C 
ATOM      4  O   UNL     1      18.092  55.596  16.897  1.00  0.00    -0.550 OA
ATOM      5  O   UNL     1      16.992  57.399  16.011  1.00  0.00    -0.550 OA
ENDBRANCH   2   3
ENDBRANCH   1   2
BRANCH   1   6
ATOM      6  C   UNL     1      18.999  54.106  13.607  1.00  0.00     0.000 C 
BRANCH   6   7
ATOM      7  C   UNL     1      20.306  54.415  14.358  1.00  0.00    -0.000 C 
BRANCH   7   8
ATOM      8  C   UNL     1      20.554  53.453  15.529  1.00  0.00    -0.003 C 
ATOM      9  C   UNL     1      19.387  52.493  15.760  1.00  0.00     0.004 C 
ENDBRANCH   7   8
ENDBRANCH   6   7
ENDBRANCH   1   6
TORSDOF 5
ENDMDL
MODEL 7
REMARK VINA RESULT:    -3.765      1.603      2.452
REMARK INTER + INTRA:          -5.132
REMARK INTER:                  -4.894
REMARK INTRA:                  -0.238
REMARK UNBOUND:                -0.267
REMARK SMILES CCCCCCC(=O)[O-]
REMARK SMILES IDX 5 1 6 2 7 3 8 4 9 5 4 6 3 7 2 8 1 9
REMARK H PARENT
REMARK Flexibility Score: inf
ROOT
ATOM      1  C   UNL     1      19.775  53.822  14.163  1.00  0.00     0.006 C 
ENDROOT
BRANCH   1   2
ATOM      2  C   UNL     1      19.906  52.993  15.451  1.00  0.00     0.053 C 
BRANCH   2   3
ATOM      3  C   UNL     1      20.872  53.603  16.418  1.00  0.00     0.041 C 
ATOM      4  O   UNL     1      22.105  53.371  16.315  1.00  0.00    -0.550 OA
ATOM      5  O   UNL     1      20.407  54.399  17.458  1.00  0.00    -0.550 OA
ENDBRANCH   2   3
ENDBRANCH   1   2
BRANCH   1   6
ATOM      6  C   UNL     1      18.814  55.019  14.279  1.00  0.00     0.000 C 
BRANCH   6   7
ATOM      7  C   UNL     1      17.961  55.221  13.016  1.00  0.00    -0.000 C 
BRANCH   7   8
ATOM      8  C   UNL     1      16.490  54.836  13.231  1.00  0.00    -0.003 C 
ATOM      9  C   UNL     1      16.105  54.778  14.710  1.00  0.00     0.004 C 
ENDBRANCH   7   8
ENDBRANCH   6   7
ENDBRANCH   1   6
TORSDOF 5
ENDMDL
MODEL 8
REMARK VINA RESULT:    -3.723      2.365      3.806
REMARK INTER + INTRA:          -5.078
REMARK INTER:                  -4.711
REMARK INTRA:                  -0.367
REMARK UNBOUND:                -0.267
REMARK SMILES CCCCCCC(=O)[O-]
REMARK SMILES IDX 5 1 6 2 7 3 8 4 9 5 4 6 3 7 2 8 1 9
REMARK H PARENT
REMARK Flexibility Score: inf
ROOT
ATOM      1  C   UNL     1      18.371  55.454  13.983  1.00  0.00     0.006 C 
ENDROOT
BRANCH   1   2
ATOM      2  C   UNL     1      19.147  54.139  13.810  1.00  0.00     0.053 C 
BRANCH   2   3
ATOM      3  C   UNL     1      20.208  53.969  14.854  1.00  0.00     0.041 C 
ATOM      4  O   UNL     1      20.293  52.893  15.502  1.00  0.00    -0.550 OA
ATOM      5  O   UNL     1      21.079  55.014  15.137  1.00  0.00    -0.550 OA
ENDBRANCH   2   3
ENDBRANCH   1   2
BRANCH   1   6
ATOM      6  C   UNL     1      17.522  55.522  15.265  1.00  0.00     0.000 C 
BRANCH   6   7
ATOM      7  C   UNL     1      17.853  56.747  16.134  1.00  0.00    -0.000 C 
BRANCH   7   8
ATOM      8  C   UNL     1      18.528  56.364  17.459  1.00  0.00    -0.003 C 
ATOM      9  C   UNL     1      19.805  57.161  17.723  1.00  0.00     0.004 C 
ENDBRANCH   7   8
ENDBRANCH   6   7
ENDBRANCH   1   6
TORSDOF 5
ENDMDL
MODEL 9
REMARK VINA RESULT:    -3.705      2.405      4.217
REMARK INTER + INTRA:          -5.055
REMARK INTER:                  -4.733
REMARK INTRA:                  -0.322
REMARK UNBOUND:                -0.267
REMARK SMILES CCCCCCC(=O)[O-]
REMARK SMILES IDX 5 1 6 2 7 3 8 4 9 5 4 6 3 7 2 8 1 9
REMARK H PARENT
REMARK Flexibility Score: inf
ROOT
ATOM      1  C   UNL     1      20.650  54.504  14.759  1.00  0.00     0.006 C 
ENDROOT
BRANCH   1   2
ATOM      2  C   UNL     1      19.509  53.955  13.888  1.00  0.00     0.053 C 
BRANCH   2   3
ATOM      3  C   UNL     1      18.401  54.948  13.721  1.00  0.00     0.041 C 
ATOM      4  O   UNL     1      17.615  54.863  12.740  1.00  0.00    -0.550 OA
ATOM      5  O   UNL     1      18.258  55.991  14.628  1.00  0.00    -0.550 OA
ENDBRANCH   2   3
ENDBRANCH   1   2
BRANCH   1   6
ATOM      6  C   UNL     1      20.831  53.769  16.100  1.00  0.00     0.000 C 
BRANCH   6   7
ATOM      7  C   UNL     1      20.592  54.681  17.315  1.00  0.00    -0.000 C 
BRANCH   7   8
ATOM      8  C   UNL     1      20.904  56.155  17.015  1.00  0.00    -0.003 C 
ATOM      9  C   UNL     1      19.985  57.117  17.768  1.00  0.00     0.004 C 
ENDBRANCH   7   8
ENDBRANCH   6   7
ENDBRANCH   1   6
TORSDOF 5
ENDMDL
