MODEL 1
REMARK VINA RESULT:    -6.227      0.000      0.000
REMARK INTER + INTRA:          -6.227
REMARK INTER:                  -6.227
REMARK INTRA:                   0.000
REMARK UNBOUND:                 0.000
REMARK SMILES CC(C)=C1CC[C@@H](C)CC1=O
REMARK SMILES IDX 8 1 7 2 6 3 5 4 4 5 2 6 1 7 3 8 10 9 11 10 9 11
REMARK H PARENT
REMARK Flexibility Score: inf
ROOT
ATOM      1  C   UNL     1      31.457  12.478  79.095  1.00  0.00     0.008 C 
ATOM      2  C   UNL     1      30.499  13.649  79.341  1.00  0.00    -0.006 C 
ATOM      3  C   UNL     1      30.355  13.924  80.846  1.00  0.00     0.008 C 
ATOM      4  C   UNL     1      29.480  15.158  81.107  1.00  0.00     0.039 C 
ATOM      5  C   UNL     1      28.136  15.081  80.396  1.00  0.00    -0.006 C 
ATOM      6  C   UNL     1      27.017  15.652  80.930  1.00  0.00    -0.070 C 
ATOM      7  C   UNL     1      27.069  16.401  82.242  1.00  0.00     0.039 C 
ATOM      8  C   UNL     1      25.666  15.534  80.262  1.00  0.00     0.039 C 
ATOM      9  C   UNL     1      28.146  14.453  79.041  1.00  0.00     0.159 C 
ATOM     10  O   UNL     1      27.350  14.828  78.139  1.00  0.00    -0.295 OA
ATOM     11  C   UNL     1      29.121  13.355  78.728  1.00  0.00     0.084 C 
ENDROOT
TORSDOF 0
ENDMDL
MODEL 2
REMARK VINA RESULT:    -6.204      2.617      3.400
REMARK INTER + INTRA:          -6.204
REMARK INTER:                  -6.204
REMARK INTRA:                   0.000
REMARK UNBOUND:                 0.000
REMARK SMILES CC(C)=C1CC[C@@H](C)CC1=O
REMARK SMILES IDX 8 1 7 2 6 3 5 4 4 5 2 6 1 7 3 8 10 9 11 10 9 11
REMARK H PARENT
REMARK Flexibility Score: inf
ROOT
ATOM      1  C   UNL     1      28.241  11.760  84.601  1.00  0.00     0.008 C 
ATOM      2  C   UNL     1      28.198  12.822  83.497  1.00  0.00    -0.006 C 
ATOM      3  C   UNL     1      27.332  14.016  83.929  1.00  0.00     0.008 C 
ATOM      4  C   UNL     1      27.360  15.134  82.878  1.00  0.00     0.039 C 
ATOM      5  C   UNL     1      27.011  14.633  81.483  1.00  0.00    -0.006 C 
ATOM      6  C   UNL     1      26.368  15.433  80.582  1.00  0.00    -0.070 C 
ATOM      7  C   UNL     1      25.993  16.856  80.926  1.00  0.00     0.039 C 
ATOM      8  C   UNL     1      25.966  14.929  79.215  1.00  0.00     0.039 C 
ATOM      9  C   UNL     1      27.514  13.272  81.130  1.00  0.00     0.159 C 
ATOM     10  O   UNL     1      27.838  12.979  79.948  1.00  0.00    -0.295 OA
ATOM     11  C   UNL     1      27.650  12.221  82.194  1.00  0.00     0.084 C 
ENDROOT
TORSDOF 0
ENDMDL
MODEL 3
REMARK VINA RESULT:    -6.157      2.288      3.757
REMARK INTER + INTRA:          -6.157
REMARK INTER:                  -6.157
REMARK INTRA:                   0.000
REMARK UNBOUND:                 0.000
REMARK SMILES CC(C)=C1CC[C@@H](C)CC1=O
REMARK SMILES IDX 8 1 7 2 6 3 5 4 4 5 2 6 1 7 3 8 10 9 11 10 9 11
REMARK H PARENT
REMARK Flexibility Score: inf
ROOT
ATOM      1  C   UNL     1      27.885  12.880  84.383  1.00  0.00     0.008 C 
ATOM      2  C   UNL     1      27.776  13.774  83.143  1.00  0.00    -0.006 C 
ATOM      3  C   UNL     1      26.404  13.607  82.473  1.00  0.00     0.008 C 
ATOM      4  C   UNL     1      26.239  14.569  81.289  1.00  0.00     0.039 C 
ATOM      5  C   UNL     1      27.389  14.476  80.296  1.00  0.00    -0.006 C 
ATOM      6  C   UNL     1      27.195  14.696  78.963  1.00  0.00    -0.070 C 
ATOM      7  C   UNL     1      25.833  15.063  78.419  1.00  0.00     0.039 C 
ATOM      8  C   UNL     1      28.317  14.551  77.960  1.00  0.00     0.039 C 
ATOM      9  C   UNL     1      28.744  14.245  80.881  1.00  0.00     0.159 C 
ATOM     10  O   UNL     1      29.780  14.719  80.342  1.00  0.00    -0.295 OA
ATOM     11  C   UNL     1      28.893  13.442  82.141  1.00  0.00     0.084 C 
ENDROOT
TORSDOF 0
ENDMDL
MODEL 4
REMARK VINA RESULT:    -6.083      1.128      4.189
REMARK INTER + INTRA:          -6.083
REMARK INTER:                  -6.083
REMARK INTRA:                   0.000
REMARK UNBOUND:                 0.000
REMARK SMILES CC(C)=C1CC[C@@H](C)CC1=O
REMARK SMILES IDX 8 1 7 2 6 3 5 4 4 5 2 6 1 7 3 8 10 9 11 10 9 11
REMARK H PARENT
REMARK Flexibility Score: inf
ROOT
ATOM      1  C   UNL     1      24.741  17.028  81.236  1.00  0.00     0.008 C 
ATOM      2  C   UNL     1      25.845  15.965  81.214  1.00  0.00    -0.006 C 
ATOM      3  C   UNL     1      27.134  16.510  81.848  1.00  0.00     0.008 C 
ATOM      4  C   UNL     1      28.219  15.427  81.926  1.00  0.00     0.039 C 
ATOM      5  C   UNL     1      28.467  14.751  80.586  1.00  0.00    -0.006 C 
ATOM      6  C   UNL     1      29.703  14.281  80.246  1.00  0.00    -0.070 C 
ATOM      7  C   UNL     1      30.873  14.395  81.197  1.00  0.00     0.039 C 
ATOM      8  C   UNL     1      29.975  13.658  78.896  1.00  0.00     0.039 C 
ATOM      9  C   UNL     1      27.264  14.534  79.727  1.00  0.00     0.159 C 
ATOM     10  O   UNL     1      27.178  13.539  78.959  1.00  0.00    -0.295 OA
ATOM     11  C   UNL     1      26.121  15.507  79.774  1.00  0.00     0.084 C 
ENDROOT
TORSDOF 0
ENDMDL
MODEL 5
REMARK VINA RESULT:    -6.044      1.534      2.427
REMARK INTER + INTRA:          -6.044
REMARK INTER:                  -6.044
REMARK INTRA:                   0.000
REMARK UNBOUND:                 0.000
REMARK SMILES CC(C)=C1CC[C@@H](C)CC1=O
REMARK SMILES IDX 8 1 7 2 6 3 5 4 4 5 2 6 1 7 3 8 10 9 11 10 9 11
REMARK H PARENT
REMARK Flexibility Score: inf
ROOT
ATOM      1  C   UNL     1      31.591  12.505  79.054  1.00  0.00     0.008 C 
ATOM      2  C   UNL     1      30.276  12.977  79.683  1.00  0.00    -0.006 C 
ATOM      3  C   UNL     1      29.368  13.618  78.622  1.00  0.00     0.008 C 
ATOM      4  C   UNL     1      28.005  14.005  79.213  1.00  0.00     0.039 C 
ATOM      5  C   UNL     1      28.134  14.860  80.466  1.00  0.00    -0.006 C 
ATOM      6  C   UNL     1      27.200  15.805  80.778  1.00  0.00    -0.070 C 
ATOM      7  C   UNL     1      25.988  16.029  79.903  1.00  0.00     0.039 C 
ATOM      8  C   UNL     1      27.345  16.699  81.989  1.00  0.00     0.039 C 
ATOM      9  C   UNL     1      29.268  14.522  81.377  1.00  0.00     0.159 C 
ATOM     10  O   UNL     1      29.175  14.676  82.624  1.00  0.00    -0.295 OA
ATOM     11  C   UNL     1      30.550  13.980  80.814  1.00  0.00     0.084 C 
ENDROOT
TORSDOF 0
ENDMDL
MODEL 6
REMARK VINA RESULT:    -6.022      2.165      4.953
REMARK INTER + INTRA:          -6.022
REMARK INTER:                  -6.022
REMARK INTRA:                   0.000
REMARK UNBOUND:                 0.000
REMARK SMILES CC(C)=C1CC[C@@H](C)CC1=O
REMARK SMILES IDX 8 1 7 2 6 3 5 4 4 5 2 6 1 7 3 8 10 9 11 10 9 11
REMARK H PARENT
REMARK Flexibility Score: inf
ROOT
ATOM      1  C   UNL     1      23.817  15.840  81.944  1.00  0.00     0.008 C 
ATOM      2  C   UNL     1      25.328  15.723  81.717  1.00  0.00    -0.006 C 
ATOM      3  C   UNL     1      25.628  15.315  80.267  1.00  0.00     0.008 C 
ATOM      4  C   UNL     1      27.138  15.293  79.994  1.00  0.00     0.039 C 
ATOM      5  C   UNL     1      27.902  14.453  81.007  1.00  0.00    -0.006 C 
ATOM      6  C   UNL     1      29.037  13.778  80.658  1.00  0.00    -0.070 C 
ATOM      7  C   UNL     1      29.592  13.852  79.254  1.00  0.00     0.039 C 
ATOM      8  C   UNL     1      29.773  12.896  81.641  1.00  0.00     0.039 C 
ATOM      9  C   UNL     1      27.405  14.509  82.415  1.00  0.00     0.159 C 
ATOM     10  O   UNL     1      28.192  14.403  83.392  1.00  0.00    -0.295 OA
ATOM     11  C   UNL     1      25.941  14.702  82.687  1.00  0.00     0.084 C 
ENDROOT
TORSDOF 0
ENDMDL
MODEL 7
REMARK VINA RESULT:    -5.976      2.095      4.649
REMARK INTER + INTRA:          -5.976
REMARK INTER:                  -5.976
REMARK INTRA:                   0.000
REMARK UNBOUND:                 0.000
REMARK SMILES CC(C)=C1CC[C@@H](C)CC1=O
REMARK SMILES IDX 8 1 7 2 6 3 5 4 4 5 2 6 1 7 3 8 10 9 11 10 9 11
REMARK H PARENT
REMARK Flexibility Score: inf
ROOT
ATOM      1  C   UNL     1      24.725  16.870  81.254  1.00  0.00     0.008 C 
ATOM      2  C   UNL     1      25.631  15.639  81.136  1.00  0.00    -0.006 C 
ATOM      3  C   UNL     1      25.506  14.754  82.386  1.00  0.00     0.008 C 
ATOM      4  C   UNL     1      26.329  13.466  82.241  1.00  0.00     0.039 C 
ATOM      5  C   UNL     1      27.777  13.738  81.859  1.00  0.00    -0.006 C 
ATOM      6  C   UNL     1      28.787  12.920  82.279  1.00  0.00    -0.070 C 
ATOM      7  C   UNL     1      28.506  11.699  83.124  1.00  0.00     0.039 C 
ATOM      8  C   UNL     1      30.234  13.211  81.953  1.00  0.00     0.039 C 
ATOM      9  C   UNL     1      28.005  14.872  80.915  1.00  0.00     0.159 C 
ATOM     10  O   UNL     1      28.950  14.852  80.082  1.00  0.00    -0.295 OA
ATOM     11  C   UNL     1      27.094  16.065  80.939  1.00  0.00     0.084 C 
ENDROOT
TORSDOF 0
ENDMDL
MODEL 8
REMARK VINA RESULT:    -5.955      2.421      3.818
REMARK INTER + INTRA:          -5.955
REMARK INTER:                  -5.955
REMARK INTRA:                   0.000
REMARK UNBOUND:                 0.000
REMARK SMILES CC(C)=C1CC[C@@H](C)CC1=O
REMARK SMILES IDX 8 1 7 2 6 3 5 4 4 5 2 6 1 7 3 8 10 9 11 10 9 11
REMARK H PARENT
REMARK Flexibility Score: inf
ROOT
ATOM      1  C   UNL     1      25.989  14.747  77.485  1.00  0.00     0.008 C 
ATOM      2  C   UNL     1      26.755  14.748  78.813  1.00  0.00    -0.006 C 
ATOM      3  C   UNL     1      27.141  13.317  79.217  1.00  0.00     0.008 C 
ATOM      4  C   UNL     1      27.996  13.308  80.491  1.00  0.00     0.039 C 
ATOM      5  C   UNL     1      27.353  14.084  81.631  1.00  0.00    -0.006 C 
ATOM      6  C   UNL     1      27.541  13.717  82.933  1.00  0.00    -0.070 C 
ATOM      7  C   UNL     1      28.412  12.537  83.297  1.00  0.00     0.039 C 
ATOM      8  C   UNL     1      26.863  14.446  84.071  1.00  0.00     0.039 C 
ATOM      9  C   UNL     1      26.610  15.321  81.247  1.00  0.00     0.159 C 
ATOM     10  O   UNL     1      26.560  16.320  82.013  1.00  0.00    -0.295 OA
ATOM     11  C   UNL     1      25.911  15.396  79.921  1.00  0.00     0.084 C 
ENDROOT
TORSDOF 0
ENDMDL
MODEL 9
REMARK VINA RESULT:    -5.872      2.364      3.117
REMARK INTER + INTRA:          -5.872
REMARK INTER:                  -5.872
REMARK INTRA:                   0.000
REMARK UNBOUND:                 0.000
REMARK SMILES CC(C)=C1CC[C@@H](C)CC1=O
REMARK SMILES IDX 8 1 7 2 6 3 5 4 4 5 2 6 1 7 3 8 10 9 11 10 9 11
REMARK H PARENT
REMARK Flexibility Score: inf
ROOT
ATOM      1  C   UNL     1      30.162  13.199  81.866  1.00  0.00     0.008 C 
ATOM      2  C   UNL     1      28.969  14.088  82.234  1.00  0.00    -0.006 C 
ATOM      3  C   UNL     1      27.651  13.310  82.099  1.00  0.00     0.008 C 
ATOM      4  C   UNL     1      26.455  14.153  82.560  1.00  0.00     0.039 C 
ATOM      5  C   UNL     1      26.403  15.513  81.880  1.00  0.00    -0.006 C 
ATOM      6  C   UNL     1      25.213  16.130  81.619  1.00  0.00    -0.070 C 
ATOM      7  C   UNL     1      23.898  15.497  82.013  1.00  0.00     0.039 C 
ATOM      8  C   UNL     1      25.145  17.455  80.894  1.00  0.00     0.039 C 
ATOM      9  C   UNL     1      27.719  16.172  81.626  1.00  0.00     0.159 C 
ATOM     10  O   UNL     1      27.840  17.425  81.653  1.00  0.00    -0.295 OA
ATOM     11  C   UNL     1      28.934  15.337  81.340  1.00  0.00     0.084 C 
ENDROOT
TORSDOF 0
ENDMDL
