MODEL 1
REMARK VINA RESULT:    -4.372      0.000      0.000
REMARK INTER + INTRA:          -5.707
REMARK INTER:                  -5.394
REMARK INTRA:                  -0.313
REMARK UNBOUND:                -0.313
REMARK SMILES O=C1c2c(O)cc(O)cc2O[C@@H](c2cc(O)c(O)c(O)c2)[C@H]1O
REMARK SMILES IDX 12 1 22 2 2 3 1 4 3 5 4 6 6 7 7 8 9 9 10 10 11 11 13 12
REMARK SMILES IDX 14 13 15 14 21 15 17 16 19 17 16 18 18 20 20 22 23 24 5 26
REMARK SMILES IDX 8 28
REMARK H PARENT 16 19 18 21 20 23 23 25 5 27 8 29
REMARK Flexibility Score: inf
ROOT
ATOM      1  C   UNL     1     -20.707  27.692  21.367  1.00  0.00     0.240 C 
ATOM      2  C   UNL     1     -20.723  27.040  19.970  1.00  0.00     0.231 C 
ATOM      3  C   UNL     1     -20.076  25.682  20.049  1.00  0.00     0.202 C 
ATOM      4  O   UNL     1     -20.508  24.748  19.322  1.00  0.00    -0.291 OA
ATOM      5  C   UNL     1     -18.904  25.485  20.937  1.00  0.00     0.105 A 
ATOM      6  C   UNL     1     -18.093  24.331  20.886  1.00  0.00     0.133 A 
ATOM      7  C   UNL     1     -16.970  24.234  21.722  1.00  0.00     0.093 A 
ATOM      8  C   UNL     1     -16.643  25.274  22.597  1.00  0.00     0.123 A 
ATOM      9  C   UNL     1     -17.448  26.417  22.651  1.00  0.00     0.093 A 
ATOM     10  C   UNL     1     -18.580  26.519  21.838  1.00  0.00     0.138 A 
ATOM     11  O   UNL     1     -19.389  27.659  21.922  1.00  0.00    -0.481 OA
ENDROOT
BRANCH   1  12
ATOM     12  C   UNL     1     -21.231  29.110  21.325  1.00  0.00     0.003 A 
ATOM     13  C   UNL     1     -20.551  30.128  22.012  1.00  0.00     0.058 A 
ATOM     14  C   UNL     1     -21.044  31.440  22.010  1.00  0.00     0.161 A 
ATOM     15  C   UNL     1     -22.429  29.417  20.656  1.00  0.00     0.058 A 
ATOM     16  C   UNL     1     -22.230  31.743  21.329  1.00  0.00     0.200 A 
ATOM     17  C   UNL     1     -22.926  30.728  20.652  1.00  0.00     0.161 A 
BRANCH  14  18
ATOM     18  O   UNL     1     -20.360  32.449  22.687  1.00  0.00    -0.504 OA
ATOM     19  H   UNL     1     -20.108  33.318  22.230  1.00  0.00     0.293 HD
ENDBRANCH  14  18
BRANCH  16  20
ATOM     20  O   UNL     1     -22.703  33.055  21.336  1.00  0.00    -0.502 OA
ATOM     21  H   UNL     1     -23.381  33.388  20.661  1.00  0.00     0.293 HD
ENDBRANCH  16  20
BRANCH  17  22
ATOM     22  O   UNL     1     -24.111  31.024  19.979  1.00  0.00    -0.504 OA
ATOM     23  H   UNL     1     -24.551  30.355  19.358  1.00  0.00     0.293 HD
ENDBRANCH  17  22
ENDBRANCH   1  12
BRANCH   2  24
ATOM     24  O   UNL     1     -20.015  27.836  19.056  1.00  0.00    -0.381 OA
ATOM     25  H   UNL     1     -19.794  27.254  18.281  1.00  0.00     0.211 HD
ENDBRANCH   2  24
BRANCH   6  26
ATOM     26  O   UNL     1     -18.391  23.290  20.007  1.00  0.00    -0.507 OA
ATOM     27  H   UNL     1     -18.761  23.465  19.080  1.00  0.00     0.293 HD
ENDBRANCH   6  26
BRANCH   8  28
ATOM     28  O   UNL     1     -15.518  25.159  23.410  1.00  0.00    -0.508 OA
ATOM     29  H   UNL     1     -15.556  25.374  24.400  1.00  0.00     0.293 HD
ENDBRANCH   8  28
TORSDOF 7
ENDMDL
MODEL 2
REMARK VINA RESULT:    -4.361      0.082      1.751
REMARK INTER + INTRA:          -5.695
REMARK INTER:                  -5.399
REMARK INTRA:                  -0.296
REMARK UNBOUND:                -0.313
REMARK SMILES O=C1c2c(O)cc(O)cc2O[C@@H](c2cc(O)c(O)c(O)c2)[C@H]1O
REMARK SMILES IDX 12 1 22 2 2 3 1 4 3 5 4 6 6 7 7 8 9 9 10 10 11 11 13 12
REMARK SMILES IDX 14 13 15 14 21 15 17 16 19 17 16 18 18 20 20 22 23 24 5 26
REMARK SMILES IDX 8 28
REMARK H PARENT 16 19 18 21 20 23 23 25 5 27 8 29
REMARK Flexibility Score: inf
ROOT
ATOM      1  C   UNL     1     -20.717  27.673  21.421  1.00  0.00     0.240 C 
ATOM      2  C   UNL     1     -20.716  27.082  19.998  1.00  0.00     0.231 C 
ATOM      3  C   UNL     1     -20.046  25.733  20.022  1.00  0.00     0.202 C 
ATOM      4  O   UNL     1     -20.458  24.823  19.252  1.00  0.00    -0.291 OA
ATOM      5  C   UNL     1     -18.875  25.517  20.907  1.00  0.00     0.105 A 
ATOM      6  C   UNL     1     -18.044  24.380  20.811  1.00  0.00     0.133 A 
ATOM      7  C   UNL     1     -16.924  24.266  21.648  1.00  0.00     0.093 A 
ATOM      8  C   UNL     1     -16.618  25.273  22.569  1.00  0.00     0.123 A 
ATOM      9  C   UNL     1     -17.443  26.400  22.667  1.00  0.00     0.093 A 
ATOM     10  C   UNL     1     -18.573  26.517  21.853  1.00  0.00     0.138 A 
ATOM     11  O   UNL     1     -19.401  27.638  21.982  1.00  0.00    -0.481 OA
ENDROOT
BRANCH   1  12
ATOM     12  C   UNL     1     -21.266  29.083  21.437  1.00  0.00     0.003 A 
ATOM     13  C   UNL     1     -22.446  29.382  20.739  1.00  0.00     0.058 A 
ATOM     14  C   UNL     1     -22.947  30.690  20.716  1.00  0.00     0.161 A 
ATOM     15  C   UNL     1     -20.576  30.118  22.091  1.00  0.00     0.058 A 
ATOM     16  C   UNL     1     -22.264  31.715  21.384  1.00  0.00     0.200 A 
ATOM     17  C   UNL     1     -21.073  31.429  22.071  1.00  0.00     0.161 A 
BRANCH  14  18
ATOM     18  O   UNL     1     -24.125  30.981  20.028  1.00  0.00    -0.504 OA
ATOM     19  H   UNL     1     -24.800  31.645  20.390  1.00  0.00     0.293 HD
ENDBRANCH  14  18
BRANCH  16  20
ATOM     20  O   UNL     1     -22.780  33.011  21.352  1.00  0.00    -0.502 OA
ATOM     21  H   UNL     1     -22.715  33.597  20.529  1.00  0.00     0.293 HD
ENDBRANCH  16  20
BRANCH  17  22
ATOM     22  O   UNL     1     -20.386  32.447  22.730  1.00  0.00    -0.504 OA
ATOM     23  H   UNL     1     -20.733  32.851  23.592  1.00  0.00     0.293 HD
ENDBRANCH  17  22
ENDBRANCH   1  12
BRANCH   2  24
ATOM     24  O   UNL     1     -20.017  27.928  19.122  1.00  0.00    -0.381 OA
ATOM     25  H   UNL     1     -20.109  27.538  18.213  1.00  0.00     0.211 HD
ENDBRANCH   2  24
BRANCH   6  26
ATOM     26  O   UNL     1     -18.320  23.373  19.887  1.00  0.00    -0.507 OA
ATOM     27  H   UNL     1     -17.618  23.041  19.235  1.00  0.00     0.293 HD
ENDBRANCH   6  26
BRANCH   8  28
ATOM     28  O   UNL     1     -15.496  25.143  23.382  1.00  0.00    -0.508 OA
ATOM     29  H   UNL     1     -15.267  25.836  24.085  1.00  0.00     0.293 HD
ENDBRANCH   8  28
TORSDOF 7
ENDMDL
MODEL 3
REMARK VINA RESULT:    -4.304      1.321      7.443
REMARK INTER + INTRA:          -5.624
REMARK INTER:                  -5.262
REMARK INTRA:                  -0.362
REMARK UNBOUND:                -0.313
REMARK SMILES O=C1c2c(O)cc(O)cc2O[C@@H](c2cc(O)c(O)c(O)c2)[C@H]1O
REMARK SMILES IDX 12 1 22 2 2 3 1 4 3 5 4 6 6 7 7 8 9 9 10 10 11 11 13 12
REMARK SMILES IDX 14 13 15 14 21 15 17 16 19 17 16 18 18 20 20 22 23 24 5 26
REMARK SMILES IDX 8 28
REMARK H PARENT 16 19 18 21 20 23 23 25 5 27 8 29
REMARK Flexibility Score: inf
ROOT
ATOM      1  C   UNL     1     -19.308  27.671  22.496  1.00  0.00     0.240 C 
ATOM      2  C   UNL     1     -18.608  29.038  22.618  1.00  0.00     0.231 C 
ATOM      3  C   UNL     1     -19.648  30.129  22.627  1.00  0.00     0.202 C 
ATOM      4  O   UNL     1     -19.455  31.162  23.323  1.00  0.00    -0.291 OA
ATOM      5  C   UNL     1     -20.851  29.994  21.769  1.00  0.00     0.105 A 
ATOM      6  C   UNL     1     -21.740  31.064  21.528  1.00  0.00     0.133 A 
ATOM      7  C   UNL     1     -22.831  30.878  20.665  1.00  0.00     0.093 A 
ATOM      8  C   UNL     1     -23.039  29.648  20.036  1.00  0.00     0.123 A 
ATOM      9  C   UNL     1     -22.159  28.586  20.276  1.00  0.00     0.093 A 
ATOM     10  C   UNL     1     -21.080  28.751  21.148  1.00  0.00     0.138 A 
ATOM     11  O   UNL     1     -20.224  27.671  21.397  1.00  0.00    -0.481 OA
ENDROOT
BRANCH   1  12
ATOM     12  C   UNL     1     -18.308  26.545  22.356  1.00  0.00     0.003 A 
ATOM     13  C   UNL     1     -18.439  25.620  21.309  1.00  0.00     0.058 A 
ATOM     14  C   UNL     1     -17.540  24.551  21.186  1.00  0.00     0.161 A 
ATOM     15  C   UNL     1     -17.280  26.371  23.299  1.00  0.00     0.058 A 
ATOM     16  C   UNL     1     -16.507  24.393  22.119  1.00  0.00     0.200 A 
ATOM     17  C   UNL     1     -16.378  25.304  23.180  1.00  0.00     0.161 A 
BRANCH  14  18
ATOM     18  O   UNL     1     -17.669  23.640  20.139  1.00  0.00    -0.504 OA
ATOM     19  H   UNL     1     -17.715  22.641  20.307  1.00  0.00     0.293 HD
ENDBRANCH  14  18
BRANCH  16  20
ATOM     20  O   UNL     1     -15.621  23.325  21.980  1.00  0.00    -0.502 OA
ATOM     21  H   UNL     1     -14.753  23.273  22.500  1.00  0.00     0.293 HD
ENDBRANCH  16  20
BRANCH  17  22
ATOM     22  O   UNL     1     -15.357  25.146  24.116  1.00  0.00    -0.504 OA
ATOM     23  H   UNL     1     -15.510  25.310  25.104  1.00  0.00     0.293 HD
ENDBRANCH  17  22
ENDBRANCH   1  12
BRANCH   2  24
ATOM     24  O   UNL     1     -17.741  29.237  21.532  1.00  0.00    -0.381 OA
ATOM     25  H   UNL     1     -17.189  30.034  21.748  1.00  0.00     0.211 HD
ENDBRANCH   2  24
BRANCH   6  26
ATOM     26  O   UNL     1     -21.541  32.305  22.131  1.00  0.00    -0.507 OA
ATOM     27  H   UNL     1     -21.411  33.148  21.584  1.00  0.00     0.293 HD
ENDBRANCH   6  26
BRANCH   8  28
ATOM     28  O   UNL     1     -24.123  29.490  19.176  1.00  0.00    -0.508 OA
ATOM     29  H   UNL     1     -24.044  29.678  18.183  1.00  0.00     0.293 HD
ENDBRANCH   8  28
TORSDOF 7
ENDMDL
MODEL 4
REMARK VINA RESULT:    -4.240      1.293      2.956
REMARK INTER + INTRA:          -5.545
REMARK INTER:                  -5.262
REMARK INTRA:                  -0.283
REMARK UNBOUND:                -0.313
REMARK SMILES O=C1c2c(O)cc(O)cc2O[C@@H](c2cc(O)c(O)c(O)c2)[C@H]1O
REMARK SMILES IDX 12 1 22 2 2 3 1 4 3 5 4 6 6 7 7 8 9 9 10 10 11 11 13 12
REMARK SMILES IDX 14 13 15 14 21 15 17 16 19 17 16 18 18 20 20 22 23 24 5 26
REMARK SMILES IDX 8 28
REMARK H PARENT 16 19 18 21 20 23 23 25 5 27 8 29
REMARK Flexibility Score: inf
ROOT
ATOM      1  C   UNL     1     -19.574  29.313  21.566  1.00  0.00     0.240 C 
ATOM      2  C   UNL     1     -19.100  29.290  23.032  1.00  0.00     0.231 C 
ATOM      3  C   UNL     1     -18.001  28.271  23.182  1.00  0.00     0.202 C 
ATOM      4  O   UNL     1     -17.063  28.489  23.996  1.00  0.00    -0.291 OA
ATOM      5  C   UNL     1     -18.073  27.004  22.415  1.00  0.00     0.105 A 
ATOM      6  C   UNL     1     -17.230  25.902  22.678  1.00  0.00     0.133 A 
ATOM      7  C   UNL     1     -17.387  24.717  21.945  1.00  0.00     0.093 A 
ATOM      8  C   UNL     1     -18.379  24.614  20.964  1.00  0.00     0.123 A 
ATOM      9  C   UNL     1     -19.213  25.706  20.700  1.00  0.00     0.093 A 
ATOM     10  C   UNL     1     -19.054  26.899  21.409  1.00  0.00     0.138 A 
ATOM     11  O   UNL     1     -19.881  27.990  21.115  1.00  0.00    -0.481 OA
ENDROOT
BRANCH   1  12
ATOM     12  C   UNL     1     -20.764  30.229  21.380  1.00  0.00     0.003 A 
ATOM     13  C   UNL     1     -20.770  31.497  21.980  1.00  0.00     0.058 A 
ATOM     14  C   UNL     1     -21.880  32.343  21.845  1.00  0.00     0.161 A 
ATOM     15  C   UNL     1     -21.897  29.803  20.665  1.00  0.00     0.058 A 
ATOM     16  C   UNL     1     -23.000  31.920  21.117  1.00  0.00     0.200 A 
ATOM     17  C   UNL     1     -23.009  30.645  20.528  1.00  0.00     0.161 A 
BRANCH  14  18
ATOM     18  O   UNL     1     -21.877  33.606  22.435  1.00  0.00    -0.504 OA
ATOM     19  H   UNL     1     -22.734  34.044  22.755  1.00  0.00     0.293 HD
ENDBRANCH  14  18
BRANCH  16  20
ATOM     20  O   UNL     1     -24.094  32.777  20.992  1.00  0.00    -0.502 OA
ATOM     21  H   UNL     1     -24.025  33.675  20.530  1.00  0.00     0.293 HD
ENDBRANCH  16  20
BRANCH  17  22
ATOM     22  O   UNL     1     -24.125  30.218  19.809  1.00  0.00    -0.504 OA
ATOM     23  H   UNL     1     -24.946  29.847  20.273  1.00  0.00     0.293 HD
ENDBRANCH  17  22
ENDBRANCH   1  12
BRANCH   2  24
ATOM     24  O   UNL     1     -20.165  28.947  23.880  1.00  0.00    -0.381 OA
ATOM     25  H   UNL     1     -20.048  27.988  24.114  1.00  0.00     0.211 HD
ENDBRANCH   2  24
BRANCH   6  26
ATOM     26  O   UNL     1     -16.247  25.978  23.664  1.00  0.00    -0.507 OA
ATOM     27  H   UNL     1     -15.260  25.963  23.435  1.00  0.00     0.293 HD
ENDBRANCH   6  26
BRANCH   8  28
ATOM     28  O   UNL     1     -18.523  23.423  20.256  1.00  0.00    -0.508 OA
ATOM     29  H   UNL     1     -18.470  23.399  19.244  1.00  0.00     0.293 HD
ENDBRANCH   8  28
TORSDOF 7
ENDMDL
MODEL 5
REMARK VINA RESULT:    -4.081      1.240      3.246
REMARK INTER + INTRA:          -5.349
REMARK INTER:                  -5.010
REMARK INTRA:                  -0.339
REMARK UNBOUND:                -0.313
REMARK SMILES O=C1c2c(O)cc(O)cc2O[C@@H](c2cc(O)c(O)c(O)c2)[C@H]1O
REMARK SMILES IDX 12 1 22 2 2 3 1 4 3 5 4 6 6 7 7 8 9 9 10 10 11 11 13 12
REMARK SMILES IDX 14 13 15 14 21 15 17 16 19 17 16 18 18 20 20 22 23 24 5 26
REMARK SMILES IDX 8 28
REMARK H PARENT 16 19 18 21 20 23 23 25 5 27 8 29
REMARK Flexibility Score: inf
ROOT
ATOM      1  C   UNL     1     -19.755  28.425  21.022  1.00  0.00     0.240 C 
ATOM      2  C   UNL     1     -19.267  28.013  22.425  1.00  0.00     0.231 C 
ATOM      3  C   UNL     1     -18.335  26.836  22.299  1.00  0.00     0.202 C 
ATOM      4  O   UNL     1     -17.361  26.730  23.093  1.00  0.00    -0.291 OA
ATOM      5  C   UNL     1     -18.614  25.792  21.283  1.00  0.00     0.105 A 
ATOM      6  C   UNL     1     -17.947  24.548  21.263  1.00  0.00     0.133 A 
ATOM      7  C   UNL     1     -18.297  23.587  20.302  1.00  0.00     0.093 A 
ATOM      8  C   UNL     1     -19.308  23.848  19.372  1.00  0.00     0.123 A 
ATOM      9  C   UNL     1     -19.969  25.082  19.390  1.00  0.00     0.093 A 
ATOM     10  C   UNL     1     -19.616  26.055  20.328  1.00  0.00     0.138 A 
ATOM     11  O   UNL     1     -20.270  27.293  20.315  1.00  0.00    -0.481 OA
ENDROOT
BRANCH   1  12
ATOM     12  C   UNL     1     -20.793  29.524  21.096  1.00  0.00     0.003 A 
ATOM     13  C   UNL     1     -21.984  29.410  20.362  1.00  0.00     0.058 A 
ATOM     14  C   UNL     1     -22.939  30.435  20.393  1.00  0.00     0.161 A 
ATOM     15  C   UNL     1     -20.555  30.692  21.841  1.00  0.00     0.058 A 
ATOM     16  C   UNL     1     -22.705  31.590  21.151  1.00  0.00     0.200 A 
ATOM     17  C   UNL     1     -21.508  31.720  21.875  1.00  0.00     0.161 A 
BRANCH  14  18
ATOM     18  O   UNL     1     -24.125  30.314  19.670  1.00  0.00    -0.504 OA
ATOM     19  H   UNL     1     -24.127  30.025  18.698  1.00  0.00     0.293 HD
ENDBRANCH  14  18
BRANCH  16  20
ATOM     20  O   UNL     1     -23.668  32.599  21.172  1.00  0.00    -0.502 OA
ATOM     21  H   UNL     1     -23.719  33.310  20.453  1.00  0.00     0.293 HD
ENDBRANCH  16  20
BRANCH  17  22
ATOM     22  O   UNL     1     -21.267  32.871  22.624  1.00  0.00    -0.504 OA
ATOM     23  H   UNL     1     -20.969  32.823  23.591  1.00  0.00     0.293 HD
ENDBRANCH  17  22
ENDBRANCH   1  12
BRANCH   2  24
ATOM     24  O   UNL     1     -20.358  27.654  23.231  1.00  0.00    -0.381 OA
ATOM     25  H   UNL     1     -21.174  27.766  22.676  1.00  0.00     0.211 HD
ENDBRANCH   2  24
BRANCH   6  26
ATOM     26  O   UNL     1     -16.948  24.261  22.193  1.00  0.00    -0.507 OA
ATOM     27  H   UNL     1     -17.129  23.685  23.008  1.00  0.00     0.293 HD
ENDBRANCH   6  26
BRANCH   8  28
ATOM     28  O   UNL     1     -19.646  22.875  18.434  1.00  0.00    -0.508 OA
ATOM     29  H   UNL     1     -20.144  23.110  17.584  1.00  0.00     0.293 HD
ENDBRANCH   8  28
TORSDOF 7
ENDMDL
MODEL 6
REMARK VINA RESULT:    -4.050      1.390      6.878
REMARK INTER + INTRA:          -5.310
REMARK INTER:                  -5.027
REMARK INTRA:                  -0.283
REMARK UNBOUND:                -0.313
REMARK SMILES O=C1c2c(O)cc(O)cc2O[C@@H](c2cc(O)c(O)c(O)c2)[C@H]1O
REMARK SMILES IDX 12 1 22 2 2 3 1 4 3 5 4 6 6 7 7 8 9 9 10 10 11 11 13 12
REMARK SMILES IDX 14 13 15 14 21 15 17 16 19 17 16 18 18 20 20 22 23 24 5 26
REMARK SMILES IDX 8 28
REMARK H PARENT 16 19 18 21 20 23 23 25 5 27 8 29
REMARK Flexibility Score: inf
ROOT
ATOM      1  C   UNL     1     -20.178  28.597  20.793  1.00  0.00     0.240 C 
ATOM      2  C   UNL     1     -21.675  28.292  20.592  1.00  0.00     0.231 C 
ATOM      3  C   UNL     1     -22.421  29.585  20.387  1.00  0.00     0.202 C 
ATOM      4  O   UNL     1     -23.412  29.610  19.608  1.00  0.00    -0.291 OA
ATOM      5  C   UNL     1     -22.014  30.789  21.152  1.00  0.00     0.105 A 
ATOM      6  C   UNL     1     -22.801  31.960  21.209  1.00  0.00     0.133 A 
ATOM      7  C   UNL     1     -22.378  33.044  21.992  1.00  0.00     0.093 A 
ATOM      8  C   UNL     1     -21.188  32.971  22.723  1.00  0.00     0.123 A 
ATOM      9  C   UNL     1     -20.406  31.812  22.665  1.00  0.00     0.093 A 
ATOM     10  C   UNL     1     -20.806  30.733  21.873  1.00  0.00     0.138 A 
ATOM     11  O   UNL     1     -19.998  29.591  21.807  1.00  0.00    -0.481 OA
ENDROOT
BRANCH   1  12
ATOM     12  C   UNL     1     -19.396  27.346  21.129  1.00  0.00     0.003 A 
ATOM     13  C   UNL     1     -18.402  27.388  22.118  1.00  0.00     0.058 A 
ATOM     14  C   UNL     1     -17.645  26.246  22.416  1.00  0.00     0.161 A 
ATOM     15  C   UNL     1     -19.606  26.152  20.419  1.00  0.00     0.058 A 
ATOM     16  C   UNL     1     -17.871  25.053  21.717  1.00  0.00     0.200 A 
ATOM     17  C   UNL     1     -18.852  25.007  20.713  1.00  0.00     0.161 A 
BRANCH  14  18
ATOM     18  O   UNL     1     -16.665  26.290  23.407  1.00  0.00    -0.504 OA
ATOM     19  H   UNL     1     -16.854  26.680  24.323  1.00  0.00     0.293 HD
ENDBRANCH  14  18
BRANCH  16  20
ATOM     20  O   UNL     1     -17.110  23.926  22.029  1.00  0.00    -0.502 OA
ATOM     21  H   UNL     1     -16.810  23.266  21.322  1.00  0.00     0.293 HD
ENDBRANCH  16  20
BRANCH  17  22
ATOM     22  O   UNL     1     -19.074  23.824  20.009  1.00  0.00    -0.504 OA
ATOM     23  H   UNL     1     -19.237  23.823  19.008  1.00  0.00     0.293 HD
ENDBRANCH  17  22
ENDBRANCH   1  12
BRANCH   2  24
ATOM     24  O   UNL     1     -22.191  27.636  21.720  1.00  0.00    -0.381 OA
ATOM     25  H   UNL     1     -22.043  26.663  21.578  1.00  0.00     0.211 HD
ENDBRANCH   2  24
BRANCH   6  26
ATOM     26  O   UNL     1     -24.000  32.046  20.501  1.00  0.00    -0.507 OA
ATOM     27  H   UNL     1     -24.211  31.420  19.733  1.00  0.00     0.293 HD
ENDBRANCH   6  26
BRANCH   8  28
ATOM     28  O   UNL     1     -20.793  34.056  23.502  1.00  0.00    -0.508 OA
ATOM     29  H   UNL     1     -21.372  34.883  23.591  1.00  0.00     0.293 HD
ENDBRANCH   8  28
TORSDOF 7
ENDMDL
MODEL 7
REMARK VINA RESULT:    -4.003      2.592      7.494
REMARK INTER + INTRA:          -5.252
REMARK INTER:                  -4.915
REMARK INTRA:                  -0.337
REMARK UNBOUND:                -0.313
REMARK SMILES O=C1c2c(O)cc(O)cc2O[C@@H](c2cc(O)c(O)c(O)c2)[C@H]1O
REMARK SMILES IDX 12 1 22 2 2 3 1 4 3 5 4 6 6 7 7 8 9 9 10 10 11 11 13 12
REMARK SMILES IDX 14 13 15 14 21 15 17 16 19 17 16 18 18 20 20 22 23 24 5 26
REMARK SMILES IDX 8 28
REMARK H PARENT 16 19 18 21 20 23 23 25 5 27 8 29
REMARK Flexibility Score: inf
ROOT
ATOM      1  C   UNL     1     -21.798  29.189  21.739  1.00  0.00     0.240 C 
ATOM      2  C   UNL     1     -20.354  29.639  22.031  1.00  0.00     0.231 C 
ATOM      3  C   UNL     1     -20.374  31.037  22.592  1.00  0.00     0.202 C 
ATOM      4  O   UNL     1     -19.523  31.368  23.461  1.00  0.00    -0.291 OA
ATOM      5  C   UNL     1     -21.356  32.018  22.067  1.00  0.00     0.105 A 
ATOM      6  C   UNL     1     -21.283  33.399  22.352  1.00  0.00     0.133 A 
ATOM      7  C   UNL     1     -22.218  34.275  21.781  1.00  0.00     0.093 A 
ATOM      8  C   UNL     1     -23.214  33.795  20.926  1.00  0.00     0.123 A 
ATOM      9  C   UNL     1     -23.289  32.425  20.645  1.00  0.00     0.093 A 
ATOM     10  C   UNL     1     -22.377  31.539  21.223  1.00  0.00     0.138 A 
ATOM     11  O   UNL     1     -22.482  30.169  20.951  1.00  0.00    -0.481 OA
ENDROOT
BRANCH   1  12
ATOM     12  C   UNL     1     -21.833  27.839  21.057  1.00  0.00     0.003 A 
ATOM     13  C   UNL     1     -22.630  27.652  19.917  1.00  0.00     0.058 A 
ATOM     14  C   UNL     1     -22.699  26.398  19.294  1.00  0.00     0.161 A 
ATOM     15  C   UNL     1     -21.124  26.746  21.584  1.00  0.00     0.058 A 
ATOM     16  C   UNL     1     -21.977  25.316  19.815  1.00  0.00     0.200 A 
ATOM     17  C   UNL     1     -21.190  25.490  20.965  1.00  0.00     0.161 A 
BRANCH  14  18
ATOM     18  O   UNL     1     -23.486  26.220  18.157  1.00  0.00    -0.504 OA
ATOM     19  H   UNL     1     -24.437  25.874  18.219  1.00  0.00     0.293 HD
ENDBRANCH  14  18
BRANCH  16  20
ATOM     20  O   UNL     1     -22.056  24.076  19.180  1.00  0.00    -0.502 OA
ATOM     21  H   UNL     1     -21.256  23.462  19.097  1.00  0.00     0.293 HD
ENDBRANCH  16  20
BRANCH  17  22
ATOM     22  O   UNL     1     -20.476  24.413  21.491  1.00  0.00    -0.504 OA
ATOM     23  H   UNL     1     -20.381  24.276  22.490  1.00  0.00     0.293 HD
ENDBRANCH  17  22
ENDBRANCH   1  12
BRANCH   2  24
ATOM     24  O   UNL     1     -19.595  29.627  20.850  1.00  0.00    -0.381 OA
ATOM     25  H   UNL     1     -18.702  29.259  21.087  1.00  0.00     0.211 HD
ENDBRANCH   2  24
BRANCH   6  26
ATOM     26  O   UNL     1     -20.286  33.902  23.187  1.00  0.00    -0.507 OA
ATOM     27  H   UNL     1     -20.453  34.693  23.799  1.00  0.00     0.293 HD
ENDBRANCH   6  26
BRANCH   8  28
ATOM     28  O   UNL     1     -24.125  34.685  20.363  1.00  0.00    -0.508 OA
ATOM     29  H   UNL     1     -23.863  35.636  20.132  1.00  0.00     0.293 HD
ENDBRANCH   8  28
TORSDOF 7
ENDMDL
MODEL 8
REMARK VINA RESULT:    -3.990      1.510      7.153
REMARK INTER + INTRA:          -5.237
REMARK INTER:                  -4.897
REMARK INTRA:                  -0.340
REMARK UNBOUND:                -0.313
REMARK SMILES O=C1c2c(O)cc(O)cc2O[C@@H](c2cc(O)c(O)c(O)c2)[C@H]1O
REMARK SMILES IDX 12 1 22 2 2 3 1 4 3 5 4 6 6 7 7 8 9 9 10 10 11 11 13 12
REMARK SMILES IDX 14 13 15 14 21 15 17 16 19 17 16 18 18 20 20 22 23 24 5 26
REMARK SMILES IDX 8 28
REMARK H PARENT 16 19 18 21 20 23 23 25 5 27 8 29
REMARK Flexibility Score: inf
ROOT
ATOM      1  C   UNL     1     -19.818  28.207  22.321  1.00  0.00     0.240 C 
ATOM      2  C   UNL     1     -18.523  28.976  22.649  1.00  0.00     0.231 C 
ATOM      3  C   UNL     1     -18.878  30.327  23.212  1.00  0.00     0.202 C 
ATOM      4  O   UNL     1     -18.145  30.838  24.102  1.00  0.00    -0.291 OA
ATOM      5  C   UNL     1     -20.047  31.059  22.666  1.00  0.00     0.105 A 
ATOM      6  C   UNL     1     -20.301  32.418  22.956  1.00  0.00     0.133 A 
ATOM      7  C   UNL     1     -21.399  33.060  22.365  1.00  0.00     0.093 A 
ATOM      8  C   UNL     1     -22.238  32.369  21.485  1.00  0.00     0.123 A 
ATOM      9  C   UNL     1     -21.989  31.022  21.200  1.00  0.00     0.093 A 
ATOM     10  C   UNL     1     -20.910  30.365  21.797  1.00  0.00     0.138 A 
ATOM     11  O   UNL     1     -20.691  29.010  21.520  1.00  0.00    -0.481 OA
ENDROOT
BRANCH   1  12
ATOM     12  C   UNL     1     -19.525  26.891  21.635  1.00  0.00     0.003 A 
ATOM     13  C   UNL     1     -18.606  25.996  22.203  1.00  0.00     0.058 A 
ATOM     14  C   UNL     1     -18.299  24.788  21.562  1.00  0.00     0.161 A 
ATOM     15  C   UNL     1     -20.115  26.575  20.399  1.00  0.00     0.058 A 
ATOM     16  C   UNL     1     -18.902  24.471  20.338  1.00  0.00     0.200 A 
ATOM     17  C   UNL     1     -19.811  25.369  19.753  1.00  0.00     0.161 A 
BRANCH  14  18
ATOM     18  O   UNL     1     -17.392  23.898  22.135  1.00  0.00    -0.504 OA
ATOM     19  H   UNL     1     -17.699  23.141  22.736  1.00  0.00     0.293 HD
ENDBRANCH  14  18
BRANCH  16  20
ATOM     20  O   UNL     1     -18.586  23.263  19.715  1.00  0.00    -0.502 OA
ATOM     21  H   UNL     1     -19.130  22.422  19.863  1.00  0.00     0.293 HD
ENDBRANCH  16  20
BRANCH  17  22
ATOM     22  O   UNL     1     -20.407  25.060  18.531  1.00  0.00    -0.504 OA
ATOM     23  H   UNL     1     -21.170  24.397  18.464  1.00  0.00     0.293 HD
ENDBRANCH  17  22
ENDBRANCH   1  12
BRANCH   2  24
ATOM     24  O   UNL     1     -17.755  29.148  21.487  1.00  0.00    -0.381 OA
ATOM     25  H   UNL     1     -17.417  28.248  21.231  1.00  0.00     0.211 HD
ENDBRANCH   2  24
BRANCH   6  26
ATOM     26  O   UNL     1     -19.466  33.130  23.817  1.00  0.00    -0.507 OA
ATOM     27  H   UNL     1     -19.447  32.946  24.813  1.00  0.00     0.293 HD
ENDBRANCH   6  26
BRANCH   8  28
ATOM     28  O   UNL     1     -23.316  33.031  20.903  1.00  0.00    -0.508 OA
ATOM     29  H   UNL     1     -23.372  34.042  20.888  1.00  0.00     0.293 HD
ENDBRANCH   8  28
TORSDOF 7
ENDMDL
MODEL 9
REMARK VINA RESULT:    -3.979      1.359      7.044
REMARK INTER + INTRA:          -5.223
REMARK INTER:                  -4.946
REMARK INTRA:                  -0.277
REMARK UNBOUND:                -0.313
REMARK SMILES O=C1c2c(O)cc(O)cc2O[C@@H](c2cc(O)c(O)c(O)c2)[C@H]1O
REMARK SMILES IDX 12 1 22 2 2 3 1 4 3 5 4 6 6 7 7 8 9 9 10 10 11 11 13 12
REMARK SMILES IDX 14 13 15 14 21 15 17 16 19 17 16 18 18 20 20 22 23 24 5 26
REMARK SMILES IDX 8 28
REMARK H PARENT 16 19 18 21 20 23 23 25 5 27 8 29
REMARK Flexibility Score: inf
ROOT
ATOM      1  C   UNL     1     -19.666  28.233  21.074  1.00  0.00     0.240 C 
ATOM      2  C   UNL     1     -21.135  27.816  20.871  1.00  0.00     0.231 C 
ATOM      3  C   UNL     1     -21.957  29.035  20.545  1.00  0.00     0.202 C 
ATOM      4  O   UNL     1     -22.928  28.932  19.749  1.00  0.00    -0.291 OA
ATOM      5  C   UNL     1     -21.645  30.323  21.213  1.00  0.00     0.105 A 
ATOM      6  C   UNL     1     -22.506  31.441  21.157  1.00  0.00     0.133 A 
ATOM      7  C   UNL     1     -22.170  32.611  21.853  1.00  0.00     0.093 A 
ATOM      8  C   UNL     1     -20.997  32.676  22.611  1.00  0.00     0.123 A 
ATOM      9  C   UNL     1     -20.141  31.570  22.665  1.00  0.00     0.093 A 
ATOM     10  C   UNL     1     -20.453  30.405  21.959  1.00  0.00     0.138 A 
ATOM     11  O   UNL     1     -19.573  29.316  22.004  1.00  0.00    -0.481 OA
ENDROOT
BRANCH   1  12
ATOM     12  C   UNL     1     -18.814  27.068  21.528  1.00  0.00     0.003 A 
ATOM     13  C   UNL     1     -18.956  25.815  20.910  1.00  0.00     0.058 A 
ATOM     14  C   UNL     1     -18.199  24.718  21.343  1.00  0.00     0.161 A 
ATOM     15  C   UNL     1     -17.923  27.203  22.606  1.00  0.00     0.058 A 
ATOM     16  C   UNL     1     -17.299  24.863  22.407  1.00  0.00     0.200 A 
ATOM     17  C   UNL     1     -17.163  26.108  23.042  1.00  0.00     0.161 A 
BRANCH  14  18
ATOM     18  O   UNL     1     -18.337  23.478  20.720  1.00  0.00    -0.504 OA
ATOM     19  H   UNL     1     -19.137  22.881  20.898  1.00  0.00     0.293 HD
ENDBRANCH  14  18
BRANCH  16  20
ATOM     20  O   UNL     1     -16.553  23.760  22.822  1.00  0.00    -0.502 OA
ATOM     21  H   UNL     1     -15.828  23.352  22.245  1.00  0.00     0.293 HD
ENDBRANCH  16  20
BRANCH  17  22
ATOM     22  O   UNL     1     -16.275  26.254  24.107  1.00  0.00    -0.504 OA
ATOM     23  H   UNL     1     -15.404  25.737  24.148  1.00  0.00     0.293 HD
ENDBRANCH  17  22
ENDBRANCH   1  12
BRANCH   2  24
ATOM     24  O   UNL     1     -21.636  27.222  22.041  1.00  0.00    -0.381 OA
ATOM     25  H   UNL     1     -22.095  27.940  22.553  1.00  0.00     0.211 HD
ENDBRANCH   2  24
BRANCH   6  26
ATOM     26  O   UNL     1     -23.690  31.390  20.422  1.00  0.00    -0.507 OA
ATOM     27  H   UNL     1     -23.718  31.013  19.482  1.00  0.00     0.293 HD
ENDBRANCH   6  26
BRANCH   8  28
ATOM     28  O   UNL     1     -20.689  33.845  23.302  1.00  0.00    -0.508 OA
ATOM     29  H   UNL     1     -20.734  34.753  22.854  1.00  0.00     0.293 HD
ENDBRANCH   8  28
TORSDOF 7
ENDMDL
