MODEL 1
REMARK VINA RESULT:    -5.751      0.000      0.000
REMARK INTER + INTRA:          -6.360
REMARK INTER:                  -6.087
REMARK INTRA:                  -0.273
REMARK UNBOUND:                -0.273
REMARK SMILES CC1=CC[C@@H]2[C@H]3[C@@H](C(C)C)CC[C@]2(C)[C@@H]13
REMARK SMILES IDX 1 1 2 2 3 3 4 4 5 5 6 6 15 7 13 8 12 9 11 10 7 11 14 12 8 13
REMARK SMILES IDX 9 14 10 15
REMARK H PARENT
REMARK Flexibility Score: inf
ROOT
ATOM      1  C   UNL     1       1.789  -3.370  12.826  1.00  0.00     0.039 C 
ATOM      2  C   UNL     1       2.038  -2.407  13.946  1.00  0.00    -0.073 C 
ATOM      3  C   UNL     1       2.669  -1.215  13.738  1.00  0.00    -0.027 C 
ATOM      4  C   UNL     1       3.052  -0.356  14.947  1.00  0.00     0.031 C 
ATOM      5  C   UNL     1       2.715  -1.109  16.274  1.00  0.00     0.003 C 
ATOM      6  C   UNL     1       3.201  -2.568  16.112  1.00  0.00     0.004 C 
ATOM      7  C   UNL     1       1.852  -2.844  15.402  1.00  0.00     0.024 C 
ATOM      8  C   UNL     1       1.280  -1.684  16.253  1.00  0.00    -0.022 C 
ATOM      9  C   UNL     1       0.917  -2.183  17.679  1.00  0.00     0.008 C 
ATOM     10  C   UNL     1       1.897  -3.266  18.214  1.00  0.00     0.005 C 
ATOM     11  C   UNL     1       3.283  -3.298  17.485  1.00  0.00    -0.005 C 
ATOM     12  C   UNL     1       0.143  -0.820  15.659  1.00  0.00     0.012 C 
ENDROOT
BRANCH  11  13
ATOM     13  C   UNL     1       4.437  -2.769  18.403  1.00  0.00    -0.014 C 
ATOM     14  C   UNL     1       4.729  -3.767  19.536  1.00  0.00     0.007 C 
ATOM     15  C   UNL     1       5.746  -2.503  17.638  1.00  0.00     0.007 C 
ENDBRANCH  11  13
TORSDOF 1
ENDMDL
MODEL 2
REMARK VINA RESULT:    -5.352      1.706      5.395
REMARK INTER + INTRA:          -5.937
REMARK INTER:                  -5.650
REMARK INTRA:                  -0.287
REMARK UNBOUND:                -0.273
REMARK SMILES CC1=CC[C@@H]2[C@H]3[C@@H](C(C)C)CC[C@]2(C)[C@@H]13
REMARK SMILES IDX 1 1 2 2 3 3 4 4 5 5 6 6 15 7 13 8 12 9 11 10 7 11 14 12 8 13
REMARK SMILES IDX 9 14 10 15
REMARK H PARENT
REMARK Flexibility Score: inf
ROOT
ATOM      1  C   UNL     1       2.271  -3.478  17.519  1.00  0.00     0.039 C 
ATOM      2  C   UNL     1       1.696  -2.548  16.495  1.00  0.00    -0.073 C 
ATOM      3  C   UNL     1       0.769  -1.603  16.827  1.00  0.00    -0.027 C 
ATOM      4  C   UNL     1       0.090  -0.804  15.710  1.00  0.00     0.031 C 
ATOM      5  C   UNL     1       0.545  -1.333  14.312  1.00  0.00     0.003 C 
ATOM      6  C   UNL     1       0.499  -2.878  14.367  1.00  0.00     0.004 C 
ATOM      7  C   UNL     1       1.911  -2.809  15.001  1.00  0.00     0.024 C 
ATOM      8  C   UNL     1       2.082  -1.476  14.232  1.00  0.00    -0.022 C 
ATOM      9  C   UNL     1       2.486  -1.747  12.757  1.00  0.00     0.008 C 
ATOM     10  C   UNL     1       1.820  -3.023  12.167  1.00  0.00     0.005 C 
ATOM     11  C   UNL     1       0.545  -3.500  12.940  1.00  0.00    -0.005 C 
ATOM     12  C   UNL     1       2.964  -0.369  14.856  1.00  0.00     0.012 C 
ENDROOT
BRANCH  11  13
ATOM     13  C   UNL     1      -0.763  -3.258  12.113  1.00  0.00    -0.014 C 
ATOM     14  C   UNL     1      -0.580  -3.723  10.659  1.00  0.00     0.007 C 
ATOM     15  C   UNL     1      -1.994  -3.973  12.702  1.00  0.00     0.007 C 
ENDBRANCH  11  13
TORSDOF 1
ENDMDL
MODEL 3
REMARK VINA RESULT:    -5.346      1.426      3.236
REMARK INTER + INTRA:          -5.931
REMARK INTER:                  -5.646
REMARK INTRA:                  -0.285
REMARK UNBOUND:                -0.273
REMARK SMILES CC1=CC[C@@H]2[C@H]3[C@@H](C(C)C)CC[C@]2(C)[C@@H]13
REMARK SMILES IDX 1 1 2 2 3 3 4 4 5 5 6 6 15 7 13 8 12 9 11 10 7 11 14 12 8 13
REMARK SMILES IDX 9 14 10 15
REMARK H PARENT
REMARK Flexibility Score: inf
ROOT
ATOM      1  C   UNL     1      -1.910  -1.534  13.386  1.00  0.00     0.039 C 
ATOM      2  C   UNL     1      -0.511  -2.070  13.417  1.00  0.00    -0.073 C 
ATOM      3  C   UNL     1      -0.186  -3.258  12.830  1.00  0.00    -0.027 C 
ATOM      4  C   UNL     1       1.216  -3.835  13.048  1.00  0.00     0.031 C 
ATOM      5  C   UNL     1       2.019  -2.944  14.049  1.00  0.00     0.003 C 
ATOM      6  C   UNL     1       1.073  -2.606  15.226  1.00  0.00     0.004 C 
ATOM      7  C   UNL     1       0.537  -1.449  14.346  1.00  0.00     0.024 C 
ATOM      8  C   UNL     1       1.931  -1.447  13.672  1.00  0.00    -0.022 C 
ATOM      9  C   UNL     1       2.950  -0.650  14.534  1.00  0.00     0.008 C 
ATOM     10  C   UNL     1       2.712  -0.811  16.063  1.00  0.00     0.005 C 
ATOM     11  C   UNL     1       1.864  -2.067  16.455  1.00  0.00    -0.005 C 
ATOM     12  C   UNL     1       2.033  -1.049  12.181  1.00  0.00     0.012 C 
ENDROOT
BRANCH  11  13
ATOM     13  C   UNL     1       2.734  -3.161  17.163  1.00  0.00    -0.014 C 
ATOM     14  C   UNL     1       3.916  -2.516  17.906  1.00  0.00     0.007 C 
ATOM     15  C   UNL     1       1.937  -4.017  18.164  1.00  0.00     0.007 C 
ENDBRANCH  11  13
TORSDOF 1
ENDMDL
MODEL 4
REMARK VINA RESULT:    -5.309      1.910      5.207
REMARK INTER + INTRA:          -5.892
REMARK INTER:                  -5.604
REMARK INTRA:                  -0.288
REMARK UNBOUND:                -0.273
REMARK SMILES CC1=CC[C@@H]2[C@H]3[C@@H](C(C)C)CC[C@]2(C)[C@@H]13
REMARK SMILES IDX 1 1 2 2 3 3 4 4 5 5 6 6 15 7 13 8 12 9 11 10 7 11 14 12 8 13
REMARK SMILES IDX 9 14 10 15
REMARK H PARENT
REMARK Flexibility Score: inf
ROOT
ATOM      1  C   UNL     1      -0.261  -6.283  19.755  1.00  0.00     0.039 C 
ATOM      2  C   UNL     1       0.423  -4.951  19.794  1.00  0.00    -0.073 C 
ATOM      3  C   UNL     1       0.065  -3.989  20.692  1.00  0.00    -0.027 C 
ATOM      4  C   UNL     1       0.677  -2.590  20.567  1.00  0.00     0.031 C 
ATOM      5  C   UNL     1       1.574  -2.504  19.290  1.00  0.00     0.003 C 
ATOM      6  C   UNL     1       0.792  -3.170  18.133  1.00  0.00     0.004 C 
ATOM      7  C   UNL     1       1.348  -4.519  18.652  1.00  0.00     0.024 C 
ATOM      8  C   UNL     1       2.546  -3.703  19.197  1.00  0.00    -0.022 C 
ATOM      9  C   UNL     1       3.576  -3.428  18.067  1.00  0.00     0.008 C 
ATOM     10  C   UNL     1       2.911  -3.196  16.679  1.00  0.00     0.005 C 
ATOM     11  C   UNL     1       1.399  -2.798  16.748  1.00  0.00    -0.005 C 
ATOM     12  C   UNL     1       3.249  -4.190  20.485  1.00  0.00     0.012 C 
ENDROOT
BRANCH  11  13
ATOM     13  C   UNL     1       1.172  -1.300  16.351  1.00  0.00    -0.014 C 
ATOM     14  C   UNL     1       2.444  -0.705  15.724  1.00  0.00     0.007 C 
ATOM     15  C   UNL     1       0.005  -1.103  15.364  1.00  0.00     0.007 C 
ENDBRANCH  11  13
TORSDOF 1
ENDMDL
MODEL 5
REMARK VINA RESULT:    -5.250      1.129      4.581
REMARK INTER + INTRA:          -5.830
REMARK INTER:                  -5.570
REMARK INTRA:                  -0.259
REMARK UNBOUND:                -0.273
REMARK SMILES CC1=CC[C@@H]2[C@H]3[C@@H](C(C)C)CC[C@]2(C)[C@@H]13
REMARK SMILES IDX 1 1 2 2 3 3 4 4 5 5 6 6 15 7 13 8 12 9 11 10 7 11 14 12 8 13
REMARK SMILES IDX 9 14 10 15
REMARK H PARENT
REMARK Flexibility Score: inf
ROOT
ATOM      1  C   UNL     1       5.480  -1.689  19.288  1.00  0.00     0.039 C 
ATOM      2  C   UNL     1       4.341  -2.529  18.797  1.00  0.00    -0.073 C 
ATOM      3  C   UNL     1       4.349  -3.888  18.921  1.00  0.00    -0.027 C 
ATOM      4  C   UNL     1       3.242  -4.702  18.242  1.00  0.00     0.031 C 
ATOM      5  C   UNL     1       2.318  -3.763  17.400  1.00  0.00     0.003 C 
ATOM      6  C   UNL     1       3.237  -2.800  16.611  1.00  0.00     0.004 C 
ATOM      7  C   UNL     1       3.265  -1.924  17.889  1.00  0.00     0.024 C 
ATOM      8  C   UNL     1       1.876  -2.525  18.213  1.00  0.00    -0.022 C 
ATOM      9  C   UNL     1       0.764  -1.777  17.425  1.00  0.00     0.008 C 
ATOM     10  C   UNL     1       1.219  -1.327  16.007  1.00  0.00     0.005 C 
ATOM     11  C   UNL     1       2.465  -2.097  15.455  1.00  0.00    -0.005 C 
ATOM     12  C   UNL     1       1.477  -2.712  19.696  1.00  0.00     0.012 C 
ENDROOT
BRANCH  11  13
ATOM     13  C   UNL     1       2.082  -3.064  14.285  1.00  0.00    -0.014 C 
ATOM     14  C   UNL     1       0.554  -3.187  14.161  1.00  0.00     0.007 C 
ATOM     15  C   UNL     1       2.647  -2.622  12.922  1.00  0.00     0.007 C 
ENDBRANCH  11  13
TORSDOF 1
ENDMDL
MODEL 6
REMARK VINA RESULT:    -5.140      2.567      5.502
REMARK INTER + INTRA:          -5.713
REMARK INTER:                  -5.421
REMARK INTRA:                  -0.292
REMARK UNBOUND:                -0.273
REMARK SMILES CC1=CC[C@@H]2[C@H]3[C@@H](C(C)C)CC[C@]2(C)[C@@H]13
REMARK SMILES IDX 1 1 2 2 3 3 4 4 5 5 6 6 15 7 13 8 12 9 11 10 7 11 14 12 8 13
REMARK SMILES IDX 9 14 10 15
REMARK H PARENT
REMARK Flexibility Score: inf
ROOT
ATOM      1  C   UNL     1       0.020  -2.032  22.385  1.00  0.00     0.039 C 
ATOM      2  C   UNL     1       0.856  -3.059  21.683  1.00  0.00    -0.073 C 
ATOM      3  C   UNL     1       1.778  -3.810  22.352  1.00  0.00    -0.027 C 
ATOM      4  C   UNL     1       2.722  -4.713  21.551  1.00  0.00     0.031 C 
ATOM      5  C   UNL     1       2.498  -4.506  20.018  1.00  0.00     0.003 C 
ATOM      6  C   UNL     1       2.403  -2.983  19.767  1.00  0.00     0.004 C 
ATOM      7  C   UNL     1       0.907  -3.103  20.152  1.00  0.00     0.024 C 
ATOM      8  C   UNL     1       0.997  -4.565  19.651  1.00  0.00    -0.022 C 
ATOM      9  C   UNL     1       0.860  -4.618  18.104  1.00  0.00     0.008 C 
ATOM     10  C   UNL     1       1.517  -3.401  17.391  1.00  0.00     0.005 C 
ATOM     11  C   UNL     1       2.577  -2.642  18.258  1.00  0.00    -0.005 C 
ATOM     12  C   UNL     1       0.109  -5.636  20.326  1.00  0.00     0.012 C 
ENDROOT
BRANCH  11  13
ATOM     13  C   UNL     1       4.034  -2.874  17.731  1.00  0.00    -0.014 C 
ATOM     14  C   UNL     1       4.187  -2.333  16.300  1.00  0.00     0.007 C 
ATOM     15  C   UNL     1       5.111  -2.220  18.617  1.00  0.00     0.007 C 
ENDBRANCH  11  13
TORSDOF 1
ENDMDL
MODEL 7
REMARK VINA RESULT:    -5.066      2.151      4.019
REMARK INTER + INTRA:          -5.635
REMARK INTER:                  -5.498
REMARK INTRA:                  -0.138
REMARK UNBOUND:                -0.273
REMARK SMILES CC1=CC[C@@H]2[C@H]3[C@@H](C(C)C)CC[C@]2(C)[C@@H]13
REMARK SMILES IDX 1 1 2 2 3 3 4 4 5 5 6 6 15 7 13 8 12 9 11 10 7 11 14 12 8 13
REMARK SMILES IDX 9 14 10 15
REMARK H PARENT
REMARK Flexibility Score: inf
ROOT
ATOM      1  C   UNL     1      -0.569  -6.147  12.061  1.00  0.00     0.039 C 
ATOM      2  C   UNL     1      -0.189  -4.699  12.015  1.00  0.00    -0.073 C 
ATOM      3  C   UNL     1       0.159  -4.087  10.846  1.00  0.00    -0.027 C 
ATOM      4  C   UNL     1       0.707  -2.657  10.891  1.00  0.00     0.031 C 
ATOM      5  C   UNL     1       0.866  -2.184  12.372  1.00  0.00     0.003 C 
ATOM      6  C   UNL     1       1.522  -3.344  13.157  1.00  0.00     0.004 C 
ATOM      7  C   UNL     1       0.096  -3.929  13.309  1.00  0.00     0.024 C 
ATOM      8  C   UNL     1      -0.408  -2.470  13.199  1.00  0.00    -0.022 C 
ATOM      9  C   UNL     1      -0.289  -1.749  14.571  1.00  0.00     0.008 C 
ATOM     10  C   UNL     1       0.962  -2.189  15.384  1.00  0.00     0.005 C 
ATOM     11  C   UNL     1       2.087  -2.857  14.525  1.00  0.00    -0.005 C 
ATOM     12  C   UNL     1      -1.788  -2.209  12.551  1.00  0.00     0.012 C 
ENDROOT
BRANCH  11  13
ATOM     13  C   UNL     1       3.342  -1.931  14.386  1.00  0.00    -0.014 C 
ATOM     14  C   UNL     1       2.945  -0.453  14.532  1.00  0.00     0.007 C 
ATOM     15  C   UNL     1       4.444  -2.244  15.415  1.00  0.00     0.007 C 
ENDBRANCH  11  13
TORSDOF 1
ENDMDL
MODEL 8
REMARK VINA RESULT:    -5.012      2.660      5.682
REMARK INTER + INTRA:          -5.577
REMARK INTER:                  -5.290
REMARK INTRA:                  -0.287
REMARK UNBOUND:                -0.273
REMARK SMILES CC1=CC[C@@H]2[C@H]3[C@@H](C(C)C)CC[C@]2(C)[C@@H]13
REMARK SMILES IDX 1 1 2 2 3 3 4 4 5 5 6 6 15 7 13 8 12 9 11 10 7 11 14 12 8 13
REMARK SMILES IDX 9 14 10 15
REMARK H PARENT
REMARK Flexibility Score: inf
ROOT
ATOM      1  C   UNL     1      -0.390  -6.360  20.112  1.00  0.00     0.039 C 
ATOM      2  C   UNL     1       0.598  -5.328  20.561  1.00  0.00    -0.073 C 
ATOM      3  C   UNL     1       0.198  -4.153  21.128  1.00  0.00    -0.027 C 
ATOM      4  C   UNL     1       1.242  -3.066  21.402  1.00  0.00     0.031 C 
ATOM      5  C   UNL     1       2.637  -3.504  20.847  1.00  0.00     0.003 C 
ATOM      6  C   UNL     1       2.407  -4.091  19.435  1.00  0.00     0.004 C 
ATOM      7  C   UNL     1       2.068  -5.427  20.143  1.00  0.00     0.024 C 
ATOM      8  C   UNL     1       2.995  -4.943  21.284  1.00  0.00    -0.022 C 
ATOM      9  C   UNL     1       4.483  -5.220  20.931  1.00  0.00     0.008 C 
ATOM     10  C   UNL     1       4.791  -5.050  19.416  1.00  0.00     0.005 C 
ATOM     11  C   UNL     1       3.740  -4.191  18.636  1.00  0.00    -0.005 C 
ATOM     12  C   UNL     1       2.676  -5.380  22.733  1.00  0.00     0.012 C 
ENDROOT
BRANCH  11  13
ATOM     13  C   UNL     1       4.321  -2.798  18.217  1.00  0.00    -0.014 C 
ATOM     14  C   UNL     1       5.853  -2.787  18.349  1.00  0.00     0.007 C 
ATOM     15  C   UNL     1       3.952  -2.395  16.778  1.00  0.00     0.007 C 
ENDBRANCH  11  13
TORSDOF 1
ENDMDL
MODEL 9
REMARK VINA RESULT:    -4.985      3.422      6.581
REMARK INTER + INTRA:          -5.549
REMARK INTER:                  -5.278
REMARK INTRA:                  -0.271
REMARK UNBOUND:                -0.273
REMARK SMILES CC1=CC[C@@H]2[C@H]3[C@@H](C(C)C)CC[C@]2(C)[C@@H]13
REMARK SMILES IDX 1 1 2 2 3 3 4 4 5 5 6 6 15 7 13 8 12 9 11 10 7 11 14 12 8 13
REMARK SMILES IDX 9 14 10 15
REMARK H PARENT
REMARK Flexibility Score: inf
ROOT
ATOM      1  C   UNL     1       0.114  -7.070  20.877  1.00  0.00     0.039 C 
ATOM      2  C   UNL     1       0.655  -5.694  21.119  1.00  0.00    -0.073 C 
ATOM      3  C   UNL     1       0.924  -5.242  22.378  1.00  0.00    -0.027 C 
ATOM      4  C   UNL     1       1.305  -3.771  22.574  1.00  0.00     0.031 C 
ATOM      5  C   UNL     1       1.204  -3.001  21.217  1.00  0.00     0.003 C 
ATOM      6  C   UNL     1      -0.120  -3.427  20.543  1.00  0.00     0.004 C 
ATOM      7  C   UNL     1       0.657  -4.651  19.996  1.00  0.00     0.024 C 
ATOM      8  C   UNL     1       1.921  -3.762  20.078  1.00  0.00    -0.022 C 
ATOM      9  C   UNL     1       2.014  -2.834  18.835  1.00  0.00     0.008 C 
ATOM     10  C   UNL     1       0.625  -2.345  18.334  1.00  0.00     0.005 C 
ATOM     11  C   UNL     1      -0.518  -2.448  19.399  1.00  0.00    -0.005 C 
ATOM     12  C   UNL     1       3.282  -4.434  20.375  1.00  0.00     0.012 C 
ENDROOT
BRANCH  11  13
ATOM     13  C   UNL     1      -0.963  -1.037  19.914  1.00  0.00    -0.014 C 
ATOM     14  C   UNL     1      -1.730  -0.277  18.820  1.00  0.00     0.007 C 
ATOM     15  C   UNL     1      -1.847  -1.103  21.173  1.00  0.00     0.007 C 
ENDBRANCH  11  13
TORSDOF 1
ENDMDL
