MODEL 1
REMARK VINA RESULT:    -7.408      0.000      0.000
REMARK INTER + INTRA:          -8.185
REMARK INTER:                  -8.057
REMARK INTRA:                  -0.127
REMARK UNBOUND:                -0.127
REMARK SMILES CC(=O)[C@@H]1CC[C@@H]2[C@H]3CC=C4C[C@@H](O)CC[C@@]4(C)[C@H]3CC[C@@]21C
REMARK SMILES IDX 4 1 5 2 6 3 7 4 22 5 21 6 20 7 19 8 8 9 9 10 10 11 11 12
REMARK SMILES IDX 17 13 16 14 15 15 13 16 12 17 18 18 23 19 2 20 1 21 3 22
REMARK SMILES IDX 14 23
REMARK H PARENT 14 24
REMARK Flexibility Score: inf
ROOT
ATOM      1  C   UNL     1       9.777 118.507  19.648  1.00  0.00     0.062 C 
ATOM      2  C   UNL     1       8.898 118.052  18.483  1.00  0.00     0.012 C 
ATOM      3  C   UNL     1       9.815 117.273  17.542  1.00  0.00     0.005 C 
ATOM      4  C   UNL     1      11.198 117.193  18.218  1.00  0.00    -0.001 C 
ATOM      5  C   UNL     1      10.949 117.491  19.723  1.00  0.00    -0.020 C 
ATOM      6  C   UNL     1      10.549 116.202  20.495  1.00  0.00     0.008 C 
ATOM      7  C   UNL     1      11.459 114.999  20.207  1.00  0.00     0.005 C 
ATOM      8  C   UNL     1      11.448 114.647  18.700  1.00  0.00     0.003 C 
ATOM      9  C   UNL     1      11.943 115.865  17.874  1.00  0.00     0.000 C 
ATOM     10  C   UNL     1      13.468 116.036  17.981  1.00  0.00     0.031 C 
ATOM     11  C   UNL     1      14.220 114.757  17.774  1.00  0.00    -0.027 C 
ATOM     12  C   UNL     1      13.707 113.539  18.037  1.00  0.00    -0.065 C 
ATOM     13  C   UNL     1      12.210 113.316  18.286  1.00  0.00    -0.008 C 
ATOM     14  C   UNL     1      12.055 112.203  19.372  1.00  0.00     0.014 C 
ATOM     15  C   UNL     1      12.883 110.938  19.091  1.00  0.00     0.033 C 
ATOM     16  C   UNL     1      14.377 111.275  18.939  1.00  0.00     0.118 C 
ATOM     17  C   UNL     1      14.598 112.322  17.841  1.00  0.00     0.063 C 
ATOM     18  C   UNL     1      11.576 112.804  16.961  1.00  0.00     0.016 C 
ATOM     19  C   UNL     1      12.157 118.173  20.417  1.00  0.00     0.012 C 
ENDROOT
BRANCH   1  20
ATOM     20  C   UNL     1       9.000 118.715  20.940  1.00  0.00     0.133 C 
ATOM     21  C   UNL     1       7.695 118.016  21.177  1.00  0.00     0.088 C 
ATOM     22  O   UNL     1       9.437 119.450  21.813  1.00  0.00    -0.300 OA
ENDBRANCH   1  20
BRANCH  16  23
ATOM     23  O   UNL     1      14.898 111.755  20.153  1.00  0.00    -0.393 OA
ATOM     24  H   UNL     1      14.589 112.694  20.247  1.00  0.00     0.210 HD
ENDBRANCH  16  23
TORSDOF 2
ENDMDL
MODEL 2
REMARK VINA RESULT:    -6.839      2.070      6.549
REMARK INTER + INTRA:          -7.566
REMARK INTER:                  -7.422
REMARK INTRA:                  -0.144
REMARK UNBOUND:                -0.127
REMARK SMILES CC(=O)[C@@H]1CC[C@@H]2[C@H]3CC=C4C[C@@H](O)CC[C@@]4(C)[C@H]3CC[C@@]21C
REMARK SMILES IDX 4 1 5 2 6 3 7 4 22 5 21 6 20 7 19 8 8 9 9 10 10 11 11 12
REMARK SMILES IDX 17 13 16 14 15 15 13 16 12 17 18 18 23 19 2 20 1 21 3 22
REMARK SMILES IDX 14 23
REMARK H PARENT 14 24
REMARK Flexibility Score: inf
ROOT
ATOM      1  C   UNL     1      14.302 111.242  20.120  1.00  0.00     0.062 C 
ATOM      2  C   UNL     1      14.472 111.971  21.452  1.00  0.00     0.012 C 
ATOM      3  C   UNL     1      14.656 113.447  21.103  1.00  0.00     0.005 C 
ATOM      4  C   UNL     1      14.488 113.579  19.577  1.00  0.00    -0.001 C 
ATOM      5  C   UNL     1      13.742 112.293  19.124  1.00  0.00    -0.020 C 
ATOM      6  C   UNL     1      12.201 112.457  19.261  1.00  0.00     0.008 C 
ATOM      7  C   UNL     1      11.662 113.769  18.673  1.00  0.00     0.005 C 
ATOM      8  C   UNL     1      12.311 114.991  19.365  1.00  0.00     0.003 C 
ATOM      9  C   UNL     1      13.852 114.946  19.173  1.00  0.00     0.000 C 
ATOM     10  C   UNL     1      14.253 115.347  17.744  1.00  0.00     0.031 C 
ATOM     11  C   UNL     1      13.571 116.595  17.269  1.00  0.00    -0.027 C 
ATOM     12  C   UNL     1      12.371 117.007  17.722  1.00  0.00    -0.065 C 
ATOM     13  C   UNL     1      11.719 116.412  18.976  1.00  0.00    -0.008 C 
ATOM     14  C   UNL     1      10.175 116.348  18.742  1.00  0.00     0.014 C 
ATOM     15  C   UNL     1       9.567 117.664  18.230  1.00  0.00     0.033 C 
ATOM     16  C   UNL     1      10.245 118.119  16.927  1.00  0.00     0.118 C 
ATOM     17  C   UNL     1      11.761 118.260  17.112  1.00  0.00     0.063 C 
ATOM     18  C   UNL     1      11.998 117.379  20.163  1.00  0.00     0.016 C 
ATOM     19  C   UNL     1      14.103 111.856  17.681  1.00  0.00     0.012 C 
ENDROOT
BRANCH   1  20
ATOM     20  C   UNL     1      13.501 109.954  20.240  1.00  0.00     0.133 C 
ATOM     21  C   UNL     1      12.639 109.689  21.438  1.00  0.00     0.088 C 
ATOM     22  O   UNL     1      13.539 109.116  19.351  1.00  0.00    -0.300 OA
ENDBRANCH   1  20
BRANCH  16  23
ATOM     23  O   UNL     1       9.985 117.205  15.892  1.00  0.00    -0.393 OA
ATOM     24  H   UNL     1      10.827 116.704  15.733  1.00  0.00     0.210 HD
ENDBRANCH  16  23
TORSDOF 2
ENDMDL
MODEL 3
REMARK VINA RESULT:    -6.769      3.927      8.468
REMARK INTER + INTRA:          -7.490
REMARK INTER:                  -7.390
REMARK INTRA:                  -0.100
REMARK UNBOUND:                -0.127
REMARK SMILES CC(=O)[C@@H]1CC[C@@H]2[C@H]3CC=C4C[C@@H](O)CC[C@@]4(C)[C@H]3CC[C@@]21C
REMARK SMILES IDX 4 1 5 2 6 3 7 4 22 5 21 6 20 7 19 8 8 9 9 10 10 11 11 12
REMARK SMILES IDX 17 13 16 14 15 15 13 16 12 17 18 18 23 19 2 20 1 21 3 22
REMARK SMILES IDX 14 23
REMARK H PARENT 14 24
REMARK Flexibility Score: inf
ROOT
ATOM      1  C   UNL     1       9.261 117.089  18.874  1.00  0.00     0.062 C 
ATOM      2  C   UNL     1       7.983 117.676  18.276  1.00  0.00     0.012 C 
ATOM      3  C   UNL     1       7.099 118.057  19.462  1.00  0.00     0.005 C 
ATOM      4  C   UNL     1       7.912 117.785  20.742  1.00  0.00    -0.001 C 
ATOM      5  C   UNL     1       9.398 117.714  20.289  1.00  0.00    -0.020 C 
ATOM      6  C   UNL     1      10.040 119.129  20.238  1.00  0.00     0.008 C 
ATOM      7  C   UNL     1       9.777 119.975  21.492  1.00  0.00     0.005 C 
ATOM      8  C   UNL     1       8.259 120.174  21.715  1.00  0.00     0.003 C 
ATOM      9  C   UNL     1       7.568 118.793  21.883  1.00  0.00     0.000 C 
ATOM     10  C   UNL     1       7.848 118.187  23.268  1.00  0.00     0.031 C 
ATOM     11  C   UNL     1       7.644 119.161  24.389  1.00  0.00    -0.027 C 
ATOM     12  C   UNL     1       7.773 120.495  24.251  1.00  0.00    -0.065 C 
ATOM     13  C   UNL     1       7.846 121.175  22.878  1.00  0.00    -0.008 C 
ATOM     14  C   UNL     1       8.837 122.379  22.979  1.00  0.00     0.014 C 
ATOM     15  C   UNL     1       8.568 123.309  24.174  1.00  0.00     0.033 C 
ATOM     16  C   UNL     1       8.599 122.531  25.501  1.00  0.00     0.118 C 
ATOM     17  C   UNL     1       7.599 121.369  25.484  1.00  0.00     0.063 C 
ATOM     18  C   UNL     1       6.431 121.727  22.543  1.00  0.00     0.016 C 
ATOM     19  C   UNL     1      10.259 116.771  21.169  1.00  0.00     0.012 C 
ENDROOT
BRANCH   1  20
ATOM     20  C   UNL     1      10.472 117.241  17.966  1.00  0.00     0.133 C 
ATOM     21  C   UNL     1      10.383 118.011  16.681  1.00  0.00     0.088 C 
ATOM     22  O   UNL     1      11.545 116.747  18.277  1.00  0.00    -0.300 OA
ENDBRANCH   1  20
BRANCH  16  23
ATOM     23  O   UNL     1       9.889 122.032  25.748  1.00  0.00    -0.393 OA
ATOM     24  H   UNL     1      10.203 122.451  26.591  1.00  0.00     0.210 HD
ENDBRANCH  16  23
TORSDOF 2
ENDMDL
MODEL 4
REMARK VINA RESULT:    -6.712      2.420      3.814
REMARK INTER + INTRA:          -7.429
REMARK INTER:                  -7.325
REMARK INTRA:                  -0.104
REMARK UNBOUND:                -0.127
REMARK SMILES CC(=O)[C@@H]1CC[C@@H]2[C@H]3CC=C4C[C@@H](O)CC[C@@]4(C)[C@H]3CC[C@@]21C
REMARK SMILES IDX 4 1 5 2 6 3 7 4 22 5 21 6 20 7 19 8 8 9 9 10 10 11 11 12
REMARK SMILES IDX 17 13 16 14 15 15 13 16 12 17 18 18 23 19 2 20 1 21 3 22
REMARK SMILES IDX 14 23
REMARK H PARENT 14 24
REMARK Flexibility Score: inf
ROOT
ATOM      1  C   UNL     1      11.109 117.883  18.910  1.00  0.00     0.062 C 
ATOM      2  C   UNL     1      12.613 117.988  18.657  1.00  0.00     0.012 C 
ATOM      3  C   UNL     1      13.287 117.247  19.809  1.00  0.00     0.005 C 
ATOM      4  C   UNL     1      12.169 116.627  20.669  1.00  0.00    -0.001 C 
ATOM      5  C   UNL     1      10.907 116.600  19.760  1.00  0.00    -0.020 C 
ATOM      6  C   UNL     1      10.875 115.319  18.878  1.00  0.00     0.008 C 
ATOM      7  C   UNL     1      11.152 114.024  19.655  1.00  0.00     0.005 C 
ATOM      8  C   UNL     1      12.542 114.073  20.331  1.00  0.00     0.003 C 
ATOM      9  C   UNL     1      12.605 115.274  21.314  1.00  0.00     0.000 C 
ATOM     10  C   UNL     1      11.817 114.990  22.603  1.00  0.00     0.031 C 
ATOM     11  C   UNL     1      12.118 113.646  23.194  1.00  0.00    -0.027 C 
ATOM     12  C   UNL     1      12.536 112.589  22.469  1.00  0.00    -0.065 C 
ATOM     13  C   UNL     1      13.031 112.730  21.025  1.00  0.00    -0.008 C 
ATOM     14  C   UNL     1      12.572 111.468  20.224  1.00  0.00     0.014 C 
ATOM     15  C   UNL     1      12.899 110.136  20.919  1.00  0.00     0.033 C 
ATOM     16  C   UNL     1      12.283 110.078  22.327  1.00  0.00     0.118 C 
ATOM     17  C   UNL     1      12.748 111.263  23.183  1.00  0.00     0.063 C 
ATOM     18  C   UNL     1      14.587 112.756  21.054  1.00  0.00     0.016 C 
ATOM     19  C   UNL     1       9.582 116.731  20.555  1.00  0.00     0.012 C 
ENDROOT
BRANCH   1  20
ATOM     20  C   UNL     1      10.280 117.969  17.638  1.00  0.00     0.133 C 
ATOM     21  C   UNL     1      10.935 118.000  16.289  1.00  0.00     0.088 C 
ATOM     22  O   UNL     1       9.060 118.001  17.695  1.00  0.00    -0.300 OA
ENDBRANCH   1  20
BRANCH  16  23
ATOM     23  O   UNL     1      10.880 110.081  22.250  1.00  0.00    -0.393 OA
ATOM     24  H   UNL     1      10.639 109.657  21.385  1.00  0.00     0.210 HD
ENDBRANCH  16  23
TORSDOF 2
ENDMDL
MODEL 5
REMARK VINA RESULT:    -6.599      2.247      7.235
REMARK INTER + INTRA:          -7.305
REMARK INTER:                  -7.159
REMARK INTRA:                  -0.147
REMARK UNBOUND:                -0.127
REMARK SMILES CC(=O)[C@@H]1CC[C@@H]2[C@H]3CC=C4C[C@@H](O)CC[C@@]4(C)[C@H]3CC[C@@]21C
REMARK SMILES IDX 4 1 5 2 6 3 7 4 22 5 21 6 20 7 19 8 8 9 9 10 10 11 11 12
REMARK SMILES IDX 17 13 16 14 15 15 13 16 12 17 18 18 23 19 2 20 1 21 3 22
REMARK SMILES IDX 14 23
REMARK H PARENT 14 24
REMARK Flexibility Score: inf
ROOT
ATOM      1  C   UNL     1      12.620 116.084  17.670  1.00  0.00     0.062 C 
ATOM      2  C   UNL     1      12.757 117.305  16.761  1.00  0.00     0.012 C 
ATOM      3  C   UNL     1      11.404 118.012  16.799  1.00  0.00     0.005 C 
ATOM      4  C   UNL     1      10.523 117.256  17.812  1.00  0.00    -0.001 C 
ATOM      5  C   UNL     1      11.505 116.434  18.693  1.00  0.00    -0.020 C 
ATOM      6  C   UNL     1      12.050 117.286  19.875  1.00  0.00     0.008 C 
ATOM      7  C   UNL     1      10.961 118.048  20.643  1.00  0.00     0.005 C 
ATOM      8  C   UNL     1      10.196 119.011  19.705  1.00  0.00     0.003 C 
ATOM      9  C   UNL     1       9.533 118.207  18.554  1.00  0.00     0.000 C 
ATOM     10  C   UNL     1       8.288 117.447  19.042  1.00  0.00     0.031 C 
ATOM     11  C   UNL     1       7.365 118.294  19.864  1.00  0.00    -0.027 C 
ATOM     12  C   UNL     1       7.771 119.359  20.584  1.00  0.00    -0.065 C 
ATOM     13  C   UNL     1       9.157 119.990  20.403  1.00  0.00    -0.008 C 
ATOM     14  C   UNL     1       9.666 120.467  21.802  1.00  0.00     0.014 C 
ATOM     15  C   UNL     1       8.642 121.307  22.584  1.00  0.00     0.033 C 
ATOM     16  C   UNL     1       7.322 120.540  22.772  1.00  0.00     0.118 C 
ATOM     17  C   UNL     1       6.742 120.098  21.423  1.00  0.00     0.063 C 
ATOM     18  C   UNL     1       8.997 121.237  19.485  1.00  0.00     0.016 C 
ATOM     19  C   UNL     1      10.887 115.117  19.228  1.00  0.00     0.012 C 
ENDROOT
BRANCH   1  20
ATOM     20  C   UNL     1      13.944 115.629  18.268  1.00  0.00     0.133 C 
ATOM     21  C   UNL     1      15.151 116.520  18.240  1.00  0.00     0.088 C 
ATOM     22  O   UNL     1      14.041 114.530  18.793  1.00  0.00    -0.300 OA
ENDBRANCH   1  20
BRANCH  16  23
ATOM     23  O   UNL     1       7.521 119.412  23.586  1.00  0.00    -0.393 OA
ATOM     24  H   UNL     1       7.092 119.609  24.459  1.00  0.00     0.210 HD
ENDBRANCH  16  23
TORSDOF 2
ENDMDL
MODEL 6
REMARK VINA RESULT:    -6.586      1.675      6.574
REMARK INTER + INTRA:          -7.291
REMARK INTER:                  -7.197
REMARK INTRA:                  -0.094
REMARK UNBOUND:                -0.127
REMARK SMILES CC(=O)[C@@H]1CC[C@@H]2[C@H]3CC=C4C[C@@H](O)CC[C@@]4(C)[C@H]3CC[C@@]21C
REMARK SMILES IDX 4 1 5 2 6 3 7 4 22 5 21 6 20 7 19 8 8 9 9 10 10 11 11 12
REMARK SMILES IDX 17 13 16 14 15 15 13 16 12 17 18 18 23 19 2 20 1 21 3 22
REMARK SMILES IDX 14 23
REMARK H PARENT 14 24
REMARK Flexibility Score: inf
ROOT
ATOM      1  C   UNL     1      14.097 112.275  19.457  1.00  0.00     0.062 C 
ATOM      2  C   UNL     1      14.726 112.945  20.678  1.00  0.00     0.012 C 
ATOM      3  C   UNL     1      14.610 114.449  20.440  1.00  0.00     0.005 C 
ATOM      4  C   UNL     1      13.821 114.644  19.130  1.00  0.00    -0.001 C 
ATOM      5  C   UNL     1      13.081 113.299  18.882  1.00  0.00    -0.020 C 
ATOM      6  C   UNL     1      11.723 113.255  19.638  1.00  0.00     0.008 C 
ATOM      7  C   UNL     1      10.869 114.517  19.453  1.00  0.00     0.005 C 
ATOM      8  C   UNL     1      11.624 115.772  19.951  1.00  0.00     0.003 C 
ATOM      9  C   UNL     1      12.948 115.937  19.157  1.00  0.00     0.000 C 
ATOM     10  C   UNL     1      12.690 116.466  17.736  1.00  0.00     0.031 C 
ATOM     11  C   UNL     1      11.758 117.639  17.704  1.00  0.00    -0.027 C 
ATOM     12  C   UNL     1      10.814 117.868  18.639  1.00  0.00    -0.065 C 
ATOM     13  C   UNL     1      10.791 117.125  19.980  1.00  0.00    -0.008 C 
ATOM     14  C   UNL     1       9.300 116.874  20.376  1.00  0.00     0.014 C 
ATOM     15  C   UNL     1       8.413 118.128  20.288  1.00  0.00     0.033 C 
ATOM     16  C   UNL     1       8.454 118.739  18.877  1.00  0.00     0.118 C 
ATOM     17  C   UNL     1       9.892 119.063  18.455  1.00  0.00     0.063 C 
ATOM     18  C   UNL     1      11.437 118.051  21.050  1.00  0.00     0.016 C 
ATOM     19  C   UNL     1      12.862 112.993  17.378  1.00  0.00     0.012 C 
ENDROOT
BRANCH   1  20
ATOM     20  C   UNL     1      13.542 110.890  19.753  1.00  0.00     0.133 C 
ATOM     21  C   UNL     1      13.024 110.540  21.117  1.00  0.00     0.088 C 
ATOM     22  O   UNL     1      13.498 110.041  18.876  1.00  0.00    -0.300 OA
ENDBRANCH   1  20
BRANCH  16  23
ATOM     23  O   UNL     1       7.882 117.857  17.944  1.00  0.00    -0.393 OA
ATOM     24  H   UNL     1       7.559 117.069  18.454  1.00  0.00     0.210 HD
ENDBRANCH  16  23
TORSDOF 2
ENDMDL
MODEL 7
REMARK VINA RESULT:    -6.581      1.613      6.874
REMARK INTER + INTRA:          -7.285
REMARK INTER:                  -7.268
REMARK INTRA:                  -0.018
REMARK UNBOUND:                -0.127
REMARK SMILES CC(=O)[C@@H]1CC[C@@H]2[C@H]3CC=C4C[C@@H](O)CC[C@@]4(C)[C@H]3CC[C@@]21C
REMARK SMILES IDX 4 1 5 2 6 3 7 4 22 5 21 6 20 7 19 8 8 9 9 10 10 11 11 12
REMARK SMILES IDX 17 13 16 14 15 15 13 16 12 17 18 18 23 19 2 20 1 21 3 22
REMARK SMILES IDX 14 23
REMARK H PARENT 14 24
REMARK Flexibility Score: inf
ROOT
ATOM      1  C   UNL     1      12.920 113.439  19.279  1.00  0.00     0.062 C 
ATOM      2  C   UNL     1      12.083 112.686  20.312  1.00  0.00     0.012 C 
ATOM      3  C   UNL     1      11.707 113.712  21.379  1.00  0.00     0.005 C 
ATOM      4  C   UNL     1      12.240 115.078  20.906  1.00  0.00    -0.001 C 
ATOM      5  C   UNL     1      12.485 114.926  19.378  1.00  0.00    -0.020 C 
ATOM      6  C   UNL     1      11.187 115.205  18.568  1.00  0.00     0.008 C 
ATOM      7  C   UNL     1      10.456 116.488  18.991  1.00  0.00     0.005 C 
ATOM      8  C   UNL     1      10.055 116.427  20.484  1.00  0.00     0.003 C 
ATOM      9  C   UNL     1      11.324 116.256  21.362  1.00  0.00     0.000 C 
ATOM     10  C   UNL     1      12.116 117.570  21.469  1.00  0.00     0.031 C 
ATOM     11  C   UNL     1      11.254 118.754  21.790  1.00  0.00    -0.027 C 
ATOM     12  C   UNL     1       9.948 118.833  21.468  1.00  0.00    -0.065 C 
ATOM     13  C   UNL     1       9.139 117.613  21.013  1.00  0.00    -0.008 C 
ATOM     14  C   UNL     1       8.118 118.079  19.925  1.00  0.00     0.014 C 
ATOM     15  C   UNL     1       7.297 119.315  20.330  1.00  0.00     0.033 C 
ATOM     16  C   UNL     1       8.213 120.498  20.688  1.00  0.00     0.118 C 
ATOM     17  C   UNL     1       9.201 120.117  21.797  1.00  0.00     0.063 C 
ATOM     18  C   UNL     1       8.344 117.082  22.240  1.00  0.00     0.016 C 
ATOM     19  C   UNL     1      13.639 115.820  18.855  1.00  0.00     0.012 C 
ENDROOT
BRANCH   1  20
ATOM     20  C   UNL     1      12.853 112.823  17.889  1.00  0.00     0.133 C 
ATOM     21  C   UNL     1      11.574 112.245  17.361  1.00  0.00     0.088 C 
ATOM     22  O   UNL     1      13.843 112.802  17.174  1.00  0.00    -0.300 OA
ENDBRANCH   1  20
BRANCH  16  23
ATOM     23  O   UNL     1       8.927 120.926  19.555  1.00  0.00    -0.393 OA
ATOM     24  H   UNL     1       9.877 120.682  19.705  1.00  0.00     0.210 HD
ENDBRANCH  16  23
TORSDOF 2
ENDMDL
MODEL 8
REMARK VINA RESULT:    -6.439      9.476     11.328
REMARK INTER + INTRA:          -7.131
REMARK INTER:                  -6.983
REMARK INTRA:                  -0.147
REMARK UNBOUND:                -0.127
REMARK SMILES CC(=O)[C@@H]1CC[C@@H]2[C@H]3CC=C4C[C@@H](O)CC[C@@]4(C)[C@H]3CC[C@@]21C
REMARK SMILES IDX 4 1 5 2 6 3 7 4 22 5 21 6 20 7 19 8 8 9 9 10 10 11 11 12
REMARK SMILES IDX 17 13 16 14 15 15 13 16 12 17 18 18 23 19 2 20 1 21 3 22
REMARK SMILES IDX 14 23
REMARK H PARENT 14 24
REMARK Flexibility Score: inf
ROOT
ATOM      1  C   UNL     1      17.975 127.032  19.363  1.00  0.00     0.062 C 
ATOM      2  C   UNL     1      16.691 127.728  18.911  1.00  0.00     0.012 C 
ATOM      3  C   UNL     1      16.557 127.437  17.417  1.00  0.00     0.005 C 
ATOM      4  C   UNL     1      17.708 126.486  17.034  1.00  0.00    -0.001 C 
ATOM      5  C   UNL     1      18.198 125.860  18.370  1.00  0.00    -0.020 C 
ATOM      6  C   UNL     1      17.355 124.609  18.749  1.00  0.00     0.008 C 
ATOM      7  C   UNL     1      17.160 123.618  17.593  1.00  0.00     0.005 C 
ATOM      8  C   UNL     1      16.450 124.298  16.398  1.00  0.00     0.003 C 
ATOM      9  C   UNL     1      17.299 125.498  15.897  1.00  0.00     0.000 C 
ATOM     10  C   UNL     1      18.526 125.026  15.099  1.00  0.00     0.031 C 
ATOM     11  C   UNL     1      18.197 123.984  14.073  1.00  0.00    -0.027 C 
ATOM     12  C   UNL     1      17.154 123.137  14.178  1.00  0.00    -0.065 C 
ATOM     13  C   UNL     1      16.029 123.344  15.199  1.00  0.00    -0.008 C 
ATOM     14  C   UNL     1      15.570 121.941  15.714  1.00  0.00     0.014 C 
ATOM     15  C   UNL     1      15.280 120.930  14.592  1.00  0.00     0.033 C 
ATOM     16  C   UNL     1      16.506 120.745  13.681  1.00  0.00     0.118 C 
ATOM     17  C   UNL     1      16.967 122.086  13.096  1.00  0.00     0.063 C 
ATOM     18  C   UNL     1      14.833 124.015  14.463  1.00  0.00     0.016 C 
ATOM     19  C   UNL     1      19.706 125.499  18.355  1.00  0.00     0.012 C 
ENDROOT
BRANCH   1  20
ATOM     20  C   UNL     1      17.965 126.655  20.837  1.00  0.00     0.133 C 
ATOM     21  C   UNL     1      16.684 126.625  21.618  1.00  0.00     0.088 C 
ATOM     22  O   UNL     1      19.003 126.358  21.406  1.00  0.00    -0.300 OA
ENDBRANCH   1  20
BRANCH  16  23
ATOM     23  O   UNL     1      17.565 120.160  14.395  1.00  0.00    -0.393 OA
ATOM     24  H   UNL     1      17.435 120.400  15.350  1.00  0.00     0.210 HD
ENDBRANCH  16  23
TORSDOF 2
ENDMDL
MODEL 9
REMARK VINA RESULT:    -6.310      1.990      3.131
REMARK INTER + INTRA:          -6.990
REMARK INTER:                  -6.956
REMARK INTRA:                  -0.034
REMARK UNBOUND:                -0.127
REMARK SMILES CC(=O)[C@@H]1CC[C@@H]2[C@H]3CC=C4C[C@@H](O)CC[C@@]4(C)[C@H]3CC[C@@]21C
REMARK SMILES IDX 4 1 5 2 6 3 7 4 22 5 21 6 20 7 19 8 8 9 9 10 10 11 11 12
REMARK SMILES IDX 17 13 16 14 15 15 13 16 12 17 18 18 23 19 2 20 1 21 3 22
REMARK SMILES IDX 14 23
REMARK H PARENT 14 24
REMARK Flexibility Score: inf
ROOT
ATOM      1  C   UNL     1      11.536 117.545  18.158  1.00  0.00     0.062 C 
ATOM      2  C   UNL     1      12.713 117.622  17.186  1.00  0.00     0.012 C 
ATOM      3  C   UNL     1      13.852 116.844  17.843  1.00  0.00     0.005 C 
ATOM      4  C   UNL     1      13.296 116.233  19.143  1.00  0.00    -0.001 C 
ATOM      5  C   UNL     1      11.750 116.251  18.989  1.00  0.00    -0.020 C 
ATOM      6  C   UNL     1      11.244 114.988  18.235  1.00  0.00     0.008 C 
ATOM      7  C   UNL     1      11.834 113.673  18.762  1.00  0.00     0.005 C 
ATOM      8  C   UNL     1      13.378 113.678  18.652  1.00  0.00     0.003 C 
ATOM      9  C   UNL     1      13.958 114.859  19.477  1.00  0.00     0.000 C 
ATOM     10  C   UNL     1      13.913 114.568  20.986  1.00  0.00     0.031 C 
ATOM     11  C   UNL     1      14.430 113.207  21.340  1.00  0.00    -0.027 C 
ATOM     12  C   UNL     1      14.399 112.155  20.498  1.00  0.00    -0.065 C 
ATOM     13  C   UNL     1      14.109 112.312  19.000  1.00  0.00    -0.008 C 
ATOM     14  C   UNL     1      13.275 111.076  18.530  1.00  0.00     0.014 C 
ATOM     15  C   UNL     1      13.867 109.724  18.961  1.00  0.00     0.033 C 
ATOM     16  C   UNL     1      14.037 109.654  20.489  1.00  0.00     0.118 C 
ATOM     17  C   UNL     1      14.902 110.811  21.003  1.00  0.00     0.063 C 
ATOM     18  C   UNL     1      15.471 112.302  18.247  1.00  0.00     0.016 C 
ATOM     19  C   UNL     1      11.004 116.396  20.340  1.00  0.00     0.012 C 
ENDROOT
BRANCH   1  20
ATOM     20  C   UNL     1      10.184 117.673  17.473  1.00  0.00     0.133 C 
ATOM     21  C   UNL     1       8.932 117.901  18.268  1.00  0.00     0.088 C 
ATOM     22  O   UNL     1      10.098 117.605  16.256  1.00  0.00    -0.300 OA
ENDBRANCH   1  20
BRANCH  16  23
ATOM     23  O   UNL     1      12.785 109.689  21.124  1.00  0.00    -0.393 OA
ATOM     24  H   UNL     1      12.927 109.381  22.057  1.00  0.00     0.210 HD
ENDBRANCH  16  23
TORSDOF 2
ENDMDL
