MODEL 1
REMARK VINA RESULT:    -4.670      0.000      0.000
REMARK INTER + INTRA:          -6.429
REMARK INTER:                  -6.581
REMARK INTRA:                   0.152
REMARK UNBOUND:                 0.152
REMARK SMILES CC1=CCC(=C(C)C)C(=O)CC(C)=CCC1
REMARK SMILES IDX 12 1 14 2 13 3 15 4 16 5 2 6 1 7 3 8 11 10 9 11 10 12 5 13
REMARK SMILES IDX 6 14 7 15 8 16 4 17
REMARK H PARENT
REMARK Flexibility Score: 60.00
ROOT
ATOM      1  C   UNL     1      17.746 -32.227  21.729  1.00  0.00    -0.070 C 
ATOM      2  C   UNL     1      18.173 -32.569  20.490  1.00  0.00    -0.027 C 
ATOM      3  C   UNL     1      17.430 -30.778  21.996  1.00  0.00     0.039 C 
ENDROOT
BRANCH   2   4
ATOM      4  C   UNL     1      18.669 -33.935  20.094  1.00  0.00     0.032 C 
BRANCH   4   5
ATOM      5  C   UNL     1      17.747 -34.534  19.025  1.00  0.00     0.034 C 
BRANCH   5   6
ATOM      6  C   UNL     1      16.857 -35.630  19.576  1.00  0.00    -0.077 C 
ATOM      7  C   UNL     1      17.306 -37.063  19.436  1.00  0.00     0.039 C 
ATOM      8  C   UNL     1      15.708 -35.393  20.255  1.00  0.00    -0.023 CG0
ATOM      9  G   UNL     1      15.024 -34.055  20.474  1.00  0.00     0.000 G0
ENDBRANCH   5   6
ENDBRANCH   4   5
ENDBRANCH   2   4
BRANCH   1  10
ATOM     10  C   UNL     1      17.552 -33.229  22.849  1.00  0.00     0.111 C 
BRANCH  10  11
ATOM     11  C   UNL     1      16.202 -33.901  22.778  1.00  0.00     0.163 C 
ATOM     12  O   UNL     1      16.012 -34.888  23.540  1.00  0.00    -0.294 OA
BRANCH  11  13
ATOM     13  C   UNL     1      15.089 -33.447  21.879  1.00  0.00    -0.002 C 
ATOM     14  C   UNL     1      14.276 -32.410  22.250  1.00  0.00    -0.069 C 
ATOM     15  C   UNL     1      13.300 -31.773  21.285  1.00  0.00     0.039 C 
ATOM     16  C   UNL     1      14.271 -31.876  23.665  1.00  0.00     0.039 C 
BRANCH  13  17
ATOM     17  C   UNL     1      15.014 -34.049  20.481  1.00  0.00     0.066 CG0
ATOM     18  G   UNL     1      15.725 -35.374  20.276  1.00  0.00     0.000 G0
ENDBRANCH  13  17
ENDBRANCH  11  13
ENDBRANCH  10  11
ENDBRANCH   1  10
TORSDOF 0
ENDMDL
MODEL 2
REMARK VINA RESULT:    -4.449      2.056      4.059
REMARK INTER + INTRA:          -6.117
REMARK INTER:                  -6.009
REMARK INTRA:                  -0.109
REMARK UNBOUND:                 0.152
REMARK SMILES CC1=CCC(=C(C)C)C(=O)CC(C)=CCC1
REMARK SMILES IDX 12 1 14 2 13 3 15 4 16 5 2 6 1 7 3 8 11 10 9 11 10 12 5 13
REMARK SMILES IDX 6 14 7 15 8 16 4 17
REMARK H PARENT
REMARK Flexibility Score: 60.00
ROOT
ATOM      1  C   UNL     1      14.327 -31.430  22.046  1.00  0.00    -0.070 C 
ATOM      2  C   UNL     1      13.998 -32.721  21.810  1.00  0.00    -0.027 C 
ATOM      3  C   UNL     1      13.471 -30.642  23.003  1.00  0.00     0.039 C 
ENDROOT
BRANCH   2   4
ATOM      4  C   UNL     1      14.650 -33.605  20.778  1.00  0.00     0.032 C 
BRANCH   4   5
ATOM      5  C   UNL     1      15.709 -34.490  21.446  1.00  0.00     0.034 C 
BRANCH   5   6
ATOM      6  C   UNL     1      16.995 -34.557  20.648  1.00  0.00    -0.077 C 
ATOM      7  C   UNL     1      17.046 -35.450  19.433  1.00  0.00     0.039 C 
ATOM      8  C   UNL     1      18.088 -33.801  20.921  1.00  0.00    -0.023 CG0
ATOM      9  G   UNL     1      18.300 -32.880  22.109  1.00  0.00     0.000 G0
ENDBRANCH   5   6
ENDBRANCH   4   5
ENDBRANCH   2   4
BRANCH   1  10
ATOM     10  C   UNL     1      15.521 -30.745  21.411  1.00  0.00     0.111 C 
BRANCH  10  11
ATOM     11  C   UNL     1      16.746 -30.815  22.291  1.00  0.00     0.163 C 
ATOM     12  O   UNL     1      16.633 -30.373  23.467  1.00  0.00    -0.294 OA
BRANCH  11  13
ATOM     13  C   UNL     1      18.058 -31.396  21.851  1.00  0.00    -0.002 C 
ATOM     14  C   UNL     1      19.060 -30.582  21.395  1.00  0.00    -0.069 C 
ATOM     15  C   UNL     1      20.464 -31.094  21.164  1.00  0.00     0.039 C 
ATOM     16  C   UNL     1      18.805 -29.133  21.048  1.00  0.00     0.039 C 
BRANCH  13  17
ATOM     17  C   UNL     1      18.298 -32.881  22.099  1.00  0.00     0.066 CG0
ATOM     18  G   UNL     1      18.088 -33.807  20.915  1.00  0.00     0.000 G0
ENDBRANCH  13  17
ENDBRANCH  11  13
ENDBRANCH  10  11
ENDBRANCH   1  10
TORSDOF 0
ENDMDL
MODEL 3
REMARK VINA RESULT:    -4.409      1.967      3.855
REMARK INTER + INTRA:          -6.060
REMARK INTER:                  -5.868
REMARK INTRA:                  -0.193
REMARK UNBOUND:                 0.152
REMARK SMILES CC1=CCC(=C(C)C)C(=O)CC(C)=CCC1
REMARK SMILES IDX 12 1 14 2 13 3 15 4 16 5 2 6 1 7 3 8 11 10 9 11 10 12 5 13
REMARK SMILES IDX 6 14 7 15 8 16 4 17
REMARK H PARENT
REMARK Flexibility Score: 60.00
ROOT
ATOM      1  C   UNL     1      17.816 -35.337  19.682  1.00  0.00    -0.070 C 
ATOM      2  C   UNL     1      19.141 -35.071  19.748  1.00  0.00    -0.027 C 
ATOM      3  C   UNL     1      17.387 -36.774  19.528  1.00  0.00     0.039 C 
ENDROOT
BRANCH   2   4
ATOM      4  C   UNL     1      19.746 -33.691  19.754  1.00  0.00     0.032 C 
BRANCH   4   5
ATOM      5  C   UNL     1      20.012 -33.245  21.197  1.00  0.00     0.034 C 
BRANCH   5   6
ATOM      6  C   UNL     1      19.614 -31.804  21.442  1.00  0.00    -0.077 C 
ATOM      7  C   UNL     1      20.505 -30.709  20.912  1.00  0.00     0.039 C 
ATOM      8  C   UNL     1      18.458 -31.438  22.050  1.00  0.00    -0.023 CG0
ATOM      9  G   UNL     1      17.435 -32.345  22.712  1.00  0.00     0.000 G0
ENDBRANCH   5   6
ENDBRANCH   4   5
ENDBRANCH   2   4
BRANCH   1  10
ATOM     10  C   UNL     1      16.745 -34.268  19.775  1.00  0.00     0.111 C 
BRANCH  10  11
ATOM     11  C   UNL     1      16.266 -34.071  21.193  1.00  0.00     0.163 C 
ATOM     12  O   UNL     1      15.916 -35.103  21.828  1.00  0.00    -0.294 OA
BRANCH  11  13
ATOM     13  C   UNL     1      16.209 -32.737  21.877  1.00  0.00    -0.002 C 
ATOM     14  C   UNL     1      15.053 -32.001  21.871  1.00  0.00    -0.069 C 
ATOM     15  C   UNL     1      14.882 -30.772  22.735  1.00  0.00     0.039 C 
ATOM     16  C   UNL     1      13.900 -32.349  20.957  1.00  0.00     0.039 C 
BRANCH  13  17
ATOM     17  C   UNL     1      17.406 -32.319  22.723  1.00  0.00     0.066 CG0
ATOM     18  G   UNL     1      18.450 -31.455  22.037  1.00  0.00     0.000 G0
ENDBRANCH  13  17
ENDBRANCH  11  13
ENDBRANCH  10  11
ENDBRANCH   1  10
TORSDOF 0
ENDMDL
MODEL 4
REMARK VINA RESULT:    -4.378      2.172      4.932
REMARK INTER + INTRA:          -6.016
REMARK INTER:                  -6.060
REMARK INTRA:                   0.043
REMARK UNBOUND:                 0.152
REMARK SMILES CC1=CCC(=C(C)C)C(=O)CC(C)=CCC1
REMARK SMILES IDX 12 1 14 2 13 3 15 4 16 5 2 6 1 7 3 8 11 10 9 11 10 12 5 13
REMARK SMILES IDX 6 14 7 15 8 16 4 17
REMARK H PARENT
REMARK Flexibility Score: 60.00
ROOT
ATOM      1  C   UNL     1      15.991 -34.284  23.649  1.00  0.00    -0.070 C 
ATOM      2  C   UNL     1      15.269 -33.623  24.583  1.00  0.00    -0.027 C 
ATOM      3  C   UNL     1      17.418 -34.643  23.976  1.00  0.00     0.039 C 
ENDROOT
BRANCH   2   4
ATOM      4  C   UNL     1      13.887 -33.062  24.370  1.00  0.00     0.032 C 
BRANCH   4   5
ATOM      5  C   UNL     1      13.966 -31.541  24.184  1.00  0.00     0.034 C 
BRANCH   5   6
ATOM      6  C   UNL     1      13.733 -31.119  22.748  1.00  0.00    -0.077 C 
ATOM      7  C   UNL     1      12.328 -30.788  22.311  1.00  0.00     0.039 C 
ATOM      8  C   UNL     1      14.731 -30.950  21.845  1.00  0.00    -0.023 CG0
ATOM      9  G   UNL     1      16.204 -31.269  22.026  1.00  0.00     0.000 G0
ENDBRANCH   5   6
ENDBRANCH   4   5
ENDBRANCH   2   4
BRANCH   1  10
ATOM     10  C   UNL     1      15.433 -34.695  22.301  1.00  0.00     0.111 C 
BRANCH  10  11
ATOM     11  C   UNL     1      15.770 -33.695  21.222  1.00  0.00     0.163 C 
ATOM     12  O   UNL     1      15.177 -33.822  20.116  1.00  0.00    -0.294 OA
BRANCH  11  13
ATOM     13  C   UNL     1      16.741 -32.565  21.404  1.00  0.00    -0.002 C 
ATOM     14  C   UNL     1      18.004 -32.641  20.879  1.00  0.00    -0.069 C 
ATOM     15  C   UNL     1      18.928 -31.445  20.839  1.00  0.00     0.039 C 
ATOM     16  C   UNL     1      18.564 -33.945  20.357  1.00  0.00     0.039 C 
BRANCH  13  17
ATOM     17  C   UNL     1      16.221 -31.273  22.025  1.00  0.00     0.066 CG0
ATOM     18  G   UNL     1      14.743 -30.980  21.836  1.00  0.00     0.000 G0
ENDBRANCH  13  17
ENDBRANCH  11  13
ENDBRANCH  10  11
ENDBRANCH   1  10
TORSDOF 0
ENDMDL
MODEL 5
REMARK VINA RESULT:    -4.347      1.548      2.085
REMARK INTER + INTRA:          -5.973
REMARK INTER:                  -6.445
REMARK INTRA:                   0.472
REMARK UNBOUND:                 0.152
REMARK SMILES CC1=CCC(=C(C)C)C(=O)CC(C)=CCC1
REMARK SMILES IDX 12 1 14 2 13 3 15 4 16 5 2 6 1 7 3 8 11 10 9 11 10 12 5 13
REMARK SMILES IDX 6 14 7 15 8 16 4 17
REMARK H PARENT
REMARK Flexibility Score: 60.00
ROOT
ATOM      1  C   UNL     1      19.155 -33.037  20.462  1.00  0.00    -0.070 C 
ATOM      2  C   UNL     1      18.906 -34.105  19.668  1.00  0.00    -0.027 C 
ATOM      3  C   UNL     1      20.512 -32.936  21.110  1.00  0.00     0.039 C 
ENDROOT
BRANCH   2   4
ATOM      4  C   UNL     1      17.566 -34.437  19.065  1.00  0.00     0.032 C 
BRANCH   4   5
ATOM      5  C   UNL     1      17.069 -35.782  19.609  1.00  0.00     0.034 C 
BRANCH   5   6
ATOM      6  C   UNL     1      17.203 -35.883  21.115  1.00  0.00    -0.077 C 
ATOM      7  C   UNL     1      18.190 -36.870  21.687  1.00  0.00     0.039 C 
ATOM      8  C   UNL     1      16.536 -35.083  21.983  1.00  0.00    -0.023 CG0
ATOM      9  G   UNL     1      15.459 -34.063  21.657  1.00  0.00     0.000 G0
ENDBRANCH   5   6
ENDBRANCH   4   5
ENDBRANCH   2   4
BRANCH   1  10
ATOM     10  C   UNL     1      18.148 -31.934  20.717  1.00  0.00     0.111 C 
BRANCH  10  11
ATOM     11  C   UNL     1      17.275 -32.232  21.913  1.00  0.00     0.163 C 
ATOM     12  O   UNL     1      17.813 -32.148  23.051  1.00  0.00    -0.294 OA
BRANCH  11  13
ATOM     13  C   UNL     1      15.822 -32.594  21.817  1.00  0.00    -0.002 C 
ATOM     14  C   UNL     1      14.868 -31.617  21.712  1.00  0.00    -0.069 C 
ATOM     15  C   UNL     1      13.427 -31.937  21.382  1.00  0.00     0.039 C 
ATOM     16  C   UNL     1      15.194 -30.163  21.972  1.00  0.00     0.039 C 
BRANCH  13  17
ATOM     17  C   UNL     1      15.464 -34.067  21.657  1.00  0.00     0.066 CG0
ATOM     18  G   UNL     1      16.557 -35.068  21.987  1.00  0.00     0.000 G0
ENDBRANCH  13  17
ENDBRANCH  11  13
ENDBRANCH  10  11
ENDBRANCH   1  10
TORSDOF 0
ENDMDL
MODEL 6
REMARK VINA RESULT:    -4.274      1.556      3.054
REMARK INTER + INTRA:          -5.870
REMARK INTER:                  -5.932
REMARK INTRA:                   0.062
REMARK UNBOUND:                 0.152
REMARK SMILES CC1=CCC(=C(C)C)C(=O)CC(C)=CCC1
REMARK SMILES IDX 12 1 14 2 13 3 15 4 16 5 2 6 1 7 3 8 11 10 9 11 10 12 5 13
REMARK SMILES IDX 6 14 7 15 8 16 4 17
REMARK H PARENT
REMARK Flexibility Score: 60.00
ROOT
ATOM      1  C   UNL     1      14.610 -33.353  21.191  1.00  0.00    -0.070 C 
ATOM      2  C   UNL     1      14.849 -34.238  20.195  1.00  0.00    -0.027 C 
ATOM      3  C   UNL     1      13.798 -32.125  20.871  1.00  0.00     0.039 C 
ENDROOT
BRANCH   2   4
ATOM      4  C   UNL     1      15.758 -35.435  20.301  1.00  0.00     0.032 C 
BRANCH   4   5
ATOM      5  C   UNL     1      17.052 -35.176  19.520  1.00  0.00     0.034 C 
BRANCH   5   6
ATOM      6  C   UNL     1      18.243 -34.950  20.430  1.00  0.00    -0.077 C 
ATOM      7  C   UNL     1      19.114 -36.129  20.786  1.00  0.00     0.039 C 
ATOM      8  C   UNL     1      18.616 -33.729  20.887  1.00  0.00    -0.023 CG0
ATOM      9  G   UNL     1      17.878 -32.414  20.715  1.00  0.00     0.000 G0
ENDBRANCH   5   6
ENDBRANCH   4   5
ENDBRANCH   2   4
BRANCH   1  10
ATOM     10  C   UNL     1      15.103 -33.545  22.611  1.00  0.00     0.111 C 
BRANCH  10  11
ATOM     11  C   UNL     1      16.469 -32.938  22.822  1.00  0.00     0.163 C 
ATOM     12  O   UNL     1      17.132 -33.347  23.814  1.00  0.00    -0.294 OA
BRANCH  11  13
ATOM     13  C   UNL     1      17.074 -31.908  21.913  1.00  0.00    -0.002 C 
ATOM     14  C   UNL     1      17.027 -30.579  22.239  1.00  0.00    -0.069 C 
ATOM     15  C   UNL     1      17.818 -29.539  21.478  1.00  0.00     0.039 C 
ATOM     16  C   UNL     1      16.136 -30.070  23.351  1.00  0.00     0.039 C 
BRANCH  13  17
ATOM     17  C   UNL     1      17.892 -32.401  20.725  1.00  0.00     0.066 CG0
ATOM     18  G   UNL     1      18.600 -33.733  20.897  1.00  0.00     0.000 G0
ENDBRANCH  13  17
ENDBRANCH  11  13
ENDBRANCH  10  11
ENDBRANCH   1  10
TORSDOF 0
ENDMDL
MODEL 7
REMARK VINA RESULT:    -4.181      1.979      4.524
REMARK INTER + INTRA:          -5.739
REMARK INTER:                  -5.908
REMARK INTRA:                   0.169
REMARK UNBOUND:                 0.152
REMARK SMILES CC1=CCC(=C(C)C)C(=O)CC(C)=CCC1
REMARK SMILES IDX 12 1 14 2 13 3 15 4 16 5 2 6 1 7 3 8 11 10 9 11 10 12 5 13
REMARK SMILES IDX 6 14 7 15 8 16 4 17
REMARK H PARENT
REMARK Flexibility Score: 60.00
ROOT
ATOM      1  C   UNL     1      18.447 -33.511  20.247  1.00  0.00    -0.070 C 
ATOM      2  C   UNL     1      18.444 -32.409  21.033  1.00  0.00    -0.027 C 
ATOM      3  C   UNL     1      19.773 -34.148  19.922  1.00  0.00     0.039 C 
ENDROOT
BRANCH   2   4
ATOM      4  C   UNL     1      17.232 -31.567  21.335  1.00  0.00     0.032 C 
BRANCH   4   5
ATOM      5  C   UNL     1      16.942 -31.591  22.840  1.00  0.00     0.034 C 
BRANCH   5   6
ATOM      6  C   UNL     1      15.755 -32.467  23.188  1.00  0.00    -0.077 C 
ATOM      7  C   UNL     1      14.406 -31.816  23.369  1.00  0.00     0.039 C 
ATOM      8  C   UNL     1      15.820 -33.819  23.275  1.00  0.00    -0.023 CG0
ATOM      9  G   UNL     1      17.060 -34.691  23.190  1.00  0.00     0.000 G0
ENDBRANCH   5   6
ENDBRANCH   4   5
ENDBRANCH   2   4
BRANCH   1  10
ATOM     10  C   UNL     1      17.186 -34.144  19.694  1.00  0.00     0.111 C 
BRANCH  10  11
ATOM     11  C   UNL     1      16.543 -35.082  20.688  1.00  0.00     0.163 C 
ATOM     12  O   UNL     1      15.380 -35.491  20.421  1.00  0.00    -0.294 OA
BRANCH  11  13
ATOM     13  C   UNL     1      17.216 -35.559  21.942  1.00  0.00    -0.002 C 
ATOM     14  C   UNL     1      18.074 -36.625  21.907  1.00  0.00    -0.069 C 
ATOM     15  C   UNL     1      18.945 -36.991  23.088  1.00  0.00     0.039 C 
ATOM     16  C   UNL     1      18.162 -37.530  20.698  1.00  0.00     0.039 C 
BRANCH  13  17
ATOM     17  C   UNL     1      17.056 -34.715  23.201  1.00  0.00     0.066 CG0
ATOM     18  G   UNL     1      15.826 -33.827  23.268  1.00  0.00     0.000 G0
ENDBRANCH  13  17
ENDBRANCH  11  13
ENDBRANCH  10  11
ENDBRANCH   1  10
TORSDOF 0
ENDMDL
MODEL 8
REMARK VINA RESULT:    -4.132      2.181      4.619
REMARK INTER + INTRA:          -5.671
REMARK INTER:                  -5.518
REMARK INTRA:                  -0.153
REMARK UNBOUND:                 0.152
REMARK SMILES CC1=CCC(=C(C)C)C(=O)CC(C)=CCC1
REMARK SMILES IDX 12 1 14 2 13 3 15 4 16 5 2 6 1 7 3 8 11 10 9 11 10 12 5 13
REMARK SMILES IDX 6 14 7 15 8 16 4 17
REMARK H PARENT
REMARK Flexibility Score: 60.00
ROOT
ATOM      1  C   UNL     1      15.227 -32.115  23.915  1.00  0.00    -0.070 C 
ATOM      2  C   UNL     1      15.436 -30.859  23.458  1.00  0.00    -0.027 C 
ATOM      3  C   UNL     1      13.840 -32.482  24.375  1.00  0.00     0.039 C 
ENDROOT
BRANCH   2   4
ATOM      4  C   UNL     1      16.781 -30.282  23.099  1.00  0.00     0.032 C 
BRANCH   4   5
ATOM      5  C   UNL     1      16.984 -30.338  21.580  1.00  0.00     0.034 C 
BRANCH   5   6
ATOM      6  C   UNL     1      18.406 -30.697  21.198  1.00  0.00    -0.077 C 
ATOM      7  C   UNL     1      19.462 -29.622  21.257  1.00  0.00     0.039 C 
ATOM      8  C   UNL     1      18.802 -31.953  20.874  1.00  0.00    -0.023 CG0
ATOM      9  G   UNL     1      17.924 -33.179  20.693  1.00  0.00     0.000 G0
ENDBRANCH   5   6
ENDBRANCH   4   5
ENDBRANCH   2   4
BRANCH   1  10
ATOM     10  C   UNL     1      16.311 -33.173  23.970  1.00  0.00     0.111 C 
BRANCH  10  11
ATOM     11  C   UNL     1      16.431 -33.927  22.668  1.00  0.00     0.163 C 
ATOM     12  O   UNL     1      15.375 -34.434  22.199  1.00  0.00    -0.294 OA
BRANCH  11  13
ATOM     13  C   UNL     1      17.715 -34.079  21.906  1.00  0.00    -0.002 C 
ATOM     14  C   UNL     1      18.585 -35.092  22.206  1.00  0.00    -0.069 C 
ATOM     15  C   UNL     1      19.767 -35.421  21.322  1.00  0.00     0.039 C 
ATOM     16  C   UNL     1      18.442 -35.908  23.471  1.00  0.00     0.039 C 
BRANCH  13  17
ATOM     17  C   UNL     1      17.926 -33.193  20.683  1.00  0.00     0.066 CG0
ATOM     18  G   UNL     1      18.796 -31.964  20.881  1.00  0.00     0.000 G0
ENDBRANCH  13  17
ENDBRANCH  11  13
ENDBRANCH  10  11
ENDBRANCH   1  10
TORSDOF 0
ENDMDL
MODEL 9
REMARK VINA RESULT:    -4.119      2.041      3.007
REMARK INTER + INTRA:          -5.652
REMARK INTER:                  -5.848
REMARK INTRA:                   0.197
REMARK UNBOUND:                 0.152
REMARK SMILES CC1=CCC(=C(C)C)C(=O)CC(C)=CCC1
REMARK SMILES IDX 12 1 14 2 13 3 15 4 16 5 2 6 1 7 3 8 11 10 9 11 10 12 5 13
REMARK SMILES IDX 6 14 7 15 8 16 4 17
REMARK H PARENT
REMARK Flexibility Score: 60.00
ROOT
ATOM      1  C   UNL     1      18.670 -33.195  20.504  1.00  0.00    -0.070 C 
ATOM      2  C   UNL     1      18.464 -34.311  19.766  1.00  0.00    -0.027 C 
ATOM      3  C   UNL     1      20.014 -33.015  21.160  1.00  0.00     0.039 C 
ENDROOT
BRANCH   2   4
ATOM      4  C   UNL     1      17.143 -34.719  19.167  1.00  0.00     0.032 C 
BRANCH   4   5
ATOM      5  C   UNL     1      16.386 -35.626  20.144  1.00  0.00     0.034 C 
BRANCH   5   6
ATOM      6  C   UNL     1      17.290 -36.217  21.206  1.00  0.00    -0.077 C 
ATOM      7  C   UNL     1      18.220 -37.340  20.820  1.00  0.00     0.039 C 
ATOM      8  C   UNL     1      17.366 -35.743  22.475  1.00  0.00    -0.023 CG0
ATOM      9  G   UNL     1      16.502 -34.670  23.113  1.00  0.00     0.000 G0
ENDBRANCH   5   6
ENDBRANCH   4   5
ENDBRANCH   2   4
BRANCH   1  10
ATOM     10  C   UNL     1      17.625 -32.112  20.686  1.00  0.00     0.111 C 
BRANCH  10  11
ATOM     11  C   UNL     1      16.630 -32.464  21.766  1.00  0.00     0.163 C 
ATOM     12  O   UNL     1      15.435 -32.106  21.584  1.00  0.00    -0.294 OA
BRANCH  11  13
ATOM     13  C   UNL     1      16.983 -33.226  23.010  1.00  0.00    -0.002 C 
ATOM     14  C   UNL     1      17.574 -32.591  24.070  1.00  0.00    -0.069 C 
ATOM     15  C   UNL     1      17.733 -33.260  25.417  1.00  0.00     0.039 C 
ATOM     16  C   UNL     1      18.148 -31.198  23.936  1.00  0.00     0.039 C 
BRANCH  13  17
ATOM     17  C   UNL     1      16.501 -34.668  23.123  1.00  0.00     0.066 CG0
ATOM     18  G   UNL     1      17.373 -35.725  22.470  1.00  0.00     0.000 G0
ENDBRANCH  13  17
ENDBRANCH  11  13
ENDBRANCH  10  11
ENDBRANCH   1  10
TORSDOF 0
ENDMDL
