MODEL 1
REMARK VINA RESULT:    -5.810      0.000      0.000
REMARK INTER + INTRA:          -5.810
REMARK INTER:                  -5.810
REMARK INTRA:                   0.000
REMARK UNBOUND:                 0.000
REMARK SMILES O=c1ccc2ccccc2o1
REMARK SMILES IDX 7 1 8 2 9 3 10 4 5 5 6 6 4 7 3 8 2 9 1 10 11 11
REMARK H PARENT
REMARK Flexibility Score: inf
ROOT
ATOM      1  C   UNL     1      73.325  44.525  -1.061  1.00  0.00     0.001 A 
ATOM      2  C   UNL     1      74.255  45.142  -1.905  1.00  0.00     0.004 A 
ATOM      3  C   UNL     1      74.794  44.442  -2.989  1.00  0.00     0.048 A 
ATOM      4  C   UNL     1      74.406  43.120  -3.234  1.00  0.00     0.138 A 
ATOM      5  C   UNL     1      73.466  42.497  -2.381  1.00  0.00     0.018 A 
ATOM      6  C   UNL     1      72.929  43.204  -1.296  1.00  0.00     0.012 A 
ATOM      7  C   UNL     1      73.096  41.175  -2.650  1.00  0.00     0.019 A 
ATOM      8  C   UNL     1      73.660  40.516  -3.742  1.00  0.00     0.094 A 
ATOM      9  C   UNL     1      74.585  41.196  -4.543  1.00  0.00     0.336 A 
ATOM     10  O   UNL     1      75.104  40.619  -5.533  1.00  0.00    -0.246 OA
ATOM     11  O   UNL     1      74.919  42.454  -4.265  1.00  0.00    -0.423 OA
ENDROOT
TORSDOF 0
ENDMDL
MODEL 2
REMARK VINA RESULT:    -5.617      1.948      4.374
REMARK INTER + INTRA:          -5.617
REMARK INTER:                  -5.617
REMARK INTRA:                   0.000
REMARK UNBOUND:                 0.000
REMARK SMILES O=c1ccc2ccccc2o1
REMARK SMILES IDX 7 1 8 2 9 3 10 4 5 5 6 6 4 7 3 8 2 9 1 10 11 11
REMARK H PARENT
REMARK Flexibility Score: inf
ROOT
ATOM      1  C   UNL     1      74.675  41.080  -4.680  1.00  0.00     0.001 A 
ATOM      2  C   UNL     1      73.745  40.403  -3.884  1.00  0.00     0.004 A 
ATOM      3  C   UNL     1      73.160  41.044  -2.787  1.00  0.00     0.048 A 
ATOM      4  C   UNL     1      73.502  42.366  -2.483  1.00  0.00     0.138 A 
ATOM      5  C   UNL     1      74.441  43.050  -3.288  1.00  0.00     0.018 A 
ATOM      6  C   UNL     1      75.025  42.402  -4.386  1.00  0.00     0.012 A 
ATOM      7  C   UNL     1      74.763  44.371  -2.961  1.00  0.00     0.019 A 
ATOM      8  C   UNL     1      74.154  44.971  -1.858  1.00  0.00     0.094 A 
ATOM      9  C   UNL     1      73.234  44.232  -1.106  1.00  0.00     0.336 A 
ATOM     10  O   UNL     1      72.674  44.755  -0.109  1.00  0.00    -0.246 OA
ATOM     11  O   UNL     1      72.944  42.976  -1.440  1.00  0.00    -0.423 OA
ENDROOT
TORSDOF 0
ENDMDL
MODEL 3
REMARK VINA RESULT:    -5.433      1.151      2.113
REMARK INTER + INTRA:          -5.433
REMARK INTER:                  -5.433
REMARK INTRA:                   0.000
REMARK UNBOUND:                 0.000
REMARK SMILES O=c1ccc2ccccc2o1
REMARK SMILES IDX 7 1 8 2 9 3 10 4 5 5 6 6 4 7 3 8 2 9 1 10 11 11
REMARK H PARENT
REMARK Flexibility Score: inf
ROOT
ATOM      1  C   UNL     1      74.061  44.813  -1.808  1.00  0.00     0.001 A 
ATOM      2  C   UNL     1      73.182  43.986  -1.100  1.00  0.00     0.004 A 
ATOM      3  C   UNL     1      72.933  42.683  -1.543  1.00  0.00     0.048 A 
ATOM      4  C   UNL     1      73.563  42.201  -2.696  1.00  0.00     0.138 A 
ATOM      5  C   UNL     1      74.451  43.037  -3.410  1.00  0.00     0.018 A 
ATOM      6  C   UNL     1      74.697  44.342  -2.962  1.00  0.00     0.012 A 
ATOM      7  C   UNL     1      75.067  42.529  -4.558  1.00  0.00     0.019 A 
ATOM      8  C   UNL     1      74.789  41.223  -4.963  1.00  0.00     0.094 A 
ATOM      9  C   UNL     1      73.897  40.454  -4.206  1.00  0.00     0.336 A 
ATOM     10  O   UNL     1      73.634  39.273  -4.554  1.00  0.00    -0.246 OA
ATOM     11  O   UNL     1      73.325  40.961  -3.117  1.00  0.00    -0.423 OA
ENDROOT
TORSDOF 0
ENDMDL
MODEL 4
REMARK VINA RESULT:    -4.736     11.115     12.754
REMARK INTER + INTRA:          -4.736
REMARK INTER:                  -4.736
REMARK INTRA:                   0.000
REMARK UNBOUND:                 0.000
REMARK SMILES O=c1ccc2ccccc2o1
REMARK SMILES IDX 7 1 8 2 9 3 10 4 5 5 6 6 4 7 3 8 2 9 1 10 11 11
REMARK H PARENT
REMARK Flexibility Score: inf
ROOT
ATOM      1  C   UNL     1      69.656  50.019   8.912  1.00  0.00     0.001 A 
ATOM      2  C   UNL     1      69.209  49.495   7.693  1.00  0.00     0.004 A 
ATOM      3  C   UNL     1      70.122  48.946   6.787  1.00  0.00     0.048 A 
ATOM      4  C   UNL     1      71.487  48.919   7.095  1.00  0.00     0.138 A 
ATOM      5  C   UNL     1      71.937  49.449   8.326  1.00  0.00     0.018 A 
ATOM      6  C   UNL     1      71.017  49.998   9.231  1.00  0.00     0.012 A 
ATOM      7  C   UNL     1      73.307  49.408   8.608  1.00  0.00     0.019 A 
ATOM      8  C   UNL     1      74.181  48.851   7.674  1.00  0.00     0.094 A 
ATOM      9  C   UNL     1      73.662  48.346   6.476  1.00  0.00     0.336 A 
ATOM     10  O   UNL     1      74.435  47.839   5.622  1.00  0.00    -0.246 OA
ATOM     11  O   UNL     1      72.355  48.397   6.233  1.00  0.00    -0.423 OA
ENDROOT
TORSDOF 0
ENDMDL
MODEL 5
REMARK VINA RESULT:    -4.599     11.440     13.169
REMARK INTER + INTRA:          -4.599
REMARK INTER:                  -4.599
REMARK INTRA:                   0.000
REMARK UNBOUND:                 0.000
REMARK SMILES O=c1ccc2ccccc2o1
REMARK SMILES IDX 7 1 8 2 9 3 10 4 5 5 6 6 4 7 3 8 2 9 1 10 11 11
REMARK H PARENT
REMARK Flexibility Score: inf
ROOT
ATOM      1  C   UNL     1      74.347  48.883   7.855  1.00  0.00     0.001 A 
ATOM      2  C   UNL     1      73.975  48.133   6.734  1.00  0.00     0.004 A 
ATOM      3  C   UNL     1      72.624  48.001   6.392  1.00  0.00     0.048 A 
ATOM      4  C   UNL     1      71.640  48.620   7.171  1.00  0.00     0.138 A 
ATOM      5  C   UNL     1      72.017  49.378   8.303  1.00  0.00     0.018 A 
ATOM      6  C   UNL     1      73.371  49.507   8.640  1.00  0.00     0.012 A 
ATOM      7  C   UNL     1      71.012  49.986   9.062  1.00  0.00     0.019 A 
ATOM      8  C   UNL     1      69.678  49.828   8.684  1.00  0.00     0.094 A 
ATOM      9  C   UNL     1      69.381  49.062   7.551  1.00  0.00     0.336 A 
ATOM     10  O   UNL     1      68.184  48.908   7.194  1.00  0.00    -0.246 OA
ATOM     11  O   UNL     1      70.356  48.494   6.845  1.00  0.00    -0.423 OA
ENDROOT
TORSDOF 0
ENDMDL
MODEL 6
REMARK VINA RESULT:    -4.592     10.156     12.127
REMARK INTER + INTRA:          -4.592
REMARK INTER:                  -4.592
REMARK INTRA:                   0.000
REMARK UNBOUND:                 0.000
REMARK SMILES O=c1ccc2ccccc2o1
REMARK SMILES IDX 7 1 8 2 9 3 10 4 5 5 6 6 4 7 3 8 2 9 1 10 11 11
REMARK H PARENT
REMARK Flexibility Score: inf
ROOT
ATOM      1  C   UNL     1      71.662  49.552   9.747  1.00  0.00     0.001 A 
ATOM      2  C   UNL     1      70.484  49.447   8.999  1.00  0.00     0.004 A 
ATOM      3  C   UNL     1      70.532  49.014   7.670  1.00  0.00     0.048 A 
ATOM      4  C   UNL     1      71.758  48.684   7.083  1.00  0.00     0.138 A 
ATOM      5  C   UNL     1      72.947  48.790   7.839  1.00  0.00     0.018 A 
ATOM      6  C   UNL     1      72.894  49.225   9.171  1.00  0.00     0.012 A 
ATOM      7  C   UNL     1      74.159  48.453   7.227  1.00  0.00     0.019 A 
ATOM      8  C   UNL     1      74.158  48.026   5.899  1.00  0.00     0.094 A 
ATOM      9  C   UNL     1      72.942  47.947   5.212  1.00  0.00     0.336 A 
ATOM     10  O   UNL     1      72.921  47.563   4.013  1.00  0.00    -0.246 OA
ATOM     11  O   UNL     1      71.802  48.273   5.818  1.00  0.00    -0.423 OA
ENDROOT
TORSDOF 0
ENDMDL
MODEL 7
REMARK VINA RESULT:    -4.534      2.523      4.943
REMARK INTER + INTRA:          -4.534
REMARK INTER:                  -4.534
REMARK INTRA:                   0.000
REMARK UNBOUND:                 0.000
REMARK SMILES O=c1ccc2ccccc2o1
REMARK SMILES IDX 7 1 8 2 9 3 10 4 5 5 6 6 4 7 3 8 2 9 1 10 11 11
REMARK H PARENT
REMARK Flexibility Score: inf
ROOT
ATOM      1  C   UNL     1      73.259  38.076  -6.386  1.00  0.00     0.001 A 
ATOM      2  C   UNL     1      74.464  38.785  -6.321  1.00  0.00     0.004 A 
ATOM      3  C   UNL     1      74.646  39.774  -5.349  1.00  0.00     0.048 A 
ATOM      4  C   UNL     1      73.624  40.057  -4.436  1.00  0.00     0.138 A 
ATOM      5  C   UNL     1      72.407  39.341  -4.502  1.00  0.00     0.018 A 
ATOM      6  C   UNL     1      72.230  38.351  -5.480  1.00  0.00     0.012 A 
ATOM      7  C   UNL     1      71.403  39.645  -3.577  1.00  0.00     0.019 A 
ATOM      8  C   UNL     1      71.629  40.639  -2.625  1.00  0.00     0.094 A 
ATOM      9  C   UNL     1      72.859  41.307  -2.620  1.00  0.00     0.336 A 
ATOM     10  O   UNL     1      73.082  42.206  -1.768  1.00  0.00    -0.246 OA
ATOM     11  O   UNL     1      73.798  40.998  -3.511  1.00  0.00    -0.423 OA
ENDROOT
TORSDOF 0
ENDMDL
MODEL 8
REMARK VINA RESULT:    -4.391     12.887     13.888
REMARK INTER + INTRA:          -4.391
REMARK INTER:                  -4.391
REMARK INTRA:                   0.000
REMARK UNBOUND:                 0.000
REMARK SMILES O=c1ccc2ccccc2o1
REMARK SMILES IDX 7 1 8 2 9 3 10 4 5 5 6 6 4 7 3 8 2 9 1 10 11 11
REMARK H PARENT
REMARK Flexibility Score: inf
ROOT
ATOM      1  C   UNL     1      73.654  49.269   8.469  1.00  0.00     0.001 A 
ATOM      2  C   UNL     1      73.168  49.218   9.780  1.00  0.00     0.004 A 
ATOM      3  C   UNL     1      71.791  49.145  10.017  1.00  0.00     0.048 A 
ATOM      4  C   UNL     1      70.895  49.122   8.944  1.00  0.00     0.138 A 
ATOM      5  C   UNL     1      71.386  49.174   7.619  1.00  0.00     0.018 A 
ATOM      6  C   UNL     1      72.767  49.248   7.387  1.00  0.00     0.012 A 
ATOM      7  C   UNL     1      70.467  49.150   6.566  1.00  0.00     0.019 A 
ATOM      8  C   UNL     1      69.103  49.076   6.850  1.00  0.00     0.094 A 
ATOM      9  C   UNL     1      68.690  49.029   8.186  1.00  0.00     0.336 A 
ATOM     10  O   UNL     1      67.464  48.961   8.462  1.00  0.00    -0.246 OA
ATOM     11  O   UNL     1      69.585  49.052   9.170  1.00  0.00    -0.423 OA
ENDROOT
TORSDOF 0
ENDMDL
