MODEL 1
REMARK VINA RESULT:    -3.367      0.000      0.000
REMARK INTER + INTRA:          -3.367
REMARK INTER:                  -3.367
REMARK INTRA:                   0.000
REMARK UNBOUND:                 0.000
REMARK SMILES C=C1CCC[C@@]2(C)CC(=O)C(=C(C)C)C[C@H]12
REMARK SMILES IDX 13 1 12 2 11 3 15 4 16 5 2 6 1 7 3 8 4 9 5 10 6 11 8 12 9 13
REMARK SMILES IDX 10 14 7 15 14 16
REMARK H PARENT
REMARK Flexibility Score: inf
ROOT
ATOM      1  C   UNL     1     125.125  85.396  54.301  1.00  0.00     0.039 C 
ATOM      2  C   UNL     1     124.423  86.717  54.075  1.00  0.00    -0.070 C 
ATOM      3  C   UNL     1     123.285  87.042  54.758  1.00  0.00    -0.006 C 
ATOM      4  C   UNL     1     122.690  86.094  55.791  1.00  0.00     0.047 C 
ATOM      5  C   UNL     1     121.943  86.839  56.927  1.00  0.00     0.025 C 
ATOM      6  C   UNL     1     121.289  85.936  57.974  1.00  0.00    -0.073 C 
ATOM      7  C   UNL     1     121.326  84.591  57.940  1.00  0.00     0.008 C 
ATOM      8  C   UNL     1     120.606  86.637  59.125  1.00  0.00     0.031 C 
ATOM      9  C   UNL     1     119.601  87.667  58.601  1.00  0.00     0.005 C 
ATOM     10  C   UNL     1     120.245  88.617  57.577  1.00  0.00     0.008 C 
ATOM     11  C   UNL     1     120.907  87.870  56.382  1.00  0.00    -0.018 C 
ATOM     12  C   UNL     1     121.656  88.913  55.516  1.00  0.00     0.088 C 
ATOM     13  C   UNL     1     122.495  88.268  54.450  1.00  0.00     0.159 C 
ATOM     14  O   UNL     1     122.501  88.779  53.298  1.00  0.00    -0.295 OA
ATOM     15  C   UNL     1     119.807  87.186  55.523  1.00  0.00     0.012 C 
ATOM     16  C   UNL     1     125.061  87.670  53.091  1.00  0.00     0.039 C 
ENDROOT
TORSDOF 0
ENDMDL
MODEL 2
REMARK VINA RESULT:    -3.173     12.582     15.048
REMARK INTER + INTRA:          -3.173
REMARK INTER:                  -3.173
REMARK INTRA:                   0.000
REMARK UNBOUND:                 0.000
REMARK SMILES C=C1CCC[C@@]2(C)CC(=O)C(=C(C)C)C[C@H]12
REMARK SMILES IDX 13 1 12 2 11 3 15 4 16 5 2 6 1 7 3 8 4 9 5 10 6 11 8 12 9 13
REMARK SMILES IDX 10 14 7 15 14 16
REMARK H PARENT
REMARK Flexibility Score: inf
ROOT
ATOM      1  C   UNL     1     105.181  83.815  55.032  1.00  0.00     0.039 C 
ATOM      2  C   UNL     1     105.647  84.111  56.439  1.00  0.00    -0.070 C 
ATOM      3  C   UNL     1     106.696  84.953  56.677  1.00  0.00    -0.006 C 
ATOM      4  C   UNL     1     107.424  85.646  55.533  1.00  0.00     0.047 C 
ATOM      5  C   UNL     1     108.004  87.025  55.939  1.00  0.00     0.025 C 
ATOM      6  C   UNL     1     108.782  87.750  54.840  1.00  0.00    -0.073 C 
ATOM      7  C   UNL     1     108.980  87.256  53.604  1.00  0.00     0.008 C 
ATOM      8  C   UNL     1     109.308  89.123  55.191  1.00  0.00     0.031 C 
ATOM      9  C   UNL     1     110.129  89.065  56.482  1.00  0.00     0.005 C 
ATOM     10  C   UNL     1     109.353  88.379  57.618  1.00  0.00     0.008 C 
ATOM     11  C   UNL     1     108.857  86.950  57.244  1.00  0.00    -0.018 C 
ATOM     12  C   UNL     1     107.957  86.435  58.394  1.00  0.00     0.088 C 
ATOM     13  C   UNL     1     107.267  85.148  58.041  1.00  0.00     0.159 C 
ATOM     14  O   UNL     1     107.198  84.243  58.915  1.00  0.00    -0.295 OA
ATOM     15  C   UNL     1     110.078  86.001  57.083  1.00  0.00     0.012 C 
ATOM     16  C   UNL     1     104.875  83.463  57.566  1.00  0.00     0.039 C 
ENDROOT
TORSDOF 0
ENDMDL
MODEL 3
REMARK VINA RESULT:    -3.148      2.004      3.350
REMARK INTER + INTRA:          -3.148
REMARK INTER:                  -3.148
REMARK INTRA:                   0.000
REMARK UNBOUND:                 0.000
REMARK SMILES C=C1CCC[C@@]2(C)CC(=O)C(=C(C)C)C[C@H]12
REMARK SMILES IDX 13 1 12 2 11 3 15 4 16 5 2 6 1 7 3 8 4 9 5 10 6 11 8 12 9 13
REMARK SMILES IDX 10 14 7 15 14 16
REMARK H PARENT
REMARK Flexibility Score: inf
ROOT
ATOM      1  C   UNL     1     123.557  83.191  59.005  1.00  0.00     0.039 C 
ATOM      2  C   UNL     1     123.891  83.744  57.638  1.00  0.00    -0.070 C 
ATOM      3  C   UNL     1     123.131  84.723  57.063  1.00  0.00    -0.006 C 
ATOM      4  C   UNL     1     121.927  85.312  57.788  1.00  0.00     0.047 C 
ATOM      5  C   UNL     1     121.664  86.791  57.407  1.00  0.00     0.025 C 
ATOM      6  C   UNL     1     120.442  87.425  58.074  1.00  0.00    -0.073 C 
ATOM      7  C   UNL     1     119.625  86.775  58.925  1.00  0.00     0.008 C 
ATOM      8  C   UNL     1     120.197  88.884  57.767  1.00  0.00     0.031 C 
ATOM      9  C   UNL     1     120.160  89.111  56.253  1.00  0.00     0.005 C 
ATOM     10  C   UNL     1     121.401  88.522  55.561  1.00  0.00     0.008 C 
ATOM     11  C   UNL     1     121.607  87.007  55.863  1.00  0.00    -0.018 C 
ATOM     12  C   UNL     1     122.964  86.575  55.253  1.00  0.00     0.088 C 
ATOM     13  C   UNL     1     123.350  85.182  55.661  1.00  0.00     0.159 C 
ATOM     14  O   UNL     1     123.846  84.416  54.792  1.00  0.00    -0.295 OA
ATOM     15  C   UNL     1     120.464  86.185  55.205  1.00  0.00     0.012 C 
ATOM     16  C   UNL     1     125.123  83.192  56.959  1.00  0.00     0.039 C 
ENDROOT
TORSDOF 0
ENDMDL
MODEL 4
REMARK VINA RESULT:    -3.090      1.651      4.710
REMARK INTER + INTRA:          -3.090
REMARK INTER:                  -3.090
REMARK INTRA:                   0.000
REMARK UNBOUND:                 0.000
REMARK SMILES C=C1CCC[C@@]2(C)CC(=O)C(=C(C)C)C[C@H]12
REMARK SMILES IDX 13 1 12 2 11 3 15 4 16 5 2 6 1 7 3 8 4 9 5 10 6 11 8 12 9 13
REMARK SMILES IDX 10 14 7 15 14 16
REMARK H PARENT
REMARK Flexibility Score: inf
ROOT
ATOM      1  C   UNL     1     120.542  87.003  59.044  1.00  0.00     0.039 C 
ATOM      2  C   UNL     1     120.808  87.654  57.706  1.00  0.00    -0.070 C 
ATOM      3  C   UNL     1     121.717  87.131  56.831  1.00  0.00    -0.006 C 
ATOM      4  C   UNL     1     122.483  85.856  57.160  1.00  0.00     0.047 C 
ATOM      5  C   UNL     1     122.847  85.033  55.898  1.00  0.00     0.025 C 
ATOM      6  C   UNL     1     123.653  83.760  56.165  1.00  0.00    -0.073 C 
ATOM      7  C   UNL     1     124.045  83.357  57.388  1.00  0.00     0.008 C 
ATOM      8  C   UNL     1     123.970  82.908  54.958  1.00  0.00     0.031 C 
ATOM      9  C   UNL     1     124.642  83.751  53.871  1.00  0.00     0.005 C 
ATOM     10  C   UNL     1     123.829  85.017  53.552  1.00  0.00     0.008 C 
ATOM     11  C   UNL     1     123.551  85.897  54.807  1.00  0.00    -0.018 C 
ATOM     12  C   UNL     1     122.595  87.042  54.390  1.00  0.00     0.088 C 
ATOM     13  C   UNL     1     122.105  87.830  55.572  1.00  0.00     0.159 C 
ATOM     14  O   UNL     1     122.045  89.085  55.475  1.00  0.00    -0.295 OA
ATOM     15  C   UNL     1     124.885  86.505  55.322  1.00  0.00     0.012 C 
ATOM     16  C   UNL     1     119.997  88.884  57.369  1.00  0.00     0.039 C 
ENDROOT
TORSDOF 0
ENDMDL
MODEL 5
REMARK VINA RESULT:    -2.996      2.934      5.925
REMARK INTER + INTRA:          -2.996
REMARK INTER:                  -2.996
REMARK INTRA:                   0.000
REMARK UNBOUND:                 0.000
REMARK SMILES C=C1CCC[C@@]2(C)CC(=O)C(=C(C)C)C[C@H]12
REMARK SMILES IDX 13 1 12 2 11 3 15 4 16 5 2 6 1 7 3 8 4 9 5 10 6 11 8 12 9 13
REMARK SMILES IDX 10 14 7 15 14 16
REMARK H PARENT
REMARK Flexibility Score: inf
ROOT
ATOM      1  C   UNL     1     115.641  88.862  55.408  1.00  0.00     0.039 C 
ATOM      2  C   UNL     1     116.365  88.674  56.722  1.00  0.00    -0.070 C 
ATOM      3  C   UNL     1     117.662  88.246  56.763  1.00  0.00    -0.006 C 
ATOM      4  C   UNL     1     118.438  87.963  55.483  1.00  0.00     0.047 C 
ATOM      5  C   UNL     1     119.959  88.224  55.635  1.00  0.00     0.025 C 
ATOM      6  C   UNL     1     120.796  87.918  54.392  1.00  0.00    -0.073 C 
ATOM      7  C   UNL     1     120.289  87.445  53.238  1.00  0.00     0.008 C 
ATOM      8  C   UNL     1     122.273  88.220  54.493  1.00  0.00     0.031 C 
ATOM      9  C   UNL     1     122.873  87.538  55.726  1.00  0.00     0.005 C 
ATOM     10  C   UNL     1     122.075  87.865  56.999  1.00  0.00     0.008 C 
ATOM     11  C   UNL     1     120.564  87.507  56.882  1.00  0.00    -0.018 C 
ATOM     12  C   UNL     1     119.845  88.030  58.150  1.00  0.00     0.088 C 
ATOM     13  C   UNL     1     118.351  87.913  58.043  1.00  0.00     0.159 C 
ATOM     14  O   UNL     1     117.705  87.517  59.050  1.00  0.00    -0.295 OA
ATOM     15  C   UNL     1     120.399  85.964  56.799  1.00  0.00     0.012 C 
ATOM     16  C   UNL     1     115.600  89.017  57.979  1.00  0.00     0.039 C 
ENDROOT
TORSDOF 0
ENDMDL
MODEL 6
REMARK VINA RESULT:    -2.875      2.210      3.651
REMARK INTER + INTRA:          -2.875
REMARK INTER:                  -2.875
REMARK INTRA:                   0.000
REMARK UNBOUND:                 0.000
REMARK SMILES C=C1CCC[C@@]2(C)CC(=O)C(=C(C)C)C[C@H]12
REMARK SMILES IDX 13 1 12 2 11 3 15 4 16 5 2 6 1 7 3 8 4 9 5 10 6 11 8 12 9 13
REMARK SMILES IDX 10 14 7 15 14 16
REMARK H PARENT
REMARK Flexibility Score: inf
ROOT
ATOM      1  C   UNL     1     124.961  85.825  54.799  1.00  0.00     0.039 C 
ATOM      2  C   UNL     1     124.335  85.333  56.085  1.00  0.00    -0.070 C 
ATOM      3  C   UNL     1     123.098  85.758  56.481  1.00  0.00    -0.006 C 
ATOM      4  C   UNL     1     122.291  86.730  55.630  1.00  0.00     0.047 C 
ATOM      5  C   UNL     1     120.761  86.530  55.782  1.00  0.00     0.025 C 
ATOM      6  C   UNL     1     119.898  87.505  54.981  1.00  0.00    -0.073 C 
ATOM      7  C   UNL     1     120.391  88.485  54.200  1.00  0.00     0.008 C 
ATOM      8  C   UNL     1     118.403  87.295  55.063  1.00  0.00     0.031 C 
ATOM      9  C   UNL     1     117.951  87.254  56.526  1.00  0.00     0.005 C 
ATOM     10  C   UNL     1     118.775  86.248  57.346  1.00  0.00     0.008 C 
ATOM     11  C   UNL     1     120.309  86.511  57.275  1.00  0.00    -0.018 C 
ATOM     12  C   UNL     1     121.032  85.347  57.996  1.00  0.00     0.088 C 
ATOM     13  C   UNL     1     122.522  85.404  57.810  1.00  0.00     0.159 C 
ATOM     14  O   UNL     1     123.262  85.159  58.800  1.00  0.00    -0.295 OA
ATOM     15  C   UNL     1     120.641  87.848  57.996  1.00  0.00     0.012 C 
ATOM     16  C   UNL     1     125.124  84.323  56.887  1.00  0.00     0.039 C 
ENDROOT
TORSDOF 0
ENDMDL
MODEL 7
REMARK VINA RESULT:    -2.865      8.646     10.769
REMARK INTER + INTRA:          -2.865
REMARK INTER:                  -2.865
REMARK INTRA:                   0.000
REMARK UNBOUND:                 0.000
REMARK SMILES C=C1CCC[C@@]2(C)CC(=O)C(=C(C)C)C[C@H]12
REMARK SMILES IDX 13 1 12 2 11 3 15 4 16 5 2 6 1 7 3 8 4 9 5 10 6 11 8 12 9 13
REMARK SMILES IDX 10 14 7 15 14 16
REMARK H PARENT
REMARK Flexibility Score: inf
ROOT
ATOM      1  C   UNL     1     115.027  85.865  59.125  1.00  0.00     0.039 C 
ATOM      2  C   UNL     1     114.622  87.022  58.240  1.00  0.00    -0.070 C 
ATOM      3  C   UNL     1     113.338  87.158  57.792  1.00  0.00    -0.006 C 
ATOM      4  C   UNL     1     112.258  86.159  58.185  1.00  0.00     0.047 C 
ATOM      5  C   UNL     1     110.847  86.798  58.253  1.00  0.00     0.025 C 
ATOM      6  C   UNL     1     109.715  85.832  58.605  1.00  0.00    -0.073 C 
ATOM      7  C   UNL     1     109.887  84.517  58.833  1.00  0.00     0.008 C 
ATOM      8  C   UNL     1     108.337  86.440  58.736  1.00  0.00     0.031 C 
ATOM      9  C   UNL     1     107.987  87.244  57.481  1.00  0.00     0.005 C 
ATOM     10  C   UNL     1     109.091  88.255  57.129  1.00  0.00     0.008 C 
ATOM     11  C   UNL     1     110.493  87.596  56.960  1.00  0.00    -0.018 C 
ATOM     12  C   UNL     1     111.537  88.724  56.774  1.00  0.00     0.088 C 
ATOM     13  C   UNL     1     112.946  88.203  56.803  1.00  0.00     0.159 C 
ATOM     14  O   UNL     1     113.773  88.660  55.970  1.00  0.00    -0.295 OA
ATOM     15  C   UNL     1     110.491  86.685  55.700  1.00  0.00     0.012 C 
ATOM     16  C   UNL     1     115.692  88.037  57.908  1.00  0.00     0.039 C 
ENDROOT
TORSDOF 0
ENDMDL
MODEL 8
REMARK VINA RESULT:    -2.808     13.356     15.636
REMARK INTER + INTRA:          -2.808
REMARK INTER:                  -2.808
REMARK INTRA:                   0.000
REMARK UNBOUND:                 0.000
REMARK SMILES C=C1CCC[C@@]2(C)CC(=O)C(=C(C)C)C[C@H]12
REMARK SMILES IDX 13 1 12 2 11 3 15 4 16 5 2 6 1 7 3 8 4 9 5 10 6 11 8 12 9 13
REMARK SMILES IDX 10 14 7 15 14 16
REMARK H PARENT
REMARK Flexibility Score: inf
ROOT
ATOM      1  C   UNL     1     108.057  88.537  55.270  1.00  0.00     0.039 C 
ATOM      2  C   UNL     1     108.452  87.756  56.503  1.00  0.00    -0.070 C 
ATOM      3  C   UNL     1     107.875  86.553  56.795  1.00  0.00    -0.006 C 
ATOM      4  C   UNL     1     106.825  85.939  55.877  1.00  0.00     0.047 C 
ATOM      5  C   UNL     1     106.837  84.390  55.906  1.00  0.00     0.025 C 
ATOM      6  C   UNL     1     105.777  83.717  55.033  1.00  0.00    -0.073 C 
ATOM      7  C   UNL     1     104.875  84.387  54.290  1.00  0.00     0.008 C 
ATOM      8  C   UNL     1     105.804  82.207  54.995  1.00  0.00     0.031 C 
ATOM      9  C   UNL     1     105.769  81.638  56.416  1.00  0.00     0.005 C 
ATOM     10  C   UNL     1     106.856  82.265  57.305  1.00  0.00     0.008 C 
ATOM     11  C   UNL     1     106.780  83.820  57.357  1.00  0.00    -0.018 C 
ATOM     12  C   UNL     1     108.012  84.338  58.140  1.00  0.00     0.088 C 
ATOM     13  C   UNL     1     108.138  85.833  58.075  1.00  0.00     0.159 C 
ATOM     14  O   UNL     1     108.456  86.456  59.123  1.00  0.00    -0.295 OA
ATOM     15  C   UNL     1     105.483  84.253  58.097  1.00  0.00     0.012 C 
ATOM     16  C   UNL     1     109.537  88.350  57.371  1.00  0.00     0.039 C 
ENDROOT
TORSDOF 0
ENDMDL
MODEL 9
REMARK VINA RESULT:    -2.747     12.574     14.711
REMARK INTER + INTRA:          -2.747
REMARK INTER:                  -2.747
REMARK INTRA:                   0.000
REMARK UNBOUND:                 0.000
REMARK SMILES C=C1CCC[C@@]2(C)CC(=O)C(=C(C)C)C[C@H]12
REMARK SMILES IDX 13 1 12 2 11 3 15 4 16 5 2 6 1 7 3 8 4 9 5 10 6 11 8 12 9 13
REMARK SMILES IDX 10 14 7 15 14 16
REMARK H PARENT
REMARK Flexibility Score: inf
ROOT
ATOM      1  C   UNL     1     110.549  87.257  58.951  1.00  0.00     0.039 C 
ATOM      2  C   UNL     1     109.893  87.505  57.611  1.00  0.00    -0.070 C 
ATOM      3  C   UNL     1     108.969  86.636  57.102  1.00  0.00    -0.006 C 
ATOM      4  C   UNL     1     108.547  85.393  57.875  1.00  0.00     0.047 C 
ATOM      5  C   UNL     1     107.085  84.972  57.580  1.00  0.00     0.025 C 
ATOM      6  C   UNL     1     106.618  83.706  58.299  1.00  0.00    -0.073 C 
ATOM      7  C   UNL     1     107.393  82.977  59.124  1.00  0.00     0.008 C 
ATOM      8  C   UNL     1     105.178  83.306  58.076  1.00  0.00     0.031 C 
ATOM      9  C   UNL     1     104.876  83.215  56.578  1.00  0.00     0.005 C 
ATOM     10  C   UNL     1     105.296  84.495  55.836  1.00  0.00     0.008 C 
ATOM     11  C   UNL     1     106.795  84.862  56.051  1.00  0.00    -0.018 C 
ATOM     12  C   UNL     1     107.052  86.243  55.399  1.00  0.00     0.088 C 
ATOM     13  C   UNL     1     108.417  86.779  55.724  1.00  0.00     0.159 C 
ATOM     14  O   UNL     1     109.080  87.333  54.807  1.00  0.00    -0.295 OA
ATOM     15  C   UNL     1     107.695  83.796  55.367  1.00  0.00     0.012 C 
ATOM     16  C   UNL     1     110.278  88.773  56.885  1.00  0.00     0.039 C 
ENDROOT
TORSDOF 0
ENDMDL
