MODEL 1
REMARK VINA RESULT:    -1.004      0.000      0.000
REMARK INTER + INTRA:          -0.833
REMARK INTER:                  -2.531
REMARK INTRA:                   1.698
REMARK UNBOUND:                 1.698
REMARK SMILES CCCCCCCCCCCCCCCCCCCCCCCCCCCC(=O)[O-]
REMARK SMILES IDX 15 1 16 2 17 3 18 4 19 5 20 6 21 7 22 8 23 9 24 10 25 11
REMARK SMILES IDX 26 12 27 13 28 14 29 15 30 16 14 17 13 18 12 19 11 20 10 21
REMARK SMILES IDX 9 22 8 23 7 24 6 25 5 26 4 27 3 28 2 29 1 30
REMARK H PARENT
REMARK Flexibility Score: inf
ROOT
ATOM      1  C   UNL     1      -5.194   8.474  -3.402  1.00  0.00     0.000 C 
ENDROOT
BRANCH   1   2
ATOM      2  C   UNL     1      -4.920   8.404  -1.892  1.00  0.00     0.000 C 
BRANCH   2   3
ATOM      3  C   UNL     1      -4.502   9.761  -1.298  1.00  0.00     0.000 C 
BRANCH   3   4
ATOM      4  C   UNL     1      -4.278   9.691   0.220  1.00  0.00     0.000 C 
BRANCH   4   5
ATOM      5  C   UNL     1      -4.268  11.078   0.888  1.00  0.00     0.000 C 
BRANCH   5   6
ATOM      6  C   UNL     1      -5.008  11.084   2.238  1.00  0.00     0.000 C 
BRANCH   6   7
ATOM      7  C   UNL     1      -4.204  10.396   3.354  1.00  0.00     0.000 C 
BRANCH   7   8
ATOM      8  C   UNL     1      -2.796   9.967   2.885  1.00  0.00     0.000 C 
BRANCH   8   9
ATOM      9  C   UNL     1      -1.944  11.125   2.334  1.00  0.00     0.000 C 
BRANCH   9  10
ATOM     10  C   UNL     1      -0.875  10.705   1.309  1.00  0.00     0.000 C 
BRANCH  10  11
ATOM     11  C   UNL     1      -1.459   9.879   0.150  1.00  0.00     0.000 C 
BRANCH  11  12
ATOM     12  C   UNL     1      -0.984  10.370  -1.230  1.00  0.00     0.006 C 
BRANCH  12  13
ATOM     13  C   UNL     1      -0.876   9.259  -2.287  1.00  0.00     0.053 C 
BRANCH  13  14
ATOM     14  C   UNL     1      -1.115   7.897  -1.708  1.00  0.00     0.041 C 
ATOM     15  O   UNL     1      -1.061   7.722  -0.462  1.00  0.00    -0.550 OA
ATOM     16  O   UNL     1      -1.443   6.833  -2.538  1.00  0.00    -0.550 OA
ENDBRANCH  13  14
ENDBRANCH  12  13
ENDBRANCH  11  12
ENDBRANCH  10  11
ENDBRANCH   9  10
ENDBRANCH   8   9
ENDBRANCH   7   8
ENDBRANCH   6   7
ENDBRANCH   5   6
ENDBRANCH   4   5
ENDBRANCH   3   4
ENDBRANCH   2   3
ENDBRANCH   1   2
BRANCH   1  17
ATOM     17  C   UNL     1      -4.256   7.567  -4.215  1.00  0.00     0.000 C 
BRANCH  17  18
ATOM     18  C   UNL     1      -3.255   8.396  -5.033  1.00  0.00     0.000 C 
BRANCH  18  19
ATOM     19  C   UNL     1      -3.170   9.859  -4.569  1.00  0.00     0.000 C 
BRANCH  19  20
ATOM     20  C   UNL     1      -2.324  10.787  -5.465  1.00  0.00     0.000 C 
BRANCH  20  21
ATOM     21  C   UNL     1      -2.677  10.711  -6.966  1.00  0.00     0.000 C 
BRANCH  21  22
ATOM     22  C   UNL     1      -1.505  10.198  -7.824  1.00  0.00    -0.000 C 
BRANCH  22  23
ATOM     23  C   UNL     1      -1.258  11.058  -9.077  1.00  0.00    -0.000 C 
BRANCH  23  24
ATOM     24  C   UNL     1      -0.892  10.273 -10.352  1.00  0.00    -0.000 C 
BRANCH  24  25
ATOM     25  C   UNL     1      -1.922  10.354 -11.494  1.00  0.00    -0.000 C 
BRANCH  25  26
ATOM     26  C   UNL     1      -1.603   9.476 -12.720  1.00  0.00    -0.000 C 
BRANCH  26  27
ATOM     27  C   UNL     1      -1.559   7.961 -12.441  1.00  0.00    -0.000 C 
BRANCH  27  28
ATOM     28  C   UNL     1      -2.898   7.334 -12.007  1.00  0.00    -0.000 C 
BRANCH  28  29
ATOM     29  C   UNL     1      -3.617   6.519 -13.097  1.00  0.00    -0.003 C 
ATOM     30  C   UNL     1      -4.855   5.789 -12.575  1.00  0.00     0.004 C 
ENDBRANCH  28  29
ENDBRANCH  27  28
ENDBRANCH  26  27
ENDBRANCH  25  26
ENDBRANCH  24  25
ENDBRANCH  23  24
ENDBRANCH  22  23
ENDBRANCH  21  22
ENDBRANCH  20  21
ENDBRANCH  19  20
ENDBRANCH  18  19
ENDBRANCH  17  18
ENDBRANCH   1  17
TORSDOF 26
ENDMDL
MODEL 2
REMARK VINA RESULT:    -0.985      1.839      2.589
REMARK INTER + INTRA:          -0.784
REMARK INTER:                  -2.629
REMARK INTRA:                   1.845
REMARK UNBOUND:                 1.698
REMARK SMILES CCCCCCCCCCCCCCCCCCCCCCCCCCCC(=O)[O-]
REMARK SMILES IDX 15 1 16 2 17 3 18 4 19 5 20 6 21 7 22 8 23 9 24 10 25 11
REMARK SMILES IDX 26 12 27 13 28 14 29 15 30 16 14 17 13 18 12 19 11 20 10 21
REMARK SMILES IDX 9 22 8 23 7 24 6 25 5 26 4 27 3 28 2 29 1 30
REMARK H PARENT
REMARK Flexibility Score: inf
ROOT
ATOM      1  C   UNL     1      -4.708   8.322  -4.703  1.00  0.00     0.000 C 
ENDROOT
BRANCH   1   2
ATOM      2  C   UNL     1      -4.598   7.425  -3.460  1.00  0.00     0.000 C 
BRANCH   2   3
ATOM      3  C   UNL     1      -5.145   8.098  -2.189  1.00  0.00     0.000 C 
BRANCH   3   4
ATOM      4  C   UNL     1      -4.353   7.705  -0.932  1.00  0.00     0.000 C 
BRANCH   4   5
ATOM      5  C   UNL     1      -3.780   8.921  -0.182  1.00  0.00     0.000 C 
BRANCH   5   6
ATOM      6  C   UNL     1      -4.700  10.152  -0.273  1.00  0.00     0.000 C 
BRANCH   6   7
ATOM      7  C   UNL     1      -4.794  10.714  -1.701  1.00  0.00     0.000 C 
BRANCH   7   8
ATOM      8  C   UNL     1      -3.405  11.027  -2.302  1.00  0.00     0.000 C 
BRANCH   8   9
ATOM      9  C   UNL     1      -2.250  10.923  -1.289  1.00  0.00     0.000 C 
BRANCH   9  10
ATOM     10  C   UNL     1      -0.878  10.610  -1.908  1.00  0.00     0.000 C 
BRANCH  10  11
ATOM     11  C   UNL     1      -0.885   9.317  -2.742  1.00  0.00     0.000 C 
BRANCH  11  12
ATOM     12  C   UNL     1      -0.929   8.047  -1.874  1.00  0.00     0.006 C 
BRANCH  12  13
ATOM     13  C   UNL     1      -1.539   6.826  -2.580  1.00  0.00     0.053 C 
BRANCH  13  14
ATOM     14  C   UNL     1      -1.112   6.725  -4.013  1.00  0.00     0.041 C 
ATOM     15  O   UNL     1      -0.925   7.769  -4.691  1.00  0.00    -0.550 OA
ATOM     16  O   UNL     1      -0.876   5.482  -4.586  1.00  0.00    -0.550 OA
ENDBRANCH  13  14
ENDBRANCH  12  13
ENDBRANCH  11  12
ENDBRANCH  10  11
ENDBRANCH   9  10
ENDBRANCH   8   9
ENDBRANCH   7   8
ENDBRANCH   6   7
ENDBRANCH   5   6
ENDBRANCH   4   5
ENDBRANCH   3   4
ENDBRANCH   2   3
ENDBRANCH   1   2
BRANCH   1  17
ATOM     17  C   UNL     1      -3.903   9.624  -4.564  1.00  0.00     0.000 C 
BRANCH  17  18
ATOM     18  C   UNL     1      -3.174   9.967  -5.870  1.00  0.00     0.000 C 
BRANCH  18  19
ATOM     19  C   UNL     1      -1.781  10.574  -5.637  1.00  0.00     0.000 C 
BRANCH  19  20
ATOM     20  C   UNL     1      -0.965  10.865  -6.913  1.00  0.00     0.000 C 
BRANCH  20  21
ATOM     21  C   UNL     1      -1.797  10.849  -8.212  1.00  0.00     0.000 C 
BRANCH  21  22
ATOM     22  C   UNL     1      -0.924  10.964  -9.476  1.00  0.00    -0.000 C 
BRANCH  22  23
ATOM     23  C   UNL     1      -0.913   9.674 -10.317  1.00  0.00    -0.000 C 
BRANCH  23  24
ATOM     24  C   UNL     1      -1.476   9.814 -11.745  1.00  0.00    -0.000 C 
BRANCH  24  25
ATOM     25  C   UNL     1      -2.812  10.575 -11.853  1.00  0.00    -0.000 C 
BRANCH  25  26
ATOM     26  C   UNL     1      -3.672  10.204 -13.077  1.00  0.00    -0.000 C 
BRANCH  26  27
ATOM     27  C   UNL     1      -4.138   8.736 -13.123  1.00  0.00    -0.000 C 
BRANCH  27  28
ATOM     28  C   UNL     1      -3.043   7.690 -12.835  1.00  0.00    -0.000 C 
BRANCH  28  29
ATOM     29  C   UNL     1      -3.543   6.386 -12.189  1.00  0.00    -0.003 C 
ATOM     30  C   UNL     1      -4.561   5.645 -13.056  1.00  0.00     0.004 C 
ENDBRANCH  28  29
ENDBRANCH  27  28
ENDBRANCH  26  27
ENDBRANCH  25  26
ENDBRANCH  24  25
ENDBRANCH  23  24
ENDBRANCH  22  23
ENDBRANCH  21  22
ENDBRANCH  20  21
ENDBRANCH  19  20
ENDBRANCH  18  19
ENDBRANCH  17  18
ENDBRANCH   1  17
TORSDOF 26
ENDMDL
MODEL 3
REMARK VINA RESULT:     0.031      3.222      9.949
REMARK INTER + INTRA:           1.775
REMARK INTER:                   2.791
REMARK INTRA:                  -1.016
REMARK UNBOUND:                 1.698
REMARK SMILES CCCCCCCCCCCCCCCCCCCCCCCCCCCC(=O)[O-]
REMARK SMILES IDX 15 1 16 2 17 3 18 4 19 5 20 6 21 7 22 8 23 9 24 10 25 11
REMARK SMILES IDX 26 12 27 13 28 14 29 15 30 16 14 17 13 18 12 19 11 20 10 21
REMARK SMILES IDX 9 22 8 23 7 24 6 25 5 26 4 27 3 28 2 29 1 30
REMARK H PARENT
REMARK Flexibility Score: inf
ROOT
ATOM      1  C   UNL     1      -4.476   7.866  -1.709  1.00  0.00     0.000 C 
ENDROOT
BRANCH   1   2
ATOM      2  C   UNL     1      -3.265   7.727  -2.645  1.00  0.00     0.000 C 
BRANCH   2   3
ATOM      3  C   UNL     1      -2.088   6.981  -1.990  1.00  0.00     0.000 C 
BRANCH   3   4
ATOM      4  C   UNL     1      -1.134   7.930  -1.248  1.00  0.00     0.000 C 
BRANCH   4   5
ATOM      5  C   UNL     1      -0.965   9.285  -1.959  1.00  0.00     0.000 C 
BRANCH   5   6
ATOM      6  C   UNL     1      -1.175   9.178  -3.480  1.00  0.00     0.000 C 
BRANCH   6   7
ATOM      7  C   UNL     1      -1.922  10.392  -4.059  1.00  0.00     0.000 C 
BRANCH   7   8
ATOM      8  C   UNL     1      -3.047   9.979  -5.035  1.00  0.00     0.000 C 
BRANCH   8   9
ATOM      9  C   UNL     1      -2.575   9.807  -6.491  1.00  0.00     0.000 C 
BRANCH   9  10
ATOM     10  C   UNL     1      -1.089   9.442  -6.646  1.00  0.00     0.000 C 
BRANCH  10  11
ATOM     11  C   UNL     1      -0.875   7.952  -6.962  1.00  0.00     0.000 C 
BRANCH  11  12
ATOM     12  C   UNL     1      -0.876   7.069  -5.702  1.00  0.00     0.006 C 
BRANCH  12  13
ATOM     13  C   UNL     1      -2.054   6.086  -5.626  1.00  0.00     0.053 C 
BRANCH  13  14
ATOM     14  C   UNL     1      -1.602   4.658  -5.574  1.00  0.00     0.041 C 
ATOM     15  O   UNL     1      -1.092   4.194  -4.520  1.00  0.00    -0.550 OA
ATOM     16  O   UNL     1      -1.788   3.825  -6.671  1.00  0.00    -0.550 OA
ENDBRANCH  13  14
ENDBRANCH  12  13
ENDBRANCH  11  12
ENDBRANCH  10  11
ENDBRANCH   9  10
ENDBRANCH   8   9
ENDBRANCH   7   8
ENDBRANCH   6   7
ENDBRANCH   5   6
ENDBRANCH   4   5
ENDBRANCH   3   4
ENDBRANCH   2   3
ENDBRANCH   1   2
BRANCH   1  17
ATOM     17  C   UNL     1      -5.420   9.004  -2.130  1.00  0.00     0.000 C 
BRANCH  17  18
ATOM     18  C   UNL     1      -4.759  10.375  -1.929  1.00  0.00     0.000 C 
BRANCH  18  19
ATOM     19  C   UNL     1      -4.078  10.516  -0.558  1.00  0.00     0.000 C 
BRANCH  19  20
ATOM     20  C   UNL     1      -2.661  11.125  -0.583  1.00  0.00     0.000 C 
BRANCH  20  21
ATOM     21  C   UNL     1      -1.901  11.013   0.755  1.00  0.00     0.000 C 
BRANCH  21  22
ATOM     22  C   UNL     1      -2.654  10.160   1.794  1.00  0.00    -0.000 C 
BRANCH  22  23
ATOM     23  C   UNL     1      -3.159  10.984   2.993  1.00  0.00    -0.000 C 
BRANCH  23  24
ATOM     24  C   UNL     1      -4.683  10.944   3.223  1.00  0.00    -0.000 C 
BRANCH  24  25
ATOM     25  C   UNL     1      -5.149  10.063   4.399  1.00  0.00    -0.000 C 
BRANCH  25  26
ATOM     26  C   UNL     1      -6.669   9.818   4.464  1.00  0.00    -0.000 C 
BRANCH  26  27
ATOM     27  C   UNL     1      -7.100   8.352   4.265  1.00  0.00    -0.000 C 
BRANCH  27  28
ATOM     28  C   UNL     1      -8.500   8.156   3.651  1.00  0.00    -0.000 C 
BRANCH  28  29
ATOM     29  C   UNL     1      -9.277   6.938   4.179  1.00  0.00    -0.003 C 
ATOM     30  C   UNL     1      -8.541   6.201   5.298  1.00  0.00     0.004 C 
ENDBRANCH  28  29
ENDBRANCH  27  28
ENDBRANCH  26  27
ENDBRANCH  25  26
ENDBRANCH  24  25
ENDBRANCH  23  24
ENDBRANCH  22  23
ENDBRANCH  21  22
ENDBRANCH  20  21
ENDBRANCH  19  20
ENDBRANCH  18  19
ENDBRANCH  17  18
ENDBRANCH   1  17
TORSDOF 26
ENDMDL
MODEL 4
REMARK VINA RESULT:     0.489      3.917      6.035
REMARK INTER + INTRA:           2.929
REMARK INTER:                   4.442
REMARK INTRA:                  -1.513
REMARK UNBOUND:                 1.698
REMARK SMILES CCCCCCCCCCCCCCCCCCCCCCCCCCCC(=O)[O-]
REMARK SMILES IDX 15 1 16 2 17 3 18 4 19 5 20 6 21 7 22 8 23 9 24 10 25 11
REMARK SMILES IDX 26 12 27 13 28 14 29 15 30 16 14 17 13 18 12 19 11 20 10 21
REMARK SMILES IDX 9 22 8 23 7 24 6 25 5 26 4 27 3 28 2 29 1 30
REMARK H PARENT
REMARK Flexibility Score: inf
ROOT
ATOM      1  C   UNL     1      -4.725   8.522  -1.329  1.00  0.00     0.000 C 
ENDROOT
BRANCH   1   2
ATOM      2  C   UNL     1      -3.569   8.523  -0.317  1.00  0.00     0.000 C 
BRANCH   2   3
ATOM      3  C   UNL     1      -2.783   9.847  -0.312  1.00  0.00     0.000 C 
BRANCH   3   4
ATOM      4  C   UNL     1      -1.537   9.785   0.586  1.00  0.00     0.000 C 
BRANCH   4   5
ATOM      5  C   UNL     1      -1.426  10.989   1.538  1.00  0.00     0.000 C 
BRANCH   5   6
ATOM      6  C   UNL     1      -2.262  10.804   2.817  1.00  0.00     0.000 C 
BRANCH   6   7
ATOM      7  C   UNL     1      -3.762  11.053   2.583  1.00  0.00     0.000 C 
BRANCH   7   8
ATOM      8  C   UNL     1      -4.649  10.298   3.598  1.00  0.00     0.000 C 
BRANCH   8   9
ATOM      9  C   UNL     1      -5.836  11.125   4.124  1.00  0.00     0.000 C 
BRANCH   9  10
ATOM     10  C   UNL     1      -6.710  10.404   5.165  1.00  0.00     0.000 C 
BRANCH  10  11
ATOM     11  C   UNL     1      -6.711   8.876   4.981  1.00  0.00     0.000 C 
BRANCH  11  12
ATOM     12  C   UNL     1      -7.609   8.415   3.820  1.00  0.00     0.006 C 
BRANCH  12  13
ATOM     13  C   UNL     1      -8.853   7.629   4.264  1.00  0.00     0.053 C 
BRANCH  13  14
ATOM     14  C   UNL     1      -8.621   6.149   4.264  1.00  0.00     0.041 C 
ATOM     15  O   UNL     1      -8.548   5.521   3.175  1.00  0.00    -0.550 OA
ATOM     16  O   UNL     1      -8.438   5.470   5.462  1.00  0.00    -0.550 OA
ENDBRANCH  13  14
ENDBRANCH  12  13
ENDBRANCH  11  12
ENDBRANCH  10  11
ENDBRANCH   9  10
ENDBRANCH   8   9
ENDBRANCH   7   8
ENDBRANCH   6   7
ENDBRANCH   5   6
ENDBRANCH   4   5
ENDBRANCH   3   4
ENDBRANCH   2   3
ENDBRANCH   1   2
BRANCH   1  17
ATOM     17  C   UNL     1      -4.800   9.824  -2.142  1.00  0.00     0.000 C 
BRANCH  17  18
ATOM     18  C   UNL     1      -4.097   9.672  -3.498  1.00  0.00     0.000 C 
BRANCH  18  19
ATOM     19  C   UNL     1      -3.451  10.979  -3.989  1.00  0.00     0.000 C 
BRANCH  19  20
ATOM     20  C   UNL     1      -1.926  11.080  -3.782  1.00  0.00     0.000 C 
BRANCH  20  21
ATOM     21  C   UNL     1      -1.111  10.040  -4.578  1.00  0.00     0.000 C 
BRANCH  21  22
ATOM     22  C   UNL     1      -1.382  10.106  -6.093  1.00  0.00    -0.000 C 
BRANCH  22  23
ATOM     23  C   UNL     1      -1.100   8.775  -6.812  1.00  0.00    -0.000 C 
BRANCH  23  24
ATOM     24  C   UNL     1      -0.876   7.562  -5.887  1.00  0.00    -0.000 C 
BRANCH  24  25
ATOM     25  C   UNL     1      -2.087   7.158  -5.025  1.00  0.00    -0.000 C 
BRANCH  25  26
ATOM     26  C   UNL     1      -2.677   5.771  -5.344  1.00  0.00    -0.000 C 
BRANCH  26  27
ATOM     27  C   UNL     1      -1.657   4.615  -5.344  1.00  0.00    -0.000 C 
BRANCH  27  28
ATOM     28  C   UNL     1      -1.887   3.535  -6.420  1.00  0.00    -0.000 C 
BRANCH  28  29
ATOM     29  C   UNL     1      -1.580   2.096  -5.972  1.00  0.00    -0.003 C 
ATOM     30  C   UNL     1      -1.463   1.957  -4.453  1.00  0.00     0.004 C 
ENDBRANCH  28  29
ENDBRANCH  27  28
ENDBRANCH  26  27
ENDBRANCH  25  26
ENDBRANCH  24  25
ENDBRANCH  23  24
ENDBRANCH  22  23
ENDBRANCH  21  22
ENDBRANCH  20  21
ENDBRANCH  19  20
ENDBRANCH  18  19
ENDBRANCH  17  18
ENDBRANCH   1  17
TORSDOF 26
ENDMDL
MODEL 5
REMARK VINA RESULT:     0.703      2.736      4.269
REMARK INTER + INTRA:           3.470
REMARK INTER:                   3.389
REMARK INTRA:                   0.081
REMARK UNBOUND:                 1.698
REMARK SMILES CCCCCCCCCCCCCCCCCCCCCCCCCCCC(=O)[O-]
REMARK SMILES IDX 15 1 16 2 17 3 18 4 19 5 20 6 21 7 22 8 23 9 24 10 25 11
REMARK SMILES IDX 26 12 27 13 28 14 29 15 30 16 14 17 13 18 12 19 11 20 10 21
REMARK SMILES IDX 9 22 8 23 7 24 6 25 5 26 4 27 3 28 2 29 1 30
REMARK H PARENT
REMARK Flexibility Score: inf
ROOT
ATOM      1  C   UNL     1      -3.270   6.121  -5.672  1.00  0.00     0.000 C 
ENDROOT
BRANCH   1   2
ATOM      2  C   UNL     1      -3.037   6.065  -4.155  1.00  0.00     0.000 C 
BRANCH   2   3
ATOM      3  C   UNL     1      -1.627   5.569  -3.786  1.00  0.00     0.000 C 
BRANCH   3   4
ATOM      4  C   UNL     1      -0.918   6.502  -2.793  1.00  0.00     0.000 C 
BRANCH   4   5
ATOM      5  C   UNL     1      -1.753   7.747  -2.442  1.00  0.00     0.000 C 
BRANCH   5   6
ATOM      6  C   UNL     1      -1.993   7.884  -0.928  1.00  0.00     0.000 C 
BRANCH   6   7
ATOM      7  C   UNL     1      -3.400   8.412  -0.599  1.00  0.00     0.000 C 
BRANCH   7   8
ATOM      8  C   UNL     1      -3.366   9.588   0.403  1.00  0.00     0.000 C 
BRANCH   8   9
ATOM      9  C   UNL     1      -4.328  10.737   0.048  1.00  0.00     0.000 C 
BRANCH   9  10
ATOM     10  C   UNL     1      -4.430  11.048  -1.455  1.00  0.00     0.000 C 
BRANCH  10  11
ATOM     11  C   UNL     1      -4.846   9.822  -2.286  1.00  0.00     0.000 C 
BRANCH  11  12
ATOM     12  C   UNL     1      -4.256   9.837  -3.707  1.00  0.00     0.006 C 
BRANCH  12  13
ATOM     13  C   UNL     1      -3.371  11.059  -4.005  1.00  0.00     0.053 C 
BRANCH  13  14
ATOM     14  C   UNL     1      -2.051  10.674  -4.602  1.00  0.00     0.041 C 
ATOM     15  O   UNL     1      -0.995  10.786  -3.925  1.00  0.00    -0.550 OA
ATOM     16  O   UNL     1      -1.992  10.147  -5.886  1.00  0.00    -0.550 OA
ENDBRANCH  13  14
ENDBRANCH  12  13
ENDBRANCH  11  12
ENDBRANCH  10  11
ENDBRANCH   9  10
ENDBRANCH   8   9
ENDBRANCH   7   8
ENDBRANCH   6   7
ENDBRANCH   5   6
ENDBRANCH   4   5
ENDBRANCH   3   4
ENDBRANCH   2   3
ENDBRANCH   1   2
BRANCH   1  17
ATOM     17  C   UNL     1      -2.208   5.339  -6.463  1.00  0.00     0.000 C 
BRANCH  17  18
ATOM     18  C   UNL     1      -1.114   6.274  -6.995  1.00  0.00     0.000 C 
BRANCH  18  19
ATOM     19  C   UNL     1      -1.380   6.750  -8.433  1.00  0.00     0.000 C 
BRANCH  19  20
ATOM     20  C   UNL     1      -1.562   8.272  -8.602  1.00  0.00     0.000 C 
BRANCH  20  21
ATOM     21  C   UNL     1      -0.881   8.854  -9.859  1.00  0.00     0.000 C 
BRANCH  21  22
ATOM     22  C   UNL     1      -1.771   8.761 -11.112  1.00  0.00    -0.000 C 
BRANCH  22  23
ATOM     23  C   UNL     1      -1.021   9.118 -12.409  1.00  0.00    -0.000 C 
BRANCH  23  24
ATOM     24  C   UNL     1      -1.437  10.452 -13.062  1.00  0.00    -0.000 C 
BRANCH  24  25
ATOM     25  C   UNL     1      -2.954  10.709 -13.125  1.00  0.00    -0.000 C 
BRANCH  25  26
ATOM     26  C   UNL     1      -3.826   9.614 -12.480  1.00  0.00    -0.000 C 
BRANCH  26  27
ATOM     27  C   UNL     1      -5.228   9.452 -13.097  1.00  0.00    -0.000 C 
BRANCH  27  28
ATOM     28  C   UNL     1      -6.110  10.716 -13.065  1.00  0.00    -0.000 C 
BRANCH  28  29
ATOM     29  C   UNL     1      -7.438  10.563 -12.303  1.00  0.00    -0.003 C 
ATOM     30  C   UNL     1      -8.512   9.841 -13.117  1.00  0.00     0.004 C 
ENDBRANCH  28  29
ENDBRANCH  27  28
ENDBRANCH  26  27
ENDBRANCH  25  26
ENDBRANCH  24  25
ENDBRANCH  23  24
ENDBRANCH  22  23
ENDBRANCH  21  22
ENDBRANCH  20  21
ENDBRANCH  19  20
ENDBRANCH  18  19
ENDBRANCH  17  18
ENDBRANCH   1  17
TORSDOF 26
ENDMDL
MODEL 6
REMARK VINA RESULT:     0.713      3.019      4.635
REMARK INTER + INTRA:           3.494
REMARK INTER:                   3.466
REMARK INTRA:                   0.028
REMARK UNBOUND:                 1.698
REMARK SMILES CCCCCCCCCCCCCCCCCCCCCCCCCCCC(=O)[O-]
REMARK SMILES IDX 15 1 16 2 17 3 18 4 19 5 20 6 21 7 22 8 23 9 24 10 25 11
REMARK SMILES IDX 26 12 27 13 28 14 29 15 30 16 14 17 13 18 12 19 11 20 10 21
REMARK SMILES IDX 9 22 8 23 7 24 6 25 5 26 4 27 3 28 2 29 1 30
REMARK H PARENT
REMARK Flexibility Score: inf
ROOT
ATOM      1  C   UNL     1      -3.105   5.721  -6.033  1.00  0.00     0.000 C 
ENDROOT
BRANCH   1   2
ATOM      2  C   UNL     1      -3.203   5.183  -4.596  1.00  0.00     0.000 C 
BRANCH   2   3
ATOM      3  C   UNL     1      -1.866   4.629  -4.075  1.00  0.00     0.000 C 
BRANCH   3   4
ATOM      4  C   UNL     1      -0.875   5.743  -3.703  1.00  0.00     0.000 C 
BRANCH   4   5
ATOM      5  C   UNL     1      -1.472   7.153  -3.864  1.00  0.00     0.000 C 
BRANCH   5   6
ATOM      6  C   UNL     1      -0.900   8.152  -2.843  1.00  0.00     0.000 C 
BRANCH   6   7
ATOM      7  C   UNL     1      -1.781   8.283  -1.588  1.00  0.00     0.000 C 
BRANCH   7   8
ATOM      8  C   UNL     1      -1.209   7.500  -0.385  1.00  0.00     0.000 C 
BRANCH   8   9
ATOM      9  C   UNL     1      -1.107   8.331   0.907  1.00  0.00     0.000 C 
BRANCH   9  10
ATOM     10  C   UNL     1      -1.256   9.849   0.707  1.00  0.00     0.000 C 
BRANCH  10  11
ATOM     11  C   UNL     1      -2.646  10.366   1.116  1.00  0.00     0.000 C 
BRANCH  11  12
ATOM     12  C   UNL     1      -3.791   9.499   0.564  1.00  0.00     0.006 C 
BRANCH  12  13
ATOM     13  C   UNL     1      -4.756  10.252  -0.365  1.00  0.00     0.053 C 
BRANCH  13  14
ATOM     14  C   UNL     1      -4.372  10.125  -1.808  1.00  0.00     0.041 C 
ATOM     15  O   UNL     1      -3.568  10.946  -2.323  1.00  0.00    -0.550 OA
ATOM     16  O   UNL     1      -4.863   9.073  -2.572  1.00  0.00    -0.550 OA
ENDBRANCH  13  14
ENDBRANCH  12  13
ENDBRANCH  11  12
ENDBRANCH  10  11
ENDBRANCH   9  10
ENDBRANCH   8   9
ENDBRANCH   7   8
ENDBRANCH   6   7
ENDBRANCH   5   6
ENDBRANCH   4   5
ENDBRANCH   3   4
ENDBRANCH   2   3
ENDBRANCH   1   2
BRANCH   1  17
ATOM     17  C   UNL     1      -1.808   5.291  -6.737  1.00  0.00     0.000 C 
BRANCH  17  18
ATOM     18  C   UNL     1      -0.904   6.499  -7.019  1.00  0.00     0.000 C 
BRANCH  18  19
ATOM     19  C   UNL     1      -1.120   7.094  -8.420  1.00  0.00     0.000 C 
BRANCH  19  20
ATOM     20  C   UNL     1      -1.461   8.597  -8.454  1.00  0.00     0.000 C 
BRANCH  20  21
ATOM     21  C   UNL     1      -0.921   9.340  -9.694  1.00  0.00     0.000 C 
BRANCH  21  22
ATOM     22  C   UNL     1      -1.599   8.882 -11.000  1.00  0.00    -0.000 C 
BRANCH  22  23
ATOM     23  C   UNL     1      -0.986   9.532 -12.254  1.00  0.00    -0.000 C 
BRANCH  23  24
ATOM     24  C   UNL     1      -1.957  10.384 -13.095  1.00  0.00    -0.000 C 
BRANCH  24  25
ATOM     25  C   UNL     1      -3.414   9.885 -13.125  1.00  0.00    -0.000 C 
BRANCH  25  26
ATOM     26  C   UNL     1      -4.460  10.906 -12.637  1.00  0.00    -0.000 C 
BRANCH  26  27
ATOM     27  C   UNL     1      -5.927  10.501 -12.881  1.00  0.00    -0.000 C 
BRANCH  27  28
ATOM     28  C   UNL     1      -6.908  10.872 -11.751  1.00  0.00    -0.000 C 
BRANCH  28  29
ATOM     29  C   UNL     1      -8.392  10.626 -12.073  1.00  0.00    -0.003 C 
ATOM     30  C   UNL     1      -9.254  10.464 -10.820  1.00  0.00     0.004 C 
ENDBRANCH  28  29
ENDBRANCH  27  28
ENDBRANCH  26  27
ENDBRANCH  25  26
ENDBRANCH  24  25
ENDBRANCH  23  24
ENDBRANCH  22  23
ENDBRANCH  21  22
ENDBRANCH  20  21
ENDBRANCH  19  20
ENDBRANCH  18  19
ENDBRANCH  17  18
ENDBRANCH   1  17
TORSDOF 26
ENDMDL
MODEL 7
REMARK VINA RESULT:     0.993      2.829      4.233
REMARK INTER + INTRA:           4.201
REMARK INTER:                   4.690
REMARK INTRA:                  -0.489
REMARK UNBOUND:                 1.698
REMARK SMILES CCCCCCCCCCCCCCCCCCCCCCCCCCCC(=O)[O-]
REMARK SMILES IDX 15 1 16 2 17 3 18 4 19 5 20 6 21 7 22 8 23 9 24 10 25 11
REMARK SMILES IDX 26 12 27 13 28 14 29 15 30 16 14 17 13 18 12 19 11 20 10 21
REMARK SMILES IDX 9 22 8 23 7 24 6 25 5 26 4 27 3 28 2 29 1 30
REMARK H PARENT
REMARK Flexibility Score: inf
ROOT
ATOM      1  C   UNL     1      -4.690   7.472  -2.077  1.00  0.00     0.000 C 
ENDROOT
BRANCH   1   2
ATOM      2  C   UNL     1      -5.670   8.208  -1.150  1.00  0.00     0.000 C 
BRANCH   2   3
ATOM      3  C   UNL     1      -5.010   9.367  -0.383  1.00  0.00     0.000 C 
BRANCH   3   4
ATOM      4  C   UNL     1      -3.941  10.089  -1.218  1.00  0.00     0.000 C 
BRANCH   4   5
ATOM      5  C   UNL     1      -2.511   9.629  -0.885  1.00  0.00     0.000 C 
BRANCH   5   6
ATOM      6  C   UNL     1      -2.243   9.599   0.630  1.00  0.00     0.000 C 
BRANCH   6   7
ATOM      7  C   UNL     1      -2.603  10.926   1.320  1.00  0.00     0.000 C 
BRANCH   7   8
ATOM      8  C   UNL     1      -2.006  11.031   2.741  1.00  0.00     0.000 C 
BRANCH   8   9
ATOM      9  C   UNL     1      -3.064  11.123   3.856  1.00  0.00     0.000 C 
BRANCH   9  10
ATOM     10  C   UNL     1      -4.521  11.108   3.362  1.00  0.00     0.000 C 
BRANCH  10  11
ATOM     11  C   UNL     1      -5.102   9.685   3.277  1.00  0.00     0.000 C 
BRANCH  11  12
ATOM     12  C   UNL     1      -6.589   9.625   3.666  1.00  0.00     0.006 C 
BRANCH  12  13
ATOM     13  C   UNL     1      -6.928   8.518   4.677  1.00  0.00     0.053 C 
BRANCH  13  14
ATOM     14  C   UNL     1      -8.169   7.766   4.303  1.00  0.00     0.041 C 
ATOM     15  O   UNL     1      -8.984   8.260   3.480  1.00  0.00    -0.550 OA
ATOM     16  O   UNL     1      -8.402   6.500   4.825  1.00  0.00    -0.550 OA
ENDBRANCH  13  14
ENDBRANCH  12  13
ENDBRANCH  11  12
ENDBRANCH  10  11
ENDBRANCH   9  10
ENDBRANCH   8   9
ENDBRANCH   7   8
ENDBRANCH   6   7
ENDBRANCH   5   6
ENDBRANCH   4   5
ENDBRANCH   3   4
ENDBRANCH   2   3
ENDBRANCH   1   2
BRANCH   1  17
ATOM     17  C   UNL     1      -4.756   7.976  -3.527  1.00  0.00     0.000 C 
BRANCH  17  18
ATOM     18  C   UNL     1      -3.516   8.809  -3.882  1.00  0.00     0.000 C 
BRANCH  18  19
ATOM     19  C   UNL     1      -2.205   8.018  -3.745  1.00  0.00     0.000 C 
BRANCH  19  20
ATOM     20  C   UNL     1      -1.039   8.515  -4.624  1.00  0.00     0.000 C 
BRANCH  20  21
ATOM     21  C   UNL     1      -1.475   9.078  -5.993  1.00  0.00     0.000 C 
BRANCH  21  22
ATOM     22  C   UNL     1      -1.208  10.589  -6.124  1.00  0.00    -0.000 C 
BRANCH  22  23
ATOM     23  C   UNL     1      -0.880  11.018  -7.566  1.00  0.00    -0.000 C 
BRANCH  23  24
ATOM     24  C   UNL     1      -2.028  10.848  -8.580  1.00  0.00    -0.000 C 
BRANCH  24  25
ATOM     25  C   UNL     1      -1.603  10.838 -10.061  1.00  0.00    -0.000 C 
BRANCH  25  26
ATOM     26  C   UNL     1      -1.493   9.438 -10.696  1.00  0.00    -0.000 C 
BRANCH  26  27
ATOM     27  C   UNL     1      -2.134   9.305 -12.091  1.00  0.00    -0.000 C 
BRANCH  27  28
ATOM     28  C   UNL     1      -1.557   8.181 -12.974  1.00  0.00    -0.000 C 
BRANCH  28  29
ATOM     29  C   UNL     1      -2.460   6.945 -13.125  1.00  0.00    -0.003 C 
ATOM     30  C   UNL     1      -3.645   6.952 -12.158  1.00  0.00     0.004 C 
ENDBRANCH  28  29
ENDBRANCH  27  28
ENDBRANCH  26  27
ENDBRANCH  25  26
ENDBRANCH  24  25
ENDBRANCH  23  24
ENDBRANCH  22  23
ENDBRANCH  21  22
ENDBRANCH  20  21
ENDBRANCH  19  20
ENDBRANCH  18  19
ENDBRANCH  17  18
ENDBRANCH   1  17
TORSDOF 26
ENDMDL
