MODEL 1
REMARK VINA RESULT:    -7.761      0.000      0.000
REMARK INTER + INTRA:         -10.413
REMARK INTER:                 -11.391
REMARK INTRA:                   0.978
REMARK UNBOUND:                 0.978
REMARK SMILES Cc1cc2c(C(C)C)c(O)c(O)c(C=O)c2c(O)c1-c1c(C)cc2c(C(C)C)c(O)c(O)c(C=O)c2c1O
REMARK SMILES IDX 1 1 2 2 3 3 4 4 16 5 13 6 11 7 9 8 5 9 17 10 19 11 20 12
REMARK SMILES IDX 37 13 21 14 36 15 23 16 22 17 24 18 33 19 25 20 31 21 29 22
REMARK SMILES IDX 38 23 34 25 35 26 26 27 27 28 28 29 32 30 30 32 18 34 6 36
REMARK SMILES IDX 7 37 8 38 14 39 15 40 10 41 12 43
REMARK H PARENT 38 24 32 31 30 33 18 35 10 42 12 44
REMARK Flexibility Score: inf
ROOT
ATOM      1  C   UNL     1       0.566 -23.284  14.442  1.00  0.00     0.045 C 
ATOM      2  C   UNL     1       0.242 -23.286  15.916  1.00  0.00    -0.039 A 
ATOM      3  C   UNL     1       0.485 -24.436  16.667  1.00  0.00     0.013 A 
ATOM      4  C   UNL     1       0.242 -24.485  18.058  1.00  0.00    -0.006 A 
ATOM      5  C   UNL     1      -0.359 -23.352  18.689  1.00  0.00     0.039 A 
ATOM      6  C   UNL     1      -0.646 -23.412  20.085  1.00  0.00     0.072 A 
ATOM      7  C   UNL     1      -0.512 -24.633  20.774  1.00  0.00     0.169 A 
ATOM      8  C   UNL     1       0.040 -25.749  20.136  1.00  0.00     0.162 A 
ATOM      9  C   UNL     1       0.547 -25.654  18.823  1.00  0.00     0.008 A 
ATOM     10  C   UNL     1      -0.705 -22.219  17.893  1.00  0.00     0.132 A 
ATOM     11  C   UNL     1      -0.355 -22.171  16.527  1.00  0.00     0.031 A 
ENDROOT
BRANCH  11  12
ATOM     12  C   UNL     1      -0.647 -20.958  15.719  1.00  0.00     0.031 A 
ATOM     13  C   UNL     1       0.404 -20.123  15.288  1.00  0.00     0.132 A 
ATOM     14  C   UNL     1      -1.973 -20.662  15.360  1.00  0.00    -0.039 A 
ATOM     15  C   UNL     1       0.123 -18.914  14.589  1.00  0.00     0.039 A 
ATOM     16  C   UNL     1      -2.237 -19.544  14.567  1.00  0.00     0.013 A 
ATOM     17  C   UNL     1      -3.108 -21.574  15.754  1.00  0.00     0.045 C 
ATOM     18  C   UNL     1      -1.221 -18.634  14.196  1.00  0.00    -0.006 A 
ATOM     19  C   UNL     1       1.151 -18.001  14.219  1.00  0.00     0.072 A 
ATOM     20  C   UNL     1      -1.508 -17.480  13.404  1.00  0.00     0.008 A 
ATOM     21  C   UNL     1       0.882 -16.981  13.294  1.00  0.00     0.169 A 
ATOM     22  C   UNL     1      -0.429 -16.773  12.827  1.00  0.00     0.162 A 
BRANCH  13  23
ATOM     23  O   UNL     1       1.729 -20.520  15.501  1.00  0.00    -0.507 OA
ATOM     24  H   UNL     1       2.043 -21.010  16.330  1.00  0.00     0.293 HD
ENDBRANCH  13  23
BRANCH  19  25
ATOM     25  C   UNL     1       2.500 -18.013  14.829  1.00  0.00     0.264 C 
ATOM     26  O   UNL     1       3.528 -18.152  14.115  1.00  0.00    -0.298 OA
ENDBRANCH  19  25
BRANCH  20  27
ATOM     27  C   UNL     1      -2.952 -17.026  13.125  1.00  0.00     0.017 C 
ATOM     28  C   UNL     1      -3.370 -15.904  14.080  1.00  0.00     0.012 C 
ATOM     29  C   UNL     1      -3.976 -18.177  13.130  1.00  0.00     0.012 C 
ENDBRANCH  20  27
BRANCH  21  30
ATOM     30  O   UNL     1       1.935 -16.151  12.889  1.00  0.00    -0.504 OA
ATOM     31  H   UNL     1       1.816 -15.318  12.329  1.00  0.00     0.293 HD
ENDBRANCH  21  30
BRANCH  22  32
ATOM     32  O   UNL     1      -0.679 -15.875  11.787  1.00  0.00    -0.504 OA
ATOM     33  H   UNL     1      -1.475 -15.935  11.167  1.00  0.00     0.293 HD
ENDBRANCH  22  32
ENDBRANCH  11  12
BRANCH  10  34
ATOM     34  O   UNL     1      -1.439 -21.164  18.447  1.00  0.00    -0.507 OA
ATOM     35  H   UNL     1      -1.140 -20.630  19.253  1.00  0.00     0.293 HD
ENDBRANCH  10  34
BRANCH   9  36
ATOM     36  C   UNL     1       1.375 -26.813  18.239  1.00  0.00     0.017 C 
ATOM     37  C   UNL     1       1.265 -28.059  19.122  1.00  0.00     0.012 C 
ATOM     38  C   UNL     1       2.846 -26.452  17.960  1.00  0.00     0.012 C 
ENDBRANCH   9  36
BRANCH   6  39
ATOM     39  C   UNL     1      -1.030 -22.215  20.864  1.00  0.00     0.264 C 
ATOM     40  O   UNL     1      -2.241 -21.990  21.125  1.00  0.00    -0.298 OA
ENDBRANCH   6  39
BRANCH   8  41
ATOM     41  O   UNL     1       0.096 -26.967  20.818  1.00  0.00    -0.504 OA
ATOM     42  H   UNL     1       0.905 -27.578  20.792  1.00  0.00     0.293 HD
ENDBRANCH   8  41
BRANCH   7  43
ATOM     43  O   UNL     1      -0.890 -24.763  22.116  1.00  0.00    -0.504 OA
ATOM     44  H   UNL     1      -0.535 -24.185  22.865  1.00  0.00     0.293 HD
ENDBRANCH   7  43
TORSDOF 11
ENDMDL
MODEL 2
REMARK VINA RESULT:    -7.588      1.139      1.541
REMARK INTER + INTRA:         -10.159
REMARK INTER:                 -10.870
REMARK INTRA:                   0.711
REMARK UNBOUND:                 0.978
REMARK SMILES Cc1cc2c(C(C)C)c(O)c(O)c(C=O)c2c(O)c1-c1c(C)cc2c(C(C)C)c(O)c(O)c(C=O)c2c1O
REMARK SMILES IDX 1 1 2 2 3 3 4 4 16 5 13 6 11 7 9 8 5 9 17 10 19 11 20 12
REMARK SMILES IDX 37 13 21 14 36 15 23 16 22 17 24 18 33 19 25 20 31 21 29 22
REMARK SMILES IDX 38 23 34 25 35 26 26 27 27 28 28 29 32 30 30 32 18 34 6 36
REMARK SMILES IDX 7 37 8 38 14 39 15 40 10 41 12 43
REMARK H PARENT 38 24 32 31 30 33 18 35 10 42 12 44
REMARK Flexibility Score: inf
ROOT
ATOM      1  C   UNL     1       1.309 -23.447  15.034  1.00  0.00     0.045 C 
ATOM      2  C   UNL     1       0.643 -23.392  16.387  1.00  0.00    -0.039 A 
ATOM      3  C   UNL     1       0.543 -24.557  17.148  1.00  0.00     0.013 A 
ATOM      4  C   UNL     1      -0.031 -24.560  18.438  1.00  0.00    -0.006 A 
ATOM      5  C   UNL     1      -0.610 -23.352  18.934  1.00  0.00     0.039 A 
ATOM      6  C   UNL     1      -1.229 -23.360  20.219  1.00  0.00     0.072 A 
ATOM      7  C   UNL     1      -1.428 -24.581  20.891  1.00  0.00     0.169 A 
ATOM      8  C   UNL     1      -0.892 -25.767  20.377  1.00  0.00     0.162 A 
ATOM      9  C   UNL     1      -0.077 -25.753  19.226  1.00  0.00     0.008 A 
ATOM     10  C   UNL     1      -0.601 -22.189  18.105  1.00  0.00     0.132 A 
ATOM     11  C   UNL     1       0.070 -22.202  16.864  1.00  0.00     0.031 A 
ENDROOT
BRANCH  11  12
ATOM     12  C   UNL     1       0.144 -20.968  16.039  1.00  0.00     0.031 A 
ATOM     13  C   UNL     1       1.329 -20.204  16.010  1.00  0.00     0.132 A 
ATOM     14  C   UNL     1      -0.960 -20.580  15.263  1.00  0.00    -0.039 A 
ATOM     15  C   UNL     1       1.377 -18.975  15.291  1.00  0.00     0.039 A 
ATOM     16  C   UNL     1      -0.871 -19.443  14.457  1.00  0.00     0.013 A 
ATOM     17  C   UNL     1      -2.216 -21.415  15.225  1.00  0.00     0.045 C 
ATOM     18  C   UNL     1       0.266 -18.602  14.477  1.00  0.00    -0.006 A 
ATOM     19  C   UNL     1       2.524 -18.132  15.314  1.00  0.00     0.072 A 
ATOM     20  C   UNL     1       0.336 -17.427  13.666  1.00  0.00     0.008 A 
ATOM     21  C   UNL     1       2.649 -17.092  14.381  1.00  0.00     0.169 A 
ATOM     22  C   UNL     1       1.588 -16.793  13.506  1.00  0.00     0.162 A 
BRANCH  13  23
ATOM     23  O   UNL     1       2.477 -20.691  16.647  1.00  0.00    -0.507 OA
ATOM     24  H   UNL     1       2.520 -20.917  17.632  1.00  0.00     0.293 HD
ENDBRANCH  13  23
BRANCH  19  25
ATOM     25  C   UNL     1       3.584 -18.239  16.343  1.00  0.00     0.264 C 
ATOM     26  O   UNL     1       4.645 -18.878  16.110  1.00  0.00    -0.298 OA
ENDBRANCH  19  25
BRANCH  20  27
ATOM     27  C   UNL     1      -0.897 -16.876  12.929  1.00  0.00     0.017 C 
ATOM     28  C   UNL     1      -0.500 -16.241  11.591  1.00  0.00     0.012 C 
ATOM     29  C   UNL     1      -1.747 -15.910  13.776  1.00  0.00     0.012 C 
ENDBRANCH  20  27
BRANCH  21  30
ATOM     30  O   UNL     1       3.826 -16.334  14.378  1.00  0.00    -0.504 OA
ATOM     31  H   UNL     1       4.272 -15.978  15.213  1.00  0.00     0.293 HD
ENDBRANCH  21  30
BRANCH  22  32
ATOM     32  O   UNL     1       1.761 -15.875  12.467  1.00  0.00    -0.504 OA
ATOM     33  H   UNL     1       2.463 -15.961  11.746  1.00  0.00     0.293 HD
ENDBRANCH  22  32
ENDBRANCH  11  12
BRANCH  10  34
ATOM     34  O   UNL     1      -1.299 -21.040  18.492  1.00  0.00    -0.507 OA
ATOM     35  H   UNL     1      -1.631 -20.871  19.433  1.00  0.00     0.293 HD
ENDBRANCH  10  34
BRANCH   9  36
ATOM     36  C   UNL     1       0.705 -27.019  18.830  1.00  0.00     0.017 C 
ATOM     37  C   UNL     1       0.719 -28.031  19.977  1.00  0.00     0.012 C 
ATOM     38  C   UNL     1       2.129 -26.738  18.313  1.00  0.00     0.012 C 
ENDBRANCH   9  36
BRANCH   6  39
ATOM     39  C   UNL     1      -1.626 -22.115  20.912  1.00  0.00     0.264 C 
ATOM     40  O   UNL     1      -2.843 -21.807  21.015  1.00  0.00    -0.298 OA
ENDBRANCH   6  39
BRANCH   8  41
ATOM     41  O   UNL     1      -1.164 -26.975  21.024  1.00  0.00    -0.504 OA
ATOM     42  H   UNL     1      -0.729 -27.243  21.899  1.00  0.00     0.293 HD
ENDBRANCH   8  41
BRANCH   7  43
ATOM     43  O   UNL     1      -2.131 -24.647  22.100  1.00  0.00    -0.504 OA
ATOM     44  H   UNL     1      -2.357 -23.843  22.670  1.00  0.00     0.293 HD
ENDBRANCH   7  43
TORSDOF 11
ENDMDL
MODEL 3
REMARK VINA RESULT:    -7.541      1.190      9.204
REMARK INTER + INTRA:         -10.089
REMARK INTER:                 -10.657
REMARK INTRA:                   0.567
REMARK UNBOUND:                 0.978
REMARK SMILES Cc1cc2c(C(C)C)c(O)c(O)c(C=O)c2c(O)c1-c1c(C)cc2c(C(C)C)c(O)c(O)c(C=O)c2c1O
REMARK SMILES IDX 1 1 2 2 3 3 4 4 16 5 13 6 11 7 9 8 5 9 17 10 19 11 20 12
REMARK SMILES IDX 37 13 21 14 36 15 23 16 22 17 24 18 33 19 25 20 31 21 29 22
REMARK SMILES IDX 38 23 34 25 35 26 26 27 27 28 28 29 32 30 30 32 18 34 6 36
REMARK SMILES IDX 7 37 8 38 14 39 15 40 10 41 12 43
REMARK H PARENT 38 24 32 31 30 33 18 35 10 42 12 44
REMARK Flexibility Score: inf
ROOT
ATOM      1  C   UNL     1      -2.155 -21.658  15.383  1.00  0.00     0.045 C 
ATOM      2  C   UNL     1      -0.919 -20.793  15.432  1.00  0.00    -0.039 A 
ATOM      3  C   UNL     1      -0.854 -19.647  14.639  1.00  0.00     0.013 A 
ATOM      4  C   UNL     1       0.257 -18.777  14.673  1.00  0.00    -0.006 A 
ATOM      5  C   UNL     1       1.385 -19.136  15.474  1.00  0.00     0.039 A 
ATOM      6  C   UNL     1       2.526 -18.281  15.480  1.00  0.00     0.072 A 
ATOM      7  C   UNL     1       2.604 -17.213  14.566  1.00  0.00     0.169 A 
ATOM      8  C   UNL     1       1.510 -16.894  13.756  1.00  0.00     0.162 A 
ATOM      9  C   UNL     1       0.284 -17.578  13.894  1.00  0.00     0.008 A 
ATOM     10  C   UNL     1       1.355 -20.365  16.200  1.00  0.00     0.132 A 
ATOM     11  C   UNL     1       0.188 -21.157  16.216  1.00  0.00     0.031 A 
ENDROOT
BRANCH  11  12
ATOM     12  C   UNL     1       0.134 -22.397  17.035  1.00  0.00     0.031 A 
ATOM     13  C   UNL     1      -0.604 -22.422  18.237  1.00  0.00     0.132 A 
ATOM     14  C   UNL     1       0.796 -23.554  16.592  1.00  0.00    -0.039 A 
ATOM     15  C   UNL     1      -0.588 -23.579  19.067  1.00  0.00     0.039 A 
ATOM     16  C   UNL     1       0.707 -24.727  17.343  1.00  0.00     0.013 A 
ATOM     17  C   UNL     1       1.537 -23.572  15.278  1.00  0.00     0.045 C 
ATOM     18  C   UNL     1       0.057 -24.763  18.598  1.00  0.00    -0.006 A 
ATOM     19  C   UNL     1      -1.244 -23.609  20.331  1.00  0.00     0.072 A 
ATOM     20  C   UNL     1      -0.006 -25.964  19.369  1.00  0.00     0.008 A 
ATOM     21  C   UNL     1      -1.452 -24.833  20.983  1.00  0.00     0.169 A 
ATOM     22  C   UNL     1      -0.902 -26.019  20.461  1.00  0.00     0.162 A 
BRANCH  13  23
ATOM     23  O   UNL     1      -1.399 -21.322  18.579  1.00  0.00    -0.507 OA
ATOM     24  H   UNL     1      -1.628 -20.572  17.938  1.00  0.00     0.293 HD
ENDBRANCH  13  23
BRANCH  19  25
ATOM     25  C   UNL     1      -1.658 -22.386  21.054  1.00  0.00     0.264 C 
ATOM     26  O   UNL     1      -2.876 -22.082  21.159  1.00  0.00    -0.298 OA
ENDBRANCH  19  25
BRANCH  20  27
ATOM     27  C   UNL     1       0.833 -27.204  19.010  1.00  0.00     0.017 C 
ATOM     28  C   UNL     1       1.001 -28.124  20.224  1.00  0.00     0.012 C 
ATOM     29  C   UNL     1       2.192 -26.869  18.368  1.00  0.00     0.012 C 
ENDBRANCH  20  27
BRANCH  21  30
ATOM     30  O   UNL     1      -2.173 -24.837  22.183  1.00  0.00    -0.504 OA
ATOM     31  H   UNL     1      -2.856 -24.135  22.436  1.00  0.00     0.293 HD
ENDBRANCH  21  30
BRANCH  22  32
ATOM     32  O   UNL     1      -1.240 -27.260  21.005  1.00  0.00    -0.504 OA
ATOM     33  H   UNL     1      -1.138 -27.496  21.982  1.00  0.00     0.293 HD
ENDBRANCH  22  32
ENDBRANCH  11  12
BRANCH  10  34
ATOM     34  O   UNL     1       2.501 -20.823  16.861  1.00  0.00    -0.507 OA
ATOM     35  H   UNL     1       3.415 -20.400  16.765  1.00  0.00     0.293 HD
ENDBRANCH  10  34
BRANCH   9  36
ATOM     36  C   UNL     1      -0.972 -17.045  13.180  1.00  0.00     0.017 C 
ATOM     37  C   UNL     1      -0.657 -16.674  11.729  1.00  0.00     0.012 C 
ATOM     38  C   UNL     1      -1.665 -15.884  13.917  1.00  0.00     0.012 C 
ENDBRANCH   9  36
BRANCH   6  39
ATOM     39  C   UNL     1       3.625 -18.437  16.458  1.00  0.00     0.264 C 
ATOM     40  O   UNL     1       4.669 -19.068  16.145  1.00  0.00    -0.298 OA
ENDBRANCH   6  39
BRANCH   8  41
ATOM     41  O   UNL     1       1.636 -15.875  12.807  1.00  0.00    -0.504 OA
ATOM     42  H   UNL     1       2.346 -15.154  12.863  1.00  0.00     0.293 HD
ENDBRANCH   8  41
BRANCH   7  43
ATOM     43  O   UNL     1       3.754 -16.420  14.460  1.00  0.00    -0.504 OA
ATOM     44  H   UNL     1       4.166 -16.131  13.583  1.00  0.00     0.293 HD
ENDBRANCH   7  43
TORSDOF 11
ENDMDL
MODEL 4
REMARK VINA RESULT:    -7.451      1.760      9.348
REMARK INTER + INTRA:          -9.957
REMARK INTER:                 -12.094
REMARK INTRA:                   2.136
REMARK UNBOUND:                 0.978
REMARK SMILES Cc1cc2c(C(C)C)c(O)c(O)c(C=O)c2c(O)c1-c1c(C)cc2c(C(C)C)c(O)c(O)c(C=O)c2c1O
REMARK SMILES IDX 1 1 2 2 3 3 4 4 16 5 13 6 11 7 9 8 5 9 17 10 19 11 20 12
REMARK SMILES IDX 37 13 21 14 36 15 23 16 22 17 24 18 33 19 25 20 31 21 29 22
REMARK SMILES IDX 38 23 34 25 35 26 26 27 27 28 28 29 32 30 30 32 18 34 6 36
REMARK SMILES IDX 7 37 8 38 14 39 15 40 10 41 12 43
REMARK H PARENT 38 24 32 31 30 33 18 35 10 42 12 44
REMARK Flexibility Score: inf
ROOT
ATOM      1  C   UNL     1      -1.721 -23.596  15.750  1.00  0.00     0.045 C 
ATOM      2  C   UNL     1      -0.903 -22.346  15.963  1.00  0.00    -0.039 A 
ATOM      3  C   UNL     1      -1.361 -21.134  15.445  1.00  0.00     0.013 A 
ATOM      4  C   UNL     1      -0.661 -19.923  15.646  1.00  0.00    -0.006 A 
ATOM      5  C   UNL     1       0.599 -19.964  16.320  1.00  0.00     0.039 A 
ATOM      6  C   UNL     1       1.329 -18.751  16.490  1.00  0.00     0.072 A 
ATOM      7  C   UNL     1       0.900 -17.579  15.836  1.00  0.00     0.169 A 
ATOM      8  C   UNL     1      -0.315 -17.560  15.144  1.00  0.00     0.162 A 
ATOM      9  C   UNL     1      -1.171 -18.682  15.154  1.00  0.00     0.008 A 
ATOM     10  C   UNL     1       1.112 -21.224  16.753  1.00  0.00     0.132 A 
ATOM     11  C   UNL     1       0.337 -22.395  16.619  1.00  0.00     0.031 A 
ENDROOT
BRANCH  11  12
ATOM     12  C   UNL     1       0.842 -23.692  17.141  1.00  0.00     0.031 A 
ATOM     13  C   UNL     1       0.133 -24.375  18.150  1.00  0.00     0.132 A 
ATOM     14  C   UNL     1       2.013 -24.252  16.603  1.00  0.00    -0.039 A 
ATOM     15  C   UNL     1       0.657 -25.574  18.714  1.00  0.00     0.039 A 
ATOM     16  C   UNL     1       2.460 -25.490  17.068  1.00  0.00     0.013 A 
ATOM     17  C   UNL     1       2.754 -23.573  15.478  1.00  0.00     0.045 C 
ATOM     18  C   UNL     1       1.828 -26.157  18.142  1.00  0.00    -0.006 A 
ATOM     19  C   UNL     1       0.017 -26.241  19.797  1.00  0.00     0.072 A 
ATOM     20  C   UNL     1       2.310 -27.413  18.625  1.00  0.00     0.008 A 
ATOM     21  C   UNL     1       0.391 -27.551  20.132  1.00  0.00     0.169 A 
ATOM     22  C   UNL     1       1.484 -28.163  19.492  1.00  0.00     0.162 A 
BRANCH  13  23
ATOM     23  O   UNL     1      -1.120 -23.898  18.554  1.00  0.00    -0.507 OA
ATOM     24  H   UNL     1      -1.252 -23.052  19.093  1.00  0.00     0.293 HD
ENDBRANCH  13  23
BRANCH  19  25
ATOM     25  C   UNL     1      -0.990 -25.589  20.664  1.00  0.00     0.264 C 
ATOM     26  O   UNL     1      -0.692 -24.572  21.345  1.00  0.00    -0.298 OA
ENDBRANCH  19  25
BRANCH  20  27
ATOM     27  C   UNL     1       3.670 -27.984  18.184  1.00  0.00     0.017 C 
ATOM     28  C   UNL     1       4.416 -28.603  19.371  1.00  0.00     0.012 C 
ATOM     29  C   UNL     1       4.554 -26.971  17.433  1.00  0.00     0.012 C 
ENDBRANCH  20  27
BRANCH  21  30
ATOM     30  O   UNL     1      -0.314 -28.208  21.148  1.00  0.00    -0.504 OA
ATOM     31  H   UNL     1      -0.924 -28.999  20.994  1.00  0.00     0.293 HD
ENDBRANCH  21  30
BRANCH  22  32
ATOM     32  O   UNL     1       1.761 -29.517  19.696  1.00  0.00    -0.504 OA
ATOM     33  H   UNL     1       1.834 -30.198  18.954  1.00  0.00     0.293 HD
ENDBRANCH  22  32
ENDBRANCH  11  12
BRANCH  10  34
ATOM     34  O   UNL     1       2.410 -21.318  17.267  1.00  0.00    -0.507 OA
ATOM     35  H   UNL     1       2.703 -20.899  18.141  1.00  0.00     0.293 HD
ENDBRANCH  10  34
BRANCH   9  36
ATOM     36  C   UNL     1      -2.605 -18.552  14.608  1.00  0.00     0.017 C 
ATOM     37  C   UNL     1      -2.612 -17.811  13.268  1.00  0.00     0.012 C 
ATOM     38  C   UNL     1      -3.598 -17.921  15.601  1.00  0.00     0.012 C 
ENDBRANCH   9  36
BRANCH   6  39
ATOM     39  C   UNL     1       2.505 -18.655  17.382  1.00  0.00     0.264 C 
ATOM     40  O   UNL     1       3.669 -18.699  16.904  1.00  0.00    -0.298 OA
ENDBRANCH   6  39
BRANCH   8  41
ATOM     41  O   UNL     1      -0.684 -16.408  14.444  1.00  0.00    -0.504 OA
ATOM     42  H   UNL     1      -1.550 -15.911  14.617  1.00  0.00     0.293 HD
ENDBRANCH   8  41
BRANCH   7  43
ATOM     43  O   UNL     1       1.649 -16.397  15.883  1.00  0.00    -0.504 OA
ATOM     44  H   UNL     1       2.645 -16.362  16.055  1.00  0.00     0.293 HD
ENDBRANCH   7  43
TORSDOF 11
ENDMDL
MODEL 5
REMARK VINA RESULT:    -7.431      1.619      9.189
REMARK INTER + INTRA:          -9.928
REMARK INTER:                 -10.035
REMARK INTRA:                   0.107
REMARK UNBOUND:                 0.978
REMARK SMILES Cc1cc2c(C(C)C)c(O)c(O)c(C=O)c2c(O)c1-c1c(C)cc2c(C(C)C)c(O)c(O)c(C=O)c2c1O
REMARK SMILES IDX 1 1 2 2 3 3 4 4 16 5 13 6 11 7 9 8 5 9 17 10 19 11 20 12
REMARK SMILES IDX 37 13 21 14 36 15 23 16 22 17 24 18 33 19 25 20 31 21 29 22
REMARK SMILES IDX 38 23 34 25 35 26 26 27 27 28 28 29 32 30 30 32 18 34 6 36
REMARK SMILES IDX 7 37 8 38 14 39 15 40 10 41 12 43
REMARK H PARENT 38 24 32 31 30 33 18 35 10 42 12 44
REMARK Flexibility Score: inf
ROOT
ATOM      1  C   UNL     1       3.242 -20.930  17.249  1.00  0.00     0.045 C 
ATOM      2  C   UNL     1       2.061 -20.504  16.411  1.00  0.00    -0.039 A 
ATOM      3  C   UNL     1       2.128 -19.312  15.690  1.00  0.00     0.013 A 
ATOM      4  C   UNL     1       1.072 -18.882  14.856  1.00  0.00    -0.006 A 
ATOM      5  C   UNL     1      -0.135 -19.647  14.830  1.00  0.00     0.039 A 
ATOM      6  C   UNL     1      -1.219 -19.195  14.022  1.00  0.00     0.072 A 
ATOM      7  C   UNL     1      -1.160 -17.923  13.420  1.00  0.00     0.169 A 
ATOM      8  C   UNL     1       0.012 -17.163  13.487  1.00  0.00     0.162 A 
ATOM      9  C   UNL     1       1.179 -17.685  14.082  1.00  0.00     0.008 A 
ATOM     10  C   UNL     1      -0.237 -20.808  15.654  1.00  0.00     0.132 A 
ATOM     11  C   UNL     1       0.876 -21.258  16.396  1.00  0.00     0.031 A 
ENDROOT
BRANCH  11  12
ATOM     12  C   UNL     1       0.790 -22.510  17.193  1.00  0.00     0.031 A 
ATOM     13  C   UNL     1      -0.129 -22.612  18.257  1.00  0.00     0.132 A 
ATOM     14  C   UNL     1       1.608 -23.603  16.863  1.00  0.00    -0.039 A 
ATOM     15  C   UNL     1      -0.155 -23.776  19.077  1.00  0.00     0.039 A 
ATOM     16  C   UNL     1       1.494 -24.791  17.588  1.00  0.00     0.013 A 
ATOM     17  C   UNL     1       2.553 -23.542  15.689  1.00  0.00     0.045 C 
ATOM     18  C   UNL     1       0.652 -24.898  18.719  1.00  0.00    -0.006 A 
ATOM     19  C   UNL     1      -1.004 -23.877  20.216  1.00  0.00     0.072 A 
ATOM     20  C   UNL     1       0.562 -26.112  19.467  1.00  0.00     0.008 A 
ATOM     21  C   UNL     1      -1.216 -25.125  20.823  1.00  0.00     0.169 A 
ATOM     22  C   UNL     1      -0.494 -26.254  20.396  1.00  0.00     0.162 A 
BRANCH  13  23
ATOM     23  O   UNL     1      -1.057 -21.584  18.466  1.00  0.00    -0.507 OA
ATOM     24  H   UNL     1      -1.800 -21.358  17.818  1.00  0.00     0.293 HD
ENDBRANCH  13  23
BRANCH  19  25
ATOM     25  C   UNL     1      -1.630 -22.702  20.864  1.00  0.00     0.264 C 
ATOM     26  O   UNL     1      -2.863 -22.478  20.737  1.00  0.00    -0.298 OA
ENDBRANCH  19  25
BRANCH  20  27
ATOM     27  C   UNL     1       1.546 -27.275  19.249  1.00  0.00     0.017 C 
ATOM     28  C   UNL     1       0.810 -28.540  18.796  1.00  0.00     0.012 C 
ATOM     29  C   UNL     1       2.452 -27.558  20.462  1.00  0.00     0.012 C 
ENDBRANCH  20  27
BRANCH  21  30
ATOM     30  O   UNL     1      -2.121 -25.204  21.889  1.00  0.00    -0.504 OA
ATOM     31  H   UNL     1      -1.878 -25.017  22.852  1.00  0.00     0.293 HD
ENDBRANCH  21  30
BRANCH  22  32
ATOM     32  O   UNL     1      -0.814 -27.526  20.876  1.00  0.00    -0.504 OA
ATOM     33  H   UNL     1      -1.722 -27.784  21.234  1.00  0.00     0.293 HD
ENDBRANCH  22  32
ENDBRANCH  11  12
BRANCH  10  34
ATOM     34  O   UNL     1      -1.456 -21.484  15.775  1.00  0.00    -0.507 OA
ATOM     35  H   UNL     1      -1.555 -22.399  16.195  1.00  0.00     0.293 HD
ENDBRANCH  10  34
BRANCH   9  36
ATOM     36  C   UNL     1       2.518 -16.941  13.917  1.00  0.00     0.017 C 
ATOM     37  C   UNL     1       2.741 -15.960  15.071  1.00  0.00     0.012 C 
ATOM     38  C   UNL     1       2.683 -16.247  12.552  1.00  0.00     0.012 C 
ENDBRANCH   9  36
BRANCH   6  39
ATOM     39  C   UNL     1      -2.399 -20.041  13.739  1.00  0.00     0.264 C 
ATOM     40  O   UNL     1      -3.515 -19.768  14.254  1.00  0.00    -0.298 OA
ENDBRANCH   6  39
BRANCH   8  41
ATOM     41  O   UNL     1       0.022 -15.875  12.944  1.00  0.00    -0.504 OA
ATOM     42  H   UNL     1       0.073 -15.038  13.511  1.00  0.00     0.293 HD
ENDBRANCH   8  41
BRANCH   7  43
ATOM     43  O   UNL     1      -2.248 -17.394  12.714  1.00  0.00    -0.504 OA
ATOM     44  H   UNL     1      -2.843 -16.654  13.060  1.00  0.00     0.293 HD
ENDBRANCH   7  43
TORSDOF 11
ENDMDL
MODEL 6
REMARK VINA RESULT:    -7.385      1.813      8.836
REMARK INTER + INTRA:          -9.860
REMARK INTER:                 -10.879
REMARK INTRA:                   1.019
REMARK UNBOUND:                 0.978
REMARK SMILES Cc1cc2c(C(C)C)c(O)c(O)c(C=O)c2c(O)c1-c1c(C)cc2c(C(C)C)c(O)c(O)c(C=O)c2c1O
REMARK SMILES IDX 1 1 2 2 3 3 4 4 16 5 13 6 11 7 9 8 5 9 17 10 19 11 20 12
REMARK SMILES IDX 37 13 21 14 36 15 23 16 22 17 24 18 33 19 25 20 31 21 29 22
REMARK SMILES IDX 38 23 34 25 35 26 26 27 27 28 28 29 32 30 30 32 18 34 6 36
REMARK SMILES IDX 7 37 8 38 14 39 15 40 10 41 12 43
REMARK H PARENT 38 24 32 31 30 33 18 35 10 42 12 44
REMARK Flexibility Score: inf
ROOT
ATOM      1  C   UNL     1      -2.668 -20.179  14.980  1.00  0.00     0.045 C 
ATOM      2  C   UNL     1      -1.343 -19.456  14.995  1.00  0.00    -0.039 A 
ATOM      3  C   UNL     1      -0.999 -18.636  13.921  1.00  0.00     0.013 A 
ATOM      4  C   UNL     1       0.208 -17.902  13.897  1.00  0.00    -0.006 A 
ATOM      5  C   UNL     1       1.141 -18.083  14.963  1.00  0.00     0.039 A 
ATOM      6  C   UNL     1       2.379 -17.376  14.924  1.00  0.00     0.072 A 
ATOM      7  C   UNL     1       2.743 -16.669  13.762  1.00  0.00     0.169 A 
ATOM      8  C   UNL     1       1.837 -16.532  12.704  1.00  0.00     0.162 A 
ATOM      9  C   UNL     1       0.520 -17.025  12.812  1.00  0.00     0.008 A 
ATOM     10  C   UNL     1       0.830 -19.007  16.006  1.00  0.00     0.132 A 
ATOM     11  C   UNL     1      -0.428 -19.645  16.044  1.00  0.00     0.031 A 
ENDROOT
BRANCH  11  12
ATOM     12  C   UNL     1      -0.778 -20.547  17.172  1.00  0.00     0.031 A 
ATOM     13  C   UNL     1      -0.160 -21.809  17.290  1.00  0.00     0.132 A 
ATOM     14  C   UNL     1      -1.706 -20.126  18.139  1.00  0.00    -0.039 A 
ATOM     15  C   UNL     1      -0.555 -22.711  18.320  1.00  0.00     0.039 A 
ATOM     16  C   UNL     1      -2.000 -20.959  19.220  1.00  0.00     0.013 A 
ATOM     17  C   UNL     1      -2.332 -18.755  18.072  1.00  0.00     0.045 C 
ATOM     18  C   UNL     1      -1.472 -22.267  19.319  1.00  0.00    -0.006 A 
ATOM     19  C   UNL     1      -0.020 -24.027  18.414  1.00  0.00     0.072 A 
ATOM     20  C   UNL     1      -1.800 -23.120  20.418  1.00  0.00     0.008 A 
ATOM     21  C   UNL     1      -0.207 -24.777  19.586  1.00  0.00     0.169 A 
ATOM     22  C   UNL     1      -1.030 -24.288  20.617  1.00  0.00     0.162 A 
BRANCH  13  23
ATOM     23  O   UNL     1       0.886 -22.146  16.423  1.00  0.00    -0.507 OA
ATOM     24  H   UNL     1       1.583 -21.487  16.101  1.00  0.00     0.293 HD
ENDBRANCH  13  23
BRANCH  19  25
ATOM     25  C   UNL     1       0.670 -24.701  17.291  1.00  0.00     0.264 C 
ATOM     26  O   UNL     1       1.926 -24.804  17.276  1.00  0.00    -0.298 OA
ENDBRANCH  19  25
BRANCH  20  27
ATOM     27  C   UNL     1      -2.926 -22.772  21.408  1.00  0.00     0.017 C 
ATOM     28  C   UNL     1      -3.901 -23.943  21.566  1.00  0.00     0.012 C 
ATOM     29  C   UNL     1      -3.669 -21.466  21.069  1.00  0.00     0.012 C 
ENDBRANCH  20  27
BRANCH  21  30
ATOM     30  O   UNL     1       0.401 -26.034  19.679  1.00  0.00    -0.504 OA
ATOM     31  H   UNL     1      -0.063 -26.864  20.023  1.00  0.00     0.293 HD
ENDBRANCH  21  30
BRANCH  22  32
ATOM     32  O   UNL     1      -1.091 -24.943  21.850  1.00  0.00    -0.504 OA
ATOM     33  H   UNL     1      -0.294 -25.361  22.308  1.00  0.00     0.293 HD
ENDBRANCH  22  32
ENDBRANCH  11  12
BRANCH  10  34
ATOM     34  O   UNL     1       1.787 -19.327  16.975  1.00  0.00    -0.507 OA
ATOM     35  H   UNL     1       2.323 -18.639  17.490  1.00  0.00     0.293 HD
ENDBRANCH  10  34
BRANCH   9  36
ATOM     36  C   UNL     1      -0.528 -16.640  11.751  1.00  0.00     0.017 C 
ATOM     37  C   UNL     1       0.123 -15.875  10.596  1.00  0.00     0.012 C 
ATOM     38  C   UNL     1      -1.739 -15.875  12.317  1.00  0.00     0.012 C 
ENDBRANCH   9  36
BRANCH   6  39
ATOM     39  C   UNL     1       3.287 -17.307  16.089  1.00  0.00     0.264 C 
ATOM     40  O   UNL     1       4.354 -17.974  16.103  1.00  0.00    -0.298 OA
ENDBRANCH   6  39
BRANCH   8  41
ATOM     41  O   UNL     1       2.247 -15.887  11.534  1.00  0.00    -0.504 OA
ATOM     42  H   UNL     1       3.188 -15.537  11.397  1.00  0.00     0.293 HD
ENDBRANCH   8  41
BRANCH   7  43
ATOM     43  O   UNL     1       3.996 -16.057  13.637  1.00  0.00    -0.504 OA
ATOM     44  H   UNL     1       4.198 -15.111  13.932  1.00  0.00     0.293 HD
ENDBRANCH   7  43
TORSDOF 11
ENDMDL
MODEL 7
REMARK VINA RESULT:    -7.329      2.740      4.332
REMARK INTER + INTRA:          -9.778
REMARK INTER:                  -9.391
REMARK INTRA:                  -0.387
REMARK UNBOUND:                 0.978
REMARK SMILES Cc1cc2c(C(C)C)c(O)c(O)c(C=O)c2c(O)c1-c1c(C)cc2c(C(C)C)c(O)c(O)c(C=O)c2c1O
REMARK SMILES IDX 1 1 2 2 3 3 4 4 16 5 13 6 11 7 9 8 5 9 17 10 19 11 20 12
REMARK SMILES IDX 37 13 21 14 36 15 23 16 22 17 24 18 33 19 25 20 31 21 29 22
REMARK SMILES IDX 38 23 34 25 35 26 26 27 27 28 28 29 32 30 30 32 18 34 6 36
REMARK SMILES IDX 7 37 8 38 14 39 15 40 10 41 12 43
REMARK H PARENT 38 24 32 31 30 33 18 35 10 42 12 44
REMARK Flexibility Score: inf
ROOT
ATOM      1  C   UNL     1       3.954 -25.185  16.306  1.00  0.00     0.045 C 
ATOM      2  C   UNL     1       2.872 -25.645  17.252  1.00  0.00    -0.039 A 
ATOM      3  C   UNL     1       3.040 -26.838  17.956  1.00  0.00     0.013 A 
ATOM      4  C   UNL     1       2.082 -27.299  18.886  1.00  0.00    -0.006 A 
ATOM      5  C   UNL     1       0.864 -26.566  19.035  1.00  0.00     0.039 A 
ATOM      6  C   UNL     1      -0.125 -27.049  19.942  1.00  0.00     0.072 A 
ATOM      7  C   UNL     1       0.026 -28.322  20.526  1.00  0.00     0.169 A 
ATOM      8  C   UNL     1       1.205 -29.050  20.341  1.00  0.00     0.162 A 
ATOM      9  C   UNL     1       2.295 -28.496  19.638  1.00  0.00     0.008 A 
ATOM     10  C   UNL     1       0.652 -25.405  18.232  1.00  0.00     0.132 A 
ATOM     11  C   UNL     1       1.675 -24.923  17.388  1.00  0.00     0.031 A 
ENDROOT
BRANCH  11  12
ATOM     12  C   UNL     1       1.479 -23.671  16.612  1.00  0.00     0.031 A 
ATOM     13  C   UNL     1       1.025 -23.726  15.278  1.00  0.00     0.132 A 
ATOM     14  C   UNL     1       1.720 -22.428  17.221  1.00  0.00    -0.039 A 
ATOM     15  C   UNL     1       0.919 -22.535  14.503  1.00  0.00     0.039 A 
ATOM     16  C   UNL     1       1.494 -21.253  16.501  1.00  0.00     0.013 A 
ATOM     17  C   UNL     1       2.143 -22.339  18.666  1.00  0.00     0.045 C 
ATOM     18  C   UNL     1       1.131 -21.273  15.135  1.00  0.00    -0.006 A 
ATOM     19  C   UNL     1       0.553 -22.561  13.127  1.00  0.00     0.072 A 
ATOM     20  C   UNL     1       0.927 -20.063  14.402  1.00  0.00     0.008 A 
ATOM     21  C   UNL     1       0.181 -21.374  12.479  1.00  0.00     0.169 A 
ATOM     22  C   UNL     1       0.292 -20.138  13.141  1.00  0.00     0.162 A 
BRANCH  13  23
ATOM     23  O   UNL     1       0.623 -24.954  14.739  1.00  0.00    -0.507 OA
ATOM     24  H   UNL     1       0.509 -25.798  15.286  1.00  0.00     0.293 HD
ENDBRANCH  13  23
BRANCH  19  25
ATOM     25  C   UNL     1       0.621 -23.785  12.296  1.00  0.00     0.264 C 
ATOM     26  O   UNL     1       1.183 -23.767  11.169  1.00  0.00    -0.298 OA
ENDBRANCH  19  25
BRANCH  20  27
ATOM     27  C   UNL     1       1.330 -18.692  14.971  1.00  0.00     0.017 C 
ATOM     28  C   UNL     1       2.851 -18.591  15.135  1.00  0.00     0.012 C 
ATOM     29  C   UNL     1       0.600 -18.322  16.276  1.00  0.00     0.012 C 
ENDBRANCH  20  27
BRANCH  21  30
ATOM     30  O   UNL     1      -0.253 -21.447  11.149  1.00  0.00    -0.504 OA
ATOM     31  H   UNL     1       0.369 -21.504  10.353  1.00  0.00     0.293 HD
ENDBRANCH  21  30
BRANCH  22  32
ATOM     32  O   UNL     1      -0.229 -18.975  12.570  1.00  0.00    -0.504 OA
ATOM     33  H   UNL     1      -1.200 -18.854  12.317  1.00  0.00     0.293 HD
ENDBRANCH  22  32
ENDBRANCH  11  12
BRANCH  10  34
ATOM     34  O   UNL     1      -0.591 -24.761  18.236  1.00  0.00    -0.507 OA
ATOM     35  H   UNL     1      -0.953 -24.229  17.455  1.00  0.00     0.293 HD
ENDBRANCH  10  34
BRANCH   9  36
ATOM     36  C   UNL     1       3.662 -29.204  19.666  1.00  0.00     0.017 C 
ATOM     37  C   UNL     1       4.401 -28.909  20.974  1.00  0.00     0.012 C 
ATOM     38  C   UNL     1       4.548 -28.904  18.442  1.00  0.00     0.012 C 
ENDBRANCH   9  36
BRANCH   6  39
ATOM     39  C   UNL     1      -1.292 -26.236  20.344  1.00  0.00     0.264 C 
ATOM     40  O   UNL     1      -1.132 -25.183  21.017  1.00  0.00    -0.298 OA
ENDBRANCH   6  39
BRANCH   8  41
ATOM     41  O   UNL     1       1.302 -30.340  20.872  1.00  0.00    -0.504 OA
ATOM     42  H   UNL     1       1.932 -31.042  20.504  1.00  0.00     0.293 HD
ENDBRANCH   8  41
BRANCH   7  43
ATOM     43  O   UNL     1      -0.974 -28.882  21.332  1.00  0.00    -0.504 OA
ATOM     44  H   UNL     1      -0.982 -28.835  22.341  1.00  0.00     0.293 HD
ENDBRANCH   7  43
TORSDOF 11
ENDMDL
MODEL 8
REMARK VINA RESULT:    -7.202      1.763      2.578
REMARK INTER + INTRA:          -9.591
REMARK INTER:                 -11.863
REMARK INTRA:                   2.271
REMARK UNBOUND:                 0.978
REMARK SMILES Cc1cc2c(C(C)C)c(O)c(O)c(C=O)c2c(O)c1-c1c(C)cc2c(C(C)C)c(O)c(O)c(C=O)c2c1O
REMARK SMILES IDX 1 1 2 2 3 3 4 4 16 5 13 6 11 7 9 8 5 9 17 10 19 11 20 12
REMARK SMILES IDX 37 13 21 14 36 15 23 16 22 17 24 18 33 19 25 20 31 21 29 22
REMARK SMILES IDX 38 23 34 25 35 26 26 27 27 28 28 29 32 30 30 32 18 34 6 36
REMARK SMILES IDX 7 37 8 38 14 39 15 40 10 41 12 43
REMARK H PARENT 38 24 32 31 30 33 18 35 10 42 12 44
REMARK Flexibility Score: inf
ROOT
ATOM      1  C   UNL     1       2.663 -23.649  15.409  1.00  0.00     0.045 C 
ATOM      2  C   UNL     1       1.967 -24.312  16.572  1.00  0.00    -0.039 A 
ATOM      3  C   UNL     1       2.428 -25.545  17.033  1.00  0.00     0.013 A 
ATOM      4  C   UNL     1       1.843 -26.194  18.143  1.00  0.00    -0.006 A 
ATOM      5  C   UNL     1       0.687 -25.611  18.748  1.00  0.00     0.039 A 
ATOM      6  C   UNL     1       0.069 -26.283  19.843  1.00  0.00     0.072 A 
ATOM      7  C   UNL     1       0.481 -27.585  20.186  1.00  0.00     0.169 A 
ATOM      8  C   UNL     1       1.589 -28.165  19.560  1.00  0.00     0.162 A 
ATOM      9  C   UNL     1       2.362 -27.432  18.635  1.00  0.00     0.008 A 
ATOM     10  C   UNL     1       0.156 -24.403  18.202  1.00  0.00     0.132 A 
ATOM     11  C   UNL     1       0.827 -23.735  17.156  1.00  0.00     0.031 A 
ENDROOT
BRANCH  11  12
ATOM     12  C   UNL     1       0.313 -22.438  16.643  1.00  0.00     0.031 A 
ATOM     13  C   UNL     1       1.100 -21.272  16.748  1.00  0.00     0.132 A 
ATOM     14  C   UNL     1      -0.947 -22.383  16.025  1.00  0.00    -0.039 A 
ATOM     15  C   UNL     1       0.578 -20.012  16.337  1.00  0.00     0.039 A 
ATOM     16  C   UNL     1      -1.407 -21.170  15.507  1.00  0.00     0.013 A 
ATOM     17  C   UNL     1      -1.779 -23.627  15.842  1.00  0.00     0.045 C 
ATOM     18  C   UNL     1      -0.688 -19.965  15.679  1.00  0.00    -0.006 A 
ATOM     19  C   UNL     1       1.306 -18.801  16.513  1.00  0.00     0.072 A 
ATOM     20  C   UNL     1      -1.181 -18.726  15.165  1.00  0.00     0.008 A 
ATOM     21  C   UNL     1       0.898 -17.636  15.847  1.00  0.00     0.169 A 
ATOM     22  C   UNL     1      -0.300 -17.622  15.110  1.00  0.00     0.162 A 
BRANCH  13  23
ATOM     23  O   UNL     1       2.419 -21.372  17.205  1.00  0.00    -0.507 OA
ATOM     24  H   UNL     1       2.930 -20.603  17.620  1.00  0.00     0.293 HD
ENDBRANCH  13  23
BRANCH  19  25
ATOM     25  C   UNL     1       2.450 -18.675  17.444  1.00  0.00     0.264 C 
ATOM     26  O   UNL     1       3.635 -18.725  17.018  1.00  0.00    -0.298 OA
ENDBRANCH  19  25
BRANCH  20  27
ATOM     27  C   UNL     1      -2.616 -18.583  14.629  1.00  0.00     0.017 C 
ATOM     28  C   UNL     1      -2.646 -17.725  13.360  1.00  0.00     0.012 C 
ATOM     29  C   UNL     1      -3.622 -18.069  15.676  1.00  0.00     0.012 C 
ENDBRANCH  20  27
BRANCH  21  30
ATOM     30  O   UNL     1       1.683 -16.483  15.975  1.00  0.00    -0.504 OA
ATOM     31  H   UNL     1       1.767 -15.948  16.829  1.00  0.00     0.293 HD
ENDBRANCH  21  30
BRANCH  22  32
ATOM     32  O   UNL     1      -0.631 -16.525  14.310  1.00  0.00    -0.504 OA
ATOM     33  H   UNL     1       0.003 -16.090  13.655  1.00  0.00     0.293 HD
ENDBRANCH  22  32
ENDBRANCH  11  12
BRANCH  10  34
ATOM     34  O   UNL     1      -1.063 -23.895  18.666  1.00  0.00    -0.507 OA
ATOM     35  H   UNL     1      -1.282 -22.908  18.714  1.00  0.00     0.293 HD
ENDBRANCH  10  34
BRANCH   9  36
ATOM     36  C   UNL     1       3.714 -27.994  18.156  1.00  0.00     0.017 C 
ATOM     37  C   UNL     1       4.476 -28.641  19.315  1.00  0.00     0.012 C 
ATOM     38  C   UNL     1       4.590 -26.967  17.414  1.00  0.00     0.012 C 
ENDBRANCH   9  36
BRANCH   6  39
ATOM     39  C   UNL     1      -0.966 -25.640  20.682  1.00  0.00     0.264 C 
ATOM     40  O   UNL     1      -0.679 -24.636  21.385  1.00  0.00    -0.298 OA
ENDBRANCH   6  39
BRANCH   8  41
ATOM     41  O   UNL     1       1.934 -29.484  19.867  1.00  0.00    -0.504 OA
ATOM     42  H   UNL     1       2.492 -30.066  19.253  1.00  0.00     0.293 HD
ENDBRANCH   8  41
BRANCH   7  43
ATOM     43  O   UNL     1      -0.175 -28.324  21.179  1.00  0.00    -0.504 OA
ATOM     44  H   UNL     1      -1.169 -28.276  21.359  1.00  0.00     0.293 HD
ENDBRANCH   7  43
TORSDOF 11
ENDMDL
MODEL 9
REMARK VINA RESULT:    -6.952      1.714      3.252
REMARK INTER + INTRA:          -9.225
REMARK INTER:                 -10.333
REMARK INTRA:                   1.108
REMARK UNBOUND:                 0.978
REMARK SMILES Cc1cc2c(C(C)C)c(O)c(O)c(C=O)c2c(O)c1-c1c(C)cc2c(C(C)C)c(O)c(O)c(C=O)c2c1O
REMARK SMILES IDX 1 1 2 2 3 3 4 4 16 5 13 6 11 7 9 8 5 9 17 10 19 11 20 12
REMARK SMILES IDX 37 13 21 14 36 15 23 16 22 17 24 18 33 19 25 20 31 21 29 22
REMARK SMILES IDX 38 23 34 25 35 26 26 27 27 28 28 29 32 30 30 32 18 34 6 36
REMARK SMILES IDX 7 37 8 38 14 39 15 40 10 41 12 43
REMARK H PARENT 38 24 32 31 30 33 18 35 10 42 12 44
REMARK Flexibility Score: inf
ROOT
ATOM      1  C   UNL     1      -2.016 -19.576  18.525  1.00  0.00     0.045 C 
ATOM      2  C   UNL     1      -1.326 -20.908  18.358  1.00  0.00    -0.039 A 
ATOM      3  C   UNL     1      -1.461 -21.877  19.353  1.00  0.00     0.013 A 
ATOM      4  C   UNL     1      -0.874 -23.156  19.234  1.00  0.00    -0.006 A 
ATOM      5  C   UNL     1      -0.041 -23.426  18.104  1.00  0.00     0.039 A 
ATOM      6  C   UNL     1       0.588 -24.701  18.000  1.00  0.00     0.072 A 
ATOM      7  C   UNL     1       0.536 -25.596  19.086  1.00  0.00     0.169 A 
ATOM      8  C   UNL     1      -0.249 -25.305  20.206  1.00  0.00     0.162 A 
ATOM      9  C   UNL     1      -1.066 -24.156  20.237  1.00  0.00     0.008 A 
ATOM     10  C   UNL     1       0.180 -22.392  17.145  1.00  0.00     0.132 A 
ATOM     11  C   UNL     1      -0.504 -21.162  17.249  1.00  0.00     0.031 A 
ENDROOT
BRANCH  11  12
ATOM     12  C   UNL     1      -0.331 -20.117  16.207  1.00  0.00     0.031 A 
ATOM     13  C   UNL     1       0.897 -19.433  16.084  1.00  0.00     0.132 A 
ATOM     14  C   UNL     1      -1.385 -19.832  15.323  1.00  0.00    -0.039 A 
ATOM     15  C   UNL     1       1.039 -18.372  15.144  1.00  0.00     0.039 A 
ATOM     16  C   UNL     1      -1.203 -18.879  14.319  1.00  0.00     0.013 A 
ATOM     17  C   UNL     1      -2.684 -20.595  15.391  1.00  0.00     0.045 C 
ATOM     18  C   UNL     1      -0.021 -18.109  14.226  1.00  0.00    -0.006 A 
ATOM     19  C   UNL     1       2.232 -17.599  15.056  1.00  0.00     0.072 A 
ATOM     20  C   UNL     1       0.144 -17.119  13.208  1.00  0.00     0.008 A 
ATOM     21  C   UNL     1       2.447 -16.767  13.947  1.00  0.00     0.169 A 
ATOM     22  C   UNL     1       1.435 -16.591  12.985  1.00  0.00     0.162 A 
BRANCH  13  23
ATOM     23  O   UNL     1       1.993 -19.844  16.852  1.00  0.00    -0.507 OA
ATOM     24  H   UNL     1       2.014 -19.812  17.863  1.00  0.00     0.293 HD
ENDBRANCH  13  23
BRANCH  19  25
ATOM     25  C   UNL     1       3.249 -17.557  16.132  1.00  0.00     0.264 C 
ATOM     26  O   UNL     1       4.292 -18.260  16.059  1.00  0.00    -0.298 OA
ENDBRANCH  19  25
BRANCH  20  27
ATOM     27  C   UNL     1      -1.030 -16.660  12.326  1.00  0.00     0.017 C 
ATOM     28  C   UNL     1      -0.529 -15.875  11.109  1.00  0.00     0.012 C 
ATOM     29  C   UNL     1      -2.113 -15.875  13.090  1.00  0.00     0.012 C 
ENDBRANCH  20  27
BRANCH  21  30
ATOM     30  O   UNL     1       3.665 -16.084  13.850  1.00  0.00    -0.504 OA
ATOM     31  H   UNL     1       4.505 -16.352  14.345  1.00  0.00     0.293 HD
ENDBRANCH  21  30
BRANCH  22  32
ATOM     32  O   UNL     1       1.695 -15.902  11.798  1.00  0.00    -0.504 OA
ATOM     33  H   UNL     1       2.185 -15.020  11.750  1.00  0.00     0.293 HD
ENDBRANCH  22  32
ENDBRANCH  11  12
BRANCH  10  34
ATOM     34  O   UNL     1       1.115 -22.569  16.119  1.00  0.00    -0.507 OA
ATOM     35  H   UNL     1       1.319 -23.462  15.688  1.00  0.00     0.293 HD
ENDBRANCH  10  34
BRANCH   9  36
ATOM     36  C   UNL     1      -2.108 -23.991  21.359  1.00  0.00     0.017 C 
ATOM     37  C   UNL     1      -3.051 -25.195  21.408  1.00  0.00     0.012 C 
ATOM     38  C   UNL     1      -2.893 -22.667  21.293  1.00  0.00     0.012 C 
ENDBRANCH   9  36
BRANCH   6  39
ATOM     39  C   UNL     1       1.255 -25.154  16.761  1.00  0.00     0.264 C 
ATOM     40  O   UNL     1       2.512 -25.155  16.680  1.00  0.00    -0.298 OA
ENDBRANCH   6  39
BRANCH   8  41
ATOM     41  O   UNL     1      -0.228 -26.175  21.300  1.00  0.00    -0.504 OA
ATOM     42  H   UNL     1       0.417 -26.071  22.075  1.00  0.00     0.293 HD
ENDBRANCH   8  41
BRANCH   7  43
ATOM     43  O   UNL     1       1.235 -26.810  19.070  1.00  0.00    -0.504 OA
ATOM     44  H   UNL     1       1.301 -27.438  19.860  1.00  0.00     0.293 HD
ENDBRANCH   7  43
TORSDOF 11
ENDMDL
