MODEL 1
REMARK VINA RESULT:    -4.414      0.000      0.000
REMARK INTER + INTRA:          -4.414
REMARK INTER:                  -4.414
REMARK INTRA:                   0.000
REMARK UNBOUND:                 0.000
REMARK SMILES CC1(C)O[C@]2(C)CC[C@H]1CC2
REMARK SMILES IDX 1 1 2 2 9 3 10 4 11 5 5 6 4 7 7 8 8 9 6 10 3 11
REMARK H PARENT
REMARK Flexibility Score: inf
ROOT
ATOM      1  C   UNL     1       2.588 -36.906  42.351  1.00  0.00     0.042 C 
ATOM      2  C   UNL     1       3.855 -36.277  42.969  1.00  0.00     0.066 C 
ATOM      3  C   UNL     1       3.506 -35.519  44.307  1.00  0.00     0.021 C 
ATOM      4  C   UNL     1       2.977 -36.553  45.331  1.00  0.00     0.009 C 
ATOM      5  C   UNL     1       3.980 -37.727  45.433  1.00  0.00     0.035 C 
ATOM      6  C   UNL     1       5.225 -37.436  44.546  1.00  0.00     0.066 C 
ATOM      7  O   UNL     1       4.814 -37.324  43.183  1.00  0.00    -0.369 OA
ATOM      8  C   UNL     1       5.864 -36.090  44.998  1.00  0.00     0.035 C 
ATOM      9  C   UNL     1       4.816 -34.955  44.906  1.00  0.00     0.009 C 
ATOM     10  C   UNL     1       6.242 -38.575  44.664  1.00  0.00     0.042 C 
ATOM     11  C   UNL     1       4.437 -35.300  41.924  1.00  0.00     0.042 C 
ENDROOT
TORSDOF 0
ENDMDL
MODEL 2
REMARK VINA RESULT:    -4.383      1.431      1.995
REMARK INTER + INTRA:          -4.383
REMARK INTER:                  -4.383
REMARK INTRA:                   0.000
REMARK UNBOUND:                 0.000
REMARK SMILES CC1(C)O[C@]2(C)CC[C@H]1CC2
REMARK SMILES IDX 1 1 2 2 9 3 10 4 11 5 5 6 4 7 7 8 8 9 6 10 3 11
REMARK H PARENT
REMARK Flexibility Score: inf
ROOT
ATOM      1  C   UNL     1       1.006 -38.128  43.255  1.00  0.00     0.042 C 
ATOM      2  C   UNL     1       2.469 -37.878  42.831  1.00  0.00     0.066 C 
ATOM      3  C   UNL     1       2.892 -36.390  43.137  1.00  0.00     0.021 C 
ATOM      4  C   UNL     1       2.828 -36.168  44.668  1.00  0.00     0.009 C 
ATOM      5  C   UNL     1       3.632 -37.285  45.377  1.00  0.00     0.035 C 
ATOM      6  C   UNL     1       4.310 -38.200  44.318  1.00  0.00     0.066 C 
ATOM      7  O   UNL     1       3.302 -38.822  43.520  1.00  0.00    -0.369 OA
ATOM      8  C   UNL     1       5.218 -37.328  43.403  1.00  0.00     0.035 C 
ATOM      9  C   UNL     1       4.377 -36.211  42.741  1.00  0.00     0.009 C 
ATOM     10  C   UNL     1       5.137 -39.290  45.007  1.00  0.00     0.042 C 
ATOM     11  C   UNL     1       2.564 -38.171  41.318  1.00  0.00     0.042 C 
ENDROOT
TORSDOF 0
ENDMDL
MODEL 3
REMARK VINA RESULT:    -4.364      1.017      3.302
REMARK INTER + INTRA:          -4.364
REMARK INTER:                  -4.364
REMARK INTRA:                   0.000
REMARK UNBOUND:                 0.000
REMARK SMILES CC1(C)O[C@]2(C)CC[C@H]1CC2
REMARK SMILES IDX 1 1 2 2 9 3 10 4 11 5 5 6 4 7 7 8 8 9 6 10 3 11
REMARK H PARENT
REMARK Flexibility Score: inf
ROOT
ATOM      1  C   UNL     1       6.811 -37.561  44.509  1.00  0.00     0.042 C 
ATOM      2  C   UNL     1       5.269 -37.591  44.454  1.00  0.00     0.066 C 
ATOM      3  C   UNL     1       4.655 -36.434  45.333  1.00  0.00     0.021 C 
ATOM      4  C   UNL     1       5.097 -35.077  44.731  1.00  0.00     0.009 C 
ATOM      5  C   UNL     1       4.764 -35.060  43.219  1.00  0.00     0.035 C 
ATOM      6  C   UNL     1       4.018 -36.368  42.828  1.00  0.00     0.066 C 
ATOM      7  O   UNL     1       4.869 -37.487  43.079  1.00  0.00    -0.369 OA
ATOM      8  C   UNL     1       2.734 -36.497  43.699  1.00  0.00     0.035 C 
ATOM      9  C   UNL     1       3.115 -36.480  45.199  1.00  0.00     0.009 C 
ATOM     10  C   UNL     1       3.652 -36.349  41.341  1.00  0.00     0.042 C 
ATOM     11  C   UNL     1       4.818 -38.972  44.981  1.00  0.00     0.042 C 
ENDROOT
TORSDOF 0
ENDMDL
MODEL 4
REMARK VINA RESULT:    -4.354      1.719      3.717
REMARK INTER + INTRA:          -4.354
REMARK INTER:                  -4.354
REMARK INTRA:                   0.000
REMARK UNBOUND:                 0.000
REMARK SMILES CC1(C)O[C@]2(C)CC[C@H]1CC2
REMARK SMILES IDX 1 1 2 2 9 3 10 4 11 5 5 6 4 7 7 8 8 9 6 10 3 11
REMARK H PARENT
REMARK Flexibility Score: inf
ROOT
ATOM      1  C   UNL     1       3.966 -37.773  45.690  1.00  0.00     0.042 C 
ATOM      2  C   UNL     1       3.395 -36.944  44.520  1.00  0.00     0.066 C 
ATOM      3  C   UNL     1       4.253 -37.158  43.214  1.00  0.00     0.021 C 
ATOM      4  C   UNL     1       4.150 -38.647  42.799  1.00  0.00     0.009 C 
ATOM      5  C   UNL     1       2.657 -39.052  42.730  1.00  0.00     0.035 C 
ATOM      6  C   UNL     1       1.760 -37.812  43.010  1.00  0.00     0.066 C 
ATOM      7  O   UNL     1       2.025 -37.328  44.327  1.00  0.00    -0.369 OA
ATOM      8  C   UNL     1       2.102 -36.698  41.978  1.00  0.00     0.035 C 
ATOM      9  C   UNL     1       3.607 -36.348  42.065  1.00  0.00     0.009 C 
ATOM     10  C   UNL     1       0.280 -38.193  42.912  1.00  0.00     0.042 C 
ATOM     11  C   UNL     1       3.421 -35.462  44.952  1.00  0.00     0.042 C 
ENDROOT
TORSDOF 0
ENDMDL
MODEL 5
REMARK VINA RESULT:    -4.272      1.278      2.969
REMARK INTER + INTRA:          -4.272
REMARK INTER:                  -4.272
REMARK INTRA:                   0.000
REMARK UNBOUND:                 0.000
REMARK SMILES CC1(C)O[C@]2(C)CC[C@H]1CC2
REMARK SMILES IDX 1 1 2 2 9 3 10 4 11 5 5 6 4 7 7 8 8 9 6 10 3 11
REMARK H PARENT
REMARK Flexibility Score: inf
ROOT
ATOM      1  C   UNL     1       5.167 -34.654  44.838  1.00  0.00     0.042 C 
ATOM      2  C   UNL     1       5.220 -36.161  44.507  1.00  0.00     0.066 C 
ATOM      3  C   UNL     1       4.280 -36.978  45.474  1.00  0.00     0.021 C 
ATOM      4  C   UNL     1       2.819 -36.520  45.239  1.00  0.00     0.009 C 
ATOM      5  C   UNL     1       2.501 -36.594  43.726  1.00  0.00     0.035 C 
ATOM      6  C   UNL     1       3.718 -37.188  42.960  1.00  0.00     0.066 C 
ATOM      7  O   UNL     1       4.846 -36.329  43.131  1.00  0.00    -0.369 OA
ATOM      8  C   UNL     1       4.051 -38.590  43.549  1.00  0.00     0.035 C 
ATOM      9  C   UNL     1       4.332 -38.468  45.065  1.00  0.00     0.009 C 
ATOM     10  C   UNL     1       3.405 -37.299  41.465  1.00  0.00     0.042 C 
ATOM     11  C   UNL     1       6.688 -36.613  44.664  1.00  0.00     0.042 C 
ENDROOT
TORSDOF 0
ENDMDL
MODEL 6
REMARK VINA RESULT:    -4.259      1.353      3.472
REMARK INTER + INTRA:          -4.259
REMARK INTER:                  -4.259
REMARK INTRA:                   0.000
REMARK UNBOUND:                 0.000
REMARK SMILES CC1(C)O[C@]2(C)CC[C@H]1CC2
REMARK SMILES IDX 1 1 2 2 9 3 10 4 11 5 5 6 4 7 7 8 8 9 6 10 3 11
REMARK H PARENT
REMARK Flexibility Score: inf
ROOT
ATOM      1  C   UNL     1       5.511 -38.634  42.978  1.00  0.00     0.042 C 
ATOM      2  C   UNL     1       4.407 -38.053  43.888  1.00  0.00     0.066 C 
ATOM      3  C   UNL     1       4.472 -36.477  43.907  1.00  0.00     0.021 C 
ATOM      4  C   UNL     1       4.189 -35.959  42.475  1.00  0.00     0.009 C 
ATOM      5  C   UNL     1       2.881 -36.600  41.952  1.00  0.00     0.035 C 
ATOM      6  C   UNL     1       2.240 -37.476  43.067  1.00  0.00     0.066 C 
ATOM      7  O   UNL     1       3.140 -38.529  43.412  1.00  0.00    -0.369 OA
ATOM      8  C   UNL     1       1.986 -36.590  44.322  1.00  0.00     0.035 C 
ATOM      9  C   UNL     1       3.315 -35.950  44.789  1.00  0.00     0.009 C 
ATOM     10  C   UNL     1       0.926 -38.089  42.573  1.00  0.00     0.042 C 
ATOM     11  C   UNL     1       4.633 -38.625  45.305  1.00  0.00     0.042 C 
ENDROOT
TORSDOF 0
ENDMDL
MODEL 7
REMARK VINA RESULT:    -4.200      1.252      2.369
REMARK INTER + INTRA:          -4.200
REMARK INTER:                  -4.200
REMARK INTRA:                   0.000
REMARK UNBOUND:                 0.000
REMARK SMILES CC1(C)O[C@]2(C)CC[C@H]1CC2
REMARK SMILES IDX 1 1 2 2 9 3 10 4 11 5 5 6 4 7 7 8 8 9 6 10 3 11
REMARK H PARENT
REMARK Flexibility Score: inf
ROOT
ATOM      1  C   UNL     1       6.349 -35.593  42.732  1.00  0.00     0.042 C 
ATOM      2  C   UNL     1       5.567 -35.884  44.030  1.00  0.00     0.066 C 
ATOM      3  C   UNL     1       4.020 -35.675  43.808  1.00  0.00     0.021 C 
ATOM      4  C   UNL     1       3.533 -36.701  42.755  1.00  0.00     0.009 C 
ATOM      5  C   UNL     1       3.995 -38.118  43.175  1.00  0.00     0.035 C 
ATOM      6  C   UNL     1       4.711 -38.052  44.555  1.00  0.00     0.066 C 
ATOM      7  O   UNL     1       5.870 -37.225  44.444  1.00  0.00    -0.369 OA
ATOM      8  C   UNL     1       3.739 -37.429  45.599  1.00  0.00     0.035 C 
ATOM      9  C   UNL     1       3.284 -36.029  45.122  1.00  0.00     0.009 C 
ATOM     10  C   UNL     1       5.143 -39.452  44.998  1.00  0.00     0.042 C 
ATOM     11  C   UNL     1       6.098 -34.918  45.112  1.00  0.00     0.042 C 
ENDROOT
TORSDOF 0
ENDMDL
MODEL 8
REMARK VINA RESULT:    -4.163      1.165      2.875
REMARK INTER + INTRA:          -4.163
REMARK INTER:                  -4.163
REMARK INTRA:                   0.000
REMARK UNBOUND:                 0.000
REMARK SMILES CC1(C)O[C@]2(C)CC[C@H]1CC2
REMARK SMILES IDX 1 1 2 2 9 3 10 4 11 5 5 6 4 7 7 8 8 9 6 10 3 11
REMARK H PARENT
REMARK Flexibility Score: inf
ROOT
ATOM      1  C   UNL     1       4.705 -38.823  45.276  1.00  0.00     0.042 C 
ATOM      2  C   UNL     1       4.894 -37.851  44.092  1.00  0.00     0.066 C 
ATOM      3  C   UNL     1       3.516 -37.568  43.378  1.00  0.00     0.021 C 
ATOM      4  C   UNL     1       2.577 -36.864  44.388  1.00  0.00     0.009 C 
ATOM      5  C   UNL     1       3.311 -35.647  45.000  1.00  0.00     0.035 C 
ATOM      6  C   UNL     1       4.707 -35.482  44.334  1.00  0.00     0.066 C 
ATOM      7  O   UNL     1       5.492 -36.646  44.594  1.00  0.00    -0.369 OA
ATOM      8  C   UNL     1       4.518 -35.327  42.797  1.00  0.00     0.035 C 
ATOM      9  C   UNL     1       3.756 -36.552  42.236  1.00  0.00     0.009 C 
ATOM     10  C   UNL     1       5.431 -34.260  44.907  1.00  0.00     0.042 C 
ATOM     11  C   UNL     1       5.890 -38.509  43.113  1.00  0.00     0.042 C 
ENDROOT
TORSDOF 0
ENDMDL
MODEL 9
REMARK VINA RESULT:    -4.098      1.751      3.310
REMARK INTER + INTRA:          -4.098
REMARK INTER:                  -4.098
REMARK INTRA:                   0.000
REMARK UNBOUND:                 0.000
REMARK SMILES CC1(C)O[C@]2(C)CC[C@H]1CC2
REMARK SMILES IDX 1 1 2 2 9 3 10 4 11 5 5 6 4 7 7 8 8 9 6 10 3 11
REMARK H PARENT
REMARK Flexibility Score: inf
ROOT
ATOM      1  C   UNL     1       4.695 -37.361  41.055  1.00  0.00     0.042 C 
ATOM      2  C   UNL     1       3.291 -37.176  41.667  1.00  0.00     0.066 C 
ATOM      3  C   UNL     1       2.744 -38.542  42.234  1.00  0.00     0.021 C 
ATOM      4  C   UNL     1       3.675 -39.003  43.383  1.00  0.00     0.009 C 
ATOM      5  C   UNL     1       3.845 -37.842  44.394  1.00  0.00     0.035 C 
ATOM      6  C   UNL     1       2.956 -36.638  43.970  1.00  0.00     0.066 C 
ATOM      7  O   UNL     1       3.378 -36.171  42.689  1.00  0.00    -0.369 OA
ATOM      8  C   UNL     1       1.475 -37.111  43.879  1.00  0.00     0.035 C 
ATOM      9  C   UNL     1       1.362 -38.287  42.880  1.00  0.00     0.009 C 
ATOM     10  C   UNL     1       3.088 -35.496  44.981  1.00  0.00     0.042 C 
ATOM     11  C   UNL     1       2.369 -36.643  40.548  1.00  0.00     0.042 C 
ENDROOT
TORSDOF 0
ENDMDL
