MODEL 1
REMARK VINA RESULT:    -3.900      0.000      0.000
REMARK INTER + INTRA:          -5.893
REMARK INTER:                  -5.610
REMARK INTRA:                  -0.283
REMARK UNBOUND:                -0.283
REMARK SMILES CCCCCCCCCO
REMARK SMILES IDX 6 1 5 2 4 3 3 4 2 5 1 6 7 7 8 8 9 9 10 10
REMARK H PARENT 10 11
REMARK Flexibility Score: inf
ROOT
ATOM      1  C   UNL     1      -1.619   3.165 -23.199  1.00  0.00     0.000 C 
ENDROOT
BRANCH   1   2
ATOM      2  C   UNL     1      -2.820   2.744 -22.334  1.00  0.00     0.000 C 
BRANCH   2   3
ATOM      3  C   UNL     1      -4.048   3.644 -22.556  1.00  0.00    -0.000 C 
BRANCH   3   4
ATOM      4  C   UNL     1      -5.349   3.023 -22.019  1.00  0.00    -0.000 C 
BRANCH   4   5
ATOM      5  C   UNL     1      -5.154   1.921 -20.962  1.00  0.00    -0.003 C 
ATOM      6  C   UNL     1      -5.016   2.470 -19.543  1.00  0.00     0.004 C 
ENDBRANCH   4   5
ENDBRANCH   3   4
ENDBRANCH   2   3
ENDBRANCH   1   2
BRANCH   1   7
ATOM      7  C   UNL     1      -1.884   4.465 -23.978  1.00  0.00     0.002 C 
BRANCH   7   8
ATOM      8  C   UNL     1      -0.596   5.119 -24.508  1.00  0.00     0.028 C 
BRANCH   8   9
ATOM      9  C   UNL     1      -0.324   6.510 -23.914  1.00  0.00     0.156 C 
BRANCH   9  10
ATOM     10  O   UNL     1      -0.619   6.543 -22.544  1.00  0.00    -0.396 OA
ATOM     11  H   UNL     1       0.004   5.909 -22.102  1.00  0.00     0.210 HD
ENDBRANCH   9  10
ENDBRANCH   8   9
ENDBRANCH   7   8
ENDBRANCH   1   7
TORSDOF 8
ENDMDL
MODEL 2
REMARK VINA RESULT:    -3.862      7.419      8.587
REMARK INTER + INTRA:          -5.838
REMARK INTER:                  -5.574
REMARK INTRA:                  -0.264
REMARK UNBOUND:                -0.283
REMARK SMILES CCCCCCCCCO
REMARK SMILES IDX 6 1 5 2 4 3 3 4 2 5 1 6 7 7 8 8 9 9 10 10
REMARK H PARENT 10 11
REMARK Flexibility Score: inf
ROOT
ATOM      1  C   UNL     1       2.378  -0.387 -22.076  1.00  0.00     0.000 C 
ENDROOT
BRANCH   1   2
ATOM      2  C   UNL     1       1.740  -1.733 -21.692  1.00  0.00     0.000 C 
BRANCH   2   3
ATOM      3  C   UNL     1       2.407  -2.924 -22.404  1.00  0.00    -0.000 C 
BRANCH   3   4
ATOM      4  C   UNL     1       3.679  -3.411 -21.689  1.00  0.00    -0.000 C 
BRANCH   4   5
ATOM      5  C   UNL     1       4.104  -4.851 -22.029  1.00  0.00    -0.003 C 
ATOM      6  C   UNL     1       4.812  -5.554 -20.873  1.00  0.00     0.004 C 
ENDBRANCH   4   5
ENDBRANCH   3   4
ENDBRANCH   2   3
ENDBRANCH   1   2
BRANCH   1   7
ATOM      7  C   UNL     1       2.010   0.052 -23.504  1.00  0.00     0.002 C 
BRANCH   7   8
ATOM      8  C   UNL     1       3.215   0.050 -24.460  1.00  0.00     0.028 C 
BRANCH   8   9
ATOM      9  C   UNL     1       3.483   1.415 -25.114  1.00  0.00     0.156 C 
BRANCH   9  10
ATOM     10  O   UNL     1       4.293   2.218 -24.298  1.00  0.00    -0.396 OA
ATOM     11  H   UNL     1       3.863   2.241 -23.403  1.00  0.00     0.210 HD
ENDBRANCH   9  10
ENDBRANCH   8   9
ENDBRANCH   7   8
ENDBRANCH   1   7
TORSDOF 8
ENDMDL
MODEL 3
REMARK VINA RESULT:    -3.815      8.038      9.904
REMARK INTER + INTRA:          -5.771
REMARK INTER:                  -5.546
REMARK INTRA:                  -0.225
REMARK UNBOUND:                -0.283
REMARK SMILES CCCCCCCCCO
REMARK SMILES IDX 6 1 5 2 4 3 3 4 2 5 1 6 7 7 8 8 9 9 10 10
REMARK H PARENT 10 11
REMARK Flexibility Score: inf
ROOT
ATOM      1  C   UNL     1       2.004  -2.230 -22.036  1.00  0.00     0.000 C 
ENDROOT
BRANCH   1   2
ATOM      2  C   UNL     1       2.543  -0.790 -22.001  1.00  0.00     0.000 C 
BRANCH   2   3
ATOM      3  C   UNL     1       2.071   0.044 -23.205  1.00  0.00    -0.000 C 
BRANCH   3   4
ATOM      4  C   UNL     1       3.066   0.016 -24.379  1.00  0.00    -0.000 C 
BRANCH   4   5
ATOM      5  C   UNL     1       3.330   1.381 -25.038  1.00  0.00    -0.003 C 
ATOM      6  C   UNL     1       4.708   1.951 -24.702  1.00  0.00     0.004 C 
ENDBRANCH   4   5
ENDBRANCH   3   4
ENDBRANCH   2   3
ENDBRANCH   1   2
BRANCH   1   7
ATOM      7  C   UNL     1       3.053  -3.237 -22.539  1.00  0.00     0.002 C 
BRANCH   7   8
ATOM      8  C   UNL     1       3.912  -3.824 -21.406  1.00  0.00     0.028 C 
BRANCH   8   9
ATOM      9  C   UNL     1       4.459  -5.227 -21.713  1.00  0.00     0.156 C 
BRANCH   9  10
ATOM     10  O   UNL     1       5.190  -5.735 -20.630  1.00  0.00    -0.396 OA
ATOM     11  H   UNL     1       6.036  -6.098 -21.001  1.00  0.00     0.210 HD
ENDBRANCH   9  10
ENDBRANCH   8   9
ENDBRANCH   7   8
ENDBRANCH   1   7
TORSDOF 8
ENDMDL
MODEL 4
REMARK VINA RESULT:    -3.783      1.199      1.953
REMARK INTER + INTRA:          -5.725
REMARK INTER:                  -5.569
REMARK INTRA:                  -0.156
REMARK UNBOUND:                -0.283
REMARK SMILES CCCCCCCCCO
REMARK SMILES IDX 6 1 5 2 4 3 3 4 2 5 1 6 7 7 8 8 9 9 10 10
REMARK H PARENT 10 11
REMARK Flexibility Score: inf
ROOT
ATOM      1  C   UNL     1      -3.224   3.667 -22.824  1.00  0.00     0.000 C 
ENDROOT
BRANCH   1   2
ATOM      2  C   UNL     1      -3.389   2.519 -21.815  1.00  0.00     0.000 C 
BRANCH   2   3
ATOM      3  C   UNL     1      -4.616   2.708 -20.905  1.00  0.00    -0.000 C 
BRANCH   3   4
ATOM      4  C   UNL     1      -5.882   2.032 -21.461  1.00  0.00    -0.000 C 
BRANCH   4   5
ATOM      5  C   UNL     1      -6.600   2.815 -22.575  1.00  0.00    -0.003 C 
ATOM      6  C   UNL     1      -7.683   1.998 -23.278  1.00  0.00     0.004 C 
ENDBRANCH   4   5
ENDBRANCH   3   4
ENDBRANCH   2   3
ENDBRANCH   1   2
BRANCH   1   7
ATOM      7  C   UNL     1      -1.761   3.858 -23.262  1.00  0.00     0.002 C 
BRANCH   7   8
ATOM      8  C   UNL     1      -1.590   4.967 -24.314  1.00  0.00     0.028 C 
BRANCH   8   9
ATOM      9  C   UNL     1      -0.501   5.991 -23.957  1.00  0.00     0.156 C 
BRANCH   9  10
ATOM     10  O   UNL     1      -0.631   6.427 -22.630  1.00  0.00    -0.396 OA
ATOM     11  H   UNL     1      -0.667   7.419 -22.658  1.00  0.00     0.210 HD
ENDBRANCH   9  10
ENDBRANCH   8   9
ENDBRANCH   7   8
ENDBRANCH   1   7
TORSDOF 8
ENDMDL
MODEL 5
REMARK VINA RESULT:    -3.764      1.068      2.047
REMARK INTER + INTRA:          -5.698
REMARK INTER:                  -5.306
REMARK INTRA:                  -0.392
REMARK UNBOUND:                -0.283
REMARK SMILES CCCCCCCCCO
REMARK SMILES IDX 6 1 5 2 4 3 3 4 2 5 1 6 7 7 8 8 9 9 10 10
REMARK H PARENT 10 11
REMARK Flexibility Score: inf
ROOT
ATOM      1  C   UNL     1      -4.532   4.130 -23.408  1.00  0.00     0.000 C 
ENDROOT
BRANCH   1   2
ATOM      2  C   UNL     1      -5.542   3.978 -22.258  1.00  0.00     0.000 C 
BRANCH   2   3
ATOM      3  C   UNL     1      -6.140   2.562 -22.184  1.00  0.00    -0.000 C 
BRANCH   3   4
ATOM      4  C   UNL     1      -5.624   1.758 -20.978  1.00  0.00    -0.000 C 
BRANCH   4   5
ATOM      5  C   UNL     1      -4.860   2.582 -19.927  1.00  0.00    -0.003 C 
ATOM      6  C   UNL     1      -5.167   2.153 -18.493  1.00  0.00     0.004 C 
ENDBRANCH   4   5
ENDBRANCH   3   4
ENDBRANCH   2   3
ENDBRANCH   1   2
BRANCH   1   7
ATOM      7  C   UNL     1      -3.099   3.763 -22.984  1.00  0.00     0.002 C 
BRANCH   7   8
ATOM      8  C   UNL     1      -2.118   3.714 -24.168  1.00  0.00     0.028 C 
BRANCH   8   9
ATOM      9  C   UNL     1      -1.057   4.826 -24.133  1.00  0.00     0.156 C 
BRANCH   9  10
ATOM     10  O   UNL     1      -1.023   5.454 -22.880  1.00  0.00    -0.396 OA
ATOM     11  H   UNL     1      -1.073   4.735 -22.198  1.00  0.00     0.210 HD
ENDBRANCH   9  10
ENDBRANCH   8   9
ENDBRANCH   7   8
ENDBRANCH   1   7
TORSDOF 8
ENDMDL
MODEL 6
REMARK VINA RESULT:    -3.752      1.001      1.263
REMARK INTER + INTRA:          -5.680
REMARK INTER:                  -5.321
REMARK INTRA:                  -0.359
REMARK UNBOUND:                -0.283
REMARK SMILES CCCCCCCCCO
REMARK SMILES IDX 6 1 5 2 4 3 3 4 2 5 1 6 7 7 8 8 9 9 10 10
REMARK H PARENT 10 11
REMARK Flexibility Score: inf
ROOT
ATOM      1  C   UNL     1      -3.198   3.937 -23.339  1.00  0.00     0.000 C 
ENDROOT
BRANCH   1   2
ATOM      2  C   UNL     1      -4.676   4.247 -23.633  1.00  0.00     0.000 C 
BRANCH   2   3
ATOM      3  C   UNL     1      -5.566   4.103 -22.387  1.00  0.00    -0.000 C 
BRANCH   3   4
ATOM      4  C   UNL     1      -6.145   2.686 -22.226  1.00  0.00    -0.000 C 
BRANCH   4   5
ATOM      5  C   UNL     1      -5.485   1.837 -21.125  1.00  0.00    -0.003 C 
ATOM      6  C   UNL     1      -4.848   2.679 -20.021  1.00  0.00     0.004 C 
ENDBRANCH   4   5
ENDBRANCH   3   4
ENDBRANCH   2   3
ENDBRANCH   1   2
BRANCH   1   7
ATOM      7  C   UNL     1      -2.313   4.052 -24.592  1.00  0.00     0.002 C 
BRANCH   7   8
ATOM      8  C   UNL     1      -0.897   4.567 -24.279  1.00  0.00     0.028 C 
BRANCH   8   9
ATOM      9  C   UNL     1      -0.835   6.082 -24.029  1.00  0.00     0.156 C 
BRANCH   9  10
ATOM     10  O   UNL     1      -0.598   6.362 -22.675  1.00  0.00    -0.396 OA
ATOM     11  H   UNL     1      -0.549   7.351 -22.593  1.00  0.00     0.210 HD
ENDBRANCH   9  10
ENDBRANCH   8   9
ENDBRANCH   7   8
ENDBRANCH   1   7
TORSDOF 8
ENDMDL
MODEL 7
REMARK VINA RESULT:    -3.629      3.750      5.223
REMARK INTER + INTRA:          -5.502
REMARK INTER:                  -5.358
REMARK INTRA:                  -0.144
REMARK UNBOUND:                -0.283
REMARK SMILES CCCCCCCCCO
REMARK SMILES IDX 6 1 5 2 4 3 3 4 2 5 1 6 7 7 8 8 9 9 10 10
REMARK H PARENT 10 11
REMARK Flexibility Score: inf
ROOT
ATOM      1  C   UNL     1      -0.908   1.955 -23.609  1.00  0.00     0.000 C 
ENDROOT
BRANCH   1   2
ATOM      2  C   UNL     1      -0.377   0.758 -22.802  1.00  0.00     0.000 C 
BRANCH   2   3
ATOM      3  C   UNL     1       1.035   0.333 -23.240  1.00  0.00    -0.000 C 
BRANCH   3   4
ATOM      4  C   UNL     1       1.873  -0.241 -22.084  1.00  0.00    -0.000 C 
BRANCH   4   5
ATOM      5  C   UNL     1       1.522  -1.685 -21.684  1.00  0.00    -0.003 C 
ATOM      6  C   UNL     1       2.616  -2.689 -22.047  1.00  0.00     0.004 C 
ENDBRANCH   4   5
ENDBRANCH   3   4
ENDBRANCH   2   3
ENDBRANCH   1   2
BRANCH   1   7
ATOM      7  C   UNL     1      -1.803   2.880 -22.767  1.00  0.00     0.002 C 
BRANCH   7   8
ATOM      8  C   UNL     1      -2.177   4.181 -23.498  1.00  0.00     0.028 C 
BRANCH   8   9
ATOM      9  C   UNL     1      -0.972   5.088 -23.794  1.00  0.00     0.156 C 
BRANCH   9  10
ATOM     10  O   UNL     1      -0.797   6.045 -22.783  1.00  0.00    -0.396 OA
ATOM     11  H   UNL     1       0.175   6.241 -22.740  1.00  0.00     0.210 HD
ENDBRANCH   9  10
ENDBRANCH   8   9
ENDBRANCH   7   8
ENDBRANCH   1   7
TORSDOF 8
ENDMDL
MODEL 8
REMARK VINA RESULT:    -3.613      2.028      3.004
REMARK INTER + INTRA:          -5.480
REMARK INTER:                  -4.898
REMARK INTRA:                  -0.582
REMARK UNBOUND:                -0.283
REMARK SMILES CCCCCCCCCO
REMARK SMILES IDX 6 1 5 2 4 3 3 4 2 5 1 6 7 7 8 8 9 9 10 10
REMARK H PARENT 10 11
REMARK Flexibility Score: inf
ROOT
ATOM      1  C   UNL     1      -5.933   5.128 -23.197  1.00  0.00     0.000 C 
ENDROOT
BRANCH   1   2
ATOM      2  C   UNL     1      -6.211   4.240 -21.972  1.00  0.00     0.000 C 
BRANCH   2   3
ATOM      3  C   UNL     1      -6.055   2.741 -22.286  1.00  0.00    -0.000 C 
BRANCH   3   4
ATOM      4  C   UNL     1      -5.578   1.923 -21.073  1.00  0.00    -0.000 C 
BRANCH   4   5
ATOM      5  C   UNL     1      -4.896   2.744 -19.964  1.00  0.00    -0.003 C 
ATOM      6  C   UNL     1      -5.104   2.154 -18.570  1.00  0.00     0.004 C 
ENDBRANCH   4   5
ENDBRANCH   3   4
ENDBRANCH   2   3
ENDBRANCH   1   2
BRANCH   1   7
ATOM      7  C   UNL     1      -5.118   4.399 -24.279  1.00  0.00     0.002 C 
BRANCH   7   8
ATOM      8  C   UNL     1      -3.641   4.827 -24.306  1.00  0.00     0.028 C 
BRANCH   8   9
ATOM      9  C   UNL     1      -2.686   3.781 -23.709  1.00  0.00     0.156 C 
BRANCH   9  10
ATOM     10  O   UNL     1      -2.610   3.902 -22.314  1.00  0.00    -0.396 OA
ATOM     11  H   UNL     1      -3.539   4.033 -21.988  1.00  0.00     0.210 HD
ENDBRANCH   9  10
ENDBRANCH   8   9
ENDBRANCH   7   8
ENDBRANCH   1   7
TORSDOF 8
ENDMDL
MODEL 9
REMARK VINA RESULT:    -3.558      2.383      3.124
REMARK INTER + INTRA:          -5.401
REMARK INTER:                  -4.876
REMARK INTRA:                  -0.525
REMARK UNBOUND:                -0.283
REMARK SMILES CCCCCCCCCO
REMARK SMILES IDX 6 1 5 2 4 3 3 4 2 5 1 6 7 7 8 8 9 9 10 10
REMARK H PARENT 10 11
REMARK Flexibility Score: inf
ROOT
ATOM      1  C   UNL     1      -2.806   4.106 -24.760  1.00  0.00     0.000 C 
ENDROOT
BRANCH   1   2
ATOM      2  C   UNL     1      -4.018   4.961 -24.353  1.00  0.00     0.000 C 
BRANCH   2   3
ATOM      3  C   UNL     1      -5.228   4.106 -23.937  1.00  0.00    -0.000 C 
BRANCH   3   4
ATOM      4  C   UNL     1      -5.494   4.143 -22.422  1.00  0.00    -0.000 C 
BRANCH   4   5
ATOM      5  C   UNL     1      -5.461   2.772 -21.724  1.00  0.00    -0.003 C 
ATOM      6  C   UNL     1      -4.872   2.832 -20.315  1.00  0.00     0.004 C 
ENDBRANCH   4   5
ENDBRANCH   3   4
ENDBRANCH   2   3
ENDBRANCH   1   2
BRANCH   1   7
ATOM      7  C   UNL     1      -1.768   3.985 -23.630  1.00  0.00     0.002 C 
BRANCH   7   8
ATOM      8  C   UNL     1      -1.957   2.719 -22.777  1.00  0.00     0.028 C 
BRANCH   8   9
ATOM      9  C   UNL     1      -1.126   1.521 -23.262  1.00  0.00     0.156 C 
BRANCH   9  10
ATOM     10  O   UNL     1      -1.352   0.390 -22.465  1.00  0.00    -0.396 OA
ATOM     11  H   UNL     1      -2.251   0.502 -22.058  1.00  0.00     0.210 HD
ENDBRANCH   9  10
ENDBRANCH   8   9
ENDBRANCH   7   8
ENDBRANCH   1   7
TORSDOF 8
ENDMDL
