MODEL 1
REMARK VINA RESULT:    -1.693      0.000      0.000
REMARK INTER + INTRA:          -1.693
REMARK INTER:                  -1.693
REMARK INTRA:                   0.000
REMARK UNBOUND:                 0.000
REMARK SMILES O=c1ccc2ccccc2o1
REMARK SMILES IDX 7 1 8 2 9 3 10 4 5 5 6 6 4 7 3 8 2 9 1 10 11 11
REMARK H PARENT
REMARK Flexibility Score: inf
ROOT
ATOM      1  C   UNL     1      28.157  31.148   2.338  1.00  0.00     0.001 A 
ATOM      2  C   UNL     1      28.871  30.686   1.228  1.00  0.00     0.004 A 
ATOM      3  C   UNL     1      28.827  29.334   0.875  1.00  0.00     0.048 A 
ATOM      4  C   UNL     1      28.067  28.436   1.633  1.00  0.00     0.138 A 
ATOM      5  C   UNL     1      27.346  28.902   2.756  1.00  0.00     0.018 A 
ATOM      6  C   UNL     1      27.394  30.260   3.103  1.00  0.00     0.012 A 
ATOM      7  C   UNL     1      26.595  27.983   3.494  1.00  0.00     0.019 A 
ATOM      8  C   UNL     1      26.580  26.643   3.106  1.00  0.00     0.094 A 
ATOM      9  C   UNL     1      27.319  26.253   1.984  1.00  0.00     0.336 A 
ATOM     10  O   UNL     1      27.317  25.049   1.618  1.00  0.00    -0.246 OA
ATOM     11  O   UNL     1      28.025  27.149   1.298  1.00  0.00    -0.423 OA
ENDROOT
TORSDOF 0
ENDMDL
MODEL 2
REMARK VINA RESULT:    -1.561      1.792      3.849
REMARK INTER + INTRA:          -1.561
REMARK INTER:                  -1.561
REMARK INTRA:                   0.000
REMARK UNBOUND:                 0.000
REMARK SMILES O=c1ccc2ccccc2o1
REMARK SMILES IDX 7 1 8 2 9 3 10 4 5 5 6 6 4 7 3 8 2 9 1 10 11 11
REMARK H PARENT
REMARK Flexibility Score: inf
ROOT
ATOM      1  C   UNL     1      27.001  26.173   2.637  1.00  0.00     0.001 A 
ATOM      2  C   UNL     1      27.762  26.137   1.463  1.00  0.00     0.004 A 
ATOM      3  C   UNL     1      28.216  27.326   0.883  1.00  0.00     0.048 A 
ATOM      4  C   UNL     1      27.910  28.556   1.474  1.00  0.00     0.138 A 
ATOM      5  C   UNL     1      27.140  28.593   2.659  1.00  0.00     0.018 A 
ATOM      6  C   UNL     1      26.689  27.397   3.236  1.00  0.00     0.012 A 
ATOM      7  C   UNL     1      26.850  29.836   3.228  1.00  0.00     0.019 A 
ATOM      8  C   UNL     1      27.324  30.996   2.615  1.00  0.00     0.094 A 
ATOM      9  C   UNL     1      28.079  30.884   1.443  1.00  0.00     0.336 A 
ATOM     10  O   UNL     1      28.514  31.919   0.875  1.00  0.00    -0.246 OA
ATOM     11  O   UNL     1      28.341  29.688   0.922  1.00  0.00    -0.423 OA
ENDROOT
TORSDOF 0
ENDMDL
MODEL 3
REMARK VINA RESULT:    -0.644      1.044      2.102
REMARK INTER + INTRA:          -0.644
REMARK INTER:                  -0.644
REMARK INTRA:                   0.000
REMARK UNBOUND:                 0.000
REMARK SMILES O=c1ccc2ccccc2o1
REMARK SMILES IDX 7 1 8 2 9 3 10 4 5 5 6 6 4 7 3 8 2 9 1 10 11 11
REMARK H PARENT
REMARK Flexibility Score: inf
ROOT
ATOM      1  C   UNL     1      28.489  31.114   2.372  1.00  0.00     0.001 A 
ATOM      2  C   UNL     1      27.331  30.962   3.141  1.00  0.00     0.004 A 
ATOM      3  C   UNL     1      26.653  29.739   3.158  1.00  0.00     0.048 A 
ATOM      4  C   UNL     1      27.131  28.662   2.403  1.00  0.00     0.138 A 
ATOM      5  C   UNL     1      28.301  28.815   1.625  1.00  0.00     0.018 A 
ATOM      6  C   UNL     1      28.976  30.045   1.614  1.00  0.00     0.012 A 
ATOM      7  C   UNL     1      28.756  27.723   0.882  1.00  0.00     0.019 A 
ATOM      8  C   UNL     1      28.048  26.522   0.929  1.00  0.00     0.094 A 
ATOM      9  C   UNL     1      26.897  26.442   1.720  1.00  0.00     0.336 A 
ATOM     10  O   UNL     1      26.245  25.368   1.775  1.00  0.00    -0.246 OA
ATOM     11  O   UNL     1      26.486  27.498   2.418  1.00  0.00    -0.423 OA
ENDROOT
TORSDOF 0
ENDMDL
MODEL 4
REMARK VINA RESULT:    -0.190      3.006      4.126
REMARK INTER + INTRA:          -0.190
REMARK INTER:                  -0.190
REMARK INTRA:                   0.000
REMARK UNBOUND:                 0.000
REMARK SMILES O=c1ccc2ccccc2o1
REMARK SMILES IDX 7 1 8 2 9 3 10 4 5 5 6 6 4 7 3 8 2 9 1 10 11 11
REMARK H PARENT
REMARK Flexibility Score: inf
ROOT
ATOM      1  C   UNL     1      27.113  29.442   0.875  1.00  0.00     0.001 A 
ATOM      2  C   UNL     1      26.914  30.556   1.697  1.00  0.00     0.004 A 
ATOM      3  C   UNL     1      27.885  30.921   2.636  1.00  0.00     0.048 A 
ATOM      4  C   UNL     1      29.060  30.171   2.756  1.00  0.00     0.138 A 
ATOM      5  C   UNL     1      29.261  29.044   1.926  1.00  0.00     0.018 A 
ATOM      6  C   UNL     1      28.284  28.685   0.987  1.00  0.00     0.012 A 
ATOM      7  C   UNL     1      30.445  28.315   2.068  1.00  0.00     0.019 A 
ATOM      8  C   UNL     1      31.385  28.715   3.017  1.00  0.00     0.094 A 
ATOM      9  C   UNL     1      31.119  29.839   3.805  1.00  0.00     0.336 A 
ATOM     10  O   UNL     1      31.955  30.215   4.666  1.00  0.00    -0.246 OA
ATOM     11  O   UNL     1      29.984  30.517   3.649  1.00  0.00    -0.423 OA
ENDROOT
TORSDOF 0
ENDMDL
MODEL 5
REMARK VINA RESULT:     0.030      1.895      4.338
REMARK INTER + INTRA:           0.030
REMARK INTER:                   0.030
REMARK INTRA:                   0.000
REMARK UNBOUND:                 0.000
REMARK SMILES O=c1ccc2ccccc2o1
REMARK SMILES IDX 7 1 8 2 9 3 10 4 5 5 6 6 4 7 3 8 2 9 1 10 11 11
REMARK H PARENT
REMARK Flexibility Score: inf
ROOT
ATOM      1  C   UNL     1      27.272  25.885   1.527  1.00  0.00     0.001 A 
ATOM      2  C   UNL     1      26.630  26.140   2.743  1.00  0.00     0.004 A 
ATOM      3  C   UNL     1      26.714  27.406   3.332  1.00  0.00     0.048 A 
ATOM      4  C   UNL     1      27.443  28.423   2.706  1.00  0.00     0.138 A 
ATOM      5  C   UNL     1      28.094  28.166   1.478  1.00  0.00     0.018 A 
ATOM      6  C   UNL     1      28.004  26.894   0.893  1.00  0.00     0.012 A 
ATOM      7  C   UNL     1      28.814  29.201   0.875  1.00  0.00     0.019 A 
ATOM      8  C   UNL     1      28.871  30.447   1.498  1.00  0.00     0.094 A 
ATOM      9  C   UNL     1      28.204  30.630   2.714  1.00  0.00     0.336 A 
ATOM     10  O   UNL     1      28.245  31.747   3.291  1.00  0.00    -0.246 OA
ATOM     11  O   UNL     1      27.525  29.627   3.266  1.00  0.00    -0.423 OA
ENDROOT
TORSDOF 0
ENDMDL
