MODEL 1
REMARK VINA RESULT:    -3.453      0.000      0.000
REMARK INTER + INTRA:          -4.132
REMARK INTER:                  -4.059
REMARK INTRA:                  -0.074
REMARK UNBOUND:                -0.074
REMARK SMILES CCCCC(=O)[O-]
REMARK SMILES IDX 4 1 5 2 6 3 7 4 3 5 2 6 1 7
REMARK H PARENT
REMARK Flexibility Score: inf
ROOT
ATOM      1  C   UNL     1       5.979  -1.560  48.199  1.00  0.00     0.053 C 
ENDROOT
BRANCH   1   2
ATOM      2  C   UNL     1       6.023  -0.862  46.874  1.00  0.00     0.041 C 
ATOM      3  O   UNL     1       6.531   0.287  46.778  1.00  0.00    -0.550 OA
ATOM      4  O   UNL     1       5.477  -1.467  45.750  1.00  0.00    -0.550 OA
ENDBRANCH   1   2
BRANCH   1   5
ATOM      5  C   UNL     1       7.362  -1.658  48.866  1.00  0.00     0.006 C 
BRANCH   5   6
ATOM      6  C   UNL     1       8.399  -2.438  48.038  1.00  0.00    -0.003 C 
ATOM      7  C   UNL     1       9.747  -2.581  48.742  1.00  0.00     0.004 C 
ENDBRANCH   5   6
ENDBRANCH   1   5
TORSDOF 3
ENDMDL
MODEL 2
REMARK VINA RESULT:    -3.438      0.199      1.240
REMARK INTER + INTRA:          -4.115
REMARK INTER:                  -4.062
REMARK INTRA:                  -0.052
REMARK UNBOUND:                -0.074
REMARK SMILES CCCCC(=O)[O-]
REMARK SMILES IDX 4 1 5 2 6 3 7 4 3 5 2 6 1 7
REMARK H PARENT
REMARK Flexibility Score: inf
ROOT
ATOM      1  C   UNL     1       6.066  -1.827  48.029  1.00  0.00     0.053 C 
ENDROOT
BRANCH   1   2
ATOM      2  C   UNL     1       5.995  -0.996  46.785  1.00  0.00     0.041 C 
ATOM      3  O   UNL     1       5.489  -1.468  45.733  1.00  0.00    -0.550 OA
ATOM      4  O   UNL     1       6.516   0.292  46.779  1.00  0.00    -0.550 OA
ENDBRANCH   1   2
BRANCH   1   5
ATOM      5  C   UNL     1       7.417  -1.698  48.754  1.00  0.00     0.006 C 
BRANCH   5   6
ATOM      6  C   UNL     1       8.617  -2.202  47.933  1.00  0.00    -0.003 C 
ATOM      7  C   UNL     1       9.791  -2.656  48.798  1.00  0.00     0.004 C 
ENDBRANCH   5   6
ENDBRANCH   1   5
TORSDOF 3
ENDMDL
MODEL 3
REMARK VINA RESULT:    -3.432      2.848      3.780
REMARK INTER + INTRA:          -4.108
REMARK INTER:                  -4.028
REMARK INTRA:                  -0.080
REMARK UNBOUND:                -0.074
REMARK SMILES CCCCC(=O)[O-]
REMARK SMILES IDX 4 1 5 2 6 3 7 4 3 5 2 6 1 7
REMARK H PARENT
REMARK Flexibility Score: inf
ROOT
ATOM      1  C   UNL     1       7.826  -2.292  49.756  1.00  0.00     0.053 C 
ENDROOT
BRANCH   1   2
ATOM      2  C   UNL     1       8.902  -3.079  49.073  1.00  0.00     0.041 C 
ATOM      3  O   UNL     1      10.106  -2.718  49.158  1.00  0.00    -0.550 OA
ATOM      4  O   UNL     1       8.572  -4.196  48.316  1.00  0.00    -0.550 OA
ENDBRANCH   1   2
BRANCH   1   5
ATOM      5  C   UNL     1       6.813  -1.689  48.768  1.00  0.00     0.006 C 
BRANCH   5   6
ATOM      6  C   UNL     1       7.459  -0.908  47.610  1.00  0.00    -0.003 C 
ATOM      7  C   UNL     1       6.451  -0.114  46.782  1.00  0.00     0.004 C 
ENDBRANCH   5   6
ENDBRANCH   1   5
TORSDOF 3
ENDMDL
MODEL 4
REMARK VINA RESULT:    -3.422      1.038      1.788
REMARK INTER + INTRA:          -4.096
REMARK INTER:                  -4.066
REMARK INTRA:                  -0.030
REMARK UNBOUND:                -0.074
REMARK SMILES CCCCC(=O)[O-]
REMARK SMILES IDX 4 1 5 2 6 3 7 4 3 5 2 6 1 7
REMARK H PARENT
REMARK Flexibility Score: inf
ROOT
ATOM      1  C   UNL     1       6.049  -1.572  48.119  1.00  0.00     0.053 C 
ENDROOT
BRANCH   1   2
ATOM      2  C   UNL     1       6.026  -0.835  46.815  1.00  0.00     0.041 C 
ATOM      3  O   UNL     1       6.522   0.320  46.728  1.00  0.00    -0.550 OA
ATOM      4  O   UNL     1       5.428  -1.410  45.701  1.00  0.00    -0.550 OA
ENDBRANCH   1   2
BRANCH   1   5
ATOM      5  C   UNL     1       7.476  -1.788  48.653  1.00  0.00     0.006 C 
BRANCH   5   6
ATOM      6  C   UNL     1       7.528  -2.270  50.114  1.00  0.00    -0.003 C 
ATOM      7  C   UNL     1       6.297  -1.871  50.925  1.00  0.00     0.004 C 
ENDBRANCH   5   6
ENDBRANCH   1   5
TORSDOF 3
ENDMDL
MODEL 5
REMARK VINA RESULT:    -3.381      2.567      3.805
REMARK INTER + INTRA:          -4.047
REMARK INTER:                  -3.954
REMARK INTRA:                  -0.093
REMARK UNBOUND:                -0.074
REMARK SMILES CCCCC(=O)[O-]
REMARK SMILES IDX 4 1 5 2 6 3 7 4 3 5 2 6 1 7
REMARK H PARENT
REMARK Flexibility Score: inf
ROOT
ATOM      1  C   UNL     1       8.085  -2.025  47.253  1.00  0.00     0.053 C 
ENDROOT
BRANCH   1   2
ATOM      2  C   UNL     1       8.801  -2.147  48.563  1.00  0.00     0.041 C 
ATOM      3  O   UNL     1      10.055  -2.261  48.594  1.00  0.00    -0.550 OA
ATOM      4  O   UNL     1       8.081  -2.165  49.751  1.00  0.00    -0.550 OA
ENDBRANCH   1   2
BRANCH   1   5
ATOM      5  C   UNL     1       7.377  -0.669  47.086  1.00  0.00     0.006 C 
BRANCH   5   6
ATOM      6  C   UNL     1       5.894  -0.784  46.693  1.00  0.00    -0.003 C 
ATOM      7  C   UNL     1       5.186  -1.966  47.351  1.00  0.00     0.004 C 
ENDBRANCH   5   6
ENDBRANCH   1   5
TORSDOF 3
ENDMDL
MODEL 6
REMARK VINA RESULT:    -3.369      1.377      1.429
REMARK INTER + INTRA:          -4.033
REMARK INTER:                  -3.984
REMARK INTRA:                  -0.049
REMARK UNBOUND:                -0.074
REMARK SMILES CCCCC(=O)[O-]
REMARK SMILES IDX 4 1 5 2 6 3 7 4 3 5 2 6 1 7
REMARK H PARENT
REMARK Flexibility Score: inf
ROOT
ATOM      1  C   UNL     1       6.964  -0.735  46.731  1.00  0.00     0.053 C 
ENDROOT
BRANCH   1   2
ATOM      2  C   UNL     1       5.690  -1.495  46.523  1.00  0.00     0.041 C 
ATOM      3  O   UNL     1       5.113  -2.048  47.497  1.00  0.00    -0.550 OA
ATOM      4  O   UNL     1       5.155  -1.620  45.248  1.00  0.00    -0.550 OA
ENDBRANCH   1   2
BRANCH   1   5
ATOM      5  C   UNL     1       7.747  -1.215  47.966  1.00  0.00     0.006 C 
BRANCH   5   6
ATOM      6  C   UNL     1       8.783  -2.312  47.660  1.00  0.00    -0.003 C 
ATOM      7  C   UNL     1       9.667  -2.655  48.857  1.00  0.00     0.004 C 
ENDBRANCH   5   6
ENDBRANCH   1   5
TORSDOF 3
ENDMDL
MODEL 7
REMARK VINA RESULT:    -3.271     11.977     13.330
REMARK INTER + INTRA:          -3.919
REMARK INTER:                  -3.901
REMARK INTRA:                  -0.018
REMARK UNBOUND:                -0.074
REMARK SMILES CCCCC(=O)[O-]
REMARK SMILES IDX 4 1 5 2 6 3 7 4 3 5 2 6 1 7
REMARK H PARENT
REMARK Flexibility Score: inf
ROOT
ATOM      1  C   UNL     1      -2.995   0.325  39.555  1.00  0.00     0.053 C 
ENDROOT
BRANCH   1   2
ATOM      2  C   UNL     1      -2.160  -0.861  39.929  1.00  0.00     0.041 C 
ATOM      3  O   UNL     1      -2.692  -1.872  40.458  1.00  0.00    -0.550 OA
ATOM      4  O   UNL     1      -0.786  -0.837  39.722  1.00  0.00    -0.550 OA
ENDBRANCH   1   2
BRANCH   1   5
ATOM      5  C   UNL     1      -2.228   1.345  38.695  1.00  0.00     0.006 C 
BRANCH   5   6
ATOM      6  C   UNL     1      -3.125   2.415  38.048  1.00  0.00    -0.003 C 
ATOM      7  C   UNL     1      -3.005   3.784  38.713  1.00  0.00     0.004 C 
ENDBRANCH   5   6
ENDBRANCH   1   5
TORSDOF 3
ENDMDL
MODEL 8
REMARK VINA RESULT:    -3.257      2.736      3.508
REMARK INTER + INTRA:          -3.902
REMARK INTER:                  -3.795
REMARK INTRA:                  -0.107
REMARK UNBOUND:                -0.074
REMARK SMILES CCCCC(=O)[O-]
REMARK SMILES IDX 4 1 5 2 6 3 7 4 3 5 2 6 1 7
REMARK H PARENT
REMARK Flexibility Score: inf
ROOT
ATOM      1  C   UNL     1       6.054  -1.649  49.591  1.00  0.00     0.053 C 
ENDROOT
BRANCH   1   2
ATOM      2  C   UNL     1       5.231  -2.899  49.668  1.00  0.00     0.041 C 
ATOM      3  O   UNL     1       4.519  -3.252  48.690  1.00  0.00    -0.550 OA
ATOM      4  O   UNL     1       5.227  -3.659  50.830  1.00  0.00    -0.550 OA
ENDBRANCH   1   2
BRANCH   1   5
ATOM      5  C   UNL     1       7.427  -1.881  48.937  1.00  0.00     0.006 C 
BRANCH   5   6
ATOM      6  C   UNL     1       7.510  -1.402  47.476  1.00  0.00    -0.003 C 
ATOM      7  C   UNL     1       6.433  -0.382  47.114  1.00  0.00     0.004 C 
ENDBRANCH   5   6
ENDBRANCH   1   5
TORSDOF 3
ENDMDL
MODEL 9
REMARK VINA RESULT:    -3.076      7.867      8.561
REMARK INTER + INTRA:          -3.689
REMARK INTER:                  -3.645
REMARK INTRA:                  -0.045
REMARK UNBOUND:                -0.074
REMARK SMILES CCCCC(=O)[O-]
REMARK SMILES IDX 4 1 5 2 6 3 7 4 3 5 2 6 1 7
REMARK H PARENT
REMARK Flexibility Score: inf
ROOT
ATOM      1  C   UNL     1       7.832   2.051  55.174  1.00  0.00     0.053 C 
ENDROOT
BRANCH   1   2
ATOM      2  C   UNL     1       8.933   1.078  54.883  1.00  0.00     0.041 C 
ATOM      3  O   UNL     1       8.866  -0.105  55.313  1.00  0.00    -0.550 OA
ATOM      4  O   UNL     1      10.049   1.484  54.163  1.00  0.00    -0.550 OA
ENDBRANCH   1   2
BRANCH   1   5
ATOM      5  C   UNL     1       7.011   2.410  53.923  1.00  0.00     0.006 C 
BRANCH   5   6
ATOM      6  C   UNL     1       7.203   3.861  53.447  1.00  0.00    -0.003 C 
ATOM      7  C   UNL     1       5.960   4.446  52.780  1.00  0.00     0.004 C 
ENDBRANCH   5   6
ENDBRANCH   1   5
TORSDOF 3
ENDMDL
