MODEL 1
REMARK VINA RESULT:    -4.008      0.000      0.000
REMARK INTER + INTRA:          -3.217
REMARK INTER:                  -5.414
REMARK INTRA:                   2.197
REMARK UNBOUND:                 2.197
REMARK SMILES C=C1C(=O)O[C@@H]2[C@@H]1CCC(C)=CCC[C@@]1(C)O[C@H]21
REMARK SMILES IDX 6 1 7 2 2 3 1 4 3 5 4 6 5 7 8 8 9 9 10 10 11 11 12 12 18 14
REMARK SMILES IDX 15 15 17 16 16 17 14 18 13 19
REMARK H PARENT
REMARK Flexibility Score: 70.00
ROOT
ATOM      1  C   UNL     1       0.408  24.580  53.743  1.00  0.00     0.216 C 
ATOM      2  C   UNL     1       0.990  23.950  55.040  1.00  0.00     0.070 C 
ATOM      3  C   UNL     1      -0.230  23.918  55.910  1.00  0.00     0.037 C 
ATOM      4  C   UNL     1      -0.392  23.264  57.060  1.00  0.00     0.021 C 
ATOM      5  C   UNL     1      -1.086  24.982  55.401  1.00  0.00     0.334 C 
ATOM      6  O   UNL     1      -2.111  25.437  55.976  1.00  0.00    -0.247 OA
ATOM      7  O   UNL     1      -0.595  25.474  54.201  1.00  0.00    -0.455 OA
ENDROOT
BRANCH   2   8
ATOM      8  C   UNL     1       1.802  22.644  54.786  1.00  0.00     0.017 C 
BRANCH   8   9
ATOM      9  C   UNL     1       3.261  22.933  54.273  1.00  0.00     0.031 C 
BRANCH   9  10
ATOM     10  C   UNL     1       3.545  22.471  52.841  1.00  0.00    -0.077 C 
ATOM     11  C   UNL     1       3.276  21.022  52.521  1.00  0.00     0.039 C 
ATOM     12  C   UNL     1       4.058  23.250  51.835  1.00  0.00    -0.028 CG0
ATOM     13  G   UNL     1       4.363  24.746  51.864  1.00  0.00     0.000 G0
ENDBRANCH   9  10
ENDBRANCH   8   9
ENDBRANCH   2   8
BRANCH   1  14
ATOM     14  C   UNL     1       1.549  25.207  52.951  1.00  0.00     0.192 C 
ATOM     15  C   UNL     1       1.839  25.587  51.521  1.00  0.00     0.096 C 
ATOM     16  O   UNL     1       1.551  24.298  51.855  1.00  0.00    -0.362 OA
ATOM     17  C   UNL     1       0.728  26.222  50.693  1.00  0.00     0.045 C 
BRANCH  15  18
ATOM     18  C   UNL     1       3.305  25.611  51.016  1.00  0.00     0.042 C 
BRANCH  18  19
ATOM     19  C   UNL     1       4.332  24.761  51.842  1.00  0.00     0.030 CG0
ATOM     20  G   UNL     1       4.058  23.258  51.821  1.00  0.00     0.000 G0
ENDBRANCH  18  19
ENDBRANCH  15  18
ENDBRANCH   1  14
TORSDOF 0
ENDMDL
MODEL 2
REMARK VINA RESULT:    -3.952      2.306      5.245
REMARK INTER + INTRA:          -3.142
REMARK INTER:                  -5.273
REMARK INTRA:                   2.131
REMARK UNBOUND:                 2.197
REMARK SMILES C=C1C(=O)O[C@@H]2[C@@H]1CCC(C)=CCC[C@@]1(C)O[C@H]21
REMARK SMILES IDX 6 1 7 2 2 3 1 4 3 5 4 6 5 7 8 8 9 9 10 10 11 11 12 12 18 14
REMARK SMILES IDX 15 15 17 16 16 17 14 18 13 19
REMARK H PARENT
REMARK Flexibility Score: 70.00
ROOT
ATOM      1  C   UNL     1       2.047  23.575  50.592  1.00  0.00     0.216 C 
ATOM      2  C   UNL     1       1.814  25.112  50.632  1.00  0.00     0.070 C 
ATOM      3  C   UNL     1       1.243  25.346  49.266  1.00  0.00     0.037 C 
ATOM      4  C   UNL     1       0.633  26.441  48.816  1.00  0.00     0.021 C 
ATOM      5  C   UNL     1       1.760  24.255  48.448  1.00  0.00     0.334 C 
ATOM      6  O   UNL     1       1.701  24.189  47.191  1.00  0.00    -0.247 OA
ATOM      7  O   UNL     1       2.381  23.301  49.239  1.00  0.00    -0.455 OA
ENDROOT
BRANCH   2   8
ATOM      8  C   UNL     1       1.035  25.589  51.895  1.00  0.00     0.017 C 
BRANCH   8   9
ATOM      9  C   UNL     1       1.978  25.814  53.134  1.00  0.00     0.031 C 
BRANCH   9  10
ATOM     10  C   UNL     1       1.688  24.915  54.338  1.00  0.00    -0.077 C 
ATOM     11  C   UNL     1       0.311  25.004  54.946  1.00  0.00     0.039 C 
ATOM     12  C   UNL     1       2.583  24.063  54.935  1.00  0.00    -0.028 CG0
ATOM     13  G   UNL     1       4.009  23.735  54.498  1.00  0.00     0.000 G0
ENDBRANCH   9  10
ENDBRANCH   8   9
ENDBRANCH   2   8
BRANCH   1  14
ATOM     14  C   UNL     1       3.109  23.217  51.626  1.00  0.00     0.192 C 
ATOM     15  C   UNL     1       3.443  22.053  52.524  1.00  0.00     0.096 C 
ATOM     16  O   UNL     1       2.240  22.686  52.623  1.00  0.00    -0.362 OA
ATOM     17  C   UNL     1       3.299  20.639  51.976  1.00  0.00     0.045 C 
BRANCH  15  18
ATOM     18  C   UNL     1       4.200  22.304  53.854  1.00  0.00     0.042 C 
BRANCH  18  19
ATOM     19  C   UNL     1       4.016  23.725  54.494  1.00  0.00     0.030 CG0
ATOM     20  G   UNL     1       2.583  24.035  54.923  1.00  0.00     0.000 G0
ENDBRANCH  18  19
ENDBRANCH  15  18
ENDBRANCH   1  14
TORSDOF 0
ENDMDL
MODEL 3
REMARK VINA RESULT:    -3.921      1.898      3.486
REMARK INTER + INTRA:          -3.100
REMARK INTER:                  -5.238
REMARK INTRA:                   2.138
REMARK UNBOUND:                 2.197
REMARK SMILES C=C1C(=O)O[C@@H]2[C@@H]1CCC(C)=CCC[C@@]1(C)O[C@H]21
REMARK SMILES IDX 6 1 7 2 2 3 1 4 3 5 4 6 5 7 8 8 9 9 10 10 11 11 12 12 18 14
REMARK SMILES IDX 15 15 17 16 16 17 14 18 13 19
REMARK H PARENT
REMARK Flexibility Score: 70.00
ROOT
ATOM      1  C   UNL     1       1.732  23.482  55.728  1.00  0.00     0.216 C 
ATOM      2  C   UNL     1       0.244  23.532  55.280  1.00  0.00     0.070 C 
ATOM      3  C   UNL     1      -0.444  23.669  56.605  1.00  0.00     0.037 C 
ATOM      4  C   UNL     1      -1.716  23.995  56.831  1.00  0.00     0.021 C 
ATOM      5  C   UNL     1       0.474  23.078  57.571  1.00  0.00     0.334 C 
ATOM      6  O   UNL     1       0.197  22.794  58.767  1.00  0.00    -0.247 OA
ATOM      7  O   UNL     1       1.704  22.821  56.984  1.00  0.00    -0.455 OA
ENDROOT
BRANCH   2   8
ATOM      8  C   UNL     1      -0.029  24.569  54.148  1.00  0.00     0.017 C 
BRANCH   8   9
ATOM      9  C   UNL     1       0.383  24.032  52.729  1.00  0.00     0.031 C 
BRANCH   9  10
ATOM     10  C   UNL     1       1.550  24.774  52.071  1.00  0.00    -0.077 C 
ATOM     11  C   UNL     1       1.409  26.267  51.908  1.00  0.00     0.039 C 
ATOM     12  C   UNL     1       2.694  24.196  51.585  1.00  0.00    -0.028 CG0
ATOM     13  G   UNL     1       3.120  22.731  51.670  1.00  0.00     0.000 G0
ENDBRANCH   9  10
ENDBRANCH   8   9
ENDBRANCH   2   8
BRANCH   1  14
ATOM     14  C   UNL     1       2.547  22.800  54.634  1.00  0.00     0.192 C 
ATOM     15  C   UNL     1       3.984  22.747  54.183  1.00  0.00     0.096 C 
ATOM     16  O   UNL     1       3.312  23.931  54.225  1.00  0.00    -0.362 OA
ATOM     17  C   UNL     1       5.081  22.676  55.238  1.00  0.00     0.045 C 
BRANCH  15  18
ATOM     18  C   UNL     1       4.310  22.461  52.694  1.00  0.00     0.042 C 
BRANCH  18  19
ATOM     19  C   UNL     1       3.149  22.724  51.672  1.00  0.00     0.030 CG0
ATOM     20  G   UNL     1       2.709  24.184  51.589  1.00  0.00     0.000 G0
ENDBRANCH  18  19
ENDBRANCH  15  18
ENDBRANCH   1  14
TORSDOF 0
ENDMDL
MODEL 4
REMARK VINA RESULT:    -3.920      3.276      4.883
REMARK INTER + INTRA:          -3.098
REMARK INTER:                  -5.250
REMARK INTRA:                   2.152
REMARK UNBOUND:                 2.197
REMARK SMILES C=C1C(=O)O[C@@H]2[C@@H]1CCC(C)=CCC[C@@]1(C)O[C@H]21
REMARK SMILES IDX 6 1 7 2 2 3 1 4 3 5 4 6 5 7 8 8 9 9 10 10 11 11 12 12 18 14
REMARK SMILES IDX 15 15 17 16 16 17 14 18 13 19
REMARK H PARENT
REMARK Flexibility Score: 70.00
ROOT
ATOM      1  C   UNL     1       3.190  22.478  56.414  1.00  0.00     0.216 C 
ATOM      2  C   UNL     1       4.541  22.750  55.695  1.00  0.00     0.070 C 
ATOM      3  C   UNL     1       5.499  22.073  56.628  1.00  0.00     0.037 C 
ATOM      4  C   UNL     1       6.778  21.776  56.406  1.00  0.00     0.021 C 
ATOM      5  C   UNL     1       4.835  22.084  57.926  1.00  0.00     0.334 C 
ATOM      6  O   UNL     1       5.376  21.808  59.029  1.00  0.00    -0.247 OA
ATOM      7  O   UNL     1       3.514  22.489  57.797  1.00  0.00    -0.455 OA
ENDROOT
BRANCH   2   8
ATOM      8  C   UNL     1       4.526  22.372  54.183  1.00  0.00     0.017 C 
BRANCH   8   9
ATOM      9  C   UNL     1       3.831  23.469  53.295  1.00  0.00     0.031 C 
BRANCH   9  10
ATOM     10  C   UNL     1       2.533  23.023  52.617  1.00  0.00    -0.077 C 
ATOM     11  C   UNL     1       2.600  21.791  51.749  1.00  0.00     0.039 C 
ATOM     12  C   UNL     1       1.324  23.666  52.699  1.00  0.00    -0.028 CG0
ATOM     13  G   UNL     1       0.961  24.886  53.544  1.00  0.00     0.000 G0
ENDBRANCH   9  10
ENDBRANCH   8   9
ENDBRANCH   2   8
BRANCH   1  14
ATOM     14  C   UNL     1       2.177  23.522  55.960  1.00  0.00     0.192 C 
ATOM     15  C   UNL     1       0.678  23.661  55.881  1.00  0.00     0.096 C 
ATOM     16  O   UNL     1       1.318  22.655  55.223  1.00  0.00    -0.362 OA
ATOM     17  C   UNL     1      -0.169  23.140  57.036  1.00  0.00     0.045 C 
BRANCH  15  18
ATOM     18  C   UNL     1       0.049  24.582  54.803  1.00  0.00     0.042 C 
BRANCH  18  19
ATOM     19  C   UNL     1       0.949  24.897  53.557  1.00  0.00     0.030 CG0
ATOM     20  G   UNL     1       1.306  23.671  52.719  1.00  0.00     0.000 G0
ENDBRANCH  18  19
ENDBRANCH  15  18
ENDBRANCH   1  14
TORSDOF 0
ENDMDL
MODEL 5
REMARK VINA RESULT:    -3.777      2.368      3.507
REMARK INTER + INTRA:          -2.905
REMARK INTER:                  -5.325
REMARK INTRA:                   2.419
REMARK UNBOUND:                 2.197
REMARK SMILES C=C1C(=O)O[C@@H]2[C@@H]1CCC(C)=CCC[C@@]1(C)O[C@H]21
REMARK SMILES IDX 6 1 7 2 2 3 1 4 3 5 4 6 5 7 8 8 9 9 10 10 11 11 12 12 18 14
REMARK SMILES IDX 15 15 17 16 16 17 14 18 13 19
REMARK H PARENT
REMARK Flexibility Score: 70.00
ROOT
ATOM      1  C   UNL     1       2.484  23.185  54.865  1.00  0.00     0.216 C 
ATOM      2  C   UNL     1       3.934  22.666  54.650  1.00  0.00     0.070 C 
ATOM      3  C   UNL     1       4.306  22.280  56.049  1.00  0.00     0.037 C 
ATOM      4  C   UNL     1       5.351  21.552  56.442  1.00  0.00     0.021 C 
ATOM      5  C   UNL     1       3.470  23.111  56.906  1.00  0.00     0.334 C 
ATOM      6  O   UNL     1       3.613  23.260  58.149  1.00  0.00    -0.247 OA
ATOM      7  O   UNL     1       2.504  23.769  56.159  1.00  0.00    -0.455 OA
ENDROOT
BRANCH   2   8
ATOM      8  C   UNL     1       4.056  21.626  53.494  1.00  0.00     0.017 C 
BRANCH   8   9
ATOM      9  C   UNL     1       3.025  21.890  52.336  1.00  0.00     0.031 C 
BRANCH   9  10
ATOM     10  C   UNL     1       3.533  22.798  51.213  1.00  0.00    -0.077 C 
ATOM     11  C   UNL     1       5.000  22.713  50.873  1.00  0.00     0.039 C 
ATOM     12  C   UNL     1       2.780  23.708  50.516  1.00  0.00    -0.028 CG0
ATOM     13  G   UNL     1       1.276  23.959  50.612  1.00  0.00     0.000 G0
ENDBRANCH   9  10
ENDBRANCH   8   9
ENDBRANCH   2   8
BRANCH   1  14
ATOM     14  C   UNL     1       2.127  24.122  53.717  1.00  0.00     0.192 C 
ATOM     15  C   UNL     1       0.884  24.731  53.119  1.00  0.00     0.096 C 
ATOM     16  O   UNL     1       1.032  23.378  53.190  1.00  0.00    -0.362 OA
ATOM     17  C   UNL     1      -0.208  25.234  54.055  1.00  0.00     0.045 C 
BRANCH  15  18
ATOM     18  C   UNL     1       0.862  25.109  51.615  1.00  0.00     0.042 C 
BRANCH  18  19
ATOM     19  C   UNL     1       1.265  23.971  50.613  1.00  0.00     0.030 CG0
ATOM     20  G   UNL     1       2.769  23.719  50.527  1.00  0.00     0.000 G0
ENDBRANCH  18  19
ENDBRANCH  15  18
ENDBRANCH   1  14
TORSDOF 0
ENDMDL
MODEL 6
REMARK VINA RESULT:    -3.776      3.885      5.543
REMARK INTER + INTRA:          -2.904
REMARK INTER:                  -5.118
REMARK INTRA:                   2.214
REMARK UNBOUND:                 2.197
REMARK SMILES C=C1C(=O)O[C@@H]2[C@@H]1CCC(C)=CCC[C@@]1(C)O[C@H]21
REMARK SMILES IDX 6 1 7 2 2 3 1 4 3 5 4 6 5 7 8 8 9 9 10 10 11 11 12 12 18 14
REMARK SMILES IDX 15 15 17 16 16 17 14 18 13 19
REMARK H PARENT
REMARK Flexibility Score: 70.00
ROOT
ATOM      1  C   UNL     1       1.649  23.480  56.049  1.00  0.00     0.216 C 
ATOM      2  C   UNL     1       0.493  23.813  57.034  1.00  0.00     0.070 C 
ATOM      3  C   UNL     1      -0.658  23.947  56.084  1.00  0.00     0.037 C 
ATOM      4  C   UNL     1      -1.956  23.994  56.380  1.00  0.00     0.021 C 
ATOM      5  C   UNL     1      -0.055  24.319  54.809  1.00  0.00     0.334 C 
ATOM      6  O   UNL     1      -0.679  24.737  53.798  1.00  0.00    -0.247 OA
ATOM      7  O   UNL     1       1.325  24.195  54.866  1.00  0.00    -0.455 OA
ENDROOT
BRANCH   2   8
ATOM      8  C   UNL     1       0.401  22.827  58.238  1.00  0.00     0.017 C 
BRANCH   8   9
ATOM      9  C   UNL     1       1.387  23.206  59.403  1.00  0.00     0.031 C 
BRANCH   9  10
ATOM     10  C   UNL     1       2.471  22.165  59.696  1.00  0.00    -0.077 C 
ATOM     11  C   UNL     1       2.009  20.779  60.072  1.00  0.00     0.039 C 
ATOM     12  C   UNL     1       3.824  22.392  59.682  1.00  0.00    -0.028 CG0
ATOM     13  G   UNL     1       4.562  23.669  59.284  1.00  0.00     0.000 G0
ENDBRANCH   9  10
ENDBRANCH   8   9
ENDBRANCH   2   8
BRANCH   1  14
ATOM     14  C   UNL     1       2.973  23.849  56.708  1.00  0.00     0.192 C 
ATOM     15  C   UNL     1       4.407  23.387  56.665  1.00  0.00     0.096 C 
ATOM     16  O   UNL     1       3.411  22.529  57.021  1.00  0.00    -0.362 OA
ATOM     17  C   UNL     1       5.020  23.022  55.318  1.00  0.00     0.045 C 
BRANCH  15  18
ATOM     18  C   UNL     1       5.312  23.577  57.911  1.00  0.00     0.042 C 
BRANCH  18  19
ATOM     19  C   UNL     1       4.572  23.672  59.291  1.00  0.00     0.030 CG0
ATOM     20  G   UNL     1       3.831  22.397  59.691  1.00  0.00     0.000 G0
ENDBRANCH  18  19
ENDBRANCH  15  18
ENDBRANCH   1  14
TORSDOF 0
ENDMDL
MODEL 7
REMARK VINA RESULT:    -3.768      2.995      4.488
REMARK INTER + INTRA:          -2.893
REMARK INTER:                  -5.224
REMARK INTRA:                   2.331
REMARK UNBOUND:                 2.197
REMARK SMILES C=C1C(=O)O[C@@H]2[C@@H]1CCC(C)=CCC[C@@]1(C)O[C@H]21
REMARK SMILES IDX 6 1 7 2 2 3 1 4 3 5 4 6 5 7 8 8 9 9 10 10 11 11 12 12 18 14
REMARK SMILES IDX 15 15 17 16 16 17 14 18 13 19
REMARK H PARENT
REMARK Flexibility Score: 70.00
ROOT
ATOM      1  C   UNL     1       2.731  25.438  51.212  1.00  0.00     0.216 C 
ATOM      2  C   UNL     1       2.221  24.224  50.386  1.00  0.00     0.070 C 
ATOM      3  C   UNL     1       1.591  24.921  49.219  1.00  0.00     0.037 C 
ATOM      4  C   UNL     1       1.195  24.383  48.066  1.00  0.00     0.021 C 
ATOM      5  C   UNL     1       1.225  26.241  49.718  1.00  0.00     0.334 C 
ATOM      6  O   UNL     1       0.480  27.068  49.128  1.00  0.00    -0.247 OA
ATOM      7  O   UNL     1       1.773  26.458  50.974  1.00  0.00    -0.455 OA
ENDROOT
BRANCH   2   8
ATOM      8  C   UNL     1       3.309  23.133  50.149  1.00  0.00     0.017 C 
BRANCH   8   9
ATOM      9  C   UNL     1       4.321  23.022  51.348  1.00  0.00     0.031 C 
BRANCH   9  10
ATOM     10  C   UNL     1       3.904  22.051  52.457  1.00  0.00    -0.077 C 
ATOM     11  C   UNL     1       3.154  20.811  52.037  1.00  0.00     0.039 C 
ATOM     12  C   UNL     1       4.121  22.227  53.799  1.00  0.00    -0.028 CG0
ATOM     13  G   UNL     1       4.897  23.347  54.490  1.00  0.00     0.000 G0
ENDBRANCH   9  10
ENDBRANCH   8   9
ENDBRANCH   2   8
BRANCH   1  14
ATOM     14  C   UNL     1       2.896  25.005  52.664  1.00  0.00     0.192 C 
ATOM     15  C   UNL     1       3.533  25.539  53.922  1.00  0.00     0.096 C 
ATOM     16  O   UNL     1       4.280  25.316  52.805  1.00  0.00    -0.362 OA
ATOM     17  C   UNL     1       3.405  27.026  54.234  1.00  0.00     0.045 C 
BRANCH  15  18
ATOM     18  C   UNL     1       4.030  24.551  55.009  1.00  0.00     0.042 C 
BRANCH  18  19
ATOM     19  C   UNL     1       4.907  23.354  54.502  1.00  0.00     0.030 CG0
ATOM     20  G   UNL     1       4.112  22.243  53.819  1.00  0.00     0.000 G0
ENDBRANCH  18  19
ENDBRANCH  15  18
ENDBRANCH   1  14
TORSDOF 0
ENDMDL
MODEL 8
REMARK VINA RESULT:    -3.700      3.126      4.789
REMARK INTER + INTRA:          -2.802
REMARK INTER:                  -4.940
REMARK INTRA:                   2.139
REMARK UNBOUND:                 2.197
REMARK SMILES C=C1C(=O)O[C@@H]2[C@@H]1CCC(C)=CCC[C@@]1(C)O[C@H]21
REMARK SMILES IDX 6 1 7 2 2 3 1 4 3 5 4 6 5 7 8 8 9 9 10 10 11 11 12 12 18 14
REMARK SMILES IDX 15 15 17 16 16 17 14 18 13 19
REMARK H PARENT
REMARK Flexibility Score: 70.00
ROOT
ATOM      1  C   UNL     1       4.293  22.706  55.105  1.00  0.00     0.216 C 
ATOM      2  C   UNL     1       3.281  22.617  56.283  1.00  0.00     0.070 C 
ATOM      3  C   UNL     1       4.214  22.470  57.446  1.00  0.00     0.037 C 
ATOM      4  C   UNL     1       3.924  22.586  58.741  1.00  0.00     0.021 C 
ATOM      5  C   UNL     1       5.424  21.879  56.889  1.00  0.00     0.334 C 
ATOM      6  O   UNL     1       6.377  21.393  57.554  1.00  0.00    -0.247 OA
ATOM      7  O   UNL     1       5.374  21.876  55.503  1.00  0.00    -0.455 OA
ENDROOT
BRANCH   2   8
ATOM      8  C   UNL     1       2.218  23.758  56.274  1.00  0.00     0.017 C 
BRANCH   8   9
ATOM      9  C   UNL     1       0.982  23.421  55.361  1.00  0.00     0.031 C 
BRANCH   9  10
ATOM     10  C   UNL     1       0.778  24.368  54.175  1.00  0.00    -0.077 C 
ATOM     11  C   UNL     1       0.560  25.827  54.492  1.00  0.00     0.039 C 
ATOM     12  C   UNL     1       0.739  24.001  52.855  1.00  0.00    -0.028 CG0
ATOM     13  G   UNL     1       0.985  22.619  52.252  1.00  0.00     0.000 G0
ENDBRANCH   9  10
ENDBRANCH   8   9
ENDBRANCH   2   8
BRANCH   1  14
ATOM     14  C   UNL     1       3.581  22.303  53.819  1.00  0.00     0.192 C 
ATOM     15  C   UNL     1       3.645  22.648  52.353  1.00  0.00     0.096 C 
ATOM     16  O   UNL     1       3.388  23.610  53.284  1.00  0.00    -0.362 OA
ATOM     17  C   UNL     1       5.011  22.835  51.703  1.00  0.00     0.045 C 
BRANCH  15  18
ATOM     18  C   UNL     1       2.373  22.511  51.477  1.00  0.00     0.042 C 
BRANCH  18  19
ATOM     19  C   UNL     1       1.002  22.625  52.230  1.00  0.00     0.030 CG0
ATOM     20  G   UNL     1       0.742  23.998  52.848  1.00  0.00     0.000 G0
ENDBRANCH  18  19
ENDBRANCH  15  18
ENDBRANCH   1  14
TORSDOF 0
ENDMDL
MODEL 9
REMARK VINA RESULT:    -3.655      3.199      5.573
REMARK INTER + INTRA:          -2.741
REMARK INTER:                  -5.187
REMARK INTRA:                   2.446
REMARK UNBOUND:                 2.197
REMARK SMILES C=C1C(=O)O[C@@H]2[C@@H]1CCC(C)=CCC[C@@]1(C)O[C@H]21
REMARK SMILES IDX 6 1 7 2 2 3 1 4 3 5 4 6 5 7 8 8 9 9 10 10 11 11 12 12 18 14
REMARK SMILES IDX 15 15 17 16 16 17 14 18 13 19
REMARK H PARENT
REMARK Flexibility Score: 70.00
ROOT
ATOM      1  C   UNL     1       2.149  23.162  54.690  1.00  0.00     0.216 C 
ATOM      2  C   UNL     1       3.398  22.395  54.173  1.00  0.00     0.070 C 
ATOM      3  C   UNL     1       3.189  22.481  52.691  1.00  0.00     0.037 C 
ATOM      4  C   UNL     1       4.066  22.203  51.728  1.00  0.00     0.021 C 
ATOM      5  C   UNL     1       1.749  22.635  52.521  1.00  0.00     0.334 C 
ATOM      6  O   UNL     1       1.124  22.531  51.432  1.00  0.00    -0.247 OA
ATOM      7  O   UNL     1       1.134  22.870  53.741  1.00  0.00    -0.455 OA
ENDROOT
BRANCH   2   8
ATOM      8  C   UNL     1       4.736  22.890  54.802  1.00  0.00     0.017 C 
BRANCH   8   9
ATOM      9  C   UNL     1       4.577  23.288  56.315  1.00  0.00     0.031 C 
BRANCH   9  10
ATOM     10  C   UNL     1       4.568  22.111  57.295  1.00  0.00    -0.077 C 
ATOM     11  C   UNL     1       5.454  20.936  56.965  1.00  0.00     0.039 C 
ATOM     12  C   UNL     1       3.797  22.016  58.425  1.00  0.00    -0.028 CG0
ATOM     13  G   UNL     1       2.866  23.069  59.023  1.00  0.00     0.000 G0
ENDBRANCH   9  10
ENDBRANCH   8   9
ENDBRANCH   2   8
BRANCH   1  14
ATOM     14  C   UNL     1       1.867  22.725  56.123  1.00  0.00     0.192 C 
ATOM     15  C   UNL     1       0.922  23.095  57.237  1.00  0.00     0.096 C 
ATOM     16  O   UNL     1       1.771  24.020  56.709  1.00  0.00    -0.362 OA
ATOM     17  C   UNL     1      -0.533  23.396  56.895  1.00  0.00     0.045 C 
BRANCH  15  18
ATOM     18  C   UNL     1       1.350  22.873  58.711  1.00  0.00     0.042 C 
BRANCH  18  19
ATOM     19  C   UNL     1       2.873  23.079  59.025  1.00  0.00     0.030 CG0
ATOM     20  G   UNL     1       3.785  22.019  58.409  1.00  0.00     0.000 G0
ENDBRANCH  18  19
ENDBRANCH  15  18
ENDBRANCH   1  14
TORSDOF 0
ENDMDL
