MODEL 1
REMARK VINA RESULT:    -2.477      0.000      0.000
REMARK INTER + INTRA:          -2.776
REMARK INTER:                  -2.766
REMARK INTRA:                  -0.010
REMARK UNBOUND:                -0.010
REMARK SMILES CCCC(=O)[O-]
REMARK SMILES IDX 3 1 4 2 5 3 6 4 2 5 1 6
REMARK H PARENT
REMARK Flexibility Score: inf
ROOT
ATOM      1  C   UNL     1      53.586  27.361  49.593  1.00  0.00     0.052 C 
ENDROOT
BRANCH   1   2
ATOM      2  C   UNL     1      54.282  26.037  49.500  1.00  0.00     0.041 C 
ATOM      3  O   UNL     1      55.537  25.974  49.579  1.00  0.00    -0.550 OA
ATOM      4  O   UNL     1      53.547  24.877  49.292  1.00  0.00    -0.550 OA
ENDBRANCH   1   2
BRANCH   1   5
ATOM      5  C   UNL     1      54.445  28.405  50.317  1.00  0.00     0.003 C 
ATOM      6  C   UNL     1      53.695  29.718  50.545  1.00  0.00     0.004 C 
ENDBRANCH   1   5
TORSDOF 2
ENDMDL
MODEL 2
REMARK VINA RESULT:    -2.426      4.433      5.087
REMARK INTER + INTRA:          -2.720
REMARK INTER:                  -2.683
REMARK INTRA:                  -0.037
REMARK UNBOUND:                -0.010
REMARK SMILES CCCC(=O)[O-]
REMARK SMILES IDX 3 1 4 2 5 3 6 4 2 5 1 6
REMARK H PARENT
REMARK Flexibility Score: inf
ROOT
ATOM      1  C   UNL     1      58.908  28.808  49.215  1.00  0.00     0.052 C 
ENDROOT
BRANCH   1   2
ATOM      2  C   UNL     1      59.778  27.588  49.218  1.00  0.00     0.041 C 
ATOM      3  O   UNL     1      61.030  27.704  49.162  1.00  0.00    -0.550 OA
ATOM      4  O   UNL     1      59.205  26.324  49.250  1.00  0.00    -0.550 OA
ENDBRANCH   1   2
BRANCH   1   5
ATOM      5  C   UNL     1      58.160  28.977  50.544  1.00  0.00     0.003 C 
ATOM      6  C   UNL     1      56.697  28.549  50.447  1.00  0.00     0.004 C 
ENDBRANCH   1   5
TORSDOF 2
ENDMDL
MODEL 3
REMARK VINA RESULT:    -2.414     15.983     16.570
REMARK INTER + INTRA:          -2.705
REMARK INTER:                  -2.694
REMARK INTRA:                  -0.011
REMARK UNBOUND:                -0.010
REMARK SMILES CCCC(=O)[O-]
REMARK SMILES IDX 3 1 4 2 5 3 6 4 2 5 1 6
REMARK H PARENT
REMARK Flexibility Score: inf
ROOT
ATOM      1  C   UNL     1      62.615  34.730  60.851  1.00  0.00     0.052 C 
ENDROOT
BRANCH   1   2
ATOM      2  C   UNL     1      63.983  34.249  61.227  1.00  0.00     0.041 C 
ATOM      3  O   UNL     1      64.750  34.985  61.902  1.00  0.00    -0.550 OA
ATOM      4  O   UNL     1      64.424  33.002  60.803  1.00  0.00    -0.550 OA
ENDBRANCH   1   2
BRANCH   1   5
ATOM      5  C   UNL     1      62.395  36.193  61.256  1.00  0.00     0.003 C 
ATOM      6  C   UNL     1      61.089  36.760  60.699  1.00  0.00     0.004 C 
ENDBRANCH   1   5
TORSDOF 2
ENDMDL
MODEL 4
REMARK VINA RESULT:    -2.387      1.737      2.262
REMARK INTER + INTRA:          -2.676
REMARK INTER:                  -2.663
REMARK INTRA:                  -0.013
REMARK UNBOUND:                -0.010
REMARK SMILES CCCC(=O)[O-]
REMARK SMILES IDX 3 1 4 2 5 3 6 4 2 5 1 6
REMARK H PARENT
REMARK Flexibility Score: inf
ROOT
ATOM      1  C   UNL     1      55.509  26.555  50.003  1.00  0.00     0.052 C 
ENDROOT
BRANCH   1   2
ATOM      2  C   UNL     1      54.129  26.338  49.462  1.00  0.00     0.041 C 
ATOM      3  O   UNL     1      53.766  25.190  49.094  1.00  0.00    -0.550 OA
ATOM      4  O   UNL     1      53.255  27.410  49.332  1.00  0.00    -0.550 OA
ENDBRANCH   1   2
BRANCH   1   5
ATOM      5  C   UNL     1      55.723  28.006  50.452  1.00  0.00     0.003 C 
ATOM      6  C   UNL     1      57.177  28.452  50.306  1.00  0.00     0.004 C 
ENDBRANCH   1   5
TORSDOF 2
ENDMDL
MODEL 5
REMARK VINA RESULT:    -2.366     15.716     16.709
REMARK INTER + INTRA:          -2.653
REMARK INTER:                  -2.636
REMARK INTRA:                  -0.017
REMARK UNBOUND:                -0.010
REMARK SMILES CCCC(=O)[O-]
REMARK SMILES IDX 3 1 4 2 5 3 6 4 2 5 1 6
REMARK H PARENT
REMARK Flexibility Score: inf
ROOT
ATOM      1  C   UNL     1      63.518  34.057  60.880  1.00  0.00     0.052 C 
ENDROOT
BRANCH   1   2
ATOM      2  C   UNL     1      63.745  35.378  61.549  1.00  0.00     0.041 C 
ATOM      3  O   UNL     1      62.834  36.247  61.562  1.00  0.00    -0.550 OA
ATOM      4  O   UNL     1      64.975  35.663  62.130  1.00  0.00    -0.550 OA
ENDBRANCH   1   2
BRANCH   1   5
ATOM      5  C   UNL     1      62.037  33.833  60.550  1.00  0.00     0.003 C 
ATOM      6  C   UNL     1      61.575  32.415  60.884  1.00  0.00     0.004 C 
ENDBRANCH   1   5
TORSDOF 2
ENDMDL
MODEL 6
REMARK VINA RESULT:    -2.359     13.942     14.588
REMARK INTER + INTRA:          -2.644
REMARK INTER:                  -2.613
REMARK INTRA:                  -0.031
REMARK UNBOUND:                -0.010
REMARK SMILES CCCC(=O)[O-]
REMARK SMILES IDX 3 1 4 2 5 3 6 4 2 5 1 6
REMARK H PARENT
REMARK Flexibility Score: inf
ROOT
ATOM      1  C   UNL     1      61.260  30.796  61.916  1.00  0.00     0.052 C 
ENDROOT
BRANCH   1   2
ATOM      2  C   UNL     1      62.441  29.875  61.901  1.00  0.00     0.041 C 
ATOM      3  O   UNL     1      63.608  30.342  61.848  1.00  0.00    -0.550 OA
ATOM      4  O   UNL     1      62.250  28.499  61.911  1.00  0.00    -0.550 OA
ENDBRANCH   1   2
BRANCH   1   5
ATOM      5  C   UNL     1      61.112  31.556  60.592  1.00  0.00     0.003 C 
ATOM      6  C   UNL     1      61.619  32.994  60.687  1.00  0.00     0.004 C 
ENDBRANCH   1   5
TORSDOF 2
ENDMDL
MODEL 7
REMARK VINA RESULT:    -2.347      2.200      3.032
REMARK INTER + INTRA:          -2.631
REMARK INTER:                  -2.622
REMARK INTRA:                  -0.009
REMARK UNBOUND:                -0.010
REMARK SMILES CCCC(=O)[O-]
REMARK SMILES IDX 3 1 4 2 5 3 6 4 2 5 1 6
REMARK H PARENT
REMARK Flexibility Score: inf
ROOT
ATOM      1  C   UNL     1      54.869  27.085  49.916  1.00  0.00     0.052 C 
ENDROOT
BRANCH   1   2
ATOM      2  C   UNL     1      56.310  26.998  50.316  1.00  0.00     0.041 C 
ATOM      3  O   UNL     1      56.855  27.951  50.931  1.00  0.00    -0.550 OA
ATOM      4  O   UNL     1      57.059  25.878  49.980  1.00  0.00    -0.550 OA
ENDBRANCH   1   2
BRANCH   1   5
ATOM      5  C   UNL     1      54.387  25.795  49.241  1.00  0.00     0.003 C 
ATOM      6  C   UNL     1      52.908  25.856  48.859  1.00  0.00     0.004 C 
ENDBRANCH   1   5
TORSDOF 2
ENDMDL
MODEL 8
REMARK VINA RESULT:    -2.296     20.698     21.528
REMARK INTER + INTRA:          -2.574
REMARK INTER:                  -2.542
REMARK INTRA:                  -0.032
REMARK UNBOUND:                -0.010
REMARK SMILES CCCC(=O)[O-]
REMARK SMILES IDX 3 1 4 2 5 3 6 4 2 5 1 6
REMARK H PARENT
REMARK Flexibility Score: inf
ROOT
ATOM      1  C   UNL     1      71.448  31.355  60.466  1.00  0.00     0.052 C 
ENDROOT
BRANCH   1   2
ATOM      2  C   UNL     1      71.321  32.764  59.971  1.00  0.00     0.041 C 
ATOM      3  O   UNL     1      71.373  33.009  58.737  1.00  0.00    -0.550 OA
ATOM      4  O   UNL     1      71.177  33.809  60.874  1.00  0.00    -0.550 OA
ENDBRANCH   1   2
BRANCH   1   5
ATOM      5  C   UNL     1      72.884  31.033  60.900  1.00  0.00     0.003 C 
ATOM      6  C   UNL     1      72.997  30.798  62.406  1.00  0.00     0.004 C 
ENDBRANCH   1   5
TORSDOF 2
ENDMDL
MODEL 9
REMARK VINA RESULT:    -2.291      3.826      4.692
REMARK INTER + INTRA:          -2.568
REMARK INTER:                  -2.548
REMARK INTRA:                  -0.020
REMARK UNBOUND:                -0.010
REMARK SMILES CCCC(=O)[O-]
REMARK SMILES IDX 3 1 4 2 5 3 6 4 2 5 1 6
REMARK H PARENT
REMARK Flexibility Score: inf
ROOT
ATOM      1  C   UNL     1      57.982  27.605  50.323  1.00  0.00     0.052 C 
ENDROOT
BRANCH   1   2
ATOM      2  C   UNL     1      58.990  28.208  49.392  1.00  0.00     0.041 C 
ATOM      3  O   UNL     1      58.794  29.349  48.899  1.00  0.00    -0.550 OA
ATOM      4  O   UNL     1      60.130  27.494  49.044  1.00  0.00    -0.550 OA
ENDBRANCH   1   2
BRANCH   1   5
ATOM      5  C   UNL     1      56.724  28.474  50.439  1.00  0.00     0.003 C 
ATOM      6  C   UNL     1      55.439  27.651  50.355  1.00  0.00     0.004 C 
ENDBRANCH   1   5
TORSDOF 2
ENDMDL
