MODEL 1
REMARK VINA RESULT:    -6.077      0.000      0.000
REMARK INTER + INTRA:          -7.282
REMARK INTER:                  -6.965
REMARK INTRA:                  -0.318
REMARK UNBOUND:                -0.318
REMARK SMILES O=C1C[C@@H](c2ccc(O)cc2)Oc2cc(O)cc(O)c21
REMARK SMILES IDX 3 1 4 2 12 3 13 4 14 5 15 6 17 7 18 8 20 9 2 10 1 11 5 12
REMARK SMILES IDX 6 13 11 14 7 15 10 16 8 17 9 18 19 20 16 22
REMARK H PARENT 9 19 19 21 16 23
REMARK Flexibility Score: inf
ROOT
ATOM      1  C   UNL     1      -2.100   9.553   5.071  1.00  0.00     0.131 C 
ATOM      2  C   UNL     1      -0.877   9.039   4.303  1.00  0.00     0.211 C 
ATOM      3  O   UNL     1      -1.123   7.719   3.818  1.00  0.00    -0.484 OA
ATOM      4  C   UNL     1      -2.327   7.376   3.196  1.00  0.00     0.138 A 
ATOM      5  C   UNL     1      -2.393   6.189   2.465  1.00  0.00     0.093 A 
ATOM      6  C   UNL     1      -3.573   5.828   1.810  1.00  0.00     0.123 A 
ATOM      7  C   UNL     1      -4.684   6.669   1.875  1.00  0.00     0.093 A 
ATOM      8  C   UNL     1      -4.641   7.869   2.597  1.00  0.00     0.133 A 
ATOM      9  C   UNL     1      -3.460   8.213   3.315  1.00  0.00     0.102 A 
ATOM     10  C   UNL     1      -3.353   9.362   4.261  1.00  0.00     0.174 C 
ATOM     11  O   UNL     1      -4.327  10.125   4.490  1.00  0.00    -0.294 OA
ENDROOT
BRANCH   2  12
ATOM     12  C   UNL     1       0.352   9.051   5.179  1.00  0.00    -0.007 A 
ATOM     13  C   UNL     1       0.585  10.125   6.055  1.00  0.00     0.011 A 
ATOM     14  C   UNL     1       1.245   7.964   5.173  1.00  0.00     0.011 A 
ATOM     15  C   UNL     1       1.706  10.124   6.890  1.00  0.00     0.046 A 
ATOM     16  C   UNL     1       2.366   7.967   6.009  1.00  0.00     0.046 A 
ATOM     17  C   UNL     1       2.600   9.045   6.869  1.00  0.00     0.115 A 
BRANCH  17  18
ATOM     18  O   UNL     1       3.721   9.034   7.696  1.00  0.00    -0.508 OA
ATOM     19  H   UNL     1       4.163   9.894   8.000  1.00  0.00     0.293 HD
ENDBRANCH  17  18
ENDBRANCH   2  12
BRANCH   8  20
ATOM     20  O   UNL     1      -5.780   8.675   2.549  1.00  0.00    -0.507 OA
ATOM     21  H   UNL     1      -6.187   9.042   1.703  1.00  0.00     0.293 HD
ENDBRANCH   8  20
BRANCH   6  22
ATOM     22  O   UNL     1      -3.648   4.643   1.083  1.00  0.00    -0.508 OA
ATOM     23  H   UNL     1      -4.317   3.919   1.318  1.00  0.00     0.293 HD
ENDBRANCH   6  22
TORSDOF 4
ENDMDL
MODEL 2
REMARK VINA RESULT:    -5.692      2.116      3.127
REMARK INTER + INTRA:          -6.842
REMARK INTER:                  -6.549
REMARK INTRA:                  -0.292
REMARK UNBOUND:                -0.318
REMARK SMILES O=C1C[C@@H](c2ccc(O)cc2)Oc2cc(O)cc(O)c21
REMARK SMILES IDX 3 1 4 2 12 3 13 4 14 5 15 6 17 7 18 8 20 9 2 10 1 11 5 12
REMARK SMILES IDX 6 13 11 14 7 15 10 16 8 17 9 18 19 20 16 22
REMARK H PARENT 9 19 19 21 16 23
REMARK Flexibility Score: inf
ROOT
ATOM      1  C   UNL     1       0.051   9.428   2.588  1.00  0.00     0.131 C 
ATOM      2  C   UNL     1      -0.431   8.568   3.762  1.00  0.00     0.211 C 
ATOM      3  O   UNL     1      -1.716   9.011   4.199  1.00  0.00    -0.484 OA
ATOM      4  C   UNL     1      -2.742   9.301   3.294  1.00  0.00     0.138 A 
ATOM      5  C   UNL     1      -4.048   9.415   3.771  1.00  0.00     0.093 A 
ATOM      6  C   UNL     1      -5.100   9.679   2.891  1.00  0.00     0.123 A 
ATOM      7  C   UNL     1      -4.842   9.812   1.526  1.00  0.00     0.093 A 
ATOM      8  C   UNL     1      -3.540   9.695   1.022  1.00  0.00     0.133 A 
ATOM      9  C   UNL     1      -2.456   9.486   1.922  1.00  0.00     0.102 A 
ATOM     10  C   UNL     1      -1.016   9.527   1.532  1.00  0.00     0.174 C 
ATOM     11  O   UNL     1      -0.656   9.755   0.348  1.00  0.00    -0.294 OA
ENDROOT
BRANCH   2  12
ATOM     12  C   UNL     1       0.553   8.620   4.906  1.00  0.00    -0.007 A 
ATOM     13  C   UNL     1       1.458   7.564   5.107  1.00  0.00     0.011 A 
ATOM     14  C   UNL     1       0.616   9.748   5.744  1.00  0.00     0.011 A 
ATOM     15  C   UNL     1       2.391   7.623   6.147  1.00  0.00     0.046 A 
ATOM     16  C   UNL     1       1.551   9.803   6.783  1.00  0.00     0.046 A 
ATOM     17  C   UNL     1       2.439   8.743   6.988  1.00  0.00     0.115 A 
BRANCH  17  18
ATOM     18  O   UNL     1       3.365   8.812   8.027  1.00  0.00    -0.508 OA
ATOM     19  H   UNL     1       4.218   8.265   8.013  1.00  0.00     0.293 HD
ENDBRANCH  17  18
ENDBRANCH   2  12
BRANCH   8  20
ATOM     20  O   UNL     1      -3.390   9.779  -0.364  1.00  0.00    -0.507 OA
ATOM     21  H   UNL     1      -3.189  10.628  -0.868  1.00  0.00     0.293 HD
ENDBRANCH   8  20
BRANCH   6  22
ATOM     22  O   UNL     1      -6.406   9.799   3.359  1.00  0.00    -0.508 OA
ATOM     23  H   UNL     1      -7.194   9.841   2.724  1.00  0.00     0.293 HD
ENDBRANCH   6  22
TORSDOF 4
ENDMDL
MODEL 3
REMARK VINA RESULT:    -5.473      1.996      7.029
REMARK INTER + INTRA:          -6.591
REMARK INTER:                  -6.284
REMARK INTRA:                  -0.307
REMARK UNBOUND:                -0.318
REMARK SMILES O=C1C[C@@H](c2ccc(O)cc2)Oc2cc(O)cc(O)c21
REMARK SMILES IDX 3 1 4 2 12 3 13 4 14 5 15 6 17 7 18 8 20 9 2 10 1 11 5 12
REMARK SMILES IDX 6 13 11 14 7 15 10 16 8 17 9 18 19 20 16 22
REMARK H PARENT 9 19 19 21 16 23
REMARK Flexibility Score: inf
ROOT
ATOM      1  C   UNL     1      -0.013   9.385   2.605  1.00  0.00     0.131 C 
ATOM      2  C   UNL     1      -0.841   9.760   3.839  1.00  0.00     0.211 C 
ATOM      3  O   UNL     1      -0.279   9.160   5.007  1.00  0.00    -0.484 OA
ATOM      4  C   UNL     1       1.096   9.187   5.259  1.00  0.00     0.138 A 
ATOM      5  C   UNL     1       1.552   8.881   6.542  1.00  0.00     0.093 A 
ATOM      6  C   UNL     1       2.917   8.923   6.834  1.00  0.00     0.123 A 
ATOM      7  C   UNL     1       3.826   9.291   5.841  1.00  0.00     0.093 A 
ATOM      8  C   UNL     1       3.392   9.609   4.547  1.00  0.00     0.133 A 
ATOM      9  C   UNL     1       2.008   9.510   4.228  1.00  0.00     0.102 A 
ATOM     10  C   UNL     1       1.449   9.644   2.850  1.00  0.00     0.174 C 
ATOM     11  O   UNL     1       2.186   9.861   1.854  1.00  0.00    -0.294 OA
ENDROOT
BRANCH   2  12
ATOM     12  C   UNL     1      -2.278   9.327   3.673  1.00  0.00    -0.007 A 
ATOM     13  C   UNL     1      -3.123  10.011   2.783  1.00  0.00     0.011 A 
ATOM     14  C   UNL     1      -2.771   8.203   4.361  1.00  0.00     0.011 A 
ATOM     15  C   UNL     1      -4.445   9.594   2.604  1.00  0.00     0.046 A 
ATOM     16  C   UNL     1      -4.094   7.789   4.180  1.00  0.00     0.046 A 
ATOM     17  C   UNL     1      -4.934   8.482   3.303  1.00  0.00     0.115 A 
BRANCH  17  18
ATOM     18  O   UNL     1      -6.251   8.058   3.133  1.00  0.00    -0.508 OA
ATOM     19  H   UNL     1      -6.474   7.229   2.594  1.00  0.00     0.293 HD
ENDBRANCH  17  18
ENDBRANCH   2  12
BRANCH   8  20
ATOM     20  O   UNL     1       4.368  10.028   3.640  1.00  0.00    -0.507 OA
ATOM     21  H   UNL     1       4.962   9.409   3.113  1.00  0.00     0.293 HD
ENDBRANCH   8  20
BRANCH   6  22
ATOM     22  O   UNL     1       3.380   8.614   8.110  1.00  0.00    -0.508 OA
ATOM     23  H   UNL     1       4.238   9.013   8.474  1.00  0.00     0.293 HD
ENDBRANCH   6  22
TORSDOF 4
ENDMDL
MODEL 4
REMARK VINA RESULT:    -5.362      2.683      7.306
REMARK INTER + INTRA:          -6.463
REMARK INTER:                  -6.154
REMARK INTRA:                  -0.310
REMARK UNBOUND:                -0.318
REMARK SMILES O=C1C[C@@H](c2ccc(O)cc2)Oc2cc(O)cc(O)c21
REMARK SMILES IDX 3 1 4 2 12 3 13 4 14 5 15 6 17 7 18 8 20 9 2 10 1 11 5 12
REMARK SMILES IDX 6 13 11 14 7 15 10 16 8 17 9 18 19 20 16 22
REMARK H PARENT 9 19 19 21 16 23
REMARK Flexibility Score: inf
ROOT
ATOM      1  C   UNL     1       1.057   9.887   6.058  1.00  0.00     0.131 C 
ATOM      2  C   UNL     1       0.683   9.154   4.764  1.00  0.00     0.211 C 
ATOM      3  O   UNL     1       1.516   9.594   3.693  1.00  0.00    -0.484 OA
ATOM      4  C   UNL     1       2.900   9.733   3.846  1.00  0.00     0.138 A 
ATOM      5  C   UNL     1       3.694   9.850   2.705  1.00  0.00     0.093 A 
ATOM      6  C   UNL     1       5.082   9.965   2.820  1.00  0.00     0.123 A 
ATOM      7  C   UNL     1       5.674   9.945   4.083  1.00  0.00     0.093 A 
ATOM      8  C   UNL     1       4.898   9.822   5.243  1.00  0.00     0.133 A 
ATOM      9  C   UNL     1       3.479   9.764   5.134  1.00  0.00     0.102 A 
ATOM     10  C   UNL     1       2.541   9.817   6.295  1.00  0.00     0.174 C 
ATOM     11  O   UNL     1       2.956   9.917   7.478  1.00  0.00    -0.294 OA
ENDROOT
BRANCH   2  12
ATOM     12  C   UNL     1      -0.770   9.381   4.420  1.00  0.00    -0.007 A 
ATOM     13  C   UNL     1      -1.656   9.878   5.390  1.00  0.00     0.011 A 
ATOM     14  C   UNL     1      -1.239   9.154   3.114  1.00  0.00     0.011 A 
ATOM     15  C   UNL     1      -2.995  10.119   5.066  1.00  0.00     0.046 A 
ATOM     16  C   UNL     1      -2.578   9.395   2.793  1.00  0.00     0.046 A 
ATOM     17  C   UNL     1      -3.460   9.877   3.766  1.00  0.00     0.115 A 
BRANCH  17  18
ATOM     18  O   UNL     1      -4.792  10.112   3.432  1.00  0.00    -0.508 OA
ATOM     19  H   UNL     1      -5.548   9.624   3.898  1.00  0.00     0.293 HD
ENDBRANCH  17  18
ENDBRANCH   2  12
BRANCH   8  20
ATOM     20  O   UNL     1       5.584   9.746   6.457  1.00  0.00    -0.507 OA
ATOM     21  H   UNL     1       5.188   9.404   7.318  1.00  0.00     0.293 HD
ENDBRANCH   8  20
BRANCH   6  22
ATOM     22  O   UNL     1       5.882  10.087   1.687  1.00  0.00    -0.508 OA
ATOM     23  H   UNL     1       6.217  10.989   1.370  1.00  0.00     0.293 HD
ENDBRANCH   6  22
TORSDOF 4
ENDMDL
MODEL 5
REMARK VINA RESULT:    -5.361      1.807      6.970
REMARK INTER + INTRA:          -6.462
REMARK INTER:                  -6.145
REMARK INTRA:                  -0.317
REMARK UNBOUND:                -0.318
REMARK SMILES O=C1C[C@@H](c2ccc(O)cc2)Oc2cc(O)cc(O)c21
REMARK SMILES IDX 3 1 4 2 12 3 13 4 14 5 15 6 17 7 18 8 20 9 2 10 1 11 5 12
REMARK SMILES IDX 6 13 11 14 7 15 10 16 8 17 9 18 19 20 16 22
REMARK H PARENT 9 19 19 21 16 23
REMARK Flexibility Score: inf
ROOT
ATOM      1  C   UNL     1      -0.733   6.793   3.226  1.00  0.00     0.131 C 
ATOM      2  C   UNL     1      -0.865   8.302   3.459  1.00  0.00     0.211 C 
ATOM      3  O   UNL     1      -0.319   8.652   4.730  1.00  0.00    -0.484 OA
ATOM      4  C   UNL     1       0.911   8.151   5.166  1.00  0.00     0.138 A 
ATOM      5  C   UNL     1       1.541   8.762   6.251  1.00  0.00     0.093 A 
ATOM      6  C   UNL     1       2.783   8.302   6.696  1.00  0.00     0.123 A 
ATOM      7  C   UNL     1       3.402   7.238   6.041  1.00  0.00     0.093 A 
ATOM      8  C   UNL     1       2.792   6.612   4.945  1.00  0.00     0.133 A 
ATOM      9  C   UNL     1       1.500   7.037   4.524  1.00  0.00     0.102 A 
ATOM     10  C   UNL     1       0.674   6.337   3.497  1.00  0.00     0.174 C 
ATOM     11  O   UNL     1       1.080   5.296   2.918  1.00  0.00    -0.294 OA
ENDROOT
BRANCH   2  12
ATOM     12  C   UNL     1      -2.309   8.735   3.376  1.00  0.00    -0.007 A 
ATOM     13  C   UNL     1      -3.192   8.084   2.497  1.00  0.00     0.011 A 
ATOM     14  C   UNL     1      -2.801   9.750   4.216  1.00  0.00     0.011 A 
ATOM     15  C   UNL     1      -4.537   8.461   2.440  1.00  0.00     0.046 A 
ATOM     16  C   UNL     1      -4.147  10.125   4.156  1.00  0.00     0.046 A 
ATOM     17  C   UNL     1      -5.017   9.484   3.270  1.00  0.00     0.115 A 
BRANCH  17  18
ATOM     18  O   UNL     1      -6.356   9.868   3.221  1.00  0.00    -0.508 OA
ATOM     19  H   UNL     1      -6.995   9.657   3.979  1.00  0.00     0.293 HD
ENDBRANCH  17  18
ENDBRANCH   2  12
BRANCH   8  20
ATOM     20  O   UNL     1       3.517   5.599   4.314  1.00  0.00    -0.507 OA
ATOM     21  H   UNL     1       3.106   4.808   3.844  1.00  0.00     0.293 HD
ENDBRANCH   8  20
BRANCH   6  22
ATOM     22  O   UNL     1       3.416   8.904   7.781  1.00  0.00    -0.508 OA
ATOM     23  H   UNL     1       3.584   8.398   8.643  1.00  0.00     0.293 HD
ENDBRANCH   6  22
TORSDOF 4
ENDMDL
MODEL 6
REMARK VINA RESULT:    -5.184     15.917     18.764
REMARK INTER + INTRA:          -6.260
REMARK INTER:                  -5.952
REMARK INTRA:                  -0.308
REMARK UNBOUND:                -0.318
REMARK SMILES O=C1C[C@@H](c2ccc(O)cc2)Oc2cc(O)cc(O)c21
REMARK SMILES IDX 3 1 4 2 12 3 13 4 14 5 15 6 17 7 18 8 20 9 2 10 1 11 5 12
REMARK SMILES IDX 6 13 11 14 7 15 10 16 8 17 9 18 19 20 16 22
REMARK H PARENT 9 19 19 21 16 23
REMARK Flexibility Score: inf
ROOT
ATOM      1  C   UNL     1      -8.624  -8.955   0.438  1.00  0.00     0.131 C 
ATOM      2  C   UNL     1      -8.238  -7.611  -0.189  1.00  0.00     0.211 C 
ATOM      3  O   UNL     1      -8.970  -6.553   0.430  1.00  0.00    -0.484 OA
ATOM      4  C   UNL     1      -9.114  -6.473   1.819  1.00  0.00     0.138 A 
ATOM      5  C   UNL     1      -9.550  -5.273   2.382  1.00  0.00     0.093 A 
ATOM      6  C   UNL     1      -9.681  -5.150   3.767  1.00  0.00     0.123 A 
ATOM      7  C   UNL     1      -9.356  -6.229   4.591  1.00  0.00     0.093 A 
ATOM      8  C   UNL     1      -8.909  -7.442   4.049  1.00  0.00     0.133 A 
ATOM      9  C   UNL     1      -8.831  -7.592   2.635  1.00  0.00     0.102 A 
ATOM     10  C   UNL     1      -8.548  -8.881   1.938  1.00  0.00     0.174 C 
ATOM     11  O   UNL     1      -8.353  -9.949   2.574  1.00  0.00    -0.294 OA
ENDROOT
BRANCH   2  12
ATOM     12  C   UNL     1      -8.495  -7.618  -1.677  1.00  0.00    -0.007 A 
ATOM     13  C   UNL     1      -7.691  -8.396  -2.528  1.00  0.00     0.011 A 
ATOM     14  C   UNL     1      -9.572  -6.896  -2.221  1.00  0.00     0.011 A 
ATOM     15  C   UNL     1      -7.945  -8.429  -3.903  1.00  0.00     0.046 A 
ATOM     16  C   UNL     1      -9.823  -6.931  -3.596  1.00  0.00     0.046 A 
ATOM     17  C   UNL     1      -9.012  -7.696  -4.440  1.00  0.00     0.115 A 
BRANCH  17  18
ATOM     18  O   UNL     1      -9.274  -7.721  -5.809  1.00  0.00    -0.508 OA
ATOM     19  H   UNL     1      -9.306  -8.593  -6.325  1.00  0.00     0.293 HD
ENDBRANCH  17  18
ENDBRANCH   2  12
BRANCH   8  20
ATOM     20  O   UNL     1      -8.547  -8.441   4.955  1.00  0.00    -0.507 OA
ATOM     21  H   UNL     1      -8.737  -9.423   4.830  1.00  0.00     0.293 HD
ENDBRANCH   8  20
BRANCH   6  22
ATOM     22  O   UNL     1     -10.121  -3.958   4.337  1.00  0.00    -0.508 OA
ATOM     23  H   UNL     1      -9.832  -3.677   5.267  1.00  0.00     0.293 HD
ENDBRANCH   6  22
TORSDOF 4
ENDMDL
MODEL 7
REMARK VINA RESULT:    -5.132      9.078     10.272
REMARK INTER + INTRA:          -6.200
REMARK INTER:                  -5.895
REMARK INTRA:                  -0.305
REMARK UNBOUND:                -0.318
REMARK SMILES O=C1C[C@@H](c2ccc(O)cc2)Oc2cc(O)cc(O)c21
REMARK SMILES IDX 3 1 4 2 12 3 13 4 14 5 15 6 17 7 18 8 20 9 2 10 1 11 5 12
REMARK SMILES IDX 6 13 11 14 7 15 10 16 8 17 9 18 19 20 16 22
REMARK H PARENT 9 19 19 21 16 23
REMARK Flexibility Score: inf
ROOT
ATOM      1  C   UNL     1      -5.297  -0.306   6.860  1.00  0.00     0.131 C 
ATOM      2  C   UNL     1      -4.349  -0.024   8.031  1.00  0.00     0.211 C 
ATOM      3  O   UNL     1      -4.978   0.843   8.974  1.00  0.00    -0.484 OA
ATOM      4  C   UNL     1      -6.297   0.642   9.392  1.00  0.00     0.138 A 
ATOM      5  C   UNL     1      -6.751   1.307  10.532  1.00  0.00     0.093 A 
ATOM      6  C   UNL     1      -8.055   1.110  10.992  1.00  0.00     0.123 A 
ATOM      7  C   UNL     1      -8.900   0.229  10.316  1.00  0.00     0.093 A 
ATOM      8  C   UNL     1      -8.465  -0.456   9.174  1.00  0.00     0.133 A 
ATOM      9  C   UNL     1      -7.157  -0.213   8.666  1.00  0.00     0.102 A 
ATOM     10  C   UNL     1      -6.647  -0.737   7.364  1.00  0.00     0.174 C 
ATOM     11  O   UNL     1      -7.360  -1.449   6.611  1.00  0.00    -0.294 OA
ENDROOT
BRANCH   2  12
ATOM     12  C   UNL     1      -3.059   0.589   7.542  1.00  0.00    -0.007 A 
ATOM     13  C   UNL     1      -2.788   0.659   6.164  1.00  0.00     0.011 A 
ATOM     14  C   UNL     1      -2.142   1.148   8.451  1.00  0.00     0.011 A 
ATOM     15  C   UNL     1      -1.609   1.254   5.706  1.00  0.00     0.046 A 
ATOM     16  C   UNL     1      -0.963   1.742   7.989  1.00  0.00     0.046 A 
ATOM     17  C   UNL     1      -0.692   1.796   6.618  1.00  0.00     0.115 A 
BRANCH  17  18
ATOM     18  O   UNL     1       0.487   2.391   6.173  1.00  0.00    -0.508 OA
ATOM     19  H   UNL     1       1.217   1.849   5.725  1.00  0.00     0.293 HD
ENDBRANCH  17  18
ENDBRANCH   2  12
BRANCH   8  20
ATOM     20  O   UNL     1      -9.360  -1.365   8.605  1.00  0.00    -0.507 OA
ATOM     21  H   UNL     1     -10.355  -1.367   8.766  1.00  0.00     0.293 HD
ENDBRANCH   8  20
BRANCH   6  22
ATOM     22  O   UNL     1      -8.517   1.774  12.125  1.00  0.00    -0.508 OA
ATOM     23  H   UNL     1      -7.992   1.772  12.991  1.00  0.00     0.293 HD
ENDBRANCH   6  22
TORSDOF 4
ENDMDL
MODEL 8
REMARK VINA RESULT:    -4.992     13.981     16.469
REMARK INTER + INTRA:          -6.040
REMARK INTER:                  -5.755
REMARK INTRA:                  -0.284
REMARK UNBOUND:                -0.318
REMARK SMILES O=C1C[C@@H](c2ccc(O)cc2)Oc2cc(O)cc(O)c21
REMARK SMILES IDX 3 1 4 2 12 3 13 4 14 5 15 6 17 7 18 8 20 9 2 10 1 11 5 12
REMARK SMILES IDX 6 13 11 14 7 15 10 16 8 17 9 18 19 20 16 22
REMARK H PARENT 9 19 19 21 16 23
REMARK Flexibility Score: inf
ROOT
ATOM      1  C   UNL     1       4.556  -2.575  -6.803  1.00  0.00     0.131 C 
ATOM      2  C   UNL     1       3.699  -1.439  -6.232  1.00  0.00     0.211 C 
ATOM      3  O   UNL     1       4.439  -0.713  -5.251  1.00  0.00    -0.484 OA
ATOM      4  C   UNL     1       5.765  -0.324  -5.468  1.00  0.00     0.138 A 
ATOM      5  C   UNL     1       6.328   0.643  -4.634  1.00  0.00     0.093 A 
ATOM      6  C   UNL     1       7.641   1.072  -4.838  1.00  0.00     0.123 A 
ATOM      7  C   UNL     1       8.386   0.543  -5.893  1.00  0.00     0.093 A 
ATOM      8  C   UNL     1       7.840  -0.423  -6.748  1.00  0.00     0.133 A 
ATOM      9  C   UNL     1       6.523  -0.908  -6.508  1.00  0.00     0.102 A 
ATOM     10  C   UNL     1       5.903  -2.059  -7.230  1.00  0.00     0.174 C 
ATOM     11  O   UNL     1       6.522  -2.691  -8.125  1.00  0.00    -0.294 OA
ENDROOT
BRANCH   2  12
ATOM     12  C   UNL     1       2.426  -1.979  -5.627  1.00  0.00    -0.007 A 
ATOM     13  C   UNL     1       1.180  -1.622  -6.170  1.00  0.00     0.011 A 
ATOM     14  C   UNL     1       2.472  -2.888  -4.555  1.00  0.00     0.011 A 
ATOM     15  C   UNL     1      -0.001  -2.144  -5.632  1.00  0.00     0.046 A 
ATOM     16  C   UNL     1       1.290  -3.408  -4.019  1.00  0.00     0.046 A 
ATOM     17  C   UNL     1       0.052  -3.039  -4.554  1.00  0.00     0.115 A 
BRANCH  17  18
ATOM     18  O   UNL     1      -1.118  -3.565  -4.010  1.00  0.00    -0.508 OA
ATOM     19  H   UNL     1      -1.993  -3.552  -4.522  1.00  0.00     0.293 HD
ENDBRANCH  17  18
ENDBRANCH   2  12
BRANCH   8  20
ATOM     20  O   UNL     1       8.638  -0.845  -7.814  1.00  0.00    -0.507 OA
ATOM     21  H   UNL     1       9.151  -0.228  -8.424  1.00  0.00     0.293 HD
ENDBRANCH   8  20
BRANCH   6  22
ATOM     22  O   UNL     1       8.212   2.033  -4.007  1.00  0.00    -0.508 OA
ATOM     23  H   UNL     1       8.059   3.023  -4.158  1.00  0.00     0.293 HD
ENDBRANCH   6  22
TORSDOF 4
ENDMDL
