MODEL 1
REMARK VINA RESULT:    -4.894      0.000      0.000
REMARK INTER + INTRA:          -8.347
REMARK INTER:                  -7.469
REMARK INTRA:                  -0.878
REMARK UNBOUND:                -0.878
REMARK SMILES O=C([O-])CCCCCCCCC(=O)[O-]
REMARK SMILES IDX 7 1 6 2 5 3 4 4 2 5 1 6 3 7 8 8 9 9 10 10 11 11 12 12 13 13
REMARK SMILES IDX 14 14
REMARK H PARENT
REMARK Flexibility Score: inf
ROOT
ATOM      1  C   UNL     1       0.549   7.255  12.845  1.00  0.00     0.000 C 
ENDROOT
BRANCH   1   2
ATOM      2  C   UNL     1       0.637   6.198  11.740  1.00  0.00     0.000 C 
BRANCH   2   3
ATOM      3  C   UNL     1      -0.740   5.576  11.461  1.00  0.00     0.006 C 
BRANCH   3   4
ATOM      4  C   UNL     1      -0.857   5.044  10.028  1.00  0.00     0.053 C 
BRANCH   4   5
ATOM      5  C   UNL     1      -0.680   6.132   9.015  1.00  0.00     0.041 C 
ATOM      6  O   UNL     1       0.174   6.013   8.097  1.00  0.00    -0.550 OA
ATOM      7  O   UNL     1      -1.484   7.264   9.064  1.00  0.00    -0.550 OA
ENDBRANCH   4   5
ENDBRANCH   3   4
ENDBRANCH   2   3
ENDBRANCH   1   2
BRANCH   1   8
ATOM      8  C   UNL     1       1.359   8.504  12.479  1.00  0.00     0.000 C 
BRANCH   8   9
ATOM      9  C   UNL     1       0.996   9.004  11.076  1.00  0.00     0.000 C 
BRANCH   9  10
ATOM     10  C   UNL     1       2.258   9.366  10.277  1.00  0.00     0.006 C 
BRANCH  10  11
ATOM     11  C   UNL     1       2.266   8.726   8.882  1.00  0.00     0.053 C 
BRANCH  11  12
ATOM     12  C   UNL     1       3.280   7.627   8.779  1.00  0.00     0.041 C 
ATOM     13  O   UNL     1       3.458   6.839   9.745  1.00  0.00    -0.550 OA
ATOM     14  O   UNL     1       4.050   7.495   7.631  1.00  0.00    -0.550 OA
ENDBRANCH  11  12
ENDBRANCH  10  11
ENDBRANCH   9  10
ENDBRANCH   8   9
ENDBRANCH   1   8
TORSDOF 9
ENDMDL
MODEL 2
REMARK VINA RESULT:    -4.872      1.071      4.188
REMARK INTER + INTRA:          -8.313
REMARK INTER:                  -7.487
REMARK INTRA:                  -0.826
REMARK UNBOUND:                -0.878
REMARK SMILES O=C([O-])CCCCCCCCC(=O)[O-]
REMARK SMILES IDX 7 1 6 2 5 3 4 4 2 5 1 6 3 7 8 8 9 9 10 10 11 11 12 12 13 13
REMARK SMILES IDX 14 14
REMARK H PARENT
REMARK Flexibility Score: inf
ROOT
ATOM      1  C   UNL     1       1.670   8.609  12.278  1.00  0.00     0.000 C 
ENDROOT
BRANCH   1   2
ATOM      2  C   UNL     1       1.042   9.184  11.004  1.00  0.00     0.000 C 
BRANCH   2   3
ATOM      3  C   UNL     1       2.120   9.541   9.970  1.00  0.00     0.006 C 
BRANCH   3   4
ATOM      4  C   UNL     1       2.499   8.345   9.089  1.00  0.00     0.053 C 
BRANCH   4   5
ATOM      5  C   UNL     1       2.731   8.753   7.667  1.00  0.00     0.041 C 
ATOM      6  O   UNL     1       2.617   7.910   6.738  1.00  0.00    -0.550 OA
ATOM      7  O   UNL     1       3.039  10.073   7.364  1.00  0.00    -0.550 OA
ENDBRANCH   4   5
ENDBRANCH   3   4
ENDBRANCH   2   3
ENDBRANCH   1   2
BRANCH   1   8
ATOM      8  C   UNL     1       0.818   7.468  12.847  1.00  0.00     0.000 C 
BRANCH   8   9
ATOM      9  C   UNL     1       0.807   6.263  11.899  1.00  0.00     0.000 C 
BRANCH   9  10
ATOM     10  C   UNL     1      -0.630   5.862  11.535  1.00  0.00     0.006 C 
BRANCH  10  11
ATOM     11  C   UNL     1      -0.716   5.191  10.158  1.00  0.00     0.053 C 
BRANCH  11  12
ATOM     12  C   UNL     1      -0.682   6.195   9.046  1.00  0.00     0.041 C 
ATOM     13  O   UNL     1       0.072   6.014   8.054  1.00  0.00    -0.550 OA
ATOM     14  O   UNL     1      -1.457   7.345   9.122  1.00  0.00    -0.550 OA
ENDBRANCH  11  12
ENDBRANCH  10  11
ENDBRANCH   9  10
ENDBRANCH   8   9
ENDBRANCH   1   8
TORSDOF 9
ENDMDL
MODEL 3
REMARK VINA RESULT:    -4.803      1.273      1.804
REMARK INTER + INTRA:          -8.207
REMARK INTER:                  -7.204
REMARK INTRA:                  -1.003
REMARK UNBOUND:                -0.878
REMARK SMILES O=C([O-])CCCCCCCCC(=O)[O-]
REMARK SMILES IDX 7 1 6 2 5 3 4 4 2 5 1 6 3 7 8 8 9 9 10 10 11 11 12 12 13 13
REMARK SMILES IDX 14 14
REMARK H PARENT
REMARK Flexibility Score: inf
ROOT
ATOM      1  C   UNL     1       1.618   8.410  12.479  1.00  0.00     0.000 C 
ENDROOT
BRANCH   1   2
ATOM      2  C   UNL     1       0.581   7.322  12.781  1.00  0.00     0.000 C 
BRANCH   2   3
ATOM      3  C   UNL     1       0.676   6.173  11.766  1.00  0.00     0.006 C 
BRANCH   3   4
ATOM      4  C   UNL     1      -0.665   5.895  11.076  1.00  0.00     0.053 C 
BRANCH   4   5
ATOM      5  C   UNL     1      -0.483   5.527   9.636  1.00  0.00     0.041 C 
ATOM      6  O   UNL     1       0.258   4.560   9.316  1.00  0.00    -0.550 OA
ATOM      7  O   UNL     1      -1.159   6.232   8.648  1.00  0.00    -0.550 OA
ENDBRANCH   4   5
ENDBRANCH   3   4
ENDBRANCH   2   3
ENDBRANCH   1   2
BRANCH   1   8
ATOM      8  C   UNL     1       1.210   9.236  11.255  1.00  0.00     0.000 C 
BRANCH   8   9
ATOM      9  C   UNL     1       2.273   9.151  10.153  1.00  0.00     0.000 C 
BRANCH   9  10
ATOM     10  C   UNL     1       1.727   8.422   8.916  1.00  0.00     0.006 C 
BRANCH  10  11
ATOM     11  C   UNL     1       2.601   7.227   8.513  1.00  0.00     0.053 C 
BRANCH  11  12
ATOM     12  C   UNL     1       2.461   6.900   7.058  1.00  0.00     0.041 C 
ATOM     13  O   UNL     1       1.596   6.067   6.678  1.00  0.00    -0.550 OA
ATOM     14  O   UNL     1       3.306   7.490   6.126  1.00  0.00    -0.550 OA
ENDBRANCH  11  12
ENDBRANCH  10  11
ENDBRANCH   9  10
ENDBRANCH   8   9
ENDBRANCH   1   8
TORSDOF 9
ENDMDL
MODEL 4
REMARK VINA RESULT:    -4.769      1.157      4.802
REMARK INTER + INTRA:          -8.156
REMARK INTER:                  -7.595
REMARK INTRA:                  -0.560
REMARK UNBOUND:                -0.878
REMARK SMILES O=C([O-])CCCCCCCCC(=O)[O-]
REMARK SMILES IDX 7 1 6 2 5 3 4 4 2 5 1 6 3 7 8 8 9 9 10 10 11 11 12 12 13 13
REMARK SMILES IDX 14 14
REMARK H PARENT
REMARK Flexibility Score: inf
ROOT
ATOM      1  C   UNL     1       1.060   9.107  11.073  1.00  0.00     0.000 C 
ENDROOT
BRANCH   1   2
ATOM      2  C   UNL     1       2.244   9.510  10.188  1.00  0.00     0.000 C 
BRANCH   2   3
ATOM      3  C   UNL     1       2.269   8.686   8.892  1.00  0.00     0.006 C 
BRANCH   3   4
ATOM      4  C   UNL     1       2.991   9.417   7.753  1.00  0.00     0.053 C 
BRANCH   4   5
ATOM      5  C   UNL     1       4.359   8.857   7.512  1.00  0.00     0.041 C 
ATOM      6  O   UNL     1       5.001   9.174   6.476  1.00  0.00    -0.550 OA
ATOM      7  O   UNL     1       4.938   8.011   8.449  1.00  0.00    -0.550 OA
ENDBRANCH   4   5
ENDBRANCH   3   4
ENDBRANCH   2   3
ENDBRANCH   1   2
BRANCH   1   8
ATOM      8  C   UNL     1       1.536   8.652  12.457  1.00  0.00     0.000 C 
BRANCH   8   9
ATOM      9  C   UNL     1       0.849   7.346  12.875  1.00  0.00     0.000 C 
BRANCH   9  10
ATOM     10  C   UNL     1       0.771   6.364  11.697  1.00  0.00     0.006 C 
BRANCH  10  11
ATOM     11  C   UNL     1      -0.656   5.851  11.462  1.00  0.00     0.053 C 
BRANCH  11  12
ATOM     12  C   UNL     1      -0.978   5.749  10.002  1.00  0.00     0.041 C 
ATOM     13  O   UNL     1      -0.765   4.675   9.381  1.00  0.00    -0.550 OA
ATOM     14  O   UNL     1      -1.481   6.851   9.321  1.00  0.00    -0.550 OA
ENDBRANCH  11  12
ENDBRANCH  10  11
ENDBRANCH   9  10
ENDBRANCH   8   9
ENDBRANCH   1   8
TORSDOF 9
ENDMDL
MODEL 5
REMARK VINA RESULT:    -4.751      4.525      6.165
REMARK INTER + INTRA:          -8.128
REMARK INTER:                  -7.406
REMARK INTRA:                  -0.722
REMARK UNBOUND:                -0.878
REMARK SMILES O=C([O-])CCCCCCCCC(=O)[O-]
REMARK SMILES IDX 7 1 6 2 5 3 4 4 2 5 1 6 3 7 8 8 9 9 10 10 11 11 12 12 13 13
REMARK SMILES IDX 14 14
REMARK H PARENT
REMARK Flexibility Score: inf
ROOT
ATOM      1  C   UNL     1       6.393   4.602   7.218  1.00  0.00     0.000 C 
ENDROOT
BRANCH   1   2
ATOM      2  C   UNL     1       5.296   3.894   8.020  1.00  0.00     0.000 C 
BRANCH   2   3
ATOM      3  C   UNL     1       3.982   4.688   7.978  1.00  0.00     0.006 C 
BRANCH   3   4
ATOM      4  C   UNL     1       3.983   5.754   6.875  1.00  0.00     0.053 C 
BRANCH   4   5
ATOM      5  C   UNL     1       2.633   6.382   6.708  1.00  0.00     0.041 C 
ATOM      6  O   UNL     1       1.603   5.796   7.135  1.00  0.00    -0.550 OA
ATOM      7  O   UNL     1       2.517   7.630   6.110  1.00  0.00    -0.550 OA
ENDBRANCH   4   5
ENDBRANCH   3   4
ENDBRANCH   2   3
ENDBRANCH   1   2
BRANCH   1   8
ATOM      8  C   UNL     1       7.729   4.579   7.970  1.00  0.00     0.000 C 
BRANCH   8   9
ATOM      9  C   UNL     1       8.385   5.965   7.972  1.00  0.00     0.000 C 
BRANCH   9  10
ATOM     10  C   UNL     1       7.417   7.032   7.439  1.00  0.00     0.006 C 
BRANCH  10  11
ATOM     11  C   UNL     1       7.869   7.605   6.089  1.00  0.00     0.053 C 
BRANCH  11  12
ATOM     12  C   UNL     1       6.727   7.728   5.126  1.00  0.00     0.041 C 
ATOM     13  O   UNL     1       6.040   8.782   5.092  1.00  0.00    -0.550 OA
ATOM     14  O   UNL     1       6.403   6.667   4.291  1.00  0.00    -0.550 OA
ENDBRANCH  11  12
ENDBRANCH  10  11
ENDBRANCH   9  10
ENDBRANCH   8   9
ENDBRANCH   1   8
TORSDOF 9
ENDMDL
MODEL 6
REMARK VINA RESULT:    -4.722      4.387      6.244
REMARK INTER + INTRA:          -8.083
REMARK INTER:                  -7.175
REMARK INTRA:                  -0.909
REMARK UNBOUND:                -0.878
REMARK SMILES O=C([O-])CCCCCCCCC(=O)[O-]
REMARK SMILES IDX 7 1 6 2 5 3 4 4 2 5 1 6 3 7 8 8 9 9 10 10 11 11 12 12 13 13
REMARK SMILES IDX 14 14
REMARK H PARENT
REMARK Flexibility Score: inf
ROOT
ATOM      1  C   UNL     1       7.430   4.661   8.413  1.00  0.00     0.000 C 
ENDROOT
BRANCH   1   2
ATOM      2  C   UNL     1       6.480   4.383   7.243  1.00  0.00     0.000 C 
BRANCH   2   3
ATOM      3  C   UNL     1       5.023   4.306   7.722  1.00  0.00     0.006 C 
BRANCH   3   4
ATOM      4  C   UNL     1       4.405   5.695   7.926  1.00  0.00     0.053 C 
BRANCH   4   5
ATOM      5  C   UNL     1       2.997   5.757   7.418  1.00  0.00     0.041 C 
ATOM      6  O   UNL     1       2.704   6.510   6.451  1.00  0.00    -0.550 OA
ATOM      7  O   UNL     1       2.016   4.957   7.989  1.00  0.00    -0.550 OA
ENDBRANCH   4   5
ENDBRANCH   3   4
ENDBRANCH   2   3
ENDBRANCH   1   2
BRANCH   1   8
ATOM      8  C   UNL     1       8.523   5.658   8.012  1.00  0.00     0.000 C 
BRANCH   8   9
ATOM      9  C   UNL     1       7.917   7.011   7.621  1.00  0.00     0.000 C 
BRANCH   9  10
ATOM     10  C   UNL     1       8.310   7.396   6.187  1.00  0.00     0.006 C 
BRANCH  10  11
ATOM     11  C   UNL     1       7.446   8.538   5.634  1.00  0.00     0.053 C 
BRANCH  11  12
ATOM     12  C   UNL     1       5.994   8.170   5.597  1.00  0.00     0.041 C 
ATOM     13  O   UNL     1       5.599   7.230   4.859  1.00  0.00    -0.550 OA
ATOM     14  O   UNL     1       5.074   8.887   6.351  1.00  0.00    -0.550 OA
ENDBRANCH  11  12
ENDBRANCH  10  11
ENDBRANCH   9  10
ENDBRANCH   8   9
ENDBRANCH   1   8
TORSDOF 9
ENDMDL
MODEL 7
REMARK VINA RESULT:    -4.688      1.368      4.145
REMARK INTER + INTRA:          -8.032
REMARK INTER:                  -7.209
REMARK INTRA:                  -0.822
REMARK UNBOUND:                -0.878
REMARK SMILES O=C([O-])CCCCCCCCC(=O)[O-]
REMARK SMILES IDX 7 1 6 2 5 3 4 4 2 5 1 6 3 7 8 8 9 9 10 10 11 11 12 12 13 13
REMARK SMILES IDX 14 14
REMARK H PARENT
REMARK Flexibility Score: inf
ROOT
ATOM      1  C   UNL     1       0.900   8.846  10.729  1.00  0.00     0.000 C 
ENDROOT
BRANCH   1   2
ATOM      2  C   UNL     1       2.136   9.141   9.873  1.00  0.00     0.000 C 
BRANCH   2   3
ATOM      3  C   UNL     1       1.977   8.564   8.458  1.00  0.00     0.006 C 
BRANCH   3   4
ATOM      4  C   UNL     1       2.680   7.210   8.301  1.00  0.00     0.053 C 
BRANCH   4   5
ATOM      5  C   UNL     1       2.677   6.745   6.877  1.00  0.00     0.041 C 
ATOM      6  O   UNL     1       1.700   6.092   6.425  1.00  0.00    -0.550 OA
ATOM      7  O   UNL     1       3.741   7.061   6.041  1.00  0.00    -0.550 OA
ENDBRANCH   4   5
ENDBRANCH   3   4
ENDBRANCH   2   3
ENDBRANCH   1   2
BRANCH   1   8
ATOM      8  C   UNL     1       1.261   7.972  11.936  1.00  0.00     0.000 C 
BRANCH   8   9
ATOM      9  C   UNL     1       1.053   6.486  11.622  1.00  0.00     0.000 C 
BRANCH   9  10
ATOM     10  C   UNL     1      -0.404   6.069  11.873  1.00  0.00     0.006 C 
BRANCH  10  11
ATOM     11  C   UNL     1      -0.876   4.987  10.891  1.00  0.00     0.053 C 
BRANCH  11  12
ATOM     12  C   UNL     1      -0.326   5.206   9.515  1.00  0.00     0.041 C 
ATOM     13  O   UNL     1       0.611   4.483   9.086  1.00  0.00    -0.550 OA
ATOM     14  O   UNL     1      -0.825   6.230   8.719  1.00  0.00    -0.550 OA
ENDBRANCH  11  12
ENDBRANCH  10  11
ENDBRANCH   9  10
ENDBRANCH   8   9
ENDBRANCH   1   8
TORSDOF 9
ENDMDL
MODEL 8
REMARK VINA RESULT:    -4.680      4.114      7.150
REMARK INTER + INTRA:          -8.021
REMARK INTER:                  -7.148
REMARK INTRA:                  -0.873
REMARK UNBOUND:                -0.878
REMARK SMILES O=C([O-])CCCCCCCCC(=O)[O-]
REMARK SMILES IDX 7 1 6 2 5 3 4 4 2 5 1 6 3 7 8 8 9 9 10 10 11 11 12 12 13 13
REMARK SMILES IDX 14 14
REMARK H PARENT
REMARK Flexibility Score: inf
ROOT
ATOM      1  C   UNL     1       7.332   5.039   8.397  1.00  0.00     0.000 C 
ENDROOT
BRANCH   1   2
ATOM      2  C   UNL     1       8.380   5.978   7.789  1.00  0.00     0.000 C 
BRANCH   2   3
ATOM      3  C   UNL     1       7.736   7.288   7.311  1.00  0.00     0.006 C 
BRANCH   3   4
ATOM      4  C   UNL     1       7.981   7.545   5.819  1.00  0.00     0.053 C 
BRANCH   4   5
ATOM      5  C   UNL     1       6.699   7.601   5.047  1.00  0.00     0.041 C 
ATOM      6  O   UNL     1       6.296   6.590   4.412  1.00  0.00    -0.550 OA
ATOM      7  O   UNL     1       5.933   8.760   5.055  1.00  0.00    -0.550 OA
ENDBRANCH   4   5
ENDBRANCH   3   4
ENDBRANCH   2   3
ENDBRANCH   1   2
BRANCH   1   8
ATOM      8  C   UNL     1       6.483   4.379   7.305  1.00  0.00     0.000 C 
BRANCH   8   9
ATOM      9  C   UNL     1       5.023   4.240   7.751  1.00  0.00     0.000 C 
BRANCH   9  10
ATOM     10  C   UNL     1       4.471   5.582   8.254  1.00  0.00     0.006 C 
BRANCH  10  11
ATOM     11  C   UNL     1       3.950   6.462   7.110  1.00  0.00     0.053 C 
BRANCH  11  12
ATOM     12  C   UNL     1       2.466   6.659   7.189  1.00  0.00     0.041 C 
ATOM     13  O   UNL     1       1.704   6.042   6.400  1.00  0.00    -0.550 OA
ATOM     14  O   UNL     1       1.930   7.547   8.113  1.00  0.00    -0.550 OA
ENDBRANCH  11  12
ENDBRANCH  10  11
ENDBRANCH   9  10
ENDBRANCH   8   9
ENDBRANCH   1   8
TORSDOF 9
ENDMDL
MODEL 9
REMARK VINA RESULT:    -4.563      3.926      5.649
REMARK INTER + INTRA:          -7.841
REMARK INTER:                  -6.884
REMARK INTRA:                  -0.958
REMARK UNBOUND:                -0.878
REMARK SMILES O=C([O-])CCCCCCCCC(=O)[O-]
REMARK SMILES IDX 7 1 6 2 5 3 4 4 2 5 1 6 3 7 8 8 9 9 10 10 11 11 12 12 13 13
REMARK SMILES IDX 14 14
REMARK H PARENT
REMARK Flexibility Score: inf
ROOT
ATOM      1  C   UNL     1       4.149   4.871   8.290  1.00  0.00     0.000 C 
ENDROOT
BRANCH   1   2
ATOM      2  C   UNL     1       3.096   4.622   7.205  1.00  0.00     0.000 C 
BRANCH   2   3
ATOM      3  C   UNL     1       2.206   5.858   7.005  1.00  0.00     0.006 C 
BRANCH   3   4
ATOM      4  C   UNL     1       2.997   7.064   6.484  1.00  0.00     0.053 C 
BRANCH   4   5
ATOM      5  C   UNL     1       2.795   8.275   7.343  1.00  0.00     0.041 C 
ATOM      6  O   UNL     1       1.970   8.247   8.294  1.00  0.00    -0.550 OA
ATOM      7  O   UNL     1       3.543   9.422   7.113  1.00  0.00    -0.550 OA
ENDBRANCH   4   5
ENDBRANCH   3   4
ENDBRANCH   2   3
ENDBRANCH   1   2
BRANCH   1   8
ATOM      8  C   UNL     1       5.498   4.256   7.900  1.00  0.00     0.000 C 
BRANCH   8   9
ATOM      9  C   UNL     1       6.219   5.124   6.861  1.00  0.00     0.000 C 
BRANCH   9  10
ATOM     10  C   UNL     1       7.098   6.183   7.543  1.00  0.00     0.006 C 
BRANCH  10  11
ATOM     11  C   UNL     1       6.610   7.611   7.262  1.00  0.00     0.053 C 
BRANCH  11  12
ATOM     12  C   UNL     1       6.984   8.066   5.885  1.00  0.00     0.041 C 
ATOM     13  O   UNL     1       6.093   8.457   5.085  1.00  0.00    -0.550 OA
ATOM     14  O   UNL     1       8.310   8.028   5.474  1.00  0.00    -0.550 OA
ENDBRANCH  11  12
ENDBRANCH  10  11
ENDBRANCH   9  10
ENDBRANCH   8   9
ENDBRANCH   1   8
TORSDOF 9
ENDMDL
