MODEL 1
REMARK VINA RESULT:    -3.266      0.000      0.000
REMARK INTER + INTRA:          -4.079
REMARK INTER:                  -4.030
REMARK INTRA:                  -0.049
REMARK UNBOUND:                -0.049
REMARK SMILES CCCCCC(=O)[O-]
REMARK SMILES IDX 4 1 5 2 6 3 7 4 8 5 3 6 2 7 1 8
REMARK H PARENT
REMARK Flexibility Score: inf
ROOT
ATOM      1  C   UNL     1       0.398   9.533   5.529  1.00  0.00     0.006 C 
ENDROOT
BRANCH   1   2
ATOM      2  C   UNL     1       1.391  10.051   6.579  1.00  0.00     0.053 C 
BRANCH   2   3
ATOM      3  C   UNL     1       2.434   9.028   6.908  1.00  0.00     0.041 C 
ATOM      4  O   UNL     1       3.434   9.343   7.606  1.00  0.00    -0.550 OA
ATOM      5  O   UNL     1       2.284   7.717   6.473  1.00  0.00    -0.550 OA
ENDBRANCH   2   3
ENDBRANCH   1   2
BRANCH   1   6
ATOM      6  C   UNL     1      -1.008  10.120   5.719  1.00  0.00     0.000 C 
BRANCH   6   7
ATOM      7  C   UNL     1      -2.010   9.465   4.761  1.00  0.00    -0.003 C 
ATOM      8  C   UNL     1      -3.399  10.080   4.911  1.00  0.00     0.004 C 
ENDBRANCH   6   7
ENDBRANCH   1   6
TORSDOF 4
ENDMDL
MODEL 2
REMARK VINA RESULT:    -3.040      1.363      2.005
REMARK INTER + INTRA:          -3.800
REMARK INTER:                  -3.691
REMARK INTRA:                  -0.109
REMARK UNBOUND:                -0.049
REMARK SMILES CCCCCC(=O)[O-]
REMARK SMILES IDX 4 1 5 2 6 3 7 4 8 5 3 6 2 7 1 8
REMARK H PARENT
REMARK Flexibility Score: inf
ROOT
ATOM      1  C   UNL     1      -1.045   9.086   4.475  1.00  0.00     0.006 C 
ENDROOT
BRANCH   1   2
ATOM      2  C   UNL     1       0.449   9.434   4.513  1.00  0.00     0.053 C 
BRANCH   2   3
ATOM      3  C   UNL     1       1.128   8.836   5.707  1.00  0.00     0.041 C 
ATOM      4  O   UNL     1       1.661   7.698   5.631  1.00  0.00    -0.550 OA
ATOM      5  O   UNL     1       1.203   9.554   6.895  1.00  0.00    -0.550 OA
ENDBRANCH   2   3
ENDBRANCH   1   2
BRANCH   1   6
ATOM      6  C   UNL     1      -1.898  10.098   5.253  1.00  0.00     0.000 C 
BRANCH   6   7
ATOM      7  C   UNL     1      -3.344  10.104   4.744  1.00  0.00    -0.003 C 
ATOM      8  C   UNL     1      -3.786   8.703   4.327  1.00  0.00     0.004 C 
ENDBRANCH   6   7
ENDBRANCH   1   6
TORSDOF 4
ENDMDL
MODEL 3
REMARK VINA RESULT:    -3.026      3.632      5.117
REMARK INTER + INTRA:          -3.783
REMARK INTER:                  -3.677
REMARK INTRA:                  -0.107
REMARK UNBOUND:                -0.049
REMARK SMILES CCCCCC(=O)[O-]
REMARK SMILES IDX 4 1 5 2 6 3 7 4 8 5 3 6 2 7 1 8
REMARK H PARENT
REMARK Flexibility Score: inf
ROOT
ATOM      1  C   UNL     1      -0.891   9.223   4.077  1.00  0.00     0.006 C 
ENDROOT
BRANCH   1   2
ATOM      2  C   UNL     1      -2.019   9.818   4.931  1.00  0.00     0.053 C 
BRANCH   2   3
ATOM      3  C   UNL     1      -3.363   9.312   4.507  1.00  0.00     0.041 C 
ATOM      4  O   UNL     1      -4.281  10.120   4.211  1.00  0.00    -0.550 OA
ATOM      5  O   UNL     1      -3.590   7.945   4.404  1.00  0.00    -0.550 OA
ENDBRANCH   2   3
ENDBRANCH   1   2
BRANCH   1   6
ATOM      6  C   UNL     1       0.474   9.311   4.774  1.00  0.00     0.000 C 
BRANCH   6   7
ATOM      7  C   UNL     1       0.378  10.124   6.070  1.00  0.00    -0.003 C 
ATOM      8  C   UNL     1       1.707  10.125   6.821  1.00  0.00     0.004 C 
ENDBRANCH   6   7
ENDBRANCH   1   6
TORSDOF 4
ENDMDL
MODEL 4
REMARK VINA RESULT:    -2.976      3.422      4.928
REMARK INTER + INTRA:          -3.722
REMARK INTER:                  -3.666
REMARK INTRA:                  -0.055
REMARK UNBOUND:                -0.049
REMARK SMILES CCCCCC(=O)[O-]
REMARK SMILES IDX 4 1 5 2 6 3 7 4 8 5 3 6 2 7 1 8
REMARK H PARENT
REMARK Flexibility Score: inf
ROOT
ATOM      1  C   UNL     1       2.759   6.477   6.111  1.00  0.00     0.006 C 
ENDROOT
BRANCH   1   2
ATOM      2  C   UNL     1       1.923   7.718   5.769  1.00  0.00     0.053 C 
BRANCH   2   3
ATOM      3  C   UNL     1       2.032   8.770   6.829  1.00  0.00     0.041 C 
ATOM      4  O   UNL     1       1.142   9.655   6.939  1.00  0.00    -0.550 OA
ATOM      5  O   UNL     1       3.098   8.753   7.719  1.00  0.00    -0.550 OA
ENDBRANCH   2   3
ENDBRANCH   1   2
BRANCH   1   6
ATOM      6  C   UNL     1       2.059   5.173   5.703  1.00  0.00     0.000 C 
BRANCH   6   7
ATOM      7  C   UNL     1       2.566   3.993   6.541  1.00  0.00    -0.003 C 
ATOM      8  C   UNL     1       1.404   3.188   7.117  1.00  0.00     0.004 C 
ENDBRANCH   6   7
ENDBRANCH   1   6
TORSDOF 4
ENDMDL
MODEL 5
REMARK VINA RESULT:    -2.959     13.102     14.113
REMARK INTER + INTRA:          -3.701
REMARK INTER:                  -3.615
REMARK INTRA:                  -0.086
REMARK UNBOUND:                -0.049
REMARK SMILES CCCCCC(=O)[O-]
REMARK SMILES IDX 4 1 5 2 6 3 7 4 8 5 3 6 2 7 1 8
REMARK H PARENT
REMARK Flexibility Score: inf
ROOT
ATOM      1  C   UNL     1       1.344   7.562  -6.938  1.00  0.00     0.006 C 
ENDROOT
BRANCH   1   2
ATOM      2  C   UNL     1       0.219   6.982  -7.806  1.00  0.00     0.053 C 
BRANCH   2   3
ATOM      3  C   UNL     1      -0.397   5.769  -7.178  1.00  0.00     0.041 C 
ATOM      4  O   UNL     1      -0.815   4.825  -7.899  1.00  0.00    -0.550 OA
ATOM      5  O   UNL     1      -0.476   5.666  -5.795  1.00  0.00    -0.550 OA
ENDBRANCH   2   3
ENDBRANCH   1   2
BRANCH   1   6
ATOM      6  C   UNL     1       2.126   8.667  -7.663  1.00  0.00     0.000 C 
BRANCH   6   7
ATOM      7  C   UNL     1       3.637   8.476  -7.486  1.00  0.00    -0.003 C 
ATOM      8  C   UNL     1       3.949   7.700  -6.209  1.00  0.00     0.004 C 
ENDBRANCH   6   7
ENDBRANCH   1   6
TORSDOF 4
ENDMDL
MODEL 6
REMARK VINA RESULT:    -2.936     16.551     17.107
REMARK INTER + INTRA:          -3.672
REMARK INTER:                  -3.449
REMARK INTRA:                  -0.222
REMARK UNBOUND:                -0.049
REMARK SMILES CCCCCC(=O)[O-]
REMARK SMILES IDX 4 1 5 2 6 3 7 4 8 5 3 6 2 7 1 8
REMARK H PARENT
REMARK Flexibility Score: inf
ROOT
ATOM      1  C   UNL     1       5.822  -1.425  -6.873  1.00  0.00     0.006 C 
ENDROOT
BRANCH   1   2
ATOM      2  C   UNL     1       5.991  -0.229  -7.819  1.00  0.00     0.053 C 
BRANCH   2   3
ATOM      3  C   UNL     1       5.738   1.072  -7.121  1.00  0.00     0.041 C 
ATOM      4  O   UNL     1       6.675   1.897  -6.958  1.00  0.00    -0.550 OA
ATOM      5  O   UNL     1       4.459   1.387  -6.681  1.00  0.00    -0.550 OA
ENDBRANCH   2   3
ENDBRANCH   1   2
BRANCH   1   6
ATOM      6  C   UNL     1       4.577  -2.260  -7.208  1.00  0.00     0.000 C 
BRANCH   6   7
ATOM      7  C   UNL     1       3.429  -1.943  -6.244  1.00  0.00    -0.003 C 
ATOM      8  C   UNL     1       2.222  -1.379  -6.990  1.00  0.00     0.004 C 
ENDBRANCH   6   7
ENDBRANCH   1   6
TORSDOF 4
ENDMDL
MODEL 7
REMARK VINA RESULT:    -2.905     16.839     17.759
REMARK INTER + INTRA:          -3.633
REMARK INTER:                  -3.433
REMARK INTRA:                  -0.199
REMARK UNBOUND:                -0.049
REMARK SMILES CCCCCC(=O)[O-]
REMARK SMILES IDX 4 1 5 2 6 3 7 4 8 5 3 6 2 7 1 8
REMARK H PARENT
REMARK Flexibility Score: inf
ROOT
ATOM      1  C   UNL     1       7.389  -0.587  -7.801  1.00  0.00     0.006 C 
ENDROOT
BRANCH   1   2
ATOM      2  C   UNL     1       5.870  -0.590  -7.586  1.00  0.00     0.053 C 
BRANCH   2   3
ATOM      3  C   UNL     1       5.339   0.790  -7.347  1.00  0.00     0.041 C 
ATOM      4  O   UNL     1       6.129   1.742  -7.116  1.00  0.00    -0.550 OA
ATOM      5  O   UNL     1       3.973   1.030  -7.417  1.00  0.00    -0.550 OA
ENDBRANCH   2   3
ENDBRANCH   1   2
BRANCH   1   6
ATOM      6  C   UNL     1       8.136  -1.338  -6.690  1.00  0.00     0.000 C 
BRANCH   6   7
ATOM      7  C   UNL     1       9.314  -0.510  -6.164  1.00  0.00    -0.003 C 
ATOM      8  C   UNL     1       8.847   0.526  -5.144  1.00  0.00     0.004 C 
ENDBRANCH   6   7
ENDBRANCH   1   6
TORSDOF 4
ENDMDL
MODEL 8
REMARK VINA RESULT:    -2.863      2.667      4.568
REMARK INTER + INTRA:          -3.582
REMARK INTER:                  -3.468
REMARK INTRA:                  -0.115
REMARK UNBOUND:                -0.049
REMARK SMILES CCCCCC(=O)[O-]
REMARK SMILES IDX 4 1 5 2 6 3 7 4 8 5 3 6 2 7 1 8
REMARK H PARENT
REMARK Flexibility Score: inf
ROOT
ATOM      1  C   UNL     1       0.712   9.670   5.544  1.00  0.00     0.006 C 
ENDROOT
BRANCH   1   2
ATOM      2  C   UNL     1      -0.739  10.125   5.751  1.00  0.00     0.053 C 
BRANCH   2   3
ATOM      3  C   UNL     1      -1.689   9.370   4.872  1.00  0.00     0.041 C 
ATOM      4  O   UNL     1      -2.881   9.754   4.749  1.00  0.00    -0.550 OA
ATOM      5  O   UNL     1      -1.246   8.261   4.162  1.00  0.00    -0.550 OA
ENDBRANCH   2   3
ENDBRANCH   1   2
BRANCH   1   6
ATOM      6  C   UNL     1       1.608  10.026   6.739  1.00  0.00     0.000 C 
BRANCH   6   7
ATOM      7  C   UNL     1       2.543   8.862   7.089  1.00  0.00    -0.003 C 
ATOM      8  C   UNL     1       2.251   7.641   6.220  1.00  0.00     0.004 C 
ENDBRANCH   6   7
ENDBRANCH   1   6
TORSDOF 4
ENDMDL
MODEL 9
REMARK VINA RESULT:    -0.797      4.084      5.844
REMARK INTER + INTRA:          -1.032
REMARK INTER:                  -0.988
REMARK INTRA:                  -0.044
REMARK UNBOUND:                -0.049
REMARK SMILES CCCCCC(=O)[O-]
REMARK SMILES IDX 4 1 5 2 6 3 7 4 8 5 3 6 2 7 1 8
REMARK H PARENT
REMARK Flexibility Score: inf
ROOT
ATOM      1  C   UNL     1      -2.189   9.354   4.737  1.00  0.00     0.006 C 
ENDROOT
BRANCH   1   2
ATOM      2  C   UNL     1      -3.499  10.125   4.526  1.00  0.00     0.053 C 
BRANCH   2   3
ATOM      3  C   UNL     1      -4.545   9.275   3.873  1.00  0.00     0.041 C 
ATOM      4  O   UNL     1      -5.433   9.803   3.153  1.00  0.00    -0.550 OA
ATOM      5  O   UNL     1      -4.518   7.895   4.031  1.00  0.00    -0.550 OA
ENDBRANCH   2   3
ENDBRANCH   1   2
BRANCH   1   6
ATOM      6  C   UNL     1      -1.196  10.124   5.620  1.00  0.00     0.000 C 
BRANCH   6   7
ATOM      7  C   UNL     1       0.240   9.648   5.373  1.00  0.00    -0.003 C 
ATOM      8  C   UNL     1       1.139   9.969   6.565  1.00  0.00     0.004 C 
ENDBRANCH   6   7
ENDBRANCH   1   6
TORSDOF 4
ENDMDL
