MODEL 1
REMARK VINA RESULT:    -3.201      0.000      0.000
REMARK INTER + INTRA:          -4.875
REMARK INTER:                  -4.324
REMARK INTRA:                  -0.551
REMARK UNBOUND:                -0.551
REMARK SMILES [NH3+]CCCC[C@@H]([NH3+])C(=O)[O-]
REMARK SMILES IDX 4 1 3 2 2 3 1 4 5 8 6 9 7 10 8 14 9 15 10 16
REMARK H PARENT 1 5 1 6 1 7 7 11 7 12 7 13
REMARK Flexibility Score: inf
ROOT
ATOM      1  C   UNL     1      28.340  24.939 -19.814  1.00  0.00     0.012 C 
ENDROOT
BRANCH   1   2
ATOM      2  C   UNL     1      28.002  26.437 -19.901  1.00  0.00     0.061 C 
BRANCH   2   3
ATOM      3  C   UNL     1      29.015  27.314 -19.146  1.00  0.00     0.258 C 
BRANCH   3   4
ATOM      4  N   UNL     1      29.012  27.051 -17.706  1.00  0.00    -0.358 N 
ATOM      5  H   UNL     1      28.073  26.711 -17.397  1.00  0.00     0.344 HD
ATOM      6  H   UNL     1      29.271  27.915 -17.175  1.00  0.00     0.344 HD
ATOM      7  H   UNL     1      29.715  26.307 -17.495  1.00  0.00     0.344 HD
ENDBRANCH   3   4
ENDBRANCH   2   3
ENDBRANCH   1   2
BRANCH   1   8
ATOM      8  C   UNL     1      27.152  24.081 -19.339  1.00  0.00     0.072 C 
BRANCH   8   9
ATOM      9  C   UNL     1      27.238  23.596 -17.872  1.00  0.00     0.227 C 
BRANCH   9  10
ATOM     10  N   UNL     1      28.615  23.639 -17.359  1.00  0.00    -0.350 N 
ATOM     11  H   UNL     1      28.858  22.749 -16.868  1.00  0.00     0.345 HD
ATOM     12  H   UNL     1      28.727  24.442 -16.699  1.00  0.00     0.345 HD
ATOM     13  H   UNL     1      29.286  23.788 -18.148  1.00  0.00     0.345 HD
ENDBRANCH   9  10
BRANCH   9  14
ATOM     14  C   UNL     1      26.336  24.441 -17.013  1.00  0.00     0.099 C 
ATOM     15  O   UNL     1      26.753  25.522 -16.517  1.00  0.00    -0.544 OA
ATOM     16  O   UNL     1      25.023  24.048 -16.787  1.00  0.00    -0.544 OA
ENDBRANCH   9  14
ENDBRANCH   8   9
ENDBRANCH   1   8
TORSDOF 7
ENDMDL
MODEL 2
REMARK VINA RESULT:    -3.105      1.947      2.775
REMARK INTER + INTRA:          -4.745
REMARK INTER:                  -4.240
REMARK INTRA:                  -0.505
REMARK UNBOUND:                -0.551
REMARK SMILES [NH3+]CCCC[C@@H]([NH3+])C(=O)[O-]
REMARK SMILES IDX 4 1 3 2 2 3 1 4 5 8 6 9 7 10 8 14 9 15 10 16
REMARK H PARENT 1 5 1 6 1 7 7 11 7 12 7 13
REMARK Flexibility Score: inf
ROOT
ATOM      1  C   UNL     1      29.104  27.228 -19.481  1.00  0.00     0.012 C 
ENDROOT
BRANCH   1   2
ATOM      2  C   UNL     1      29.042  28.018 -18.162  1.00  0.00     0.061 C 
BRANCH   2   3
ATOM      3  C   UNL     1      28.209  27.301 -17.086  1.00  0.00     0.258 C 
BRANCH   3   4
ATOM      4  N   UNL     1      28.995  26.316 -16.340  1.00  0.00    -0.358 N 
ATOM      5  H   UNL     1      29.820  26.005 -16.902  1.00  0.00     0.344 HD
ATOM      6  H   UNL     1      28.403  25.491 -16.087  1.00  0.00     0.344 HD
ATOM      7  H   UNL     1      29.345  26.757 -15.460  1.00  0.00     0.344 HD
ENDBRANCH   3   4
ENDBRANCH   2   3
ENDBRANCH   1   2
BRANCH   1   8
ATOM      8  C   UNL     1      27.795  26.479 -19.795  1.00  0.00     0.072 C 
BRANCH   8   9
ATOM      9  C   UNL     1      27.968  24.993 -20.189  1.00  0.00     0.227 C 
BRANCH   9  10
ATOM     10  N   UNL     1      29.316  24.715 -20.706  1.00  0.00    -0.350 N 
ATOM     11  H   UNL     1      29.390  23.727 -21.039  1.00  0.00     0.345 HD
ATOM     12  H   UNL     1      30.028  24.885 -19.960  1.00  0.00     0.345 HD
ATOM     13  H   UNL     1      29.534  25.361 -21.500  1.00  0.00     0.345 HD
ENDBRANCH   9  10
BRANCH   9  14
ATOM     14  C   UNL     1      27.679  24.123 -18.995  1.00  0.00     0.099 C 
ATOM     15  O   UNL     1      26.564  23.549 -18.876  1.00  0.00    -0.544 OA
ATOM     16  O   UNL     1      28.657  23.923 -18.028  1.00  0.00    -0.544 OA
ENDBRANCH   9  14
ENDBRANCH   8   9
ENDBRANCH   1   8
TORSDOF 7
ENDMDL
MODEL 3
REMARK VINA RESULT:    -3.093      3.046      4.077
REMARK INTER + INTRA:          -4.728
REMARK INTER:                  -4.346
REMARK INTRA:                  -0.383
REMARK UNBOUND:                -0.551
REMARK SMILES [NH3+]CCCC[C@@H]([NH3+])C(=O)[O-]
REMARK SMILES IDX 4 1 3 2 2 3 1 4 5 8 6 9 7 10 8 14 9 15 10 16
REMARK H PARENT 1 5 1 6 1 7 7 11 7 12 7 13
REMARK Flexibility Score: inf
ROOT
ATOM      1  C   UNL     1      27.164  23.764 -18.863  1.00  0.00     0.012 C 
ENDROOT
BRANCH   1   2
ATOM      2  C   UNL     1      27.101  24.140 -17.373  1.00  0.00     0.061 C 
BRANCH   2   3
ATOM      3  C   UNL     1      27.341  25.641 -17.134  1.00  0.00     0.258 C 
BRANCH   3   4
ATOM      4  N   UNL     1      28.690  25.914 -16.635  1.00  0.00    -0.358 N 
ATOM      5  H   UNL     1      28.782  25.607 -15.640  1.00  0.00     0.344 HD
ATOM      6  H   UNL     1      28.911  26.933 -16.716  1.00  0.00     0.344 HD
ATOM      7  H   UNL     1      29.379  25.377 -17.208  1.00  0.00     0.344 HD
ENDBRANCH   3   4
ENDBRANCH   2   3
ENDBRANCH   1   2
BRANCH   1   8
ATOM      8  C   UNL     1      27.370  24.983 -19.782  1.00  0.00     0.072 C 
BRANCH   8   9
ATOM      9  C   UNL     1      28.553  24.867 -20.772  1.00  0.00     0.227 C 
BRANCH   9  10
ATOM     10  N   UNL     1      28.094  24.769 -22.166  1.00  0.00    -0.350 N 
ATOM     11  H   UNL     1      28.525  23.944 -22.642  1.00  0.00     0.345 HD
ATOM     12  H   UNL     1      28.343  25.641 -22.686  1.00  0.00     0.345 HD
ATOM     13  H   UNL     1      27.053  24.676 -22.194  1.00  0.00     0.345 HD
ENDBRANCH   9  10
BRANCH   9  14
ATOM     14  C   UNL     1      29.462  26.055 -20.605  1.00  0.00     0.099 C 
ATOM     15  O   UNL     1      29.366  26.797 -19.592  1.00  0.00    -0.544 OA
ATOM     16  O   UNL     1      30.439  26.321 -21.557  1.00  0.00    -0.544 OA
ENDBRANCH   9  14
ENDBRANCH   8   9
ENDBRANCH   1   8
TORSDOF 7
ENDMDL
MODEL 4
REMARK VINA RESULT:    -3.074      1.874      2.202
REMARK INTER + INTRA:          -4.703
REMARK INTER:                  -4.578
REMARK INTRA:                  -0.124
REMARK UNBOUND:                -0.551
REMARK SMILES [NH3+]CCCC[C@@H]([NH3+])C(=O)[O-]
REMARK SMILES IDX 4 1 3 2 2 3 1 4 5 8 6 9 7 10 8 14 9 15 10 16
REMARK H PARENT 1 5 1 6 1 7 7 11 7 12 7 13
REMARK Flexibility Score: inf
ROOT
ATOM      1  C   UNL     1      28.221  25.377 -19.666  1.00  0.00     0.012 C 
ENDROOT
BRANCH   1   2
ATOM      2  C   UNL     1      29.118  25.123 -20.890  1.00  0.00     0.061 C 
BRANCH   2   3
ATOM      3  C   UNL     1      29.894  26.379 -21.322  1.00  0.00     0.258 C 
BRANCH   3   4
ATOM      4  N   UNL     1      30.397  26.276 -22.693  1.00  0.00    -0.358 N 
ATOM      5  H   UNL     1      29.610  26.105 -23.360  1.00  0.00     0.344 HD
ATOM      6  H   UNL     1      31.103  25.508 -22.767  1.00  0.00     0.344 HD
ATOM      7  H   UNL     1      30.856  27.178 -22.955  1.00  0.00     0.344 HD
ENDBRANCH   3   4
ENDBRANCH   2   3
ENDBRANCH   1   2
BRANCH   1   8
ATOM      8  C   UNL     1      27.238  24.224 -19.393  1.00  0.00     0.072 C 
BRANCH   8   9
ATOM      9  C   UNL     1      27.295  23.638 -17.962  1.00  0.00     0.227 C 
BRANCH   9  10
ATOM     10  N   UNL     1      28.655  23.680 -17.405  1.00  0.00    -0.350 N 
ATOM     11  H   UNL     1      28.731  23.067 -16.562  1.00  0.00     0.345 HD
ATOM     12  H   UNL     1      28.905  24.662 -17.145  1.00  0.00     0.345 HD
ATOM     13  H   UNL     1      29.346  23.362 -18.123  1.00  0.00     0.345 HD
ENDBRANCH   9  10
BRANCH   9  14
ATOM     14  C   UNL     1      26.344  24.396 -17.074  1.00  0.00     0.099 C 
ATOM     15  O   UNL     1      25.169  23.982 -16.893  1.00  0.00    -0.544 OA
ATOM     16  O   UNL     1      26.772  25.546 -16.421  1.00  0.00    -0.544 OA
ENDBRANCH   9  14
ENDBRANCH   8   9
ENDBRANCH   1   8
TORSDOF 7
ENDMDL
MODEL 5
REMARK VINA RESULT:    -3.060     13.576     14.236
REMARK INTER + INTRA:          -4.685
REMARK INTER:                  -4.515
REMARK INTRA:                  -0.170
REMARK UNBOUND:                -0.551
REMARK SMILES [NH3+]CCCC[C@@H]([NH3+])C(=O)[O-]
REMARK SMILES IDX 4 1 3 2 2 3 1 4 5 8 6 9 7 10 8 14 9 15 10 16
REMARK H PARENT 1 5 1 6 1 7 7 11 7 12 7 13
REMARK Flexibility Score: inf
ROOT
ATOM      1  C   UNL     1      39.155  17.689 -16.725  1.00  0.00     0.012 C 
ENDROOT
BRANCH   1   2
ATOM      2  C   UNL     1      40.259  17.796 -15.660  1.00  0.00     0.061 C 
BRANCH   2   3
ATOM      3  C   UNL     1      40.064  16.796 -14.507  1.00  0.00     0.258 C 
BRANCH   3   4
ATOM      4  N   UNL     1      38.702  16.827 -13.971  1.00  0.00    -0.358 N 
ATOM      5  H   UNL     1      38.366  17.813 -13.881  1.00  0.00     0.344 HD
ATOM      6  H   UNL     1      38.664  16.350 -13.041  1.00  0.00     0.344 HD
ATOM      7  H   UNL     1      38.066  16.324 -14.630  1.00  0.00     0.344 HD
ENDBRANCH   3   4
ENDBRANCH   2   3
ENDBRANCH   1   2
BRANCH   1   8
ATOM      8  C   UNL     1      39.656  17.089 -18.052  1.00  0.00     0.072 C 
BRANCH   8   9
ATOM      9  C   UNL     1      38.727  16.025 -18.683  1.00  0.00     0.227 C 
BRANCH   9  10
ATOM     10  N   UNL     1      38.402  14.948 -17.736  1.00  0.00    -0.350 N 
ATOM     11  H   UNL     1      39.002  14.109 -17.907  1.00  0.00     0.345 HD
ATOM     12  H   UNL     1      37.395  14.681 -17.829  1.00  0.00     0.345 HD
ATOM     13  H   UNL     1      38.547  15.279 -16.755  1.00  0.00     0.345 HD
ENDBRANCH   9  10
BRANCH   9  14
ATOM     14  C   UNL     1      37.466  16.688 -19.170  1.00  0.00     0.099 C 
ATOM     15  O   UNL     1      37.460  17.338 -20.249  1.00  0.00    -0.544 OA
ATOM     16  O   UNL     1      36.289  16.560 -18.443  1.00  0.00    -0.544 OA
ENDBRANCH   9  14
ENDBRANCH   8   9
ENDBRANCH   1   8
TORSDOF 7
ENDMDL
MODEL 6
REMARK VINA RESULT:    -2.998      2.083      2.454
REMARK INTER + INTRA:          -4.601
REMARK INTER:                  -4.093
REMARK INTRA:                  -0.508
REMARK UNBOUND:                -0.551
REMARK SMILES [NH3+]CCCC[C@@H]([NH3+])C(=O)[O-]
REMARK SMILES IDX 4 1 3 2 2 3 1 4 5 8 6 9 7 10 8 14 9 15 10 16
REMARK H PARENT 1 5 1 6 1 7 7 11 7 12 7 13
REMARK Flexibility Score: inf
ROOT
ATOM      1  C   UNL     1      27.386  24.212 -19.765  1.00  0.00     0.012 C 
ENDROOT
BRANCH   1   2
ATOM      2  C   UNL     1      27.238  25.098 -21.014  1.00  0.00     0.061 C 
BRANCH   2   3
ATOM      3  C   UNL     1      28.560  25.774 -21.416  1.00  0.00     0.258 C 
BRANCH   3   4
ATOM      4  N   UNL     1      29.652  25.448 -20.497  1.00  0.00    -0.358 N 
ATOM      5  H   UNL     1      29.573  24.459 -20.170  1.00  0.00     0.344 HD
ATOM      6  H   UNL     1      29.646  26.098 -19.677  1.00  0.00     0.344 HD
ATOM      7  H   UNL     1      30.562  25.554 -21.000  1.00  0.00     0.344 HD
ENDBRANCH   3   4
ENDBRANCH   2   3
ENDBRANCH   1   2
BRANCH   1   8
ATOM      8  C   UNL     1      26.629  24.765 -18.543  1.00  0.00     0.072 C 
BRANCH   8   9
ATOM      9  C   UNL     1      27.462  24.864 -17.243  1.00  0.00     0.227 C 
BRANCH   9  10
ATOM     10  N   UNL     1      28.585  23.914 -17.238  1.00  0.00    -0.350 N 
ATOM     11  H   UNL     1      29.157  24.009 -18.107  1.00  0.00     0.345 HD
ATOM     12  H   UNL     1      28.225  22.935 -17.163  1.00  0.00     0.345 HD
ATOM     13  H   UNL     1      29.195  24.086 -16.405  1.00  0.00     0.345 HD
ENDBRANCH   9  10
BRANCH   9  14
ATOM     14  C   UNL     1      27.971  26.271 -17.082  1.00  0.00     0.099 C 
ATOM     15  O   UNL     1      27.512  27.018 -16.177  1.00  0.00    -0.544 OA
ATOM     16  O   UNL     1      28.977  26.746 -17.915  1.00  0.00    -0.544 OA
ENDBRANCH   9  14
ENDBRANCH   8   9
ENDBRANCH   1   8
TORSDOF 7
ENDMDL
MODEL 7
REMARK VINA RESULT:    -2.968      2.421      4.023
REMARK INTER + INTRA:          -4.559
REMARK INTER:                  -4.076
REMARK INTRA:                  -0.484
REMARK UNBOUND:                -0.551
REMARK SMILES [NH3+]CCCC[C@@H]([NH3+])C(=O)[O-]
REMARK SMILES IDX 4 1 3 2 2 3 1 4 5 8 6 9 7 10 8 14 9 15 10 16
REMARK H PARENT 1 5 1 6 1 7 7 11 7 12 7 13
REMARK Flexibility Score: inf
ROOT
ATOM      1  C   UNL     1      25.594  25.496 -16.931  1.00  0.00     0.012 C 
ENDROOT
BRANCH   1   2
ATOM      2  C   UNL     1      26.244  24.118 -16.724  1.00  0.00     0.061 C 
BRANCH   2   3
ATOM      3  C   UNL     1      27.256  23.772 -17.831  1.00  0.00     0.258 C 
BRANCH   3   4
ATOM      4  N   UNL     1      28.608  23.580 -17.305  1.00  0.00    -0.358 N 
ATOM      5  H   UNL     1      29.318  23.961 -17.972  1.00  0.00     0.344 HD
ATOM      6  H   UNL     1      28.792  22.565 -17.129  1.00  0.00     0.344 HD
ATOM      7  H   UNL     1      28.698  24.097 -16.402  1.00  0.00     0.344 HD
ENDBRANCH   3   4
ENDBRANCH   2   3
ENDBRANCH   1   2
BRANCH   1   8
ATOM      8  C   UNL     1      26.337  26.362 -17.966  1.00  0.00     0.072 C 
BRANCH   8   9
ATOM      9  C   UNL     1      27.223  27.482 -17.370  1.00  0.00     0.227 C 
BRANCH   9  10
ATOM     10  N   UNL     1      26.851  27.796 -15.982  1.00  0.00    -0.350 N 
ATOM     11  H   UNL     1      26.415  28.745 -15.920  1.00  0.00     0.345 HD
ATOM     12  H   UNL     1      27.696  27.761 -15.368  1.00  0.00     0.345 HD
ATOM     13  H   UNL     1      26.174  27.084 -15.623  1.00  0.00     0.345 HD
ENDBRANCH   9  10
BRANCH   9  14
ATOM     14  C   UNL     1      28.668  27.065 -17.439  1.00  0.00     0.099 C 
ATOM     15  O   UNL     1      29.244  26.583 -16.428  1.00  0.00    -0.544 OA
ATOM     16  O   UNL     1      29.368  27.182 -18.633  1.00  0.00    -0.544 OA
ENDBRANCH   9  14
ENDBRANCH   8   9
ENDBRANCH   1   8
TORSDOF 7
ENDMDL
MODEL 8
REMARK VINA RESULT:    -2.933     12.609     13.221
REMARK INTER + INTRA:          -4.513
REMARK INTER:                  -4.354
REMARK INTRA:                  -0.159
REMARK UNBOUND:                -0.551
REMARK SMILES [NH3+]CCCC[C@@H]([NH3+])C(=O)[O-]
REMARK SMILES IDX 4 1 3 2 2 3 1 4 5 8 6 9 7 10 8 14 9 15 10 16
REMARK H PARENT 1 5 1 6 1 7 7 11 7 12 7 13
REMARK Flexibility Score: inf
ROOT
ATOM      1  C   UNL     1      39.687  18.133 -21.340  1.00  0.00     0.012 C 
ENDROOT
BRANCH   1   2
ATOM      2  C   UNL     1      38.687  19.225 -21.758  1.00  0.00     0.061 C 
BRANCH   2   3
ATOM      3  C   UNL     1      38.116  18.994 -23.167  1.00  0.00     0.258 C 
BRANCH   3   4
ATOM      4  N   UNL     1      36.706  19.375 -23.265  1.00  0.00    -0.358 N 
ATOM      5  H   UNL     1      36.164  18.644 -23.779  1.00  0.00     0.344 HD
ATOM      6  H   UNL     1      36.609  20.298 -23.748  1.00  0.00     0.344 HD
ATOM      7  H   UNL     1      36.310  19.460 -22.302  1.00  0.00     0.344 HD
ENDBRANCH   3   4
ENDBRANCH   2   3
ENDBRANCH   1   2
BRANCH   1   8
ATOM      8  C   UNL     1      39.265  17.391 -20.058  1.00  0.00     0.072 C 
BRANCH   8   9
ATOM      9  C   UNL     1      37.798  16.902 -20.035  1.00  0.00     0.227 C 
BRANCH   9  10
ATOM     10  N   UNL     1      37.651  15.578 -20.659  1.00  0.00    -0.350 N 
ATOM     11  H   UNL     1      38.299  15.476 -21.472  1.00  0.00     0.345 HD
ATOM     12  H   UNL     1      36.665  15.441 -20.980  1.00  0.00     0.345 HD
ATOM     13  H   UNL     1      37.858  14.828 -19.959  1.00  0.00     0.345 HD
ENDBRANCH   9  10
BRANCH   9  14
ATOM     14  C   UNL     1      37.306  16.864 -18.612  1.00  0.00     0.099 C 
ATOM     15  O   UNL     1      36.104  16.586 -18.358  1.00  0.00    -0.544 OA
ATOM     16  O   UNL     1      38.188  17.107 -17.566  1.00  0.00    -0.544 OA
ENDBRANCH   9  14
ENDBRANCH   8   9
ENDBRANCH   1   8
TORSDOF 7
ENDMDL
MODEL 9
REMARK VINA RESULT:    -2.921      1.877      3.633
REMARK INTER + INTRA:          -4.496
REMARK INTER:                  -3.986
REMARK INTRA:                  -0.510
REMARK UNBOUND:                -0.551
REMARK SMILES [NH3+]CCCC[C@@H]([NH3+])C(=O)[O-]
REMARK SMILES IDX 4 1 3 2 2 3 1 4 5 8 6 9 7 10 8 14 9 15 10 16
REMARK H PARENT 1 5 1 6 1 7 7 11 7 12 7 13
REMARK Flexibility Score: inf
ROOT
ATOM      1  C   UNL     1      28.246  24.906 -19.770  1.00  0.00     0.012 C 
ENDROOT
BRANCH   1   2
ATOM      2  C   UNL     1      27.149  24.017 -19.159  1.00  0.00     0.061 C 
BRANCH   2   3
ATOM      3  C   UNL     1      27.325  23.823 -17.643  1.00  0.00     0.258 C 
BRANCH   3   4
ATOM      4  N   UNL     1      28.731  23.682 -17.261  1.00  0.00    -0.358 N 
ATOM      5  H   UNL     1      29.354  23.869 -18.080  1.00  0.00     0.344 HD
ATOM      6  H   UNL     1      28.913  22.723 -16.885  1.00  0.00     0.344 HD
ATOM      7  H   UNL     1      28.952  24.380 -16.516  1.00  0.00     0.344 HD
ENDBRANCH   3   4
ENDBRANCH   2   3
ENDBRANCH   1   2
BRANCH   1   8
ATOM      8  C   UNL     1      27.949  26.411 -19.624  1.00  0.00     0.072 C 
BRANCH   8   9
ATOM      9  C   UNL     1      28.990  27.208 -18.802  1.00  0.00     0.227 C 
BRANCH   9  10
ATOM     10  N   UNL     1      29.198  28.560 -19.343  1.00  0.00    -0.350 N 
ATOM     11  H   UNL     1      29.749  28.525 -20.231  1.00  0.00     0.345 HD
ATOM     12  H   UNL     1      29.701  29.152 -18.644  1.00  0.00     0.345 HD
ATOM     13  H   UNL     1      28.275  29.015 -19.531  1.00  0.00     0.345 HD
ENDBRANCH   9  10
BRANCH   9  14
ATOM     14  C   UNL     1      28.541  27.285 -17.367  1.00  0.00     0.099 C 
ATOM     15  O   UNL     1      27.510  27.937 -17.054  1.00  0.00    -0.544 OA
ATOM     16  O   UNL     1      29.247  26.608 -16.381  1.00  0.00    -0.544 OA
ENDBRANCH   9  14
ENDBRANCH   8   9
ENDBRANCH   1   8
TORSDOF 7
ENDMDL
