MODEL 1
REMARK VINA RESULT:    -5.339      0.000      0.000
REMARK INTER + INTRA:         -11.542
REMARK INTER:                  -9.708
REMARK INTRA:                  -1.834
REMARK UNBOUND:                -1.834
REMARK SMILES CCCCCCCCCCCCCCCC(=O)[O-]
REMARK SMILES IDX 9 1 10 2 11 3 12 4 13 5 14 6 15 7 16 8 17 9 18 10 8 11 7 12
REMARK SMILES IDX 6 13 5 14 4 15 3 16 2 17 1 18
REMARK H PARENT
REMARK Flexibility Score: inf
ROOT
ATOM      1  C   UNL     1      14.344 -17.561  -3.938  1.00  0.00     0.000 C 
ENDROOT
BRANCH   1   2
ATOM      2  C   UNL     1      13.485 -18.747  -4.401  1.00  0.00     0.000 C 
BRANCH   2   3
ATOM      3  C   UNL     1      12.427 -18.345  -5.443  1.00  0.00     0.000 C 
BRANCH   3   4
ATOM      4  C   UNL     1      11.005 -18.761  -5.032  1.00  0.00     0.000 C 
BRANCH   4   5
ATOM      5  C   UNL     1      10.075 -17.555  -4.824  1.00  0.00     0.000 C 
BRANCH   5   6
ATOM      6  C   UNL     1       9.589 -17.424  -3.369  1.00  0.00     0.006 C 
BRANCH   6   7
ATOM      7  C   UNL     1      10.572 -18.054  -2.373  1.00  0.00     0.053 C 
BRANCH   7   8
ATOM      8  C   UNL     1       9.858 -18.782  -1.275  1.00  0.00     0.041 C 
ATOM      9  O   UNL     1      10.247 -19.924  -0.915  1.00  0.00    -0.550 OA
ATOM     10  O   UNL     1       8.786 -18.184  -0.624  1.00  0.00    -0.550 OA
ENDBRANCH   7   8
ENDBRANCH   6   7
ENDBRANCH   5   6
ENDBRANCH   4   5
ENDBRANCH   3   4
ENDBRANCH   2   3
ENDBRANCH   1   2
BRANCH   1  11
ATOM     11  C   UNL     1      13.646 -16.228  -4.247  1.00  0.00     0.000 C 
BRANCH  11  12
ATOM     12  C   UNL     1      13.105 -15.535  -2.986  1.00  0.00    -0.000 C 
BRANCH  12  13
ATOM     13  C   UNL     1      11.933 -14.589  -3.287  1.00  0.00    -0.000 C 
BRANCH  13  14
ATOM     14  C   UNL     1      11.836 -14.295  -4.789  1.00  0.00    -0.000 C 
BRANCH  14  15
ATOM     15  C   UNL     1      11.369 -12.855  -5.040  1.00  0.00    -0.000 C 
BRANCH  15  16
ATOM     16  C   UNL     1      12.514 -11.832  -4.957  1.00  0.00    -0.000 C 
BRANCH  16  17
ATOM     17  C   UNL     1      12.519 -10.813  -6.116  1.00  0.00    -0.003 C 
ATOM     18  C   UNL     1      11.945  -9.458  -5.703  1.00  0.00     0.004 C 
ENDBRANCH  16  17
ENDBRANCH  15  16
ENDBRANCH  14  15
ENDBRANCH  13  14
ENDBRANCH  12  13
ENDBRANCH  11  12
ENDBRANCH   1  11
TORSDOF 14
ENDMDL
MODEL 2
REMARK VINA RESULT:    -5.173      3.299      6.234
REMARK INTER + INTRA:         -11.241
REMARK INTER:                  -9.763
REMARK INTRA:                  -1.478
REMARK UNBOUND:                -1.834
REMARK SMILES CCCCCCCCCCCCCCCC(=O)[O-]
REMARK SMILES IDX 9 1 10 2 11 3 12 4 13 5 14 6 15 7 16 8 17 9 18 10 8 11 7 12
REMARK SMILES IDX 6 13 5 14 4 15 3 16 2 17 1 18
REMARK H PARENT
REMARK Flexibility Score: inf
ROOT
ATOM      1  C   UNL     1      12.925 -15.840  -3.149  1.00  0.00     0.000 C 
ENDROOT
BRANCH   1   2
ATOM      2  C   UNL     1      14.150 -16.584  -3.702  1.00  0.00     0.000 C 
BRANCH   2   3
ATOM      3  C   UNL     1      13.804 -17.984  -4.237  1.00  0.00     0.000 C 
BRANCH   3   4
ATOM      4  C   UNL     1      15.014 -18.934  -4.231  1.00  0.00     0.000 C 
BRANCH   4   5
ATOM      5  C   UNL     1      16.207 -18.362  -3.448  1.00  0.00     0.000 C 
BRANCH   5   6
ATOM      6  C   UNL     1      17.410 -19.322  -3.416  1.00  0.00     0.006 C 
BRANCH   6   7
ATOM      7  C   UNL     1      17.647 -19.906  -2.017  1.00  0.00     0.053 C 
BRANCH   7   8
ATOM      8  C   UNL     1      17.252 -21.350  -1.945  1.00  0.00     0.041 C 
ATOM      9  O   UNL     1      17.792 -22.113  -1.102  1.00  0.00    -0.550 OA
ATOM     10  O   UNL     1      16.261 -21.844  -2.784  1.00  0.00    -0.550 OA
ENDBRANCH   7   8
ENDBRANCH   6   7
ENDBRANCH   5   6
ENDBRANCH   4   5
ENDBRANCH   3   4
ENDBRANCH   2   3
ENDBRANCH   1   2
BRANCH   1  11
ATOM     11  C   UNL     1      12.412 -14.805  -4.161  1.00  0.00     0.000 C 
BRANCH  11  12
ATOM     12  C   UNL     1      11.072 -15.209  -4.796  1.00  0.00    -0.000 C 
BRANCH  12  13
ATOM     13  C   UNL     1      11.243 -16.172  -5.980  1.00  0.00    -0.000 C 
BRANCH  13  14
ATOM     14  C   UNL     1      10.602 -17.532  -5.679  1.00  0.00    -0.000 C 
BRANCH  14  15
ATOM     15  C   UNL     1       9.752 -17.471  -4.403  1.00  0.00    -0.000 C 
BRANCH  15  16
ATOM     16  C   UNL     1      10.247 -18.431  -3.308  1.00  0.00    -0.000 C 
BRANCH  16  17
ATOM     17  C   UNL     1       9.669 -18.125  -1.911  1.00  0.00    -0.003 C 
ATOM     18  C   UNL     1       9.916 -19.260  -0.916  1.00  0.00     0.004 C 
ENDBRANCH  16  17
ENDBRANCH  15  16
ENDBRANCH  14  15
ENDBRANCH  13  14
ENDBRANCH  12  13
ENDBRANCH  11  12
ENDBRANCH   1  11
TORSDOF 14
ENDMDL
MODEL 3
REMARK VINA RESULT:    -5.170      3.241      5.390
REMARK INTER + INTRA:         -11.236
REMARK INTER:                  -9.354
REMARK INTRA:                  -1.882
REMARK UNBOUND:                -1.834
REMARK SMILES CCCCCCCCCCCCCCCC(=O)[O-]
REMARK SMILES IDX 9 1 10 2 11 3 12 4 13 5 14 6 15 7 16 8 17 9 18 10 8 11 7 12
REMARK SMILES IDX 6 13 5 14 4 15 3 16 2 17 1 18
REMARK H PARENT
REMARK Flexibility Score: inf
ROOT
ATOM      1  C   UNL     1      10.873 -18.459  -5.008  1.00  0.00     0.000 C 
ENDROOT
BRANCH   1   2
ATOM      2  C   UNL     1      12.349 -18.577  -5.416  1.00  0.00     0.000 C 
BRANCH   2   3
ATOM      3  C   UNL     1      13.300 -18.614  -4.207  1.00  0.00     0.000 C 
BRANCH   3   4
ATOM      4  C   UNL     1      14.781 -18.641  -4.621  1.00  0.00     0.000 C 
BRANCH   4   5
ATOM      5  C   UNL     1      15.725 -18.306  -3.454  1.00  0.00     0.000 C 
BRANCH   5   6
ATOM      6  C   UNL     1      17.072 -19.046  -3.549  1.00  0.00     0.006 C 
BRANCH   6   7
ATOM      7  C   UNL     1      17.362 -19.881  -2.295  1.00  0.00     0.053 C 
BRANCH   7   8
ATOM      8  C   UNL     1      17.031 -21.327  -2.503  1.00  0.00     0.041 C 
ATOM      9  O   UNL     1      15.923 -21.658  -3.001  1.00  0.00    -0.550 OA
ATOM     10  O   UNL     1      17.960 -22.308  -2.179  1.00  0.00    -0.550 OA
ENDBRANCH   7   8
ENDBRANCH   6   7
ENDBRANCH   5   6
ENDBRANCH   4   5
ENDBRANCH   3   4
ENDBRANCH   2   3
ENDBRANCH   1   2
BRANCH   1  11
ATOM     11  C   UNL     1      10.714 -18.604  -3.487  1.00  0.00     0.000 C 
BRANCH  11  12
ATOM     12  C   UNL     1       9.601 -17.708  -2.919  1.00  0.00    -0.000 C 
BRANCH  12  13
ATOM     13  C   UNL     1       9.215 -16.567  -3.872  1.00  0.00    -0.000 C 
BRANCH  13  14
ATOM     14  C   UNL     1       9.890 -15.254  -3.459  1.00  0.00    -0.000 C 
BRANCH  14  15
ATOM     15  C   UNL     1      10.797 -14.724  -4.578  1.00  0.00    -0.000 C 
BRANCH  15  16
ATOM     16  C   UNL     1      12.280 -15.072  -4.362  1.00  0.00    -0.000 C 
BRANCH  16  17
ATOM     17  C   UNL     1      12.619 -15.457  -2.907  1.00  0.00    -0.003 C 
ATOM     18  C   UNL     1      14.099 -15.255  -2.581  1.00  0.00     0.004 C 
ENDBRANCH  16  17
ENDBRANCH  15  16
ENDBRANCH  14  15
ENDBRANCH  13  14
ENDBRANCH  12  13
ENDBRANCH  11  12
ENDBRANCH   1  11
TORSDOF 14
ENDMDL
MODEL 4
REMARK VINA RESULT:    -5.148      3.832      6.970
REMARK INTER + INTRA:         -11.196
REMARK INTER:                  -9.354
REMARK INTRA:                  -1.843
REMARK UNBOUND:                -1.834
REMARK SMILES CCCCCCCCCCCCCCCC(=O)[O-]
REMARK SMILES IDX 9 1 10 2 11 3 12 4 13 5 14 6 15 7 16 8 17 9 18 10 8 11 7 12
REMARK SMILES IDX 6 13 5 14 4 15 3 16 2 17 1 18
REMARK H PARENT
REMARK Flexibility Score: inf
ROOT
ATOM      1  C   UNL     1      13.668 -16.216  -4.300  1.00  0.00     0.000 C 
ENDROOT
BRANCH   1   2
ATOM      2  C   UNL     1      13.064 -15.539  -3.061  1.00  0.00     0.000 C 
BRANCH   2   3
ATOM      3  C   UNL     1      11.787 -14.744  -3.381  1.00  0.00     0.000 C 
BRANCH   3   4
ATOM      4  C   UNL     1      11.730 -14.284  -4.847  1.00  0.00     0.000 C 
BRANCH   4   5
ATOM      5  C   UNL     1      11.343 -12.802  -4.985  1.00  0.00     0.000 C 
BRANCH   5   6
ATOM      6  C   UNL     1      12.556 -11.859  -4.880  1.00  0.00     0.006 C 
BRANCH   6   7
ATOM      7  C   UNL     1      12.700 -10.964  -6.117  1.00  0.00     0.053 C 
BRANCH   7   8
ATOM      8  C   UNL     1      11.944  -9.680  -5.964  1.00  0.00     0.041 C 
ATOM      9  O   UNL     1      12.322  -8.818  -5.127  1.00  0.00    -0.550 OA
ATOM     10  O   UNL     1      10.843  -9.419  -6.770  1.00  0.00    -0.550 OA
ENDBRANCH   7   8
ENDBRANCH   6   7
ENDBRANCH   5   6
ENDBRANCH   4   5
ENDBRANCH   3   4
ENDBRANCH   2   3
ENDBRANCH   1   2
BRANCH   1  11
ATOM     11  C   UNL     1      14.270 -17.583  -3.937  1.00  0.00     0.000 C 
BRANCH  11  12
ATOM     12  C   UNL     1      13.363 -18.756  -4.342  1.00  0.00    -0.000 C 
BRANCH  12  13
ATOM     13  C   UNL     1      12.385 -18.389  -5.468  1.00  0.00    -0.000 C 
BRANCH  13  14
ATOM     14  C   UNL     1      10.952 -18.797  -5.106  1.00  0.00    -0.000 C 
BRANCH  14  15
ATOM     15  C   UNL     1      10.103 -17.570  -4.747  1.00  0.00    -0.000 C 
BRANCH  15  16
ATOM     16  C   UNL     1       9.539 -17.630  -3.317  1.00  0.00    -0.000 C 
BRANCH  16  17
ATOM     17  C   UNL     1      10.548 -18.158  -2.277  1.00  0.00    -0.003 C 
ATOM     18  C   UNL     1       9.885 -19.040  -1.218  1.00  0.00     0.004 C 
ENDBRANCH  16  17
ENDBRANCH  15  16
ENDBRANCH  14  15
ENDBRANCH  13  14
ENDBRANCH  12  13
ENDBRANCH  11  12
ENDBRANCH   1  11
TORSDOF 14
ENDMDL
MODEL 5
REMARK VINA RESULT:    -4.935      2.341      5.987
REMARK INTER + INTRA:         -10.809
REMARK INTER:                  -9.409
REMARK INTRA:                  -1.400
REMARK UNBOUND:                -1.834
REMARK SMILES CCCCCCCCCCCCCCCC(=O)[O-]
REMARK SMILES IDX 9 1 10 2 11 3 12 4 13 5 14 6 15 7 16 8 17 9 18 10 8 11 7 12
REMARK SMILES IDX 6 13 5 14 4 15 3 16 2 17 1 18
REMARK H PARENT
REMARK Flexibility Score: inf
ROOT
ATOM      1  C   UNL     1      12.909 -15.605  -3.085  1.00  0.00     0.000 C 
ENDROOT
BRANCH   1   2
ATOM      2  C   UNL     1      12.417 -14.757  -4.267  1.00  0.00     0.000 C 
BRANCH   2   3
ATOM      3  C   UNL     1      11.066 -15.238  -4.823  1.00  0.00     0.000 C 
BRANCH   3   4
ATOM      4  C   UNL     1      11.225 -16.320  -5.905  1.00  0.00     0.000 C 
BRANCH   4   5
ATOM      5  C   UNL     1      10.505 -17.629  -5.539  1.00  0.00     0.000 C 
BRANCH   5   6
ATOM      6  C   UNL     1       9.894 -17.596  -4.127  1.00  0.00     0.006 C 
BRANCH   6   7
ATOM      7  C   UNL     1      10.500 -18.666  -3.209  1.00  0.00     0.053 C 
BRANCH   7   8
ATOM      8  C   UNL     1       9.902 -18.624  -1.837  1.00  0.00     0.041 C 
ATOM      9  O   UNL     1       9.131 -17.684  -1.511  1.00  0.00    -0.550 OA
ATOM     10  O   UNL     1      10.167 -19.642  -0.930  1.00  0.00    -0.550 OA
ENDBRANCH   7   8
ENDBRANCH   6   7
ENDBRANCH   5   6
ENDBRANCH   4   5
ENDBRANCH   3   4
ENDBRANCH   2   3
ENDBRANCH   1   2
BRANCH   1  11
ATOM     11  C   UNL     1      14.163 -16.405  -3.471  1.00  0.00     0.000 C 
BRANCH  11  12
ATOM     12  C   UNL     1      13.828 -17.739  -4.157  1.00  0.00    -0.000 C 
BRANCH  12  13
ATOM     13  C   UNL     1      15.072 -18.603  -4.411  1.00  0.00    -0.000 C 
BRANCH  13  14
ATOM     14  C   UNL     1      16.182 -18.278  -3.404  1.00  0.00    -0.000 C 
BRANCH  14  15
ATOM     15  C   UNL     1      17.243 -19.387  -3.376  1.00  0.00    -0.000 C 
BRANCH  15  16
ATOM     16  C   UNL     1      17.543 -19.892  -1.955  1.00  0.00    -0.000 C 
BRANCH  16  17
ATOM     17  C   UNL     1      17.288 -21.402  -1.768  1.00  0.00    -0.003 C 
ATOM     18  C   UNL     1      16.399 -21.983  -2.867  1.00  0.00     0.004 C 
ENDBRANCH  16  17
ENDBRANCH  15  16
ENDBRANCH  14  15
ENDBRANCH  13  14
ENDBRANCH  12  13
ENDBRANCH  11  12
ENDBRANCH   1  11
TORSDOF 14
ENDMDL
MODEL 6
REMARK VINA RESULT:    -4.911      3.204      6.115
REMARK INTER + INTRA:         -10.765
REMARK INTER:                  -9.006
REMARK INTRA:                  -1.759
REMARK UNBOUND:                -1.834
REMARK SMILES CCCCCCCCCCCCCCCC(=O)[O-]
REMARK SMILES IDX 9 1 10 2 11 3 12 4 13 5 14 6 15 7 16 8 17 9 18 10 8 11 7 12
REMARK SMILES IDX 6 13 5 14 4 15 3 16 2 17 1 18
REMARK H PARENT
REMARK Flexibility Score: inf
ROOT
ATOM      1  C   UNL     1      11.541 -14.637  -3.870  1.00  0.00     0.000 C 
ENDROOT
BRANCH   1   2
ATOM      2  C   UNL     1      12.985 -15.094  -4.125  1.00  0.00     0.000 C 
BRANCH   2   3
ATOM      3  C   UNL     1      13.722 -15.486  -2.833  1.00  0.00     0.000 C 
BRANCH   3   4
ATOM      4  C   UNL     1      14.751 -16.607  -3.057  1.00  0.00     0.000 C 
BRANCH   4   5
ATOM      5  C   UNL     1      14.309 -17.604  -4.142  1.00  0.00     0.000 C 
BRANCH   5   6
ATOM      6  C   UNL     1      15.288 -18.782  -4.299  1.00  0.00     0.006 C 
BRANCH   6   7
ATOM      7  C   UNL     1      16.554 -18.599  -3.453  1.00  0.00     0.053 C 
BRANCH   7   8
ATOM      8  C   UNL     1      16.910 -19.849  -2.708  1.00  0.00     0.041 C 
ATOM      9  O   UNL     1      17.839 -19.838  -1.859  1.00  0.00    -0.550 OA
ATOM     10  O   UNL     1      16.192 -21.018  -2.927  1.00  0.00    -0.550 OA
ENDBRANCH   7   8
ENDBRANCH   6   7
ENDBRANCH   5   6
ENDBRANCH   4   5
ENDBRANCH   3   4
ENDBRANCH   2   3
ENDBRANCH   1   2
BRANCH   1  11
ATOM     11  C   UNL     1      10.645 -14.959  -5.076  1.00  0.00     0.000 C 
BRANCH  11  12
ATOM     12  C   UNL     1      11.278 -15.987  -6.027  1.00  0.00    -0.000 C 
BRANCH  12  13
ATOM     13  C   UNL     1      10.477 -17.294  -6.105  1.00  0.00    -0.000 C 
BRANCH  13  14
ATOM     14  C   UNL     1      11.325 -18.487  -5.648  1.00  0.00    -0.000 C 
BRANCH  14  15
ATOM     15  C   UNL     1      10.922 -18.942  -4.239  1.00  0.00    -0.000 C 
BRANCH  15  16
ATOM     16  C   UNL     1       9.869 -18.027  -3.592  1.00  0.00    -0.000 C 
BRANCH  16  17
ATOM     17  C   UNL     1      10.074 -17.823  -2.077  1.00  0.00    -0.003 C 
ATOM     18  C   UNL     1      10.045 -19.140  -1.302  1.00  0.00     0.004 C 
ENDBRANCH  16  17
ENDBRANCH  15  16
ENDBRANCH  14  15
ENDBRANCH  13  14
ENDBRANCH  12  13
ENDBRANCH  11  12
ENDBRANCH   1  11
TORSDOF 14
ENDMDL
MODEL 7
REMARK VINA RESULT:    -4.805      3.144      5.880
REMARK INTER + INTRA:         -10.572
REMARK INTER:                  -8.831
REMARK INTRA:                  -1.740
REMARK UNBOUND:                -1.834
REMARK SMILES CCCCCCCCCCCCCCCC(=O)[O-]
REMARK SMILES IDX 9 1 10 2 11 3 12 4 13 5 14 6 15 7 16 8 17 9 18 10 8 11 7 12
REMARK SMILES IDX 6 13 5 14 4 15 3 16 2 17 1 18
REMARK H PARENT
REMARK Flexibility Score: inf
ROOT
ATOM      1  C   UNL     1      12.862 -15.281  -4.461  1.00  0.00     0.000 C 
ENDROOT
BRANCH   1   2
ATOM      2  C   UNL     1      13.531 -15.506  -3.096  1.00  0.00     0.000 C 
BRANCH   2   3
ATOM      3  C   UNL     1      14.616 -16.595  -3.138  1.00  0.00     0.000 C 
BRANCH   3   4
ATOM      4  C   UNL     1      14.353 -17.649  -4.227  1.00  0.00     0.000 C 
BRANCH   4   5
ATOM      5  C   UNL     1      15.465 -18.708  -4.302  1.00  0.00     0.000 C 
BRANCH   5   6
ATOM      6  C   UNL     1      16.462 -18.607  -3.133  1.00  0.00     0.006 C 
BRANCH   6   7
ATOM      7  C   UNL     1      17.462 -19.770  -3.123  1.00  0.00     0.053 C 
BRANCH   7   8
ATOM      8  C   UNL     1      16.938 -20.946  -2.357  1.00  0.00     0.041 C 
ATOM      9  O   UNL     1      17.268 -21.117  -1.154  1.00  0.00    -0.550 OA
ATOM     10  O   UNL     1      16.055 -21.833  -2.960  1.00  0.00    -0.550 OA
ENDBRANCH   7   8
ENDBRANCH   6   7
ENDBRANCH   5   6
ENDBRANCH   4   5
ENDBRANCH   3   4
ENDBRANCH   2   3
ENDBRANCH   1   2
BRANCH   1  11
ATOM     11  C   UNL     1      11.661 -14.332  -4.330  1.00  0.00     0.000 C 
BRANCH  11  12
ATOM     12  C   UNL     1      10.316 -15.048  -4.529  1.00  0.00    -0.000 C 
BRANCH  12  13
ATOM     13  C   UNL     1       9.703 -15.535  -3.208  1.00  0.00    -0.000 C 
BRANCH  13  14
ATOM     14  C   UNL     1       9.187 -16.974  -3.340  1.00  0.00    -0.000 C 
BRANCH  14  15
ATOM     15  C   UNL     1      10.128 -17.963  -2.639  1.00  0.00    -0.000 C 
BRANCH  15  16
ATOM     16  C   UNL     1      11.227 -18.505  -3.569  1.00  0.00    -0.000 C 
BRANCH  16  17
ATOM     17  C   UNL     1      10.708 -18.920  -4.962  1.00  0.00    -0.003 C 
ATOM     18  C   UNL     1      11.362 -18.121  -6.089  1.00  0.00     0.004 C 
ENDBRANCH  16  17
ENDBRANCH  15  16
ENDBRANCH  14  15
ENDBRANCH  13  14
ENDBRANCH  12  13
ENDBRANCH  11  12
ENDBRANCH   1  11
TORSDOF 14
ENDMDL
MODEL 8
REMARK VINA RESULT:    -4.789      2.870      4.492
REMARK INTER + INTRA:         -10.542
REMARK INTER:                  -9.454
REMARK INTRA:                  -1.088
REMARK UNBOUND:                -1.834
REMARK SMILES CCCCCCCCCCCCCCCC(=O)[O-]
REMARK SMILES IDX 9 1 10 2 11 3 12 4 13 5 14 6 15 7 16 8 17 9 18 10 8 11 7 12
REMARK SMILES IDX 6 13 5 14 4 15 3 16 2 17 1 18
REMARK H PARENT
REMARK Flexibility Score: inf
ROOT
ATOM      1  C   UNL     1      10.607 -18.201  -5.484  1.00  0.00     0.000 C 
ENDROOT
BRANCH   1   2
ATOM      2  C   UNL     1      12.122 -18.398  -5.638  1.00  0.00     0.000 C 
BRANCH   2   3
ATOM      3  C   UNL     1      12.866 -18.365  -4.292  1.00  0.00     0.000 C 
BRANCH   3   4
ATOM      4  C   UNL     1      13.764 -17.125  -4.144  1.00  0.00     0.000 C 
BRANCH   4   5
ATOM      5  C   UNL     1      15.108 -17.448  -3.470  1.00  0.00     0.000 C 
BRANCH   5   6
ATOM      6  C   UNL     1      15.596 -18.876  -3.774  1.00  0.00     0.006 C 
BRANCH   6   7
ATOM      7  C   UNL     1      17.016 -19.125  -3.249  1.00  0.00     0.053 C 
BRANCH   7   8
ATOM      8  C   UNL     1      17.087 -20.359  -2.403  1.00  0.00     0.041 C 
ATOM      9  O   UNL     1      16.598 -21.442  -2.820  1.00  0.00    -0.550 OA
ATOM     10  O   UNL     1      17.723 -20.323  -1.168  1.00  0.00    -0.550 OA
ENDBRANCH   7   8
ENDBRANCH   6   7
ENDBRANCH   5   6
ENDBRANCH   4   5
ENDBRANCH   3   4
ENDBRANCH   2   3
ENDBRANCH   1   2
BRANCH   1  11
ATOM     11  C   UNL     1      10.243 -17.875  -4.027  1.00  0.00     0.000 C 
BRANCH  11  12
ATOM     12  C   UNL     1       9.632 -16.475  -3.866  1.00  0.00    -0.000 C 
BRANCH  12  13
ATOM     13  C   UNL     1      10.685 -15.400  -3.558  1.00  0.00    -0.000 C 
BRANCH  13  14
ATOM     14  C   UNL     1      11.115 -14.669  -4.835  1.00  0.00    -0.000 C 
BRANCH  14  15
ATOM     15  C   UNL     1      12.034 -13.483  -4.510  1.00  0.00    -0.000 C 
BRANCH  15  16
ATOM     16  C   UNL     1      11.523 -12.153  -5.088  1.00  0.00    -0.000 C 
BRANCH  16  17
ATOM     17  C   UNL     1      12.645 -11.141  -5.394  1.00  0.00    -0.003 C 
ATOM     18  C   UNL     1      12.133  -9.911  -6.145  1.00  0.00     0.004 C 
ENDBRANCH  16  17
ENDBRANCH  15  16
ENDBRANCH  14  15
ENDBRANCH  13  14
ENDBRANCH  12  13
ENDBRANCH  11  12
ENDBRANCH   1  11
TORSDOF 14
ENDMDL
MODEL 9
REMARK VINA RESULT:    -4.713      3.529      7.019
REMARK INTER + INTRA:         -10.404
REMARK INTER:                  -9.233
REMARK INTRA:                  -1.172
REMARK UNBOUND:                -1.834
REMARK SMILES CCCCCCCCCCCCCCCC(=O)[O-]
REMARK SMILES IDX 9 1 10 2 11 3 12 4 13 5 14 6 15 7 16 8 17 9 18 10 8 11 7 12
REMARK SMILES IDX 6 13 5 14 4 15 3 16 2 17 1 18
REMARK H PARENT
REMARK Flexibility Score: inf
ROOT
ATOM      1  C   UNL     1      12.157 -18.484  -5.314  1.00  0.00     0.000 C 
ENDROOT
BRANCH   1   2
ATOM      2  C   UNL     1      10.724 -18.685  -4.800  1.00  0.00     0.000 C 
BRANCH   2   3
ATOM      3  C   UNL     1      10.664 -18.924  -3.282  1.00  0.00     0.000 C 
BRANCH   3   4
ATOM      4  C   UNL     1       9.670 -17.986  -2.576  1.00  0.00     0.000 C 
BRANCH   4   5
ATOM      5  C   UNL     1       9.156 -16.869  -3.499  1.00  0.00     0.000 C 
BRANCH   5   6
ATOM      6  C   UNL     1       9.914 -15.543  -3.306  1.00  0.00     0.006 C 
BRANCH   6   7
ATOM      7  C   UNL     1      10.577 -15.062  -4.603  1.00  0.00     0.053 C 
BRANCH   7   8
ATOM      8  C   UNL     1      11.807 -14.252  -4.330  1.00  0.00     0.041 C 
ATOM      9  O   UNL     1      12.804 -14.782  -3.773  1.00  0.00    -0.550 OA
ATOM     10  O   UNL     1      11.867 -12.921  -4.723  1.00  0.00    -0.550 OA
ENDBRANCH   7   8
ENDBRANCH   6   7
ENDBRANCH   5   6
ENDBRANCH   4   5
ENDBRANCH   3   4
ENDBRANCH   2   3
ENDBRANCH   1   2
BRANCH   1  11
ATOM     11  C   UNL     1      13.118 -18.192  -4.151  1.00  0.00     0.000 C 
BRANCH  11  12
ATOM     12  C   UNL     1      14.594 -18.246  -4.574  1.00  0.00    -0.000 C 
BRANCH  12  13
ATOM     13  C   UNL     1      15.383 -19.336  -3.834  1.00  0.00    -0.000 C 
BRANCH  13  14
ATOM     14  C   UNL     1      16.710 -18.786  -3.297  1.00  0.00    -0.000 C 
BRANCH  14  15
ATOM     15  C   UNL     1      17.424 -19.825  -2.422  1.00  0.00    -0.000 C 
BRANCH  15  16
ATOM     16  C   UNL     1      16.846 -21.241  -2.582  1.00  0.00    -0.000 C 
BRANCH  16  17
ATOM     17  C   UNL     1      17.853 -22.258  -3.161  1.00  0.00    -0.003 C 
ATOM     18  C   UNL     1      17.247 -23.652  -3.319  1.00  0.00     0.004 C 
ENDBRANCH  16  17
ENDBRANCH  15  16
ENDBRANCH  14  15
ENDBRANCH  13  14
ENDBRANCH  12  13
ENDBRANCH  11  12
ENDBRANCH   1  11
TORSDOF 14
ENDMDL
