MODEL 1
REMARK VINA RESULT:    -3.987      0.000      0.000
REMARK INTER + INTRA:          -4.241
REMARK INTER:                  -4.220
REMARK INTRA:                  -0.021
REMARK UNBOUND:                -0.021
REMARK SMILES O=C([O-])c1cccnc1
REMARK SMILES IDX 4 1 5 2 9 3 6 4 8 5 7 6 2 7 1 8 3 9
REMARK H PARENT
REMARK Flexibility Score: inf
ROOT
ATOM      1  C   UNL     1      11.913  49.123  96.922  1.00  0.00     0.016 A 
ATOM      2  C   UNL     1      13.039  49.788  97.434  1.00  0.00     0.013 A 
ATOM      3  C   UNL     1      11.890  48.804  95.552  1.00  0.00     0.120 A 
ATOM      4  C   UNL     1      14.101  50.118  96.591  1.00  0.00     0.021 A 
ATOM      5  N   UNL     1      12.940  49.136  94.753  1.00  0.00    -0.264 NA
ATOM      6  C   UNL     1      14.034  49.780  95.239  1.00  0.00     0.111 A 
ENDROOT
BRANCH   1   7
ATOM      7  C   UNL     1      10.781  48.769  97.804  1.00  0.00     0.073 C 
ATOM      8  O   UNL     1      10.395  49.564  98.703  1.00  0.00    -0.545 OA
ATOM      9  O   UNL     1      10.125  47.551  97.656  1.00  0.00    -0.545 OA
ENDBRANCH   1   7
TORSDOF 1
ENDMDL
MODEL 2
REMARK VINA RESULT:    -3.976      0.227      1.098
REMARK INTER + INTRA:          -4.230
REMARK INTER:                  -4.209
REMARK INTRA:                  -0.020
REMARK UNBOUND:                -0.021
REMARK SMILES O=C([O-])c1cccnc1
REMARK SMILES IDX 4 1 5 2 9 3 6 4 8 5 7 6 2 7 1 8 3 9
REMARK H PARENT
REMARK Flexibility Score: inf
ROOT
ATOM      1  C   UNL     1      12.064  49.201  96.905  1.00  0.00     0.016 A 
ATOM      2  C   UNL     1      13.136  49.899  97.485  1.00  0.00     0.013 A 
ATOM      3  C   UNL     1      12.133  48.888  95.536  1.00  0.00     0.120 A 
ATOM      4  C   UNL     1      14.235  50.267  96.708  1.00  0.00     0.021 A 
ATOM      5  N   UNL     1      13.216  49.258  94.801  1.00  0.00    -0.264 NA
ATOM      6  C   UNL     1      14.258  49.933  95.353  1.00  0.00     0.111 A 
ENDROOT
BRANCH   1   7
ATOM      7  C   UNL     1      10.894  48.807  97.718  1.00  0.00     0.073 C 
ATOM      8  O   UNL     1      10.329  47.696  97.533  1.00  0.00    -0.545 OA
ATOM      9  O   UNL     1      10.399  49.658  98.701  1.00  0.00    -0.545 OA
ENDBRANCH   1   7
TORSDOF 1
ENDMDL
MODEL 3
REMARK VINA RESULT:    -3.889      3.069      3.768
REMARK INTER + INTRA:          -4.137
REMARK INTER:                  -4.120
REMARK INTRA:                  -0.016
REMARK UNBOUND:                -0.021
REMARK SMILES O=C([O-])c1cccnc1
REMARK SMILES IDX 4 1 5 2 9 3 6 4 8 5 7 6 2 7 1 8 3 9
REMARK H PARENT
REMARK Flexibility Score: inf
ROOT
ATOM      1  C   UNL     1      13.538  49.464  95.954  1.00  0.00     0.016 A 
ATOM      2  C   UNL     1      13.149  49.600  97.296  1.00  0.00     0.013 A 
ATOM      3  C   UNL     1      12.600  48.966  95.032  1.00  0.00     0.120 A 
ATOM      4  C   UNL     1      11.858  49.245  97.690  1.00  0.00     0.021 A 
ATOM      5  N   UNL     1      11.348  48.628  95.443  1.00  0.00    -0.264 NA
ATOM      6  C   UNL     1      10.961  48.756  96.739  1.00  0.00     0.111 A 
ENDROOT
BRANCH   1   7
ATOM      7  C   UNL     1      14.903  49.835  95.524  1.00  0.00     0.073 C 
ATOM      8  O   UNL     1      15.205  51.042  95.323  1.00  0.00    -0.545 OA
ATOM      9  O   UNL     1      15.874  48.858  95.335  1.00  0.00    -0.545 OA
ENDBRANCH   1   7
TORSDOF 1
ENDMDL
MODEL 4
REMARK VINA RESULT:    -3.770      3.177      4.074
REMARK INTER + INTRA:          -4.012
REMARK INTER:                  -3.995
REMARK INTRA:                  -0.016
REMARK UNBOUND:                -0.021
REMARK SMILES O=C([O-])c1cccnc1
REMARK SMILES IDX 4 1 5 2 9 3 6 4 8 5 7 6 2 7 1 8 3 9
REMARK H PARENT
REMARK Flexibility Score: inf
ROOT
ATOM      1  C   UNL     1      13.542  49.487  96.070  1.00  0.00     0.016 A 
ATOM      2  C   UNL     1      12.602  48.892  95.213  1.00  0.00     0.013 A 
ATOM      3  C   UNL     1      13.161  49.759  97.396  1.00  0.00     0.120 A 
ATOM      4  C   UNL     1      11.324  48.583  95.682  1.00  0.00     0.021 A 
ATOM      5  N   UNL     1      11.909  49.447  97.828  1.00  0.00    -0.264 NA
ATOM      6  C   UNL     1      10.992  48.870  97.007  1.00  0.00     0.111 A 
ENDROOT
BRANCH   1   7
ATOM      7  C   UNL     1      14.898  49.820  95.585  1.00  0.00     0.073 C 
ATOM      8  O   UNL     1      15.188  50.999  95.248  1.00  0.00    -0.545 OA
ATOM      9  O   UNL     1      15.875  48.834  95.493  1.00  0.00    -0.545 OA
ENDBRANCH   1   7
TORSDOF 1
ENDMDL
MODEL 5
REMARK VINA RESULT:    -3.742      0.939      1.931
REMARK INTER + INTRA:          -3.982
REMARK INTER:                  -3.961
REMARK INTRA:                  -0.020
REMARK UNBOUND:                -0.021
REMARK SMILES O=C([O-])c1cccnc1
REMARK SMILES IDX 4 1 5 2 9 3 6 4 8 5 7 6 2 7 1 8 3 9
REMARK H PARENT
REMARK Flexibility Score: inf
ROOT
ATOM      1  C   UNL     1      11.973  49.139  96.932  1.00  0.00     0.016 A 
ATOM      2  C   UNL     1      11.985  48.853  95.556  1.00  0.00     0.013 A 
ATOM      3  C   UNL     1      13.098  49.768  97.494  1.00  0.00     0.120 A 
ATOM      4  C   UNL     1      13.095  49.192  94.781  1.00  0.00     0.021 A 
ATOM      5  N   UNL     1      14.166  50.088  96.716  1.00  0.00    -0.264 NA
ATOM      6  C   UNL     1      14.188  49.816  95.384  1.00  0.00     0.111 A 
ENDROOT
BRANCH   1   7
ATOM      7  C   UNL     1      10.803  48.784  97.764  1.00  0.00     0.073 C 
ATOM      8  O   UNL     1      10.211  47.683  97.601  1.00  0.00    -0.545 OA
ATOM      9  O   UNL     1      10.339  49.661  98.738  1.00  0.00    -0.545 OA
ENDBRANCH   1   7
TORSDOF 1
ENDMDL
MODEL 6
REMARK VINA RESULT:    -3.429      2.070      2.819
REMARK INTER + INTRA:          -3.650
REMARK INTER:                  -3.626
REMARK INTRA:                  -0.024
REMARK UNBOUND:                -0.021
REMARK SMILES O=C([O-])c1cccnc1
REMARK SMILES IDX 4 1 5 2 9 3 6 4 8 5 7 6 2 7 1 8 3 9
REMARK H PARENT
REMARK Flexibility Score: inf
ROOT
ATOM      1  C   UNL     1      12.562  49.243  95.472  1.00  0.00     0.016 A 
ATOM      2  C   UNL     1      13.488  50.031  94.768  1.00  0.00     0.013 A 
ATOM      3  C   UNL     1      12.610  49.252  96.878  1.00  0.00     0.120 A 
ATOM      4  C   UNL     1      14.425  50.798  95.461  1.00  0.00     0.021 A 
ATOM      5  N   UNL     1      13.534  50.010  97.528  1.00  0.00    -0.264 NA
ATOM      6  C   UNL     1      14.433  50.775  96.856  1.00  0.00     0.111 A 
ENDROOT
BRANCH   1   7
ATOM      7  C   UNL     1      11.565  48.425  94.750  1.00  0.00     0.073 C 
ATOM      8  O   UNL     1      11.465  48.497  93.496  1.00  0.00    -0.545 OA
ATOM      9  O   UNL     1      10.722  47.565  95.445  1.00  0.00    -0.545 OA
ENDBRANCH   1   7
TORSDOF 1
ENDMDL
MODEL 7
REMARK VINA RESULT:    -3.421      1.449      2.071
REMARK INTER + INTRA:          -3.641
REMARK INTER:                  -3.623
REMARK INTRA:                  -0.018
REMARK UNBOUND:                -0.021
REMARK SMILES O=C([O-])c1cccnc1
REMARK SMILES IDX 4 1 5 2 9 3 6 4 8 5 7 6 2 7 1 8 3 9
REMARK H PARENT
REMARK Flexibility Score: inf
ROOT
ATOM      1  C   UNL     1      10.275  48.751  97.071  1.00  0.00     0.016 A 
ATOM      2  C   UNL     1      11.211  49.336  97.940  1.00  0.00     0.013 A 
ATOM      3  C   UNL     1      10.695  48.399  95.775  1.00  0.00     0.120 A 
ATOM      4  C   UNL     1      12.521  49.557  97.513  1.00  0.00     0.021 A 
ATOM      5  N   UNL     1      11.979  48.625  95.385  1.00  0.00    -0.264 NA
ATOM      6  C   UNL     1      12.891  49.190  96.218  1.00  0.00     0.111 A 
ENDROOT
BRANCH   1   7
ATOM      7  C   UNL     1       8.884  48.512  97.511  1.00  0.00     0.073 C 
ATOM      8  O   UNL     1       8.375  47.363  97.431  1.00  0.00    -0.545 OA
ATOM      9  O   UNL     1       8.118  49.555  98.020  1.00  0.00    -0.545 OA
ENDBRANCH   1   7
TORSDOF 1
ENDMDL
MODEL 8
REMARK VINA RESULT:    -3.386     12.622     12.910
REMARK INTER + INTRA:          -3.605
REMARK INTER:                  -3.582
REMARK INTRA:                  -0.023
REMARK UNBOUND:                -0.021
REMARK SMILES O=C([O-])c1cccnc1
REMARK SMILES IDX 4 1 5 2 9 3 6 4 8 5 7 6 2 7 1 8 3 9
REMARK H PARENT
REMARK Flexibility Score: inf
ROOT
ATOM      1  C   UNL     1      19.905  39.319  96.563  1.00  0.00     0.016 A 
ATOM      2  C   UNL     1      18.934  38.668  97.341  1.00  0.00     0.013 A 
ATOM      3  C   UNL     1      19.674  39.456  95.183  1.00  0.00     0.120 A 
ATOM      4  C   UNL     1      17.774  38.173  96.743  1.00  0.00     0.021 A 
ATOM      5  N   UNL     1      18.534  38.966  94.625  1.00  0.00    -0.264 NA
ATOM      6  C   UNL     1      17.589  38.334  95.369  1.00  0.00     0.111 A 
ENDROOT
BRANCH   1   7
ATOM      7  C   UNL     1      21.139  39.847  97.184  1.00  0.00     0.073 C 
ATOM      8  O   UNL     1      21.887  40.638  96.552  1.00  0.00    -0.545 OA
ATOM      9  O   UNL     1      21.491  39.475  98.477  1.00  0.00    -0.545 OA
ENDBRANCH   1   7
TORSDOF 1
ENDMDL
MODEL 9
REMARK VINA RESULT:    -3.284      6.733      7.034
REMARK INTER + INTRA:          -3.497
REMARK INTER:                  -3.474
REMARK INTRA:                  -0.023
REMARK UNBOUND:                -0.021
REMARK SMILES O=C([O-])c1cccnc1
REMARK SMILES IDX 4 1 5 2 9 3 6 4 8 5 7 6 2 7 1 8 3 9
REMARK H PARENT
REMARK Flexibility Score: inf
ROOT
ATOM      1  C   UNL     1      12.478  42.599  94.866  1.00  0.00     0.016 A 
ATOM      2  C   UNL     1      13.810  42.278  95.176  1.00  0.00     0.013 A 
ATOM      3  C   UNL     1      12.141  42.824  93.519  1.00  0.00     0.120 A 
ATOM      4  C   UNL     1      14.764  42.189  94.161  1.00  0.00     0.021 A 
ATOM      5  N   UNL     1      13.090  42.730  92.549  1.00  0.00    -0.264 NA
ATOM      6  C   UNL     1      14.381  42.420  92.839  1.00  0.00     0.111 A 
ENDROOT
BRANCH   1   7
ATOM      7  C   UNL     1      11.459  42.697  95.932  1.00  0.00     0.073 C 
ATOM      8  O   UNL     1      10.373  43.303  95.728  1.00  0.00    -0.545 OA
ATOM      9  O   UNL     1      11.685  42.122  97.178  1.00  0.00    -0.545 OA
ENDBRANCH   1   7
TORSDOF 1
ENDMDL
