MODEL 1
REMARK VINA RESULT:    -4.667      0.000      0.000
REMARK INTER + INTRA:          -4.803
REMARK INTER:                  -4.803
REMARK INTRA:                   0.000
REMARK UNBOUND:                 0.000
REMARK SMILES Nc1ncnc2nc[nH]c12
REMARK SMILES IDX 8 1 7 2 6 3 5 4 4 5 3 6 2 7 10 8 9 9 1 11
REMARK H PARENT 9 10 1 12 1 13
REMARK Flexibility Score: inf
ROOT
ATOM      1  C   UNL     1      16.781 -28.311 -31.624  1.00  0.00     0.199 A 
ATOM      2  N   UNL     1      15.856 -28.644 -30.683  1.00  0.00    -0.217 NA
ATOM      3  C   UNL     1      14.945 -27.666 -30.820  1.00  0.00     0.182 A 
ATOM      4  N   UNL     1      13.801 -27.522 -30.109  1.00  0.00    -0.215 NA
ATOM      5  C   UNL     1      12.994 -26.455 -30.393  1.00  0.00     0.226 A 
ATOM      6  N   UNL     1      13.342 -25.561 -31.375  1.00  0.00    -0.217 NA
ATOM      7  C   UNL     1      14.496 -25.705 -32.093  1.00  0.00     0.152 A 
ATOM      8  C   UNL     1      15.306 -26.795 -31.791  1.00  0.00     0.127 A 
ATOM      9  N   UNL     1      16.473 -27.186 -32.318  1.00  0.00    -0.340 N 
ATOM     10  H   UNL     1      17.026 -26.739 -33.082  1.00  0.00     0.168 HD
ENDROOT
BRANCH   7  11
ATOM     11  N   UNL     1      14.838 -24.762 -33.109  1.00  0.00    -0.382 N 
ATOM     12  H   UNL     1      15.466 -25.044 -33.894  1.00  0.00     0.158 HD
ATOM     13  H   UNL     1      14.472 -23.785 -33.088  1.00  0.00     0.158 HD
ENDBRANCH   7  11
TORSDOF 1
ENDMDL
MODEL 2
REMARK VINA RESULT:    -4.506      0.700      2.833
REMARK INTER + INTRA:          -4.637
REMARK INTER:                  -4.637
REMARK INTRA:                   0.000
REMARK UNBOUND:                 0.000
REMARK SMILES Nc1ncnc2nc[nH]c12
REMARK SMILES IDX 8 1 7 2 6 3 5 4 4 5 3 6 2 7 10 8 9 9 1 11
REMARK H PARENT 9 10 1 12 1 13
REMARK Flexibility Score: inf
ROOT
ATOM      1  C   UNL     1      12.490 -26.737 -29.889  1.00  0.00     0.199 A 
ATOM      2  N   UNL     1      13.304 -27.800 -29.647  1.00  0.00    -0.217 NA
ATOM      3  C   UNL     1      14.311 -27.591 -30.511  1.00  0.00     0.182 A 
ATOM      4  N   UNL     1      15.405 -28.372 -30.681  1.00  0.00    -0.215 NA
ATOM      5  C   UNL     1      16.328 -27.994 -31.617  1.00  0.00     0.226 A 
ATOM      6  N   UNL     1      16.143 -26.854 -32.357  1.00  0.00    -0.217 NA
ATOM      7  C   UNL     1      15.039 -26.065 -32.187  1.00  0.00     0.152 A 
ATOM      8  C   UNL     1      14.109 -26.464 -31.232  1.00  0.00     0.127 A 
ATOM      9  N   UNL     1      12.955 -25.901 -30.853  1.00  0.00    -0.340 N 
ATOM     10  H   UNL     1      12.507 -25.028 -31.207  1.00  0.00     0.168 HD
ENDROOT
BRANCH   7  11
ATOM     11  N   UNL     1      14.867 -24.884 -32.970  1.00  0.00    -0.382 N 
ATOM     12  H   UNL     1      14.386 -24.052 -32.562  1.00  0.00     0.158 HD
ATOM     13  H   UNL     1      15.213 -24.828 -33.953  1.00  0.00     0.158 HD
ENDBRANCH   7  11
TORSDOF 1
ENDMDL
MODEL 3
REMARK VINA RESULT:    -4.439      0.819      3.667
REMARK INTER + INTRA:          -4.569
REMARK INTER:                  -4.569
REMARK INTRA:                   0.000
REMARK UNBOUND:                 0.000
REMARK SMILES Nc1ncnc2nc[nH]c12
REMARK SMILES IDX 8 1 7 2 6 3 5 4 4 5 3 6 2 7 10 8 9 9 1 11
REMARK H PARENT 9 10 1 12 1 13
REMARK Flexibility Score: inf
ROOT
ATOM      1  C   UNL     1      13.561 -24.633 -32.194  1.00  0.00     0.199 A 
ATOM      2  N   UNL     1      14.733 -24.993 -32.783  1.00  0.00    -0.217 NA
ATOM      3  C   UNL     1      15.035 -26.135 -32.144  1.00  0.00     0.182 A 
ATOM      4  N   UNL     1      16.121 -26.916 -32.353  1.00  0.00    -0.215 NA
ATOM      5  C   UNL     1      16.258 -28.048 -31.598  1.00  0.00     0.226 A 
ATOM      6  N   UNL     1      15.315 -28.376 -30.658  1.00  0.00    -0.217 NA
ATOM      7  C   UNL     1      14.217 -27.589 -30.445  1.00  0.00     0.152 A 
ATOM      8  C   UNL     1      14.093 -26.440 -31.220  1.00  0.00     0.127 A 
ATOM      9  N   UNL     1      13.143 -25.497 -31.234  1.00  0.00    -0.340 N 
ATOM     10  H   UNL     1      12.281 -25.431 -30.650  1.00  0.00     0.168 HD
ENDROOT
BRANCH   7  11
ATOM     11  N   UNL     1      13.249 -27.950 -29.460  1.00  0.00    -0.382 N 
ATOM     12  H   UNL     1      12.230 -27.885 -29.680  1.00  0.00     0.158 HD
ATOM     13  H   UNL     1      13.535 -28.282 -28.513  1.00  0.00     0.158 HD
ENDBRANCH   7  11
TORSDOF 1
ENDMDL
MODEL 4
REMARK VINA RESULT:    -4.413      1.384      1.978
REMARK INTER + INTRA:          -4.542
REMARK INTER:                  -4.542
REMARK INTRA:                   0.000
REMARK UNBOUND:                 0.000
REMARK SMILES Nc1ncnc2nc[nH]c12
REMARK SMILES IDX 8 1 7 2 6 3 5 4 4 5 3 6 2 7 10 8 9 9 1 11
REMARK H PARENT 9 10 1 12 1 13
REMARK Flexibility Score: inf
ROOT
ATOM      1  C   UNL     1      14.449 -28.114 -30.560  1.00  0.00     0.199 A 
ATOM      2  N   UNL     1      13.351 -27.670 -29.891  1.00  0.00    -0.217 NA
ATOM      3  C   UNL     1      13.142 -26.467 -30.451  1.00  0.00     0.182 A 
ATOM      4  N   UNL     1      12.155 -25.592 -30.143  1.00  0.00    -0.215 NA
ATOM      5  C   UNL     1      12.106 -24.408 -30.827  1.00  0.00     0.226 A 
ATOM      6  N   UNL     1      13.033 -24.125 -31.797  1.00  0.00    -0.217 NA
ATOM      7  C   UNL     1      14.030 -25.007 -32.109  1.00  0.00     0.152 A 
ATOM      8  C   UNL     1      14.068 -26.206 -31.404  1.00  0.00     0.127 A 
ATOM      9  N   UNL     1      14.912 -27.242 -31.491  1.00  0.00    -0.340 N 
ATOM     10  H   UNL     1      15.734 -27.362 -32.123  1.00  0.00     0.168 HD
ENDROOT
BRANCH   7  11
ATOM     11  N   UNL     1      14.986 -24.690 -33.122  1.00  0.00    -0.382 N 
ATOM     12  H   UNL     1      14.738 -24.810 -34.130  1.00  0.00     0.158 HD
ATOM     13  H   UNL     1      15.937 -24.337 -32.880  1.00  0.00     0.158 HD
ENDBRANCH   7  11
TORSDOF 1
ENDMDL
MODEL 5
REMARK VINA RESULT:    -4.402      0.853      2.503
REMARK INTER + INTRA:          -4.531
REMARK INTER:                  -4.531
REMARK INTRA:                   0.000
REMARK UNBOUND:                 0.000
REMARK SMILES Nc1ncnc2nc[nH]c12
REMARK SMILES IDX 8 1 7 2 6 3 5 4 4 5 3 6 2 7 10 8 9 9 1 11
REMARK H PARENT 9 10 1 12 1 13
REMARK Flexibility Score: inf
ROOT
ATOM      1  C   UNL     1      16.852 -28.817 -31.151  1.00  0.00     0.199 A 
ATOM      2  N   UNL     1      16.912 -27.752 -31.996  1.00  0.00    -0.217 NA
ATOM      3  C   UNL     1      15.747 -27.130 -31.754  1.00  0.00     0.182 A 
ATOM      4  N   UNL     1      15.300 -25.994 -32.342  1.00  0.00    -0.215 NA
ATOM      5  C   UNL     1      14.079 -25.508 -31.963  1.00  0.00     0.226 A 
ATOM      6  N   UNL     1      13.335 -26.160 -31.011  1.00  0.00    -0.217 NA
ATOM      7  C   UNL     1      13.785 -27.306 -30.417  1.00  0.00     0.152 A 
ATOM      8  C   UNL     1      15.028 -27.787 -30.814  1.00  0.00     0.127 A 
ATOM      9  N   UNL     1      15.712 -28.867 -30.415  1.00  0.00    -0.340 N 
ATOM     10  H   UNL     1      15.444 -29.584 -29.706  1.00  0.00     0.168 HD
ENDROOT
BRANCH   7  11
ATOM     11  N   UNL     1      12.992 -27.967 -29.430  1.00  0.00    -0.382 N 
ATOM     12  H   UNL     1      11.980 -28.151 -29.610  1.00  0.00     0.158 HD
ATOM     13  H   UNL     1      13.402 -28.275 -28.521  1.00  0.00     0.158 HD
ENDBRANCH   7  11
TORSDOF 1
ENDMDL
MODEL 6
REMARK VINA RESULT:    -4.397      0.994      2.960
REMARK INTER + INTRA:          -4.526
REMARK INTER:                  -4.526
REMARK INTRA:                   0.000
REMARK UNBOUND:                 0.000
REMARK SMILES Nc1ncnc2nc[nH]c12
REMARK SMILES IDX 8 1 7 2 6 3 5 4 4 5 3 6 2 7 10 8 9 9 1 11
REMARK H PARENT 9 10 1 12 1 13
REMARK Flexibility Score: inf
ROOT
ATOM      1  C   UNL     1      14.290 -24.641 -32.740  1.00  0.00     0.199 A 
ATOM      2  N   UNL     1      13.298 -25.014 -31.886  1.00  0.00    -0.217 NA
ATOM      3  C   UNL     1      13.801 -26.132 -31.337  1.00  0.00     0.182 A 
ATOM      4  N   UNL     1      13.204 -26.914 -30.405  1.00  0.00    -0.215 NA
ATOM      5  C   UNL     1      13.876 -28.020 -29.964  1.00  0.00     0.226 A 
ATOM      6  N   UNL     1      15.121 -28.321 -30.456  1.00  0.00    -0.217 NA
ATOM      7  C   UNL     1      15.725 -27.533 -31.396  1.00  0.00     0.152 A 
ATOM      8  C   UNL     1      15.027 -26.412 -31.836  1.00  0.00     0.127 A 
ATOM      9  N   UNL     1      15.361 -25.475 -32.732  1.00  0.00    -0.340 N 
ATOM     10  H   UNL     1      16.234 -25.394 -33.297  1.00  0.00     0.168 HD
ENDROOT
BRANCH   7  11
ATOM     11  N   UNL     1      17.021 -27.867 -31.895  1.00  0.00    -0.382 N 
ATOM     12  H   UNL     1      17.760 -27.132 -31.961  1.00  0.00     0.158 HD
ATOM     13  H   UNL     1      17.252 -28.837 -32.200  1.00  0.00     0.158 HD
ENDBRANCH   7  11
TORSDOF 1
ENDMDL
MODEL 7
REMARK VINA RESULT:    -4.332      1.440      2.789
REMARK INTER + INTRA:          -4.459
REMARK INTER:                  -4.459
REMARK INTRA:                   0.000
REMARK UNBOUND:                 0.000
REMARK SMILES Nc1ncnc2nc[nH]c12
REMARK SMILES IDX 8 1 7 2 6 3 5 4 4 5 3 6 2 7 10 8 9 9 1 11
REMARK H PARENT 9 10 1 12 1 13
REMARK Flexibility Score: inf
ROOT
ATOM      1  C   UNL     1      14.092 -28.075 -30.120  1.00  0.00     0.199 A 
ATOM      2  N   UNL     1      15.066 -27.790 -31.027  1.00  0.00    -0.217 NA
ATOM      3  C   UNL     1      14.669 -26.601 -31.508  1.00  0.00     0.182 A 
ATOM      4  N   UNL     1      15.297 -25.862 -32.455  1.00  0.00    -0.215 NA
ATOM      5  C   UNL     1      14.736 -24.669 -32.819  1.00  0.00     0.226 A 
ATOM      6  N   UNL     1      13.571 -24.240 -32.235  1.00  0.00    -0.217 NA
ATOM      7  C   UNL     1      12.937 -24.984 -31.280  1.00  0.00     0.152 A 
ATOM      8  C   UNL     1      13.519 -26.196 -30.922  1.00  0.00     0.127 A 
ATOM      9  N   UNL     1      13.132 -27.119 -30.032  1.00  0.00    -0.340 N 
ATOM     10  H   UNL     1      12.292 -27.117 -29.413  1.00  0.00     0.168 HD
ENDROOT
BRANCH   7  11
ATOM     11  N   UNL     1      11.724 -24.518 -30.687  1.00  0.00    -0.382 N 
ATOM     12  H   UNL     1      11.599 -24.560 -29.651  1.00  0.00     0.158 HD
ATOM     13  H   UNL     1      10.948 -24.132 -31.269  1.00  0.00     0.158 HD
ENDBRANCH   7  11
TORSDOF 1
ENDMDL
MODEL 8
REMARK VINA RESULT:    -4.281      1.143      2.660
REMARK INTER + INTRA:          -4.406
REMARK INTER:                  -4.406
REMARK INTRA:                   0.000
REMARK UNBOUND:                 0.000
REMARK SMILES Nc1ncnc2nc[nH]c12
REMARK SMILES IDX 8 1 7 2 6 3 5 4 4 5 3 6 2 7 10 8 9 9 1 11
REMARK H PARENT 9 10 1 12 1 13
REMARK Flexibility Score: inf
ROOT
ATOM      1  C   UNL     1      14.022 -29.042 -29.264  1.00  0.00     0.199 A 
ATOM      2  N   UNL     1      13.158 -28.022 -29.517  1.00  0.00    -0.217 NA
ATOM      3  C   UNL     1      13.824 -27.305 -30.437  1.00  0.00     0.182 A 
ATOM      4  N   UNL     1      13.402 -26.166 -31.036  1.00  0.00    -0.215 NA
ATOM      5  C   UNL     1      14.226 -25.575 -31.954  1.00  0.00     0.226 A 
ATOM      6  N   UNL     1      15.445 -26.130 -32.254  1.00  0.00    -0.217 NA
ATOM      7  C   UNL     1      15.872 -27.280 -31.651  1.00  0.00     0.152 A 
ATOM      8  C   UNL     1      15.023 -27.867 -30.718  1.00  0.00     0.127 A 
ATOM      9  N   UNL     1      15.171 -28.976 -29.983  1.00  0.00    -0.340 N 
ATOM     10  H   UNL     1      15.975 -29.641 -29.959  1.00  0.00     0.168 HD
ENDROOT
BRANCH   7  11
ATOM     11  N   UNL     1      17.145 -27.837 -31.978  1.00  0.00    -0.382 N 
ATOM     12  H   UNL     1      17.483 -28.694 -31.485  1.00  0.00     0.158 HD
ATOM     13  H   UNL     1      17.756 -27.407 -32.706  1.00  0.00     0.158 HD
ENDBRANCH   7  11
TORSDOF 1
ENDMDL
MODEL 9
REMARK VINA RESULT:    -4.194      1.489      4.047
REMARK INTER + INTRA:          -4.316
REMARK INTER:                  -4.316
REMARK INTRA:                   0.000
REMARK UNBOUND:                 0.000
REMARK SMILES Nc1ncnc2nc[nH]c12
REMARK SMILES IDX 8 1 7 2 6 3 5 4 4 5 3 6 2 7 10 8 9 9 1 11
REMARK H PARENT 9 10 1 12 1 13
REMARK Flexibility Score: inf
ROOT
ATOM      1  C   UNL     1      11.631 -25.187 -29.979  1.00  0.00     0.199 A 
ATOM      2  N   UNL     1      12.010 -24.255 -30.895  1.00  0.00    -0.217 NA
ATOM      3  C   UNL     1      13.117 -24.805 -31.420  1.00  0.00     0.182 A 
ATOM      4  N   UNL     1      13.899 -24.277 -32.392  1.00  0.00    -0.215 NA
ATOM      5  C   UNL     1      14.993 -24.990 -32.799  1.00  0.00     0.226 A 
ATOM      6  N   UNL     1      15.283 -26.206 -32.232  1.00  0.00    -0.217 NA
ATOM      7  C   UNL     1      14.495 -26.739 -31.250  1.00  0.00     0.152 A 
ATOM      8  C   UNL     1      13.386 -26.001 -30.847  1.00  0.00     0.127 A 
ATOM      9  N   UNL     1      12.452 -26.266 -29.925  1.00  0.00    -0.340 N 
ATOM     10  H   UNL     1      12.365 -27.102 -29.306  1.00  0.00     0.168 HD
ENDROOT
BRANCH   7  11
ATOM     11  N   UNL     1      14.817 -28.006 -30.674  1.00  0.00    -0.382 N 
ATOM     12  H   UNL     1      15.771 -28.411 -30.803  1.00  0.00     0.158 HD
ATOM     13  H   UNL     1      14.115 -28.544 -30.120  1.00  0.00     0.158 HD
ENDBRANCH   7  11
TORSDOF 1
ENDMDL
