MODEL 1
REMARK VINA RESULT:    -6.740      0.000      0.000
REMARK INTER + INTRA:          -6.740
REMARK INTER:                  -6.740
REMARK INTRA:                   0.000
REMARK UNBOUND:                 0.000
REMARK SMILES C[NH+]1CCN(C2=[NH+]c3ccccc3Oc3ccc(Cl)cc32)CC1
REMARK SMILES IDX 7 1 6 2 21 3 5 4 8 5 9 6 13 7 10 8 12 9 14 10 11 11 15 12
REMARK SMILES IDX 16 13 17 14 18 15 20 16 19 17 4 18 22 19 3 20 23 21 2 22
REMARK SMILES IDX 1 23
REMARK H PARENT 7 24 2 25
REMARK Flexibility Score: inf
ROOT
ATOM      1  N   UNL     1      62.378  38.929  46.619  1.00  0.00    -0.237 N 
ATOM      2  C   UNL     1      63.658  38.871  46.359  1.00  0.00     0.286 C 
ATOM      3  C   UNL     1      64.665  39.748  47.014  1.00  0.00     0.108 A 
ATOM      4  N   UNL     1      64.130  37.881  45.423  1.00  0.00    -0.250 N 
ATOM      5  C   UNL     1      61.705  39.830  47.515  1.00  0.00     0.168 A 
ATOM      6  C   UNL     1      60.542  39.377  48.165  1.00  0.00     0.056 A 
ATOM      7  C   UNL     1      62.049  41.194  47.608  1.00  0.00     0.173 A 
ATOM      8  C   UNL     1      59.745  40.256  48.899  1.00  0.00     0.005 A 
ATOM      9  C   UNL     1      61.223  42.076  48.319  1.00  0.00     0.052 A 
ATOM     10  O   UNL     1      63.200  41.712  47.023  1.00  0.00    -0.452 OA
ATOM     11  C   UNL     1      60.080  41.608  48.969  1.00  0.00     0.004 A 
ATOM     12  C   UNL     1      64.449  41.126  47.209  1.00  0.00     0.143 A 
ATOM     13  C   UNL     1      65.504  41.948  47.623  1.00  0.00     0.049 A 
ATOM     14  C   UNL     1      66.757  41.403  47.907  1.00  0.00     0.024 A 
ATOM     15  C   UNL     1      66.966  40.031  47.772  1.00  0.00     0.042 A 
ATOM     16  C   UNL     1      65.929  39.210  47.324  1.00  0.00     0.041 A 
ATOM     17  Cl  UNL     1      68.537  39.342  48.139  1.00  0.00    -0.084 Cl
ATOM     18  C   UNL     1      63.747  36.473  45.575  1.00  0.00     0.298 C 
ATOM     19  C   UNL     1      65.029  38.268  44.330  1.00  0.00     0.298 C 
ATOM     20  C   UNL     1      64.788  35.575  44.898  1.00  0.00     0.308 C 
ATOM     21  C   UNL     1      64.804  37.345  43.125  1.00  0.00     0.308 C 
ATOM     22  N   UNL     1      64.955  35.897  43.457  1.00  0.00    -0.331 N 
ATOM     23  C   UNL     1      66.249  35.382  42.976  1.00  0.00     0.332 C 
ATOM     24  H   UNL     1      61.760  38.230  46.146  1.00  0.00     0.312 HD
ATOM     25  H   UNL     1      64.211  35.376  42.933  1.00  0.00     0.348 HD
ENDROOT
TORSDOF 0
ENDMDL
MODEL 2
REMARK VINA RESULT:    -6.263     12.628     14.896
REMARK INTER + INTRA:          -6.263
REMARK INTER:                  -6.263
REMARK INTRA:                   0.000
REMARK UNBOUND:                 0.000
REMARK SMILES C[NH+]1CCN(C2=[NH+]c3ccccc3Oc3ccc(Cl)cc32)CC1
REMARK SMILES IDX 7 1 6 2 21 3 5 4 8 5 9 6 13 7 10 8 12 9 14 10 11 11 15 12
REMARK SMILES IDX 16 13 17 14 18 15 20 16 19 17 4 18 22 19 3 20 23 21 2 22
REMARK SMILES IDX 1 23
REMARK H PARENT 7 24 2 25
REMARK Flexibility Score: inf
ROOT
ATOM      1  N   UNL     1      66.796  51.585  49.203  1.00  0.00    -0.237 N 
ATOM      2  C   UNL     1      65.672  52.247  49.108  1.00  0.00     0.286 C 
ATOM      3  C   UNL     1      65.105  52.712  47.815  1.00  0.00     0.108 A 
ATOM      4  N   UNL     1      64.919  52.507  50.310  1.00  0.00    -0.250 N 
ATOM      5  C   UNL     1      67.692  51.221  48.139  1.00  0.00     0.168 A 
ATOM      6  C   UNL     1      68.431  50.032  48.270  1.00  0.00     0.056 A 
ATOM      7  C   UNL     1      67.999  52.100  47.080  1.00  0.00     0.173 A 
ATOM      8  C   UNL     1      69.446  49.717  47.365  1.00  0.00     0.005 A 
ATOM      9  C   UNL     1      69.043  51.792  46.197  1.00  0.00     0.052 A 
ATOM     10  O   UNL     1      67.291  53.278  46.863  1.00  0.00    -0.452 OA
ATOM     11  C   UNL     1      69.758  50.601  46.333  1.00  0.00     0.004 A 
ATOM     12  C   UNL     1      65.900  53.304  46.814  1.00  0.00     0.143 A 
ATOM     13  C   UNL     1      65.295  53.924  45.714  1.00  0.00     0.049 A 
ATOM     14  C   UNL     1      63.907  53.907  45.567  1.00  0.00     0.024 A 
ATOM     15  C   UNL     1      63.113  53.275  46.523  1.00  0.00     0.042 A 
ATOM     16  C   UNL     1      63.708  52.685  47.642  1.00  0.00     0.041 A 
ATOM     17  Cl  UNL     1      61.369  53.242  46.336  1.00  0.00    -0.084 Cl
ATOM     18  C   UNL     1      64.596  51.415  51.235  1.00  0.00     0.298 C 
ATOM     19  C   UNL     1      64.435  53.861  50.600  1.00  0.00     0.298 C 
ATOM     20  C   UNL     1      63.351  51.776  52.052  1.00  0.00     0.308 C 
ATOM     21  C   UNL     1      64.360  54.068  52.119  1.00  0.00     0.308 C 
ATOM     22  N   UNL     1      63.526  53.041  52.811  1.00  0.00    -0.331 N 
ATOM     23  C   UNL     1      62.209  53.594  53.173  1.00  0.00     0.332 C 
ATOM     24  H   UNL     1      67.080  51.255  50.154  1.00  0.00     0.312 HD
ATOM     25  H   UNL     1      64.009  52.801  53.711  1.00  0.00     0.348 HD
ENDROOT
TORSDOF 0
ENDMDL
MODEL 3
REMARK VINA RESULT:    -5.428      2.829      5.625
REMARK INTER + INTRA:          -5.428
REMARK INTER:                  -5.428
REMARK INTRA:                   0.000
REMARK UNBOUND:                 0.000
REMARK SMILES C[NH+]1CCN(C2=[NH+]c3ccccc3Oc3ccc(Cl)cc32)CC1
REMARK SMILES IDX 7 1 6 2 21 3 5 4 8 5 9 6 13 7 10 8 12 9 14 10 11 11 15 12
REMARK SMILES IDX 16 13 17 14 18 15 20 16 19 17 4 18 22 19 3 20 23 21 2 22
REMARK SMILES IDX 1 23
REMARK H PARENT 7 24 2 25
REMARK Flexibility Score: inf
ROOT
ATOM      1  N   UNL     1      64.893  36.892  44.058  1.00  0.00    -0.237 N 
ATOM      2  C   UNL     1      64.390  37.215  45.221  1.00  0.00     0.286 C 
ATOM      3  C   UNL     1      64.326  38.614  45.723  1.00  0.00     0.108 A 
ATOM      4  N   UNL     1      63.832  36.174  46.046  1.00  0.00    -0.250 N 
ATOM      5  C   UNL     1      65.492  37.768  43.088  1.00  0.00     0.168 A 
ATOM      6  C   UNL     1      65.372  37.434  41.727  1.00  0.00     0.056 A 
ATOM      7  C   UNL     1      66.352  38.823  43.456  1.00  0.00     0.173 A 
ATOM      8  C   UNL     1      66.081  38.137  40.752  1.00  0.00     0.005 A 
ATOM      9  C   UNL     1      67.087  39.500  42.473  1.00  0.00     0.052 A 
ATOM     10  O   UNL     1      66.499  39.235  44.777  1.00  0.00    -0.452 OA
ATOM     11  C   UNL     1      66.946  39.165  41.126  1.00  0.00     0.004 A 
ATOM     12  C   UNL     1      65.403  39.512  45.588  1.00  0.00     0.143 A 
ATOM     13  C   UNL     1      65.382  40.737  46.267  1.00  0.00     0.049 A 
ATOM     14  C   UNL     1      64.271  41.106  47.027  1.00  0.00     0.024 A 
ATOM     15  C   UNL     1      63.175  40.249  47.121  1.00  0.00     0.042 A 
ATOM     16  C   UNL     1      63.204  39.009  46.477  1.00  0.00     0.041 A 
ATOM     17  Cl  UNL     1      61.774  40.715  48.068  1.00  0.00    -0.084 Cl
ATOM     18  C   UNL     1      62.845  35.238  45.495  1.00  0.00     0.298 C 
ATOM     19  C   UNL     1      64.216  36.064  47.458  1.00  0.00     0.298 C 
ATOM     20  C   UNL     1      61.985  34.663  46.626  1.00  0.00     0.308 C 
ATOM     21  C   UNL     1      64.141  34.596  47.900  1.00  0.00     0.308 C 
ATOM     22  N   UNL     1      62.804  33.978  47.659  1.00  0.00    -0.331 N 
ATOM     23  C   UNL     1      62.041  33.875  48.915  1.00  0.00     0.332 C 
ATOM     24  H   UNL     1      64.840  35.887  43.775  1.00  0.00     0.312 HD
ATOM     25  H   UNL     1      62.968  32.996  47.327  1.00  0.00     0.348 HD
ENDROOT
TORSDOF 0
ENDMDL
MODEL 4
REMARK VINA RESULT:    -5.394      4.903      6.065
REMARK INTER + INTRA:          -5.394
REMARK INTER:                  -5.394
REMARK INTRA:                   0.000
REMARK UNBOUND:                 0.000
REMARK SMILES C[NH+]1CCN(C2=[NH+]c3ccccc3Oc3ccc(Cl)cc32)CC1
REMARK SMILES IDX 7 1 6 2 21 3 5 4 8 5 9 6 13 7 10 8 12 9 14 10 11 11 15 12
REMARK SMILES IDX 16 13 17 14 18 15 20 16 19 17 4 18 22 19 3 20 23 21 2 22
REMARK SMILES IDX 1 23
REMARK H PARENT 7 24 2 25
REMARK Flexibility Score: inf
ROOT
ATOM      1  N   UNL     1      67.140  37.937  51.267  1.00  0.00    -0.237 N 
ATOM      2  C   UNL     1      66.768  37.705  50.035  1.00  0.00     0.286 C 
ATOM      3  C   UNL     1      65.362  37.832  49.568  1.00  0.00     0.108 A 
ATOM      4  N   UNL     1      67.774  37.348  49.065  1.00  0.00    -0.250 N 
ATOM      5  C   UNL     1      66.306  38.305  52.380  1.00  0.00     0.168 A 
ATOM      6  C   UNL     1      66.859  39.122  53.383  1.00  0.00     0.056 A 
ATOM      7  C   UNL     1      65.041  37.723  52.597  1.00  0.00     0.173 A 
ATOM      8  C   UNL     1      66.168  39.363  54.571  1.00  0.00     0.005 A 
ATOM      9  C   UNL     1      64.369  37.943  53.808  1.00  0.00     0.052 A 
ATOM     10  O   UNL     1      64.413  36.932  51.640  1.00  0.00    -0.452 OA
ATOM     11  C   UNL     1      64.926  38.767  54.787  1.00  0.00     0.004 A 
ATOM     12  C   UNL     1      64.273  37.345  50.318  1.00  0.00     0.143 A 
ATOM     13  C   UNL     1      62.998  37.287  49.744  1.00  0.00     0.049 A 
ATOM     14  C   UNL     1      62.781  37.766  48.451  1.00  0.00     0.024 A 
ATOM     15  C   UNL     1      63.841  38.302  47.720  1.00  0.00     0.042 A 
ATOM     16  C   UNL     1      65.124  38.330  48.273  1.00  0.00     0.041 A 
ATOM     17  Cl  UNL     1      63.569  38.915  46.099  1.00  0.00    -0.084 Cl
ATOM     18  C   UNL     1      68.981  38.167  48.911  1.00  0.00     0.298 C 
ATOM     19  C   UNL     1      67.580  36.181  48.196  1.00  0.00     0.298 C 
ATOM     20  C   UNL     1      69.560  37.979  47.505  1.00  0.00     0.308 C 
ATOM     21  C   UNL     1      68.943  35.574  47.837  1.00  0.00     0.308 C 
ATOM     22  N   UNL     1      69.878  36.557  47.214  1.00  0.00    -0.331 N 
ATOM     23  C   UNL     1      69.962  36.351  45.758  1.00  0.00     0.332 C 
ATOM     24  H   UNL     1      68.162  37.873  51.481  1.00  0.00     0.312 HD
ATOM     25  H   UNL     1      70.835  36.367  47.600  1.00  0.00     0.348 HD
ENDROOT
TORSDOF 0
ENDMDL
MODEL 5
REMARK VINA RESULT:    -5.343     10.548     12.589
REMARK INTER + INTRA:          -5.343
REMARK INTER:                  -5.343
REMARK INTRA:                   0.000
REMARK UNBOUND:                 0.000
REMARK SMILES C[NH+]1CCN(C2=[NH+]c3ccccc3Oc3ccc(Cl)cc32)CC1
REMARK SMILES IDX 7 1 6 2 21 3 5 4 8 5 9 6 13 7 10 8 12 9 14 10 11 11 15 12
REMARK SMILES IDX 16 13 17 14 18 15 20 16 19 17 4 18 22 19 3 20 23 21 2 22
REMARK SMILES IDX 1 23
REMARK H PARENT 7 24 2 25
REMARK Flexibility Score: inf
ROOT
ATOM      1  N   UNL     1      71.619  41.740  39.557  1.00  0.00    -0.237 N 
ATOM      2  C   UNL     1      72.278  42.869  39.546  1.00  0.00     0.286 C 
ATOM      3  C   UNL     1      71.789  44.093  38.857  1.00  0.00     0.108 A 
ATOM      4  N   UNL     1      73.522  42.951  40.270  1.00  0.00    -0.250 N 
ATOM      5  C   UNL     1      70.369  41.447  38.908  1.00  0.00     0.168 A 
ATOM      6  C   UNL     1      69.511  40.510  39.511  1.00  0.00     0.056 A 
ATOM      7  C   UNL     1      70.070  41.907  37.610  1.00  0.00     0.173 A 
ATOM      8  C   UNL     1      68.375  40.048  38.845  1.00  0.00     0.005 A 
ATOM      9  C   UNL     1      68.946  41.411  36.934  1.00  0.00     0.052 A 
ATOM     10  O   UNL     1      70.851  42.858  36.960  1.00  0.00    -0.452 OA
ATOM     11  C   UNL     1      68.097  40.492  37.552  1.00  0.00     0.004 A 
ATOM     12  C   UNL     1      71.216  44.054  37.571  1.00  0.00     0.143 A 
ATOM     13  C   UNL     1      70.976  45.246  36.875  1.00  0.00     0.049 A 
ATOM     14  C   UNL     1      71.242  46.480  37.471  1.00  0.00     0.024 A 
ATOM     15  C   UNL     1      71.757  46.531  38.766  1.00  0.00     0.042 A 
ATOM     16  C   UNL     1      72.033  45.346  39.452  1.00  0.00     0.041 A 
ATOM     17  Cl  UNL     1      72.083  48.080  39.521  1.00  0.00    -0.084 Cl
ATOM     18  C   UNL     1      73.594  42.527  41.673  1.00  0.00     0.298 C 
ATOM     19  C   UNL     1      74.719  43.497  39.622  1.00  0.00     0.298 C 
ATOM     20  C   UNL     1      74.758  43.237  42.372  1.00  0.00     0.308 C 
ATOM     21  C   UNL     1      75.973  42.841  40.217  1.00  0.00     0.308 C 
ATOM     22  N   UNL     1      76.058  42.975  41.701  1.00  0.00    -0.331 N 
ATOM     23  C   UNL     1      77.033  44.014  42.077  1.00  0.00     0.332 C 
ATOM     24  H   UNL     1      72.022  40.954  40.118  1.00  0.00     0.312 HD
ATOM     25  H   UNL     1      76.426  42.068  42.077  1.00  0.00     0.348 HD
ENDROOT
TORSDOF 0
ENDMDL
MODEL 6
REMARK VINA RESULT:    -5.270      5.342      9.033
REMARK INTER + INTRA:          -5.270
REMARK INTER:                  -5.270
REMARK INTRA:                   0.000
REMARK UNBOUND:                 0.000
REMARK SMILES C[NH+]1CCN(C2=[NH+]c3ccccc3Oc3ccc(Cl)cc32)CC1
REMARK SMILES IDX 7 1 6 2 21 3 5 4 8 5 9 6 13 7 10 8 12 9 14 10 11 11 15 12
REMARK SMILES IDX 16 13 17 14 18 15 20 16 19 17 4 18 22 19 3 20 23 21 2 22
REMARK SMILES IDX 1 23
REMARK H PARENT 7 24 2 25
REMARK Flexibility Score: inf
ROOT
ATOM      1  N   UNL     1      66.778  39.236  40.222  1.00  0.00    -0.237 N 
ATOM      2  C   UNL     1      66.813  38.004  40.658  1.00  0.00     0.286 C 
ATOM      3  C   UNL     1      67.832  37.012  40.221  1.00  0.00     0.108 A 
ATOM      4  N   UNL     1      65.845  37.591  41.642  1.00  0.00    -0.250 N 
ATOM      5  C   UNL     1      67.645  39.848  39.251  1.00  0.00     0.168 A 
ATOM      6  C   UNL     1      67.916  41.223  39.375  1.00  0.00     0.056 A 
ATOM      7  C   UNL     1      68.065  39.175  38.086  1.00  0.00     0.173 A 
ATOM      8  C   UNL     1      68.596  41.912  38.370  1.00  0.00     0.005 A 
ATOM      9  C   UNL     1      68.716  39.882  37.066  1.00  0.00     0.052 A 
ATOM     10  O   UNL     1      67.865  37.810  37.905  1.00  0.00    -0.452 OA
ATOM     11  C   UNL     1      68.989  41.244  37.211  1.00  0.00     0.004 A 
ATOM     12  C   UNL     1      68.222  36.877  38.874  1.00  0.00     0.143 A 
ATOM     13  C   UNL     1      69.011  35.790  38.480  1.00  0.00     0.049 A 
ATOM     14  C   UNL     1      69.471  34.869  39.422  1.00  0.00     0.024 A 
ATOM     15  C   UNL     1      69.137  35.025  40.767  1.00  0.00     0.042 A 
ATOM     16  C   UNL     1      68.320  36.086  41.163  1.00  0.00     0.041 A 
ATOM     17  Cl  UNL     1      69.722  33.875  41.956  1.00  0.00    -0.084 Cl
ATOM     18  C   UNL     1      65.643  38.380  42.862  1.00  0.00     0.298 C 
ATOM     19  C   UNL     1      65.078  36.354  41.451  1.00  0.00     0.298 C 
ATOM     20  C   UNL     1      65.070  37.488  43.969  1.00  0.00     0.308 C 
ATOM     21  C   UNL     1      63.705  36.489  42.122  1.00  0.00     0.308 C 
ATOM     22  N   UNL     1      63.791  36.848  43.568  1.00  0.00    -0.331 N 
ATOM     23  C   UNL     1      63.534  35.671  44.416  1.00  0.00     0.332 C 
ATOM     24  H   UNL     1      66.055  39.871  40.633  1.00  0.00     0.312 HD
ATOM     25  H   UNL     1      63.023  37.535  43.767  1.00  0.00     0.348 HD
ENDROOT
TORSDOF 0
ENDMDL
MODEL 7
REMARK VINA RESULT:    -5.199     12.795     15.170
REMARK INTER + INTRA:          -5.199
REMARK INTER:                  -5.199
REMARK INTRA:                   0.000
REMARK UNBOUND:                 0.000
REMARK SMILES C[NH+]1CCN(C2=[NH+]c3ccccc3Oc3ccc(Cl)cc32)CC1
REMARK SMILES IDX 7 1 6 2 21 3 5 4 8 5 9 6 13 7 10 8 12 9 14 10 11 11 15 12
REMARK SMILES IDX 16 13 17 14 18 15 20 16 19 17 4 18 22 19 3 20 23 21 2 22
REMARK SMILES IDX 1 23
REMARK H PARENT 7 24 2 25
REMARK Flexibility Score: inf
ROOT
ATOM      1  N   UNL     1      64.236  52.020  50.118  1.00  0.00    -0.237 N 
ATOM      2  C   UNL     1      62.998  52.429  50.217  1.00  0.00     0.286 C 
ATOM      3  C   UNL     1      62.126  52.686  49.040  1.00  0.00     0.108 A 
ATOM      4  N   UNL     1      62.430  52.602  51.531  1.00  0.00    -0.250 N 
ATOM      5  C   UNL     1      64.987  51.782  48.915  1.00  0.00     0.168 A 
ATOM      6  C   UNL     1      65.975  50.781  48.935  1.00  0.00     0.056 A 
ATOM      7  C   UNL     1      64.908  52.637  47.797  1.00  0.00     0.173 A 
ATOM      8  C   UNL     1      66.858  50.626  47.866  1.00  0.00     0.005 A 
ATOM      9  C   UNL     1      65.822  52.496  46.744  1.00  0.00     0.052 A 
ATOM     10  O   UNL     1      63.937  53.629  47.688  1.00  0.00    -0.452 OA
ATOM     11  C   UNL     1      66.787  51.489  46.773  1.00  0.00     0.004 A 
ATOM     12  C   UNL     1      62.587  53.364  47.896  1.00  0.00     0.143 A 
ATOM     13  C   UNL     1      61.679  53.777  46.913  1.00  0.00     0.049 A 
ATOM     14  C   UNL     1      60.323  53.465  47.026  1.00  0.00     0.024 A 
ATOM     15  C   UNL     1      59.864  52.744  48.127  1.00  0.00     0.042 A 
ATOM     16  C   UNL     1      60.758  52.361  49.130  1.00  0.00     0.041 A 
ATOM     17  Cl  UNL     1      58.162  52.342  48.267  1.00  0.00    -0.084 Cl
ATOM     18  C   UNL     1      62.516  51.527  52.526  1.00  0.00     0.298 C 
ATOM     19  C   UNL     1      61.726  53.844  51.873  1.00  0.00     0.298 C 
ATOM     20  C   UNL     1      61.385  51.675  53.550  1.00  0.00     0.308 C 
ATOM     21  C   UNL     1      61.876  54.125  53.375  1.00  0.00     0.308 C 
ATOM     22  N   UNL     1      61.416  52.994  54.233  1.00  0.00    -0.331 N 
ATOM     23  C   UNL     1      60.096  53.284  54.820  1.00  0.00     0.332 C 
ATOM     24  H   UNL     1      64.746  51.815  51.008  1.00  0.00     0.312 HD
ATOM     25  H   UNL     1      62.090  52.914  55.034  1.00  0.00     0.348 HD
ENDROOT
TORSDOF 0
ENDMDL
MODEL 8
REMARK VINA RESULT:    -5.142      3.953      7.872
REMARK INTER + INTRA:          -5.142
REMARK INTER:                  -5.142
REMARK INTRA:                   0.000
REMARK UNBOUND:                 0.000
REMARK SMILES C[NH+]1CCN(C2=[NH+]c3ccccc3Oc3ccc(Cl)cc32)CC1
REMARK SMILES IDX 7 1 6 2 21 3 5 4 8 5 9 6 13 7 10 8 12 9 14 10 11 11 15 12
REMARK SMILES IDX 16 13 17 14 18 15 20 16 19 17 4 18 22 19 3 20 23 21 2 22
REMARK SMILES IDX 1 23
REMARK H PARENT 7 24 2 25
REMARK Flexibility Score: inf
ROOT
ATOM      1  N   UNL     1      66.619  39.668  41.872  1.00  0.00    -0.237 N 
ATOM      2  C   UNL     1      66.541  38.728  42.778  1.00  0.00     0.286 C 
ATOM      3  C   UNL     1      67.067  37.352  42.575  1.00  0.00     0.108 A 
ATOM      4  N   UNL     1      65.952  39.046  44.055  1.00  0.00    -0.250 N 
ATOM      5  C   UNL     1      67.167  39.564  40.546  1.00  0.00     0.168 A 
ATOM      6  C   UNL     1      67.764  40.706  39.982  1.00  0.00     0.056 A 
ATOM      7  C   UNL     1      66.951  38.436  39.729  1.00  0.00     0.173 A 
ATOM      8  C   UNL     1      68.147  40.725  38.641  1.00  0.00     0.005 A 
ATOM      9  C   UNL     1      67.307  38.476  38.374  1.00  0.00     0.052 A 
ATOM     10  O   UNL     1      66.397  37.258  40.221  1.00  0.00    -0.452 OA
ATOM     11  C   UNL     1      67.911  39.612  37.833  1.00  0.00     0.004 A 
ATOM     12  C   UNL     1      66.876  36.643  41.373  1.00  0.00     0.143 A 
ATOM     13  C   UNL     1      67.193  35.281  41.307  1.00  0.00     0.049 A 
ATOM     14  C   UNL     1      67.757  34.630  42.406  1.00  0.00     0.024 A 
ATOM     15  C   UNL     1      68.002  35.336  43.582  1.00  0.00     0.042 A 
ATOM     16  C   UNL     1      67.656  36.687  43.668  1.00  0.00     0.041 A 
ATOM     17  Cl  UNL     1      68.721  34.524  44.961  1.00  0.00    -0.084 Cl
ATOM     18  C   UNL     1      66.410  40.215  44.813  1.00  0.00     0.298 C 
ATOM     19  C   UNL     1      64.914  38.180  44.626  1.00  0.00     0.298 C 
ATOM     20  C   UNL     1      66.116  40.016  46.304  1.00  0.00     0.308 C 
ATOM     21  C   UNL     1      63.966  39.016  45.497  1.00  0.00     0.308 C 
ATOM     22  N   UNL     1      64.672  39.783  46.565  1.00  0.00    -0.331 N 
ATOM     23  C   UNL     1      64.500  39.134  47.877  1.00  0.00     0.332 C 
ATOM     24  H   UNL     1      66.268  40.618  42.134  1.00  0.00     0.312 HD
ATOM     25  H   UNL     1      64.212  40.723  46.632  1.00  0.00     0.348 HD
ENDROOT
TORSDOF 0
ENDMDL
MODEL 9
REMARK VINA RESULT:    -5.088      3.727      5.572
REMARK INTER + INTRA:          -5.088
REMARK INTER:                  -5.088
REMARK INTRA:                   0.000
REMARK UNBOUND:                 0.000
REMARK SMILES C[NH+]1CCN(C2=[NH+]c3ccccc3Oc3ccc(Cl)cc32)CC1
REMARK SMILES IDX 7 1 6 2 21 3 5 4 8 5 9 6 13 7 10 8 12 9 14 10 11 11 15 12
REMARK SMILES IDX 16 13 17 14 18 15 20 16 19 17 4 18 22 19 3 20 23 21 2 22
REMARK SMILES IDX 1 23
REMARK H PARENT 7 24 2 25
REMARK Flexibility Score: inf
ROOT
ATOM      1  N   UNL     1      64.257  39.152  48.070  1.00  0.00    -0.237 N 
ATOM      2  C   UNL     1      64.203  38.217  48.983  1.00  0.00     0.286 C 
ATOM      3  C   UNL     1      65.236  38.048  50.039  1.00  0.00     0.108 A 
ATOM      4  N   UNL     1      63.068  37.328  48.996  1.00  0.00    -0.250 N 
ATOM      5  C   UNL     1      65.288  40.136  47.882  1.00  0.00     0.168 A 
ATOM      6  C   UNL     1      64.924  41.389  47.357  1.00  0.00     0.056 A 
ATOM      7  C   UNL     1      66.657  39.825  48.013  1.00  0.00     0.173 A 
ATOM      8  C   UNL     1      65.896  42.317  46.981  1.00  0.00     0.005 A 
ATOM      9  C   UNL     1      67.626  40.750  47.599  1.00  0.00     0.052 A 
ATOM     10  O   UNL     1      67.097  38.621  48.553  1.00  0.00    -0.452 OA
ATOM     11  C   UNL     1      67.248  41.995  47.094  1.00  0.00     0.004 A 
ATOM     12  C   UNL     1      66.615  38.138  49.766  1.00  0.00     0.143 A 
ATOM     13  C   UNL     1      67.547  37.754  50.737  1.00  0.00     0.049 A 
ATOM     14  C   UNL     1      67.124  37.342  52.002  1.00  0.00     0.024 A 
ATOM     15  C   UNL     1      65.763  37.304  52.302  1.00  0.00     0.042 A 
ATOM     16  C   UNL     1      64.825  37.650  51.326  1.00  0.00     0.041 A 
ATOM     17  Cl  UNL     1      65.229  36.796  53.894  1.00  0.00    -0.084 Cl
ATOM     18  C   UNL     1      61.703  37.866  48.977  1.00  0.00     0.298 C 
ATOM     19  C   UNL     1      63.269  35.876  49.070  1.00  0.00     0.298 C 
ATOM     20  C   UNL     1      60.735  36.847  49.588  1.00  0.00     0.308 C 
ATOM     21  C   UNL     1      62.115  35.160  48.354  1.00  0.00     0.308 C 
ATOM     22  N   UNL     1      60.771  35.543  48.877  1.00  0.00    -0.331 N 
ATOM     23  C   UNL     1      60.227  34.485  49.746  1.00  0.00     0.332 C 
ATOM     24  H   UNL     1      63.452  39.221  47.405  1.00  0.00     0.312 HD
ATOM     25  H   UNL     1      60.124  35.618  48.054  1.00  0.00     0.348 HD
ENDROOT
TORSDOF 0
ENDMDL
