MODEL 1
REMARK VINA RESULT:    -3.755      0.000      0.000
REMARK INTER + INTRA:          -4.449
REMARK INTER:                  -4.413
REMARK INTRA:                  -0.035
REMARK UNBOUND:                -0.035
REMARK SMILES O=C([O-])CCC(=O)[O-]
REMARK SMILES IDX 4 1 2 2 1 3 3 4 5 5 6 6 7 7 8 8
REMARK H PARENT
REMARK Flexibility Score: inf
ROOT
ATOM      1  C   UNL     1     121.544 152.613 160.706  1.00  0.00     0.059 C 
ENDROOT
BRANCH   1   2
ATOM      2  C   UNL     1     121.646 153.974 161.318  1.00  0.00     0.042 C 
ATOM      3  O   UNL     1     121.271 154.165 162.505  1.00  0.00    -0.550 OA
ATOM      4  O   UNL     1     122.108 155.044 160.562  1.00  0.00    -0.550 OA
ENDBRANCH   1   2
BRANCH   1   5
ATOM      5  C   UNL     1     120.103 152.104 160.769  1.00  0.00     0.059 C 
BRANCH   5   6
ATOM      6  C   UNL     1     119.854 151.102 159.687  1.00  0.00     0.042 C 
ATOM      7  O   UNL     1     118.717 150.572 159.563  1.00  0.00    -0.550 OA
ATOM      8  O   UNL     1     120.861 150.788 158.783  1.00  0.00    -0.550 OA
ENDBRANCH   5   6
ENDBRANCH   1   5
TORSDOF 3
ENDMDL
MODEL 2
REMARK VINA RESULT:    -3.677      0.511      4.138
REMARK INTER + INTRA:          -4.357
REMARK INTER:                  -4.320
REMARK INTRA:                  -0.037
REMARK UNBOUND:                -0.035
REMARK SMILES O=C([O-])CCC(=O)[O-]
REMARK SMILES IDX 4 1 2 2 1 3 3 4 5 5 6 6 7 7 8 8
REMARK H PARENT
REMARK Flexibility Score: inf
ROOT
ATOM      1  C   UNL     1     120.277 152.020 160.629  1.00  0.00     0.059 C 
ENDROOT
BRANCH   1   2
ATOM      2  C   UNL     1     119.899 150.991 159.612  1.00  0.00     0.042 C 
ATOM      3  O   UNL     1     118.722 150.545 159.567  1.00  0.00    -0.550 OA
ATOM      4  O   UNL     1     120.859 150.486 158.743  1.00  0.00    -0.550 OA
ENDBRANCH   1   2
BRANCH   1   5
ATOM      5  C   UNL     1     120.877 153.251 159.949  1.00  0.00     0.059 C 
BRANCH   5   6
ATOM      6  C   UNL     1     121.562 154.123 160.952  1.00  0.00     0.042 C 
ATOM      7  O   UNL     1     121.503 153.844 162.180  1.00  0.00    -0.550 OA
ATOM      8  O   UNL     1     122.308 155.216 160.531  1.00  0.00    -0.550 OA
ENDBRANCH   5   6
ENDBRANCH   1   5
TORSDOF 3
ENDMDL
MODEL 3
REMARK VINA RESULT:    -3.618      2.263      3.500
REMARK INTER + INTRA:          -4.288
REMARK INTER:                  -4.249
REMARK INTRA:                  -0.039
REMARK UNBOUND:                -0.035
REMARK SMILES O=C([O-])CCC(=O)[O-]
REMARK SMILES IDX 4 1 2 2 1 3 3 4 5 5 6 6 7 7 8 8
REMARK H PARENT
REMARK Flexibility Score: inf
ROOT
ATOM      1  C   UNL     1     120.906 153.983 159.387  1.00  0.00     0.059 C 
ENDROOT
BRANCH   1   2
ATOM      2  C   UNL     1     121.049 155.220 158.558  1.00  0.00     0.042 C 
ATOM      3  O   UNL     1     120.229 155.462 157.632  1.00  0.00    -0.550 OA
ATOM      4  O   UNL     1     122.117 156.082 158.774  1.00  0.00    -0.550 OA
ENDBRANCH   1   2
BRANCH   1   5
ATOM      5  C   UNL     1     121.586 154.165 160.744  1.00  0.00     0.059 C 
BRANCH   5   6
ATOM      6  C   UNL     1     120.981 153.250 161.760  1.00  0.00     0.042 C 
ATOM      7  O   UNL     1     121.524 153.109 162.889  1.00  0.00    -0.550 OA
ATOM      8  O   UNL     1     119.791 152.591 161.483  1.00  0.00    -0.550 OA
ENDBRANCH   5   6
ENDBRANCH   1   5
TORSDOF 3
ENDMDL
MODEL 4
REMARK VINA RESULT:    -3.616      4.518      5.411
REMARK INTER + INTRA:          -4.285
REMARK INTER:                  -4.163
REMARK INTRA:                  -0.122
REMARK UNBOUND:                -0.035
REMARK SMILES O=C([O-])CCC(=O)[O-]
REMARK SMILES IDX 4 1 2 2 1 3 3 4 5 5 6 6 7 7 8 8
REMARK H PARENT
REMARK Flexibility Score: inf
ROOT
ATOM      1  C   UNL     1     121.942 157.003 158.010  1.00  0.00     0.059 C 
ENDROOT
BRANCH   1   2
ATOM      2  C   UNL     1     121.977 155.980 159.100  1.00  0.00     0.042 C 
ATOM      3  O   UNL     1     122.807 156.087 160.043  1.00  0.00    -0.550 OA
ATOM      4  O   UNL     1     121.129 154.881 159.052  1.00  0.00    -0.550 OA
ENDBRANCH   1   2
BRANCH   1   5
ATOM      5  C   UNL     1     120.543 157.085 157.397  1.00  0.00     0.059 C 
BRANCH   5   6
ATOM      6  C   UNL     1     120.562 156.605 155.981  1.00  0.00     0.042 C 
ATOM      7  O   UNL     1     120.804 155.395 155.725  1.00  0.00    -0.550 OA
ATOM      8  O   UNL     1     120.262 157.480 154.945  1.00  0.00    -0.550 OA
ENDBRANCH   5   6
ENDBRANCH   1   5
TORSDOF 3
ENDMDL
MODEL 5
REMARK VINA RESULT:    -3.590      0.897      1.498
REMARK INTER + INTRA:          -4.255
REMARK INTER:                  -4.225
REMARK INTRA:                  -0.030
REMARK UNBOUND:                -0.035
REMARK SMILES O=C([O-])CCC(=O)[O-]
REMARK SMILES IDX 4 1 2 2 1 3 3 4 5 5 6 6 7 7 8 8
REMARK H PARENT
REMARK Flexibility Score: inf
ROOT
ATOM      1  C   UNL     1     120.324 152.351 161.006  1.00  0.00     0.059 C 
ENDROOT
BRANCH   1   2
ATOM      2  C   UNL     1     121.246 153.296 161.706  1.00  0.00     0.042 C 
ATOM      3  O   UNL     1     121.524 153.126 162.924  1.00  0.00    -0.550 OA
ATOM      4  O   UNL     1     121.762 154.395 161.031  1.00  0.00    -0.550 OA
ENDBRANCH   1   2
BRANCH   1   5
ATOM      5  C   UNL     1     120.843 152.037 159.602  1.00  0.00     0.059 C 
BRANCH   5   6
ATOM      6  C   UNL     1     120.260 150.754 159.102  1.00  0.00     0.042 C 
ATOM      7  O   UNL     1     120.961 149.963 158.415  1.00  0.00    -0.550 OA
ATOM      8  O   UNL     1     118.958 150.404 159.435  1.00  0.00    -0.550 OA
ENDBRANCH   5   6
ENDBRANCH   1   5
TORSDOF 3
ENDMDL
MODEL 6
REMARK VINA RESULT:    -3.538      2.107      4.294
REMARK INTER + INTRA:          -4.194
REMARK INTER:                  -4.157
REMARK INTRA:                  -0.037
REMARK UNBOUND:                -0.035
REMARK SMILES O=C([O-])CCC(=O)[O-]
REMARK SMILES IDX 4 1 2 2 1 3 3 4 5 5 6 6 7 7 8 8
REMARK H PARENT
REMARK Flexibility Score: inf
ROOT
ATOM      1  C   UNL     1     121.301 154.018 160.521  1.00  0.00     0.059 C 
ENDROOT
BRANCH   1   2
ATOM      2  C   UNL     1     120.569 152.714 160.550  1.00  0.00     0.042 C 
ATOM      3  O   UNL     1     119.755 152.464 161.479  1.00  0.00    -0.550 OA
ATOM      4  O   UNL     1     120.822 151.752 159.580  1.00  0.00    -0.550 OA
ENDBRANCH   1   2
BRANCH   1   5
ATOM      5  C   UNL     1     121.075 154.730 159.187  1.00  0.00     0.059 C 
BRANCH   5   6
ATOM      6  C   UNL     1     122.035 155.865 159.030  1.00  0.00     0.042 C 
ATOM      7  O   UNL     1     122.844 156.146 159.955  1.00  0.00    -0.550 OA
ATOM      8  O   UNL     1     122.074 156.585 157.842  1.00  0.00    -0.550 OA
ENDBRANCH   5   6
ENDBRANCH   1   5
TORSDOF 3
ENDMDL
MODEL 7
REMARK VINA RESULT:    -3.524      1.638      2.523
REMARK INTER + INTRA:          -4.177
REMARK INTER:                  -4.100
REMARK INTRA:                  -0.077
REMARK UNBOUND:                -0.035
REMARK SMILES O=C([O-])CCC(=O)[O-]
REMARK SMILES IDX 4 1 2 2 1 3 3 4 5 5 6 6 7 7 8 8
REMARK H PARENT
REMARK Flexibility Score: inf
ROOT
ATOM      1  C   UNL     1     121.626 154.333 160.760  1.00  0.00     0.059 C 
ENDROOT
BRANCH   1   2
ATOM      2  C   UNL     1     121.572 155.012 159.429  1.00  0.00     0.042 C 
ATOM      3  O   UNL     1     122.216 156.077 159.232  1.00  0.00    -0.550 OA
ATOM      4  O   UNL     1     120.771 154.497 158.417  1.00  0.00    -0.550 OA
ENDBRANCH   1   2
BRANCH   1   5
ATOM      5  C   UNL     1     121.602 152.814 160.589  1.00  0.00     0.059 C 
BRANCH   5   6
ATOM      6  C   UNL     1     120.271 152.263 160.992  1.00  0.00     0.042 C 
ATOM      7  O   UNL     1     119.718 152.653 162.054  1.00  0.00    -0.550 OA
ATOM      8  O   UNL     1     119.617 151.353 160.171  1.00  0.00    -0.550 OA
ENDBRANCH   5   6
ENDBRANCH   1   5
TORSDOF 3
ENDMDL
MODEL 8
REMARK VINA RESULT:    -3.474      1.728      2.090
REMARK INTER + INTRA:          -4.119
REMARK INTER:                  -4.049
REMARK INTRA:                  -0.069
REMARK UNBOUND:                -0.035
REMARK SMILES O=C([O-])CCC(=O)[O-]
REMARK SMILES IDX 4 1 2 2 1 3 3 4 5 5 6 6 7 7 8 8
REMARK H PARENT
REMARK Flexibility Score: inf
ROOT
ATOM      1  C   UNL     1     120.629 151.545 159.281  1.00  0.00     0.059 C 
ENDROOT
BRANCH   1   2
ATOM      2  C   UNL     1     120.525 152.526 160.405  1.00  0.00     0.042 C 
ATOM      3  O   UNL     1     119.758 152.296 161.378  1.00  0.00    -0.550 OA
ATOM      4  O   UNL     1     121.234 153.719 160.356  1.00  0.00    -0.550 OA
ENDBRANCH   1   2
BRANCH   1   5
ATOM      5  C   UNL     1     119.714 150.346 159.529  1.00  0.00     0.059 C 
BRANCH   5   6
ATOM      6  C   UNL     1     118.684 150.240 158.451  1.00  0.00     0.042 C 
ATOM      7  O   UNL     1     117.486 149.978 158.741  1.00  0.00    -0.550 OA
ATOM      8  O   UNL     1     119.034 150.479 157.128  1.00  0.00    -0.550 OA
ENDBRANCH   5   6
ENDBRANCH   1   5
TORSDOF 3
ENDMDL
MODEL 9
REMARK VINA RESULT:    -3.460      4.896      6.276
REMARK INTER + INTRA:          -4.103
REMARK INTER:                  -4.006
REMARK INTRA:                  -0.097
REMARK UNBOUND:                -0.035
REMARK SMILES O=C([O-])CCC(=O)[O-]
REMARK SMILES IDX 4 1 2 2 1 3 3 4 5 5 6 6 7 7 8 8
REMARK H PARENT
REMARK Flexibility Score: inf
ROOT
ATOM      1  C   UNL     1     120.576 157.038 156.867  1.00  0.00     0.059 C 
ENDROOT
BRANCH   1   2
ATOM      2  C   UNL     1     120.395 156.568 155.459  1.00  0.00     0.042 C 
ATOM      3  O   UNL     1     120.395 157.396 154.508  1.00  0.00    -0.550 OA
ATOM      4  O   UNL     1     120.177 155.222 155.197  1.00  0.00    -0.550 OA
ENDBRANCH   1   2
BRANCH   1   5
ATOM      5  C   UNL     1     121.978 156.696 157.370  1.00  0.00     0.059 C 
BRANCH   5   6
ATOM      6  C   UNL     1     121.903 155.938 158.657  1.00  0.00     0.042 C 
ATOM      7  O   UNL     1     122.632 156.267 159.631  1.00  0.00    -0.550 OA
ATOM      8  O   UNL     1     120.992 154.899 158.801  1.00  0.00    -0.550 OA
ENDBRANCH   5   6
ENDBRANCH   1   5
TORSDOF 3
ENDMDL
