MODEL 1
REMARK VINA RESULT:    -2.252      0.000      0.000
REMARK INTER + INTRA:          -2.252
REMARK INTER:                  -2.252
REMARK INTRA:                   0.000
REMARK UNBOUND:                 0.000
REMARK SMILES CC(=O)[O-]
REMARK SMILES IDX 1 1 2 2 3 3 4 4
REMARK H PARENT
REMARK Flexibility Score: inf
ROOT
ATOM      1  C   UNL     1     100.073  59.672 217.633  1.00  0.00     0.063 C 
ATOM      2  C   UNL     1     100.119  60.113 219.057  1.00  0.00     0.038 C 
ATOM      3  O   UNL     1     100.961  60.974 219.424  1.00  0.00    -0.550 OA
ATOM      4  O   UNL     1      99.269  59.536 219.993  1.00  0.00    -0.550 OA
ENDROOT
TORSDOF 0
ENDMDL
MODEL 2
REMARK VINA RESULT:    -2.248     14.392     14.863
REMARK INTER + INTRA:          -2.248
REMARK INTER:                  -2.248
REMARK INTRA:                   0.000
REMARK UNBOUND:                 0.000
REMARK SMILES CC(=O)[O-]
REMARK SMILES IDX 1 1 2 2 3 3 4 4
REMARK H PARENT
REMARK Flexibility Score: inf
ROOT
ATOM      1  C   UNL     1     112.195  65.741 217.559  1.00  0.00     0.063 C 
ATOM      2  C   UNL     1     113.143  66.778 217.057  1.00  0.00     0.038 C 
ATOM      3  O   UNL     1     113.008  67.979 217.408  1.00  0.00    -0.550 OA
ATOM      4  O   UNL     1     114.145  66.429 216.160  1.00  0.00    -0.550 OA
ENDROOT
TORSDOF 0
ENDMDL
MODEL 3
REMARK VINA RESULT:    -2.022      2.021      2.651
REMARK INTER + INTRA:          -2.022
REMARK INTER:                  -2.022
REMARK INTRA:                   0.000
REMARK UNBOUND:                 0.000
REMARK SMILES CC(=O)[O-]
REMARK SMILES IDX 1 1 2 2 3 3 4 4
REMARK H PARENT
REMARK Flexibility Score: inf
ROOT
ATOM      1  C   UNL     1      98.992  57.496 219.164  1.00  0.00     0.063 C 
ATOM      2  C   UNL     1      99.024  58.649 220.109  1.00  0.00     0.038 C 
ATOM      3  O   UNL     1      98.572  58.521 221.277  1.00  0.00    -0.550 OA
ATOM      4  O   UNL     1      99.505  59.882 219.686  1.00  0.00    -0.550 OA
ENDROOT
TORSDOF 0
ENDMDL
MODEL 4
REMARK VINA RESULT:    -1.980     19.333     19.662
REMARK INTER + INTRA:          -1.980
REMARK INTER:                  -1.980
REMARK INTRA:                   0.000
REMARK UNBOUND:                 0.000
REMARK SMILES CC(=O)[O-]
REMARK SMILES IDX 1 1 2 2 3 3 4 4
REMARK H PARENT
REMARK Flexibility Score: inf
ROOT
ATOM      1  C   UNL     1     107.836  49.350 231.954  1.00  0.00     0.063 C 
ATOM      2  C   UNL     1     108.707  49.488 233.157  1.00  0.00     0.038 C 
ATOM      3  O   UNL     1     108.418  48.875 234.218  1.00  0.00    -0.550 OA
ATOM      4  O   UNL     1     109.808  50.334 233.126  1.00  0.00    -0.550 OA
ENDROOT
TORSDOF 0
ENDMDL
MODEL 5
REMARK VINA RESULT:    -1.964      2.518      2.850
REMARK INTER + INTRA:          -1.964
REMARK INTER:                  -1.964
REMARK INTRA:                   0.000
REMARK UNBOUND:                 0.000
REMARK SMILES CC(=O)[O-]
REMARK SMILES IDX 1 1 2 2 3 3 4 4
REMARK H PARENT
REMARK Flexibility Score: inf
ROOT
ATOM      1  C   UNL     1      98.394  57.103 219.737  1.00  0.00     0.063 C 
ATOM      2  C   UNL     1      98.698  58.342 220.510  1.00  0.00     0.038 C 
ATOM      3  O   UNL     1      99.309  59.295 219.961  1.00  0.00    -0.550 OA
ATOM      4  O   UNL     1      98.354  58.426 221.854  1.00  0.00    -0.550 OA
ENDROOT
TORSDOF 0
ENDMDL
MODEL 6
REMARK VINA RESULT:    -1.898      2.496      2.677
REMARK INTER + INTRA:          -1.898
REMARK INTER:                  -1.898
REMARK INTRA:                   0.000
REMARK UNBOUND:                 0.000
REMARK SMILES CC(=O)[O-]
REMARK SMILES IDX 1 1 2 2 3 3 4 4
REMARK H PARENT
REMARK Flexibility Score: inf
ROOT
ATOM      1  C   UNL     1     103.530  59.413 219.698  1.00  0.00     0.063 C 
ATOM      2  C   UNL     1     102.113  59.627 220.112  1.00  0.00     0.038 C 
ATOM      3  O   UNL     1     101.485  60.642 219.713  1.00  0.00    -0.550 OA
ATOM      4  O   UNL     1     101.500  58.735 220.983  1.00  0.00    -0.550 OA
ENDROOT
TORSDOF 0
ENDMDL
MODEL 7
REMARK VINA RESULT:    -1.823      7.095      7.578
REMARK INTER + INTRA:          -1.823
REMARK INTER:                  -1.823
REMARK INTRA:                   0.000
REMARK UNBOUND:                 0.000
REMARK SMILES CC(=O)[O-]
REMARK SMILES IDX 1 1 2 2 3 3 4 4
REMARK H PARENT
REMARK Flexibility Score: inf
ROOT
ATOM      1  C   UNL     1     102.023  62.546 225.374  1.00  0.00     0.063 C 
ATOM      2  C   UNL     1     101.959  64.010 225.093  1.00  0.00     0.038 C 
ATOM      3  O   UNL     1     102.682  64.810 225.742  1.00  0.00    -0.550 OA
ATOM      4  O   UNL     1     101.063  64.499 224.151  1.00  0.00    -0.550 OA
ENDROOT
TORSDOF 0
ENDMDL
MODEL 8
REMARK VINA RESULT:    -1.816     17.108     17.396
REMARK INTER + INTRA:          -1.816
REMARK INTER:                  -1.816
REMARK INTRA:                   0.000
REMARK UNBOUND:                 0.000
REMARK SMILES CC(=O)[O-]
REMARK SMILES IDX 1 1 2 2 3 3 4 4
REMARK H PARENT
REMARK Flexibility Score: inf
ROOT
ATOM      1  C   UNL     1     113.515  55.013 228.524  1.00  0.00     0.063 C 
ATOM      2  C   UNL     1     113.625  53.705 227.814  1.00  0.00     0.038 C 
ATOM      3  O   UNL     1     114.679  53.023 227.909  1.00  0.00    -0.550 OA
ATOM      4  O   UNL     1     112.587  53.263 227.005  1.00  0.00    -0.550 OA
ENDROOT
TORSDOF 0
ENDMDL
MODEL 9
REMARK VINA RESULT:    -1.810      3.164      3.896
REMARK INTER + INTRA:          -1.810
REMARK INTER:                  -1.810
REMARK INTRA:                   0.000
REMARK UNBOUND:                 0.000
REMARK SMILES CC(=O)[O-]
REMARK SMILES IDX 1 1 2 2 3 3 4 4
REMARK H PARENT
REMARK Flexibility Score: inf
ROOT
ATOM      1  C   UNL     1      98.638  56.565 220.841  1.00  0.00     0.063 C 
ATOM      2  C   UNL     1      98.387  57.990 221.206  1.00  0.00     0.038 C 
ATOM      3  O   UNL     1      97.604  58.271 222.151  1.00  0.00    -0.550 OA
ATOM      4  O   UNL     1      98.975  59.011 220.471  1.00  0.00    -0.550 OA
ENDROOT
TORSDOF 0
ENDMDL
