MODEL 1
REMARK VINA RESULT:    -6.024      0.000      0.000
REMARK INTER + INTRA:          -8.106
REMARK INTER:                  -7.609
REMARK INTRA:                  -0.497
REMARK UNBOUND:                -0.497
REMARK SMILES Oc1ccc(CCc2cc(O)cc(O)c2)cc1
REMARK SMILES IDX 6 1 5 2 4 3 3 4 2 5 16 6 17 7 1 8 7 10 8 11 15 12 9 13 13 14
REMARK SMILES IDX 10 15 12 16 14 17 11 19
REMARK H PARENT 1 9 14 18 11 20
REMARK Flexibility Score: inf
ROOT
ATOM      1  C   UNL     1      22.853  20.752  21.468  1.00  0.00     0.040 C 
ENDROOT
BRANCH   1   2
ATOM      2  C   UNL     1      23.217  19.350  21.060  1.00  0.00    -0.047 A 
ATOM      3  C   UNL     1      24.431  19.097  20.401  1.00  0.00     0.007 A 
ATOM      4  C   UNL     1      24.755  17.799  19.991  1.00  0.00     0.046 A 
ATOM      5  C   UNL     1      23.863  16.744  20.229  1.00  0.00     0.115 A 
ATOM      6  C   UNL     1      22.322  18.292  21.282  1.00  0.00     0.007 A 
ATOM      7  C   UNL     1      22.648  16.995  20.873  1.00  0.00     0.046 A 
BRANCH   5   8
ATOM      8  O   UNL     1      24.175  15.447  19.826  1.00  0.00    -0.508 OA
ATOM      9  H   UNL     1      25.072  15.223  19.412  1.00  0.00     0.293 HD
ENDBRANCH   5   8
ENDBRANCH   1   2
BRANCH   1  10
ATOM     10  C   UNL     1      21.370  21.023  21.198  1.00  0.00     0.040 C 
BRANCH  10  11
ATOM     11  C   UNL     1      21.201  22.280  20.387  1.00  0.00    -0.040 A 
ATOM     12  C   UNL     1      20.559  23.398  20.943  1.00  0.00     0.050 A 
ATOM     13  C   UNL     1      21.632  22.324  19.052  1.00  0.00     0.050 A 
ATOM     14  C   UNL     1      20.371  24.558  20.179  1.00  0.00     0.119 A 
ATOM     15  C   UNL     1      21.446  23.481  18.287  1.00  0.00     0.119 A 
ATOM     16  C   UNL     1      20.818  24.597  18.853  1.00  0.00     0.092 A 
BRANCH  14  17
ATOM     17  O   UNL     1      19.742  25.674  20.725  1.00  0.00    -0.508 OA
ATOM     18  H   UNL     1      19.576  25.754  21.721  1.00  0.00     0.293 HD
ENDBRANCH  14  17
BRANCH  15  19
ATOM     19  O   UNL     1      21.887  23.508  16.965  1.00  0.00    -0.508 OA
ATOM     20  H   UNL     1      22.867  23.620  16.738  1.00  0.00     0.293 HD
ENDBRANCH  15  19
ENDBRANCH  10  11
ENDBRANCH   1  10
TORSDOF 6
ENDMDL
MODEL 2
REMARK VINA RESULT:    -5.999      0.093      2.037
REMARK INTER + INTRA:          -8.074
REMARK INTER:                  -7.572
REMARK INTRA:                  -0.503
REMARK UNBOUND:                -0.497
REMARK SMILES Oc1ccc(CCc2cc(O)cc(O)c2)cc1
REMARK SMILES IDX 6 1 5 2 4 3 3 4 2 5 16 6 17 7 1 8 7 10 8 11 15 12 9 13 13 14
REMARK SMILES IDX 10 15 12 16 14 17 11 19
REMARK H PARENT 1 9 14 18 11 20
REMARK Flexibility Score: inf
ROOT
ATOM      1  C   UNL     1      22.767  20.822  21.464  1.00  0.00     0.040 C 
ENDROOT
BRANCH   1   2
ATOM      2  C   UNL     1      23.153  19.422  21.070  1.00  0.00    -0.047 A 
ATOM      3  C   UNL     1      24.346  19.187  20.368  1.00  0.00     0.007 A 
ATOM      4  C   UNL     1      24.689  17.889  19.973  1.00  0.00     0.046 A 
ATOM      5  C   UNL     1      23.836  16.816  20.269  1.00  0.00     0.115 A 
ATOM      6  C   UNL     1      22.297  18.345  21.351  1.00  0.00     0.007 A 
ATOM      7  C   UNL     1      22.641  17.048  20.956  1.00  0.00     0.046 A 
BRANCH   5   8
ATOM      8  O   UNL     1      24.167  15.519  19.881  1.00  0.00    -0.508 OA
ATOM      9  H   UNL     1      23.473  14.890  19.493  1.00  0.00     0.293 HD
ENDBRANCH   5   8
ENDBRANCH   1   2
BRANCH   1  10
ATOM     10  C   UNL     1      21.280  21.067  21.191  1.00  0.00     0.040 C 
BRANCH  10  11
ATOM     11  C   UNL     1      21.092  22.314  20.368  1.00  0.00    -0.040 A 
ATOM     12  C   UNL     1      21.573  22.370  19.050  1.00  0.00     0.050 A 
ATOM     13  C   UNL     1      20.486  23.448  20.930  1.00  0.00     0.050 A 
ATOM     14  C   UNL     1      21.429  23.541  18.293  1.00  0.00     0.119 A 
ATOM     15  C   UNL     1      20.340  24.619  20.177  1.00  0.00     0.119 A 
ATOM     16  C   UNL     1      20.810  24.662  18.858  1.00  0.00     0.092 A 
BRANCH  14  17
ATOM     17  O   UNL     1      21.897  23.602  16.983  1.00  0.00    -0.508 OA
ATOM     18  H   UNL     1      21.280  23.456  16.193  1.00  0.00     0.293 HD
ENDBRANCH  14  17
BRANCH  15  19
ATOM     19  O   UNL     1      19.729  25.732  20.749  1.00  0.00    -0.508 OA
ATOM     20  H   UNL     1      18.755  25.717  21.026  1.00  0.00     0.293 HD
ENDBRANCH  15  19
ENDBRANCH  10  11
ENDBRANCH   1  10
TORSDOF 6
ENDMDL
MODEL 3
REMARK VINA RESULT:    -5.939      1.619      6.789
REMARK INTER + INTRA:          -7.999
REMARK INTER:                  -7.507
REMARK INTRA:                  -0.492
REMARK UNBOUND:                -0.497
REMARK SMILES Oc1ccc(CCc2cc(O)cc(O)c2)cc1
REMARK SMILES IDX 6 1 5 2 4 3 3 4 2 5 16 6 17 7 1 8 7 10 8 11 15 12 9 13 13 14
REMARK SMILES IDX 10 15 12 16 14 17 11 19
REMARK H PARENT 1 9 14 18 11 20
REMARK Flexibility Score: inf
ROOT
ATOM      1  C   UNL     1      20.911  21.286  20.763  1.00  0.00     0.040 C 
ENDROOT
BRANCH   1   2
ATOM      2  C   UNL     1      20.586  22.397  19.801  1.00  0.00    -0.047 A 
ATOM      3  C   UNL     1      19.331  23.026  19.844  1.00  0.00     0.007 A 
ATOM      4  C   UNL     1      19.016  24.036  18.929  1.00  0.00     0.046 A 
ATOM      5  C   UNL     1      19.951  24.420  17.957  1.00  0.00     0.115 A 
ATOM      6  C   UNL     1      21.512  22.776  18.817  1.00  0.00     0.007 A 
ATOM      7  C   UNL     1      21.196  23.787  17.903  1.00  0.00     0.046 A 
BRANCH   5   8
ATOM      8  O   UNL     1      19.649  25.424  17.040  1.00  0.00    -0.508 OA
ATOM      9  H   UNL     1      19.499  25.218  16.059  1.00  0.00     0.293 HD
ENDBRANCH   5   8
ENDBRANCH   1   2
BRANCH   1  10
ATOM     10  C   UNL     1      22.388  21.340  21.168  1.00  0.00     0.040 C 
BRANCH  10  11
ATOM     11  C   UNL     1      23.032  19.990  21.001  1.00  0.00    -0.040 A 
ATOM     12  C   UNL     1      22.420  18.845  21.536  1.00  0.00     0.050 A 
ATOM     13  C   UNL     1      24.275  19.873  20.359  1.00  0.00     0.050 A 
ATOM     14  C   UNL     1      23.035  17.591  21.411  1.00  0.00     0.119 A 
ATOM     15  C   UNL     1      24.890  18.622  20.232  1.00  0.00     0.119 A 
ATOM     16  C   UNL     1      24.267  17.483  20.756  1.00  0.00     0.092 A 
BRANCH  14  17
ATOM     17  O   UNL     1      22.432  16.449  21.933  1.00  0.00    -0.508 OA
ATOM     18  H   UNL     1      21.427  16.387  22.048  1.00  0.00     0.293 HD
ENDBRANCH  14  17
BRANCH  15  19
ATOM     19  O   UNL     1      26.120  18.525  19.586  1.00  0.00    -0.508 OA
ATOM     20  H   UNL     1      26.262  18.907  18.659  1.00  0.00     0.293 HD
ENDBRANCH  15  19
ENDBRANCH  10  11
ENDBRANCH   1  10
TORSDOF 6
ENDMDL
MODEL 4
REMARK VINA RESULT:    -5.934     16.653     19.336
REMARK INTER + INTRA:          -7.992
REMARK INTER:                  -7.550
REMARK INTRA:                  -0.442
REMARK UNBOUND:                -0.497
REMARK SMILES Oc1ccc(CCc2cc(O)cc(O)c2)cc1
REMARK SMILES IDX 6 1 5 2 4 3 3 4 2 5 16 6 17 7 1 8 7 10 8 11 15 12 9 13 13 14
REMARK SMILES IDX 10 15 12 16 14 17 11 19
REMARK H PARENT 1 9 14 18 11 20
REMARK Flexibility Score: inf
ROOT
ATOM      1  C   UNL     1      19.872  30.075  37.020  1.00  0.00     0.040 C 
ENDROOT
BRANCH   1   2
ATOM      2  C   UNL     1      20.387  31.393  36.508  1.00  0.00    -0.047 A 
ATOM      3  C   UNL     1      21.600  31.453  35.801  1.00  0.00     0.007 A 
ATOM      4  C   UNL     1      22.095  32.682  35.353  1.00  0.00     0.046 A 
ATOM      5  C   UNL     1      21.387  33.863  35.616  1.00  0.00     0.115 A 
ATOM      6  C   UNL     1      19.690  32.581  36.780  1.00  0.00     0.007 A 
ATOM      7  C   UNL     1      20.187  33.809  36.330  1.00  0.00     0.046 A 
BRANCH   5   8
ATOM      8  O   UNL     1      21.870  35.094  35.175  1.00  0.00    -0.508 OA
ATOM      9  H   UNL     1      21.270  35.908  35.117  1.00  0.00     0.293 HD
ENDBRANCH   5   8
ENDBRANCH   1   2
BRANCH   1  10
ATOM     10  C   UNL     1      20.897  28.964  36.774  1.00  0.00     0.040 C 
BRANCH  10  11
ATOM     11  C   UNL     1      20.205  27.673  36.429  1.00  0.00    -0.040 A 
ATOM     12  C   UNL     1      18.855  27.483  36.766  1.00  0.00     0.050 A 
ATOM     13  C   UNL     1      20.918  26.629  35.819  1.00  0.00     0.050 A 
ATOM     14  C   UNL     1      18.217  26.269  36.476  1.00  0.00     0.119 A 
ATOM     15  C   UNL     1      20.283  25.416  35.527  1.00  0.00     0.119 A 
ATOM     16  C   UNL     1      18.933  25.239  35.854  1.00  0.00     0.092 A 
BRANCH  14  17
ATOM     17  O   UNL     1      16.877  26.075  36.801  1.00  0.00    -0.508 OA
ATOM     18  H   UNL     1      16.524  25.164  37.068  1.00  0.00     0.293 HD
ENDBRANCH  14  17
BRANCH  15  19
ATOM     19  O   UNL     1      21.005  24.393  34.915  1.00  0.00    -0.508 OA
ATOM     20  H   UNL     1      21.873  24.051  35.307  1.00  0.00     0.293 HD
ENDBRANCH  15  19
ENDBRANCH  10  11
ENDBRANCH   1  10
TORSDOF 6
ENDMDL
MODEL 5
REMARK VINA RESULT:    -5.930      1.654      6.863
REMARK INTER + INTRA:          -7.987
REMARK INTER:                  -7.493
REMARK INTRA:                  -0.494
REMARK UNBOUND:                -0.497
REMARK SMILES Oc1ccc(CCc2cc(O)cc(O)c2)cc1
REMARK SMILES IDX 6 1 5 2 4 3 3 4 2 5 16 6 17 7 1 8 7 10 8 11 15 12 9 13 13 14
REMARK SMILES IDX 10 15 12 16 14 17 11 19
REMARK H PARENT 1 9 14 18 11 20
REMARK Flexibility Score: inf
ROOT
ATOM      1  C   UNL     1      20.913  21.258  20.661  1.00  0.00     0.040 C 
ENDROOT
BRANCH   1   2
ATOM      2  C   UNL     1      20.575  22.346  19.677  1.00  0.00    -0.047 A 
ATOM      3  C   UNL     1      21.532  22.780  18.745  1.00  0.00     0.007 A 
ATOM      4  C   UNL     1      21.229  23.814  17.853  1.00  0.00     0.046 A 
ATOM      5  C   UNL     1      19.969  24.428  17.891  1.00  0.00     0.115 A 
ATOM      6  C   UNL     1      19.321  22.975  19.719  1.00  0.00     0.007 A 
ATOM      7  C   UNL     1      19.019  24.007  18.826  1.00  0.00     0.046 A 
BRANCH   5   8
ATOM      8  O   UNL     1      19.655  25.459  17.007  1.00  0.00    -0.508 OA
ATOM      9  H   UNL     1      18.724  25.856  16.965  1.00  0.00     0.293 HD
ENDBRANCH   5   8
ENDBRANCH   1   2
BRANCH   1  10
ATOM     10  C   UNL     1      22.381  21.357  21.090  1.00  0.00     0.040 C 
BRANCH  10  11
ATOM     11  C   UNL     1      23.048  20.011  21.006  1.00  0.00    -0.040 A 
ATOM     12  C   UNL     1      24.284  19.875  20.352  1.00  0.00     0.050 A 
ATOM     13  C   UNL     1      22.415  18.872  21.528  1.00  0.00     0.050 A 
ATOM     14  C   UNL     1      24.891  18.616  20.243  1.00  0.00     0.119 A 
ATOM     15  C   UNL     1      23.020  17.615  21.421  1.00  0.00     0.119 A 
ATOM     16  C   UNL     1      24.259  17.489  20.781  1.00  0.00     0.092 A 
BRANCH  14  17
ATOM     17  O   UNL     1      26.120  18.474  19.602  1.00  0.00    -0.508 OA
ATOM     18  H   UNL     1      26.964  18.889  19.978  1.00  0.00     0.293 HD
ENDBRANCH  14  17
BRANCH  15  19
ATOM     19  O   UNL     1      22.379  16.497  21.953  1.00  0.00    -0.508 OA
ATOM     20  H   UNL     1      22.688  16.073  22.819  1.00  0.00     0.293 HD
ENDBRANCH  15  19
ENDBRANCH  10  11
ENDBRANCH   1  10
TORSDOF 6
ENDMDL
MODEL 6
REMARK VINA RESULT:    -5.912     16.621     19.418
REMARK INTER + INTRA:          -7.964
REMARK INTER:                  -7.526
REMARK INTRA:                  -0.438
REMARK UNBOUND:                -0.497
REMARK SMILES Oc1ccc(CCc2cc(O)cc(O)c2)cc1
REMARK SMILES IDX 6 1 5 2 4 3 3 4 2 5 16 6 17 7 1 8 7 10 8 11 15 12 9 13 13 14
REMARK SMILES IDX 10 15 12 16 14 17 11 19
REMARK H PARENT 1 9 14 18 11 20
REMARK Flexibility Score: inf
ROOT
ATOM      1  C   UNL     1      19.879  29.987  37.022  1.00  0.00     0.040 C 
ENDROOT
BRANCH   1   2
ATOM      2  C   UNL     1      20.388  31.322  36.548  1.00  0.00    -0.047 A 
ATOM      3  C   UNL     1      19.621  32.482  36.743  1.00  0.00     0.007 A 
ATOM      4  C   UNL     1      20.079  33.718  36.273  1.00  0.00     0.046 A 
ATOM      5  C   UNL     1      21.304  33.803  35.597  1.00  0.00     0.115 A 
ATOM      6  C   UNL     1      21.608  31.411  35.858  1.00  0.00     0.007 A 
ATOM      7  C   UNL     1      22.064  32.648  35.391  1.00  0.00     0.046 A 
BRANCH   5   8
ATOM      8  O   UNL     1      21.771  35.028  35.125  1.00  0.00    -0.508 OA
ATOM      9  H   UNL     1      21.225  35.591  34.484  1.00  0.00     0.293 HD
ENDBRANCH   5   8
ENDBRANCH   1   2
BRANCH   1  10
ATOM     10  C   UNL     1      20.901  28.885  36.725  1.00  0.00     0.040 C 
BRANCH  10  11
ATOM     11  C   UNL     1      20.205  27.582  36.440  1.00  0.00    -0.040 A 
ATOM     12  C   UNL     1      20.872  26.562  35.743  1.00  0.00     0.050 A 
ATOM     13  C   UNL     1      18.865  27.397  36.818  1.00  0.00     0.050 A 
ATOM     14  C   UNL     1      20.215  25.359  35.448  1.00  0.00     0.119 A 
ATOM     15  C   UNL     1      18.207  26.197  36.525  1.00  0.00     0.119 A 
ATOM     16  C   UNL     1      18.884  25.179  35.842  1.00  0.00     0.092 A 
BRANCH  14  17
ATOM     17  O   UNL     1      20.872  24.340  34.763  1.00  0.00    -0.508 OA
ATOM     18  H   UNL     1      21.754  24.502  34.292  1.00  0.00     0.293 HD
ENDBRANCH  14  17
BRANCH  15  19
ATOM     19  O   UNL     1      16.880  26.029  36.915  1.00  0.00    -0.508 OA
ATOM     20  H   UNL     1      16.433  25.121  36.890  1.00  0.00     0.293 HD
ENDBRANCH  15  19
ENDBRANCH  10  11
ENDBRANCH   1  10
TORSDOF 6
ENDMDL
MODEL 7
REMARK VINA RESULT:    -5.865      1.098      1.308
REMARK INTER + INTRA:          -7.905
REMARK INTER:                  -7.480
REMARK INTRA:                  -0.425
REMARK UNBOUND:                -0.497
REMARK SMILES Oc1ccc(CCc2cc(O)cc(O)c2)cc1
REMARK SMILES IDX 6 1 5 2 4 3 3 4 2 5 16 6 17 7 1 8 7 10 8 11 15 12 9 13 13 14
REMARK SMILES IDX 10 15 12 16 14 17 11 19
REMARK H PARENT 1 9 14 18 11 20
REMARK Flexibility Score: inf
ROOT
ATOM      1  C   UNL     1      22.804  20.721  21.410  1.00  0.00     0.040 C 
ENDROOT
BRANCH   1   2
ATOM      2  C   UNL     1      23.121  19.294  21.050  1.00  0.00    -0.047 A 
ATOM      3  C   UNL     1      24.311  18.982  20.374  1.00  0.00     0.007 A 
ATOM      4  C   UNL     1      24.591  17.660  20.011  1.00  0.00     0.046 A 
ATOM      5  C   UNL     1      23.678  16.640  20.313  1.00  0.00     0.115 A 
ATOM      6  C   UNL     1      22.204  18.270  21.338  1.00  0.00     0.007 A 
ATOM      7  C   UNL     1      22.486  16.949  20.975  1.00  0.00     0.046 A 
BRANCH   5   8
ATOM      8  O   UNL     1      23.945  15.320  19.957  1.00  0.00    -0.508 OA
ATOM      9  H   UNL     1      23.700  14.547  20.566  1.00  0.00     0.293 HD
ENDBRANCH   5   8
ENDBRANCH   1   2
BRANCH   1  10
ATOM     10  C   UNL     1      22.852  21.612  20.165  1.00  0.00     0.040 C 
BRANCH  10  11
ATOM     11  C   UNL     1      21.827  22.711  20.261  1.00  0.00    -0.040 A 
ATOM     12  C   UNL     1      21.063  22.863  21.430  1.00  0.00     0.050 A 
ATOM     13  C   UNL     1      21.587  23.553  19.165  1.00  0.00     0.050 A 
ATOM     14  C   UNL     1      20.085  23.865  21.510  1.00  0.00     0.119 A 
ATOM     15  C   UNL     1      20.612  24.554  19.242  1.00  0.00     0.119 A 
ATOM     16  C   UNL     1      19.864  24.709  20.416  1.00  0.00     0.092 A 
BRANCH  14  17
ATOM     17  O   UNL     1      19.328  24.027  22.667  1.00  0.00    -0.508 OA
ATOM     18  H   UNL     1      19.410  24.858  23.241  1.00  0.00     0.293 HD
ENDBRANCH  14  17
BRANCH  15  19
ATOM     19  O   UNL     1      20.393  25.386  18.146  1.00  0.00    -0.508 OA
ATOM     20  H   UNL     1      20.988  25.349  17.328  1.00  0.00     0.293 HD
ENDBRANCH  15  19
ENDBRANCH  10  11
ENDBRANCH   1  10
TORSDOF 6
ENDMDL
MODEL 8
REMARK VINA RESULT:    -5.706      1.576      6.649
REMARK INTER + INTRA:          -7.705
REMARK INTER:                  -7.083
REMARK INTRA:                  -0.622
REMARK UNBOUND:                -0.497
REMARK SMILES Oc1ccc(CCc2cc(O)cc(O)c2)cc1
REMARK SMILES IDX 6 1 5 2 4 3 3 4 2 5 16 6 17 7 1 8 7 10 8 11 15 12 9 13 13 14
REMARK SMILES IDX 10 15 12 16 14 17 11 19
REMARK H PARENT 1 9 14 18 11 20
REMARK Flexibility Score: inf
ROOT
ATOM      1  C   UNL     1      22.848  20.621  21.642  1.00  0.00     0.040 C 
ENDROOT
BRANCH   1   2
ATOM      2  C   UNL     1      21.943  21.358  20.691  1.00  0.00    -0.047 A 
ATOM      3  C   UNL     1      20.572  21.057  20.641  1.00  0.00     0.007 A 
ATOM      4  C   UNL     1      19.737  21.718  19.734  1.00  0.00     0.046 A 
ATOM      5  C   UNL     1      20.267  22.679  18.863  1.00  0.00     0.115 A 
ATOM      6  C   UNL     1      22.470  22.311  19.806  1.00  0.00     0.007 A 
ATOM      7  C   UNL     1      21.634  22.972  18.901  1.00  0.00     0.046 A 
BRANCH   5   8
ATOM      8  O   UNL     1      19.445  23.345  17.955  1.00  0.00    -0.508 OA
ATOM      9  H   UNL     1      19.675  24.271  17.613  1.00  0.00     0.293 HD
ENDBRANCH   5   8
ENDBRANCH   1   2
BRANCH   1  10
ATOM     10  C   UNL     1      22.483  19.134  21.689  1.00  0.00     0.040 C 
BRANCH  10  11
ATOM     11  C   UNL     1      23.482  18.320  20.913  1.00  0.00    -0.040 A 
ATOM     12  C   UNL     1      24.781  18.810  20.702  1.00  0.00     0.050 A 
ATOM     13  C   UNL     1      23.107  17.092  20.346  1.00  0.00     0.050 A 
ATOM     14  C   UNL     1      25.704  18.068  19.950  1.00  0.00     0.119 A 
ATOM     15  C   UNL     1      24.026  16.349  19.596  1.00  0.00     0.119 A 
ATOM     16  C   UNL     1      25.324  16.838  19.402  1.00  0.00     0.092 A 
BRANCH  14  17
ATOM     17  O   UNL     1      26.996  18.543  19.742  1.00  0.00    -0.508 OA
ATOM     18  H   UNL     1      27.250  19.031  18.892  1.00  0.00     0.293 HD
ENDBRANCH  14  17
BRANCH  15  19
ATOM     19  O   UNL     1      23.637  15.129  19.047  1.00  0.00    -0.508 OA
ATOM     20  H   UNL     1      22.951  14.539  19.501  1.00  0.00     0.293 HD
ENDBRANCH  15  19
ENDBRANCH  10  11
ENDBRANCH   1  10
TORSDOF 6
ENDMDL
MODEL 9
REMARK VINA RESULT:    -5.539      1.662      2.181
REMARK INTER + INTRA:          -7.493
REMARK INTER:                  -6.947
REMARK INTRA:                  -0.546
REMARK UNBOUND:                -0.497
REMARK SMILES Oc1ccc(CCc2cc(O)cc(O)c2)cc1
REMARK SMILES IDX 6 1 5 2 4 3 3 4 2 5 16 6 17 7 1 8 7 10 8 11 15 12 9 13 13 14
REMARK SMILES IDX 10 15 12 16 14 17 11 19
REMARK H PARENT 1 9 14 18 11 20
REMARK Flexibility Score: inf
ROOT
ATOM      1  C   UNL     1      22.625  21.017  21.514  1.00  0.00     0.040 C 
ENDROOT
BRANCH   1   2
ATOM      2  C   UNL     1      23.072  19.634  21.124  1.00  0.00    -0.047 A 
ATOM      3  C   UNL     1      24.266  19.451  20.407  1.00  0.00     0.007 A 
ATOM      4  C   UNL     1      24.665  18.168  20.016  1.00  0.00     0.046 A 
ATOM      5  C   UNL     1      23.869  17.058  20.332  1.00  0.00     0.115 A 
ATOM      6  C   UNL     1      22.273  18.520  21.425  1.00  0.00     0.007 A 
ATOM      7  C   UNL     1      22.674  17.238  21.034  1.00  0.00     0.046 A 
BRANCH   5   8
ATOM      8  O   UNL     1      24.256  15.775  19.948  1.00  0.00    -0.508 OA
ATOM      9  H   UNL     1      24.416  15.044  20.632  1.00  0.00     0.293 HD
ENDBRANCH   5   8
ENDBRANCH   1   2
BRANCH   1  10
ATOM     10  C   UNL     1      22.527  21.919  20.279  1.00  0.00     0.040 C 
BRANCH  10  11
ATOM     11  C   UNL     1      21.110  22.379  20.072  1.00  0.00    -0.040 A 
ATOM     12  C   UNL     1      20.847  23.553  19.347  1.00  0.00     0.050 A 
ATOM     13  C   UNL     1      20.044  21.673  20.651  1.00  0.00     0.050 A 
ATOM     14  C   UNL     1      19.529  24.002  19.181  1.00  0.00     0.119 A 
ATOM     15  C   UNL     1      18.727  22.119  20.486  1.00  0.00     0.119 A 
ATOM     16  C   UNL     1      18.472  23.282  19.749  1.00  0.00     0.092 A 
BRANCH  14  17
ATOM     17  O   UNL     1      19.260  25.161  18.457  1.00  0.00    -0.508 OA
ATOM     18  H   UNL     1      19.584  25.277  17.504  1.00  0.00     0.293 HD
ENDBRANCH  14  17
BRANCH  15  19
ATOM     19  O   UNL     1      17.682  21.399  21.062  1.00  0.00    -0.508 OA
ATOM     20  H   UNL     1      17.843  20.517  21.531  1.00  0.00     0.293 HD
ENDBRANCH  15  19
ENDBRANCH  10  11
ENDBRANCH   1  10
TORSDOF 6
ENDMDL
