MODEL 1
REMARK VINA RESULT:    -3.688      0.000      0.000
REMARK INTER + INTRA:          -4.960
REMARK INTER:                  -4.550
REMARK INTRA:                  -0.410
REMARK UNBOUND:                -0.410
REMARK SMILES C=CC[C@@H](C)C(=O)CC
REMARK SMILES IDX 4 1 5 2 6 3 7 4 8 5 9 6 3 7 2 8 1 9
REMARK H PARENT
REMARK Flexibility Score: inf
ROOT
ATOM      1  C   UNL     1      11.280  45.554  19.788  1.00  0.00     0.057 C 
ATOM      2  C   UNL     1      11.091  44.035  19.729  1.00  0.00     0.016 C 
ENDROOT
BRANCH   1   3
ATOM      3  C   UNL     1      12.503  45.956  18.987  1.00  0.00     0.135 C 
ATOM      4  O   UNL     1      13.478  46.422  19.561  1.00  0.00    -0.299 OA
BRANCH   3   5
ATOM      5  C   UNL     1      12.547  45.777  17.493  1.00  0.00     0.072 C 
ATOM      6  C   UNL     1      13.163  46.999  16.820  1.00  0.00     0.012 C 
ENDBRANCH   3   5
ENDBRANCH   1   3
BRANCH   1   7
ATOM      7  C   UNL     1      10.018  46.277  19.275  1.00  0.00     0.038 C 
BRANCH   7   8
ATOM      8  C   UNL     1      10.154  47.776  19.342  1.00  0.00    -0.034 C 
ATOM      9  C   UNL     1       9.706  48.570  18.365  1.00  0.00     0.004 C 
ENDBRANCH   7   8
ENDBRANCH   1   7
TORSDOF 4
ENDMDL
MODEL 2
REMARK VINA RESULT:    -3.612      1.563      3.343
REMARK INTER + INTRA:          -4.866
REMARK INTER:                  -4.428
REMARK INTRA:                  -0.438
REMARK UNBOUND:                -0.410
REMARK SMILES C=CC[C@@H](C)C(=O)CC
REMARK SMILES IDX 4 1 5 2 6 3 7 4 8 5 9 6 3 7 2 8 1 9
REMARK H PARENT
REMARK Flexibility Score: inf
ROOT
ATOM      1  C   UNL     1      11.862  45.550  19.314  1.00  0.00     0.057 C 
ATOM      2  C   UNL     1      12.882  46.277  20.197  1.00  0.00     0.016 C 
ENDROOT
BRANCH   1   3
ATOM      3  C   UNL     1      10.502  46.206  19.444  1.00  0.00     0.135 C 
ATOM      4  O   UNL     1       9.494  45.514  19.480  1.00  0.00    -0.299 OA
BRANCH   3   5
ATOM      5  C   UNL     1      10.367  47.703  19.544  1.00  0.00     0.072 C 
ATOM      6  C   UNL     1       9.564  48.254  18.372  1.00  0.00     0.012 C 
ENDBRANCH   3   5
ENDBRANCH   1   3
BRANCH   1   7
ATOM      7  C   UNL     1      12.333  45.531  17.846  1.00  0.00     0.038 C 
BRANCH   7   8
ATOM      8  C   UNL     1      13.382  46.576  17.572  1.00  0.00    -0.034 C 
ATOM      9  C   UNL     1      13.324  47.369  16.497  1.00  0.00     0.004 C 
ENDBRANCH   7   8
ENDBRANCH   1   7
TORSDOF 4
ENDMDL
MODEL 3
REMARK VINA RESULT:    -3.532      1.268      1.758
REMARK INTER + INTRA:          -4.767
REMARK INTER:                  -4.285
REMARK INTRA:                  -0.482
REMARK UNBOUND:                -0.410
REMARK SMILES C=CC[C@@H](C)C(=O)CC
REMARK SMILES IDX 4 1 5 2 6 3 7 4 8 5 9 6 3 7 2 8 1 9
REMARK H PARENT
REMARK Flexibility Score: inf
ROOT
ATOM      1  C   UNL     1      12.410  45.680  19.404  1.00  0.00     0.057 C 
ATOM      2  C   UNL     1      13.374  45.559  20.589  1.00  0.00     0.016 C 
ENDROOT
BRANCH   1   3
ATOM      3  C   UNL     1      12.969  44.942  18.204  1.00  0.00     0.135 C 
ATOM      4  O   UNL     1      13.484  43.842  18.353  1.00  0.00    -0.299 OA
BRANCH   3   5
ATOM      5  C   UNL     1      12.889  45.533  16.821  1.00  0.00     0.072 C 
ATOM      6  C   UNL     1      13.320  46.995  16.832  1.00  0.00     0.012 C 
ENDBRANCH   3   5
ENDBRANCH   1   3
BRANCH   1   7
ATOM      7  C   UNL     1      11.014  45.146  19.784  1.00  0.00     0.038 C 
BRANCH   7   8
ATOM      8  C   UNL     1       9.917  46.110  19.414  1.00  0.00    -0.034 C 
ATOM      9  C   UNL     1      10.180  47.360  19.019  1.00  0.00     0.004 C 
ENDBRANCH   7   8
ENDBRANCH   1   7
TORSDOF 4
ENDMDL
MODEL 4
REMARK VINA RESULT:    -3.438      1.399      2.788
REMARK INTER + INTRA:          -4.651
REMARK INTER:                  -4.241
REMARK INTRA:                  -0.410
REMARK UNBOUND:                -0.410
REMARK SMILES C=CC[C@@H](C)C(=O)CC
REMARK SMILES IDX 4 1 5 2 6 3 7 4 8 5 9 6 3 7 2 8 1 9
REMARK H PARENT
REMARK Flexibility Score: inf
ROOT
ATOM      1  C   UNL     1      12.183  45.675  18.514  1.00  0.00     0.057 C 
ATOM      2  C   UNL     1      12.749  46.155  17.174  1.00  0.00     0.016 C 
ENDROOT
BRANCH   1   3
ATOM      3  C   UNL     1      13.311  45.435  19.498  1.00  0.00     0.135 C 
ATOM      4  O   UNL     1      13.669  46.337  20.243  1.00  0.00    -0.299 OA
BRANCH   3   5
ATOM      5  C   UNL     1      13.993  44.095  19.586  1.00  0.00     0.072 C 
ATOM      6  C   UNL     1      13.047  42.977  19.164  1.00  0.00     0.012 C 
ENDBRANCH   3   5
ENDBRANCH   1   3
BRANCH   1   7
ATOM      7  C   UNL     1      11.168  46.695  19.070  1.00  0.00     0.038 C 
BRANCH   7   8
ATOM      8  C   UNL     1       9.854  46.051  19.430  1.00  0.00    -0.034 C 
ATOM      9  C   UNL     1       9.761  44.747  19.711  1.00  0.00     0.004 C 
ENDBRANCH   7   8
ENDBRANCH   1   7
TORSDOF 4
ENDMDL
MODEL 5
REMARK VINA RESULT:    -3.433      0.919      2.846
REMARK INTER + INTRA:          -4.645
REMARK INTER:                  -4.382
REMARK INTRA:                  -0.263
REMARK UNBOUND:                -0.410
REMARK SMILES C=CC[C@@H](C)C(=O)CC
REMARK SMILES IDX 4 1 5 2 6 3 7 4 8 5 9 6 3 7 2 8 1 9
REMARK H PARENT
REMARK Flexibility Score: inf
ROOT
ATOM      1  C   UNL     1      10.786  46.130  18.999  1.00  0.00     0.057 C 
ATOM      2  C   UNL     1      10.129  47.505  19.158  1.00  0.00     0.016 C 
ENDROOT
BRANCH   1   3
ATOM      3  C   UNL     1      12.288  46.251  19.159  1.00  0.00     0.135 C 
ATOM      4  O   UNL     1      12.758  46.619  20.227  1.00  0.00    -0.299 OA
BRANCH   3   5
ATOM      5  C   UNL     1      13.221  45.911  18.026  1.00  0.00     0.072 C 
ATOM      6  C   UNL     1      13.121  46.949  16.914  1.00  0.00     0.012 C 
ENDBRANCH   3   5
ENDBRANCH   1   3
BRANCH   1   7
ATOM      7  C   UNL     1      10.198  45.128  20.014  1.00  0.00     0.038 C 
BRANCH   7   8
ATOM      8  C   UNL     1      10.731  43.734  19.809  1.00  0.00    -0.034 C 
ATOM      9  C   UNL     1       9.964  42.653  19.981  1.00  0.00     0.004 C 
ENDBRANCH   7   8
ENDBRANCH   1   7
TORSDOF 4
ENDMDL
MODEL 6
REMARK VINA RESULT:    -3.425     11.233     12.670
REMARK INTER + INTRA:          -4.635
REMARK INTER:                  -4.377
REMARK INTRA:                  -0.259
REMARK UNBOUND:                -0.410
REMARK SMILES C=CC[C@@H](C)C(=O)CC
REMARK SMILES IDX 4 1 5 2 6 3 7 4 8 5 9 6 3 7 2 8 1 9
REMARK H PARENT
REMARK Flexibility Score: inf
ROOT
ATOM      1  C   UNL     1      15.293  40.099  29.012  1.00  0.00     0.057 C 
ATOM      2  C   UNL     1      15.102  39.594  30.446  1.00  0.00     0.016 C 
ENDROOT
BRANCH   1   3
ATOM      3  C   UNL     1      14.072  40.882  28.571  1.00  0.00     0.135 C 
ATOM      4  O   UNL     1      14.028  42.091  28.753  1.00  0.00    -0.299 OA
BRANCH   3   5
ATOM      5  C   UNL     1      12.912  40.199  27.897  1.00  0.00     0.072 C 
ATOM      6  C   UNL     1      13.346  38.872  27.285  1.00  0.00     0.012 C 
ENDBRANCH   3   5
ENDBRANCH   1   3
BRANCH   1   7
ATOM      7  C   UNL     1      16.571  40.955  28.904  1.00  0.00     0.038 C 
BRANCH   7   8
ATOM      8  C   UNL     1      17.670  40.244  28.159  1.00  0.00    -0.034 C 
ATOM      9  C   UNL     1      18.417  39.298  28.737  1.00  0.00     0.004 C 
ENDBRANCH   7   8
ENDBRANCH   1   7
TORSDOF 4
ENDMDL
MODEL 7
REMARK VINA RESULT:    -3.302      1.455      3.784
REMARK INTER + INTRA:          -4.484
REMARK INTER:                  -4.277
REMARK INTRA:                  -0.207
REMARK UNBOUND:                -0.410
REMARK SMILES C=CC[C@@H](C)C(=O)CC
REMARK SMILES IDX 4 1 5 2 6 3 7 4 8 5 9 6 3 7 2 8 1 9
REMARK H PARENT
REMARK Flexibility Score: inf
ROOT
ATOM      1  C   UNL     1      12.064  45.939  18.711  1.00  0.00     0.057 C 
ATOM      2  C   UNL     1      10.983  47.025  18.735  1.00  0.00     0.016 C 
ENDROOT
BRANCH   1   3
ATOM      3  C   UNL     1      11.542  44.675  19.366  1.00  0.00     0.135 C 
ATOM      4  O   UNL     1      12.220  43.657  19.346  1.00  0.00    -0.299 OA
BRANCH   3   5
ATOM      5  C   UNL     1      10.204  44.652  20.057  1.00  0.00     0.072 C 
ATOM      6  C   UNL     1       9.440  43.378  19.714  1.00  0.00     0.012 C 
ENDBRANCH   3   5
ENDBRANCH   1   3
BRANCH   1   7
ATOM      7  C   UNL     1      12.527  45.666  17.266  1.00  0.00     0.038 C 
BRANCH   7   8
ATOM      8  C   UNL     1      13.389  46.778  16.726  1.00  0.00    -0.034 C 
ATOM      9  C   UNL     1      14.585  47.061  17.251  1.00  0.00     0.004 C 
ENDBRANCH   7   8
ENDBRANCH   1   7
TORSDOF 4
ENDMDL
MODEL 8
REMARK VINA RESULT:    -3.297      1.754      3.447
REMARK INTER + INTRA:          -4.477
REMARK INTER:                  -4.103
REMARK INTRA:                  -0.374
REMARK UNBOUND:                -0.410
REMARK SMILES C=CC[C@@H](C)C(=O)CC
REMARK SMILES IDX 4 1 5 2 6 3 7 4 8 5 9 6 3 7 2 8 1 9
REMARK H PARENT
REMARK Flexibility Score: inf
ROOT
ATOM      1  C   UNL     1      12.320  46.259  19.017  1.00  0.00     0.057 C 
ATOM      2  C   UNL     1      10.848  46.601  19.268  1.00  0.00     0.016 C 
ENDROOT
BRANCH   1   3
ATOM      3  C   UNL     1      12.755  45.135  19.936  1.00  0.00     0.135 C 
ATOM      4  O   UNL     1      12.332  44.001  19.752  1.00  0.00    -0.299 OA
BRANCH   3   5
ATOM      5  C   UNL     1      13.716  45.384  21.068  1.00  0.00     0.072 C 
ATOM      6  C   UNL     1      15.118  45.658  20.537  1.00  0.00     0.012 C 
ENDBRANCH   3   5
ENDBRANCH   1   3
BRANCH   1   7
ATOM      7  C   UNL     1      12.545  45.886  17.537  1.00  0.00     0.038 C 
BRANCH   7   8
ATOM      8  C   UNL     1      13.397  46.899  16.819  1.00  0.00    -0.034 C 
ATOM      9  C   UNL     1      14.665  47.131  17.171  1.00  0.00     0.004 C 
ENDBRANCH   7   8
ENDBRANCH   1   7
TORSDOF 4
ENDMDL
MODEL 9
REMARK VINA RESULT:    -3.294      1.752      2.156
REMARK INTER + INTRA:          -4.474
REMARK INTER:                  -4.248
REMARK INTRA:                  -0.226
REMARK UNBOUND:                -0.410
REMARK SMILES C=CC[C@@H](C)C(=O)CC
REMARK SMILES IDX 4 1 5 2 6 3 7 4 8 5 9 6 3 7 2 8 1 9
REMARK H PARENT
REMARK Flexibility Score: inf
ROOT
ATOM      1  C   UNL     1      11.335  45.510  19.869  1.00  0.00     0.057 C 
ATOM      2  C   UNL     1      10.078  44.640  19.978  1.00  0.00     0.016 C 
ENDROOT
BRANCH   1   3
ATOM      3  C   UNL     1      12.539  44.644  19.556  1.00  0.00     0.135 C 
ATOM      4  O   UNL     1      12.377  43.501  19.151  1.00  0.00    -0.299 OA
BRANCH   3   5
ATOM      5  C   UNL     1      13.940  45.171  19.721  1.00  0.00     0.072 C 
ATOM      6  C   UNL     1      14.066  45.981  21.006  1.00  0.00     0.012 C 
ENDBRANCH   3   5
ENDBRANCH   1   3
BRANCH   1   7
ATOM      7  C   UNL     1      11.146  46.605  18.800  1.00  0.00     0.038 C 
BRANCH   7   8
ATOM      8  C   UNL     1       9.975  47.502  19.107  1.00  0.00    -0.034 C 
ATOM      9  C   UNL     1       9.691  48.572  18.358  1.00  0.00     0.004 C 
ENDBRANCH   7   8
ENDBRANCH   1   7
TORSDOF 4
ENDMDL
