MODEL 1
REMARK VINA RESULT:    -4.760      0.000      0.000
REMARK INTER + INTRA:         -10.833
REMARK INTER:                  -8.656
REMARK INTRA:                  -2.177
REMARK UNBOUND:                -2.177
REMARK SMILES CCCCCCCCCCCCCCCC(=O)[O-]
REMARK SMILES IDX 9 1 10 2 11 3 12 4 13 5 14 6 15 7 16 8 17 9 18 10 8 11 7 12
REMARK SMILES IDX 6 13 5 14 4 15 3 16 2 17 1 18
REMARK H PARENT
REMARK Flexibility Score: inf
ROOT
ATOM      1  C   UNL     1       4.038   9.988  30.933  1.00  0.00     0.000 C 
ENDROOT
BRANCH   1   2
ATOM      2  C   UNL     1       4.811   9.031  30.011  1.00  0.00     0.000 C 
BRANCH   2   3
ATOM      3  C   UNL     1       4.783   9.474  28.539  1.00  0.00     0.000 C 
BRANCH   3   4
ATOM      4  C   UNL     1       5.941   8.874  27.722  1.00  0.00     0.000 C 
BRANCH   4   5
ATOM      5  C   UNL     1       6.628   7.703  28.445  1.00  0.00     0.000 C 
BRANCH   5   6
ATOM      6  C   UNL     1       7.238   6.680  27.474  1.00  0.00     0.006 C 
BRANCH   6   7
ATOM      7  C   UNL     1       7.404   7.284  26.077  1.00  0.00     0.053 C 
BRANCH   7   8
ATOM      8  C   UNL     1       8.781   7.024  25.552  1.00  0.00     0.041 C 
ATOM      9  O   UNL     1       9.249   7.733  24.623  1.00  0.00    -0.550 OA
ATOM     10  O   UNL     1       9.529   5.968  26.056  1.00  0.00    -0.550 OA
ENDBRANCH   7   8
ENDBRANCH   6   7
ENDBRANCH   5   6
ENDBRANCH   4   5
ENDBRANCH   3   4
ENDBRANCH   2   3
ENDBRANCH   1   2
BRANCH   1  11
ATOM     11  C   UNL     1       4.933  10.495  32.071  1.00  0.00     0.000 C 
BRANCH  11  12
ATOM     12  C   UNL     1       6.235  11.097  31.521  1.00  0.00    -0.000 C 
BRANCH  12  13
ATOM     13  C   UNL     1       7.489  10.474  32.155  1.00  0.00    -0.000 C 
BRANCH  13  14
ATOM     14  C   UNL     1       8.685  10.438  31.186  1.00  0.00    -0.000 C 
BRANCH  14  15
ATOM     15  C   UNL     1       8.295  10.822  29.750  1.00  0.00    -0.000 C 
BRANCH  15  16
ATOM     16  C   UNL     1       9.517  10.964  28.826  1.00  0.00    -0.000 C 
BRANCH  16  17
ATOM     17  C   UNL     1       9.675   9.770  27.872  1.00  0.00    -0.003 C 
ATOM     18  C   UNL     1      10.540   8.652  28.458  1.00  0.00     0.004 C 
ENDBRANCH  16  17
ENDBRANCH  15  16
ENDBRANCH  14  15
ENDBRANCH  13  14
ENDBRANCH  12  13
ENDBRANCH  11  12
ENDBRANCH   1  11
TORSDOF 14
ENDMDL
MODEL 2
REMARK VINA RESULT:    -4.702      1.329      3.646
REMARK INTER + INTRA:         -10.727
REMARK INTER:                  -8.448
REMARK INTRA:                  -2.279
REMARK UNBOUND:                -2.177
REMARK SMILES CCCCCCCCCCCCCCCC(=O)[O-]
REMARK SMILES IDX 9 1 10 2 11 3 12 4 13 5 14 6 15 7 16 8 17 9 18 10 8 11 7 12
REMARK SMILES IDX 6 13 5 14 4 15 3 16 2 17 1 18
REMARK H PARENT
REMARK Flexibility Score: inf
ROOT
ATOM      1  C   UNL     1       8.977   9.286  31.110  1.00  0.00     0.000 C 
ENDROOT
BRANCH   1   2
ATOM      2  C   UNL     1       9.529   9.025  29.699  1.00  0.00     0.000 C 
BRANCH   2   3
ATOM      3  C   UNL     1       9.344  10.226  28.758  1.00  0.00     0.000 C 
BRANCH   3   4
ATOM      4  C   UNL     1       9.506   9.843  27.276  1.00  0.00     0.000 C 
BRANCH   4   5
ATOM      5  C   UNL     1      10.210   8.488  27.090  1.00  0.00     0.000 C 
BRANCH   5   6
ATOM      6  C   UNL     1       9.439   7.539  26.161  1.00  0.00     0.006 C 
BRANCH   6   7
ATOM      7  C   UNL     1       8.335   6.802  26.924  1.00  0.00     0.053 C 
BRANCH   7   8
ATOM      8  C   UNL     1       7.550   5.927  25.999  1.00  0.00     0.041 C 
ATOM      9  O   UNL     1       8.058   5.535  24.916  1.00  0.00    -0.550 OA
ATOM     10  O   UNL     1       6.241   5.584  26.310  1.00  0.00    -0.550 OA
ENDBRANCH   7   8
ENDBRANCH   6   7
ENDBRANCH   5   6
ENDBRANCH   4   5
ENDBRANCH   3   4
ENDBRANCH   2   3
ENDBRANCH   1   2
BRANCH   1  11
ATOM     11  C   UNL     1       8.738  10.785  31.335  1.00  0.00     0.000 C 
BRANCH  11  12
ATOM     12  C   UNL     1       7.414  11.025  32.076  1.00  0.00    -0.000 C 
BRANCH  12  13
ATOM     13  C   UNL     1       6.204  11.056  31.128  1.00  0.00    -0.000 C 
BRANCH  13  14
ATOM     14  C   UNL     1       5.160   9.976  31.468  1.00  0.00    -0.000 C 
BRANCH  14  15
ATOM     15  C   UNL     1       4.647   9.235  30.223  1.00  0.00    -0.000 C 
BRANCH  15  16
ATOM     16  C   UNL     1       5.790   8.700  29.343  1.00  0.00    -0.000 C 
BRANCH  16  17
ATOM     17  C   UNL     1       5.551   8.958  27.847  1.00  0.00    -0.003 C 
ATOM     18  C   UNL     1       5.811  10.412  27.447  1.00  0.00     0.004 C 
ENDBRANCH  16  17
ENDBRANCH  15  16
ENDBRANCH  14  15
ENDBRANCH  13  14
ENDBRANCH  12  13
ENDBRANCH  11  12
ENDBRANCH   1  11
TORSDOF 14
ENDMDL
MODEL 3
REMARK VINA RESULT:    -4.692      1.356      4.079
REMARK INTER + INTRA:         -10.709
REMARK INTER:                  -8.677
REMARK INTRA:                  -2.032
REMARK UNBOUND:                -2.177
REMARK SMILES CCCCCCCCCCCCCCCC(=O)[O-]
REMARK SMILES IDX 9 1 10 2 11 3 12 4 13 5 14 6 15 7 16 8 17 9 18 10 8 11 7 12
REMARK SMILES IDX 6 13 5 14 4 15 3 16 2 17 1 18
REMARK H PARENT
REMARK Flexibility Score: inf
ROOT
ATOM      1  C   UNL     1       9.939   8.903  27.716  1.00  0.00     0.000 C 
ENDROOT
BRANCH   1   2
ATOM      2  C   UNL     1       9.251   9.895  26.766  1.00  0.00     0.000 C 
BRANCH   2   3
ATOM      3  C   UNL     1       8.313  10.867  27.501  1.00  0.00     0.000 C 
BRANCH   3   4
ATOM      4  C   UNL     1       6.881  10.317  27.632  1.00  0.00     0.000 C 
BRANCH   4   5
ATOM      5  C   UNL     1       6.748   8.883  27.094  1.00  0.00     0.000 C 
BRANCH   5   6
ATOM      6  C   UNL     1       6.277   7.887  28.164  1.00  0.00     0.006 C 
BRANCH   6   7
ATOM      7  C   UNL     1       7.133   6.617  28.145  1.00  0.00     0.053 C 
BRANCH   7   8
ATOM      8  C   UNL     1       7.252   6.085  26.751  1.00  0.00     0.041 C 
ATOM      9  O   UNL     1       6.239   5.630  26.158  1.00  0.00    -0.550 OA
ATOM     10  O   UNL     1       8.492   6.046  26.126  1.00  0.00    -0.550 OA
ENDBRANCH   7   8
ENDBRANCH   6   7
ENDBRANCH   5   6
ENDBRANCH   4   5
ENDBRANCH   3   4
ENDBRANCH   2   3
ENDBRANCH   1   2
BRANCH   1  11
ATOM     11  C   UNL     1      10.112   9.513  29.114  1.00  0.00     0.000 C 
BRANCH  11  12
ATOM     12  C   UNL     1       9.484   8.612  30.188  1.00  0.00    -0.000 C 
BRANCH  12  13
ATOM     13  C   UNL     1       9.090   9.390  31.454  1.00  0.00    -0.000 C 
BRANCH  13  14
ATOM     14  C   UNL     1       8.103  10.535  31.160  1.00  0.00    -0.000 C 
BRANCH  14  15
ATOM     15  C   UNL     1       7.211  10.871  32.366  1.00  0.00    -0.000 C 
BRANCH  15  16
ATOM     16  C   UNL     1       5.713  10.842  32.015  1.00  0.00    -0.000 C 
BRANCH  16  17
ATOM     17  C   UNL     1       5.361   9.719  31.028  1.00  0.00    -0.003 C 
ATOM     18  C   UNL     1       3.875   9.692  30.664  1.00  0.00     0.004 C 
ENDBRANCH  16  17
ENDBRANCH  15  16
ENDBRANCH  14  15
ENDBRANCH  13  14
ENDBRANCH  12  13
ENDBRANCH  11  12
ENDBRANCH   1  11
TORSDOF 14
ENDMDL
MODEL 4
REMARK VINA RESULT:    -4.674      2.194      4.898
REMARK INTER + INTRA:         -10.676
REMARK INTER:                  -8.678
REMARK INTRA:                  -1.998
REMARK UNBOUND:                -2.177
REMARK SMILES CCCCCCCCCCCCCCCC(=O)[O-]
REMARK SMILES IDX 9 1 10 2 11 3 12 4 13 5 14 6 15 7 16 8 17 9 18 10 8 11 7 12
REMARK SMILES IDX 6 13 5 14 4 15 3 16 2 17 1 18
REMARK H PARENT
REMARK Flexibility Score: inf
ROOT
ATOM      1  C   UNL     1       4.915   8.283  28.732  1.00  0.00     0.000 C 
ENDROOT
BRANCH   1   2
ATOM      2  C   UNL     1       4.575   8.363  30.229  1.00  0.00     0.000 C 
BRANCH   2   3
ATOM      3  C   UNL     1       4.083   9.757  30.652  1.00  0.00     0.000 C 
BRANCH   3   4
ATOM      4  C   UNL     1       4.883  10.329  31.836  1.00  0.00     0.000 C 
BRANCH   4   5
ATOM      5  C   UNL     1       6.195  10.998  31.394  1.00  0.00     0.000 C 
BRANCH   5   6
ATOM      6  C   UNL     1       7.427  10.422  32.108  1.00  0.00     0.006 C 
BRANCH   6   7
ATOM      7  C   UNL     1       8.649  10.437  31.187  1.00  0.00     0.053 C 
BRANCH   7   8
ATOM      8  C   UNL     1       9.347   9.113  31.218  1.00  0.00     0.041 C 
ATOM      9  O   UNL     1       9.412   8.458  32.291  1.00  0.00    -0.550 OA
ATOM     10  O   UNL     1       9.968   8.627  30.075  1.00  0.00    -0.550 OA
ENDBRANCH   7   8
ENDBRANCH   6   7
ENDBRANCH   5   6
ENDBRANCH   4   5
ENDBRANCH   3   4
ENDBRANCH   2   3
ENDBRANCH   1   2
BRANCH   1  11
ATOM     11  C   UNL     1       4.800   9.662  28.070  1.00  0.00     0.000 C 
BRANCH  11  12
ATOM     12  C   UNL     1       6.155  10.118  27.511  1.00  0.00    -0.000 C 
BRANCH  12  13
ATOM     13  C   UNL     1       7.313   9.211  27.955  1.00  0.00    -0.000 C 
BRANCH  13  14
ATOM     14  C   UNL     1       8.149   8.698  26.768  1.00  0.00    -0.000 C 
BRANCH  14  15
ATOM     15  C   UNL     1       7.328   7.839  25.793  1.00  0.00    -0.000 C 
BRANCH  15  16
ATOM     16  C   UNL     1       7.682   6.345  25.881  1.00  0.00    -0.000 C 
BRANCH  16  17
ATOM     17  C   UNL     1       6.766   5.579  26.848  1.00  0.00    -0.003 C 
ATOM     18  C   UNL     1       7.534   4.910  27.989  1.00  0.00     0.004 C 
ENDBRANCH  16  17
ENDBRANCH  15  16
ENDBRANCH  14  15
ENDBRANCH  13  14
ENDBRANCH  12  13
ENDBRANCH  11  12
ENDBRANCH   1  11
TORSDOF 14
ENDMDL
MODEL 5
REMARK VINA RESULT:    -4.615      2.176      5.142
REMARK INTER + INTRA:         -10.569
REMARK INTER:                  -8.527
REMARK INTRA:                  -2.042
REMARK UNBOUND:                -2.177
REMARK SMILES CCCCCCCCCCCCCCCC(=O)[O-]
REMARK SMILES IDX 9 1 10 2 11 3 12 4 13 5 14 6 15 7 16 8 17 9 18 10 8 11 7 12
REMARK SMILES IDX 6 13 5 14 4 15 3 16 2 17 1 18
REMARK H PARENT
REMARK Flexibility Score: inf
ROOT
ATOM      1  C   UNL     1       6.175   8.279  27.765  1.00  0.00     0.000 C 
ENDROOT
BRANCH   1   2
ATOM      2  C   UNL     1       5.454   9.317  28.640  1.00  0.00     0.000 C 
BRANCH   2   3
ATOM      3  C   UNL     1       4.594   8.672  29.738  1.00  0.00     0.000 C 
BRANCH   3   4
ATOM      4  C   UNL     1       4.532   9.528  31.016  1.00  0.00     0.000 C 
BRANCH   4   5
ATOM      5  C   UNL     1       5.632  10.602  31.061  1.00  0.00     0.000 C 
BRANCH   5   6
ATOM      6  C   UNL     1       6.687  10.328  32.144  1.00  0.00     0.006 C 
BRANCH   6   7
ATOM      7  C   UNL     1       8.039  10.934  31.756  1.00  0.00     0.053 C 
BRANCH   7   8
ATOM      8  C   UNL     1       8.758  10.041  30.794  1.00  0.00     0.041 C 
ATOM      9  O   UNL     1       8.818  10.343  29.574  1.00  0.00    -0.550 OA
ATOM     10  O   UNL     1       9.320   8.851  31.238  1.00  0.00    -0.550 OA
ENDBRANCH   7   8
ENDBRANCH   6   7
ENDBRANCH   5   6
ENDBRANCH   4   5
ENDBRANCH   3   4
ENDBRANCH   2   3
ENDBRANCH   1   2
BRANCH   1  11
ATOM     11  C   UNL     1       7.076   7.376  28.616  1.00  0.00     0.000 C 
BRANCH  11  12
ATOM     12  C   UNL     1       7.253   5.999  27.960  1.00  0.00    -0.000 C 
BRANCH  12  13
ATOM     13  C   UNL     1       6.750   5.968  26.508  1.00  0.00    -0.000 C 
BRANCH  13  14
ATOM     14  C   UNL     1       7.901   5.919  25.486  1.00  0.00    -0.000 C 
BRANCH  14  15
ATOM     15  C   UNL     1       8.094   7.252  24.746  1.00  0.00    -0.000 C 
BRANCH  15  16
ATOM     16  C   UNL     1       9.488   7.860  24.981  1.00  0.00    -0.000 C 
BRANCH  16  17
ATOM     17  C   UNL     1       9.546   8.726  26.248  1.00  0.00    -0.003 C 
ATOM     18  C   UNL     1      10.515   8.180  27.297  1.00  0.00     0.004 C 
ENDBRANCH  16  17
ENDBRANCH  15  16
ENDBRANCH  14  15
ENDBRANCH  13  14
ENDBRANCH  12  13
ENDBRANCH  11  12
ENDBRANCH   1  11
TORSDOF 14
ENDMDL
MODEL 6
REMARK VINA RESULT:    -4.592      1.632      2.988
REMARK INTER + INTRA:         -10.527
REMARK INTER:                  -8.680
REMARK INTRA:                  -1.847
REMARK UNBOUND:                -2.177
REMARK SMILES CCCCCCCCCCCCCCCC(=O)[O-]
REMARK SMILES IDX 9 1 10 2 11 3 12 4 13 5 14 6 15 7 16 8 17 9 18 10 8 11 7 12
REMARK SMILES IDX 6 13 5 14 4 15 3 16 2 17 1 18
REMARK H PARENT
REMARK Flexibility Score: inf
ROOT
ATOM      1  C   UNL     1       7.237  10.826  32.170  1.00  0.00     0.000 C 
ENDROOT
BRANCH   1   2
ATOM      2  C   UNL     1       6.069  11.006  31.187  1.00  0.00     0.000 C 
BRANCH   2   3
ATOM      3  C   UNL     1       4.921  10.015  31.442  1.00  0.00     0.000 C 
BRANCH   3   4
ATOM      4  C   UNL     1       4.685   9.069  30.252  1.00  0.00     0.000 C 
BRANCH   4   5
ATOM      5  C   UNL     1       5.827   9.119  29.223  1.00  0.00     0.000 C 
BRANCH   5   6
ATOM      6  C   UNL     1       6.008   7.793  28.470  1.00  0.00     0.006 C 
BRANCH   6   7
ATOM      7  C   UNL     1       6.770   8.008  27.159  1.00  0.00     0.053 C 
BRANCH   7   8
ATOM      8  C   UNL     1       7.082   6.695  26.511  1.00  0.00     0.041 C 
ATOM      9  O   UNL     1       6.247   5.754  26.554  1.00  0.00    -0.550 OA
ATOM     10  O   UNL     1       8.315   6.496  25.903  1.00  0.00    -0.550 OA
ENDBRANCH   7   8
ENDBRANCH   6   7
ENDBRANCH   5   6
ENDBRANCH   4   5
ENDBRANCH   3   4
ENDBRANCH   2   3
ENDBRANCH   1   2
BRANCH   1  11
ATOM     11  C   UNL     1       8.561  10.637  31.419  1.00  0.00     0.000 C 
BRANCH  11  12
ATOM     12  C   UNL     1       9.100   9.210  31.601  1.00  0.00    -0.000 C 
BRANCH  12  13
ATOM     13  C   UNL     1       9.419   8.524  30.263  1.00  0.00    -0.000 C 
BRANCH  13  14
ATOM     14  C   UNL     1       9.537   9.526  29.100  1.00  0.00    -0.000 C 
BRANCH  14  15
ATOM     15  C   UNL     1      10.281   8.942  27.888  1.00  0.00    -0.000 C 
BRANCH  15  16
ATOM     16  C   UNL     1      10.986   7.614  28.215  1.00  0.00    -0.000 C 
BRANCH  16  17
ATOM     17  C   UNL     1      11.788   7.065  27.025  1.00  0.00    -0.003 C 
ATOM     18  C   UNL     1      11.973   5.548  27.081  1.00  0.00     0.004 C 
ENDBRANCH  16  17
ENDBRANCH  15  16
ENDBRANCH  14  15
ENDBRANCH  13  14
ENDBRANCH  12  13
ENDBRANCH  11  12
ENDBRANCH   1  11
TORSDOF 14
ENDMDL
MODEL 7
REMARK VINA RESULT:    -4.578      2.644      5.665
REMARK INTER + INTRA:         -10.501
REMARK INTER:                  -8.390
REMARK INTRA:                  -2.111
REMARK UNBOUND:                -2.177
REMARK SMILES CCCCCCCCCCCCCCCC(=O)[O-]
REMARK SMILES IDX 9 1 10 2 11 3 12 4 13 5 14 6 15 7 16 8 17 9 18 10 8 11 7 12
REMARK SMILES IDX 6 13 5 14 4 15 3 16 2 17 1 18
REMARK H PARENT
REMARK Flexibility Score: inf
ROOT
ATOM      1  C   UNL     1       8.377   8.142  29.061  1.00  0.00     0.000 C 
ENDROOT
BRANCH   1   2
ATOM      2  C   UNL     1       9.532   8.738  29.880  1.00  0.00     0.000 C 
BRANCH   2   3
ATOM      3  C   UNL     1       9.090   9.207  31.276  1.00  0.00     0.000 C 
BRANCH   3   4
ATOM      4  C   UNL     1       8.234  10.484  31.224  1.00  0.00     0.000 C 
BRANCH   4   5
ATOM      5  C   UNL     1       7.166  10.524  32.330  1.00  0.00     0.000 C 
BRANCH   5   6
ATOM      6  C   UNL     1       5.766  10.151  31.818  1.00  0.00     0.006 C 
BRANCH   6   7
ATOM      7  C   UNL     1       5.679  10.310  30.298  1.00  0.00     0.053 C 
BRANCH   7   8
ATOM      8  C   UNL     1       4.729   9.309  29.718  1.00  0.00     0.041 C 
ATOM      9  O   UNL     1       4.570   8.192  30.275  1.00  0.00    -0.550 OA
ATOM     10  O   UNL     1       4.057   9.593  28.537  1.00  0.00    -0.550 OA
ENDBRANCH   7   8
ENDBRANCH   6   7
ENDBRANCH   5   6
ENDBRANCH   4   5
ENDBRANCH   3   4
ENDBRANCH   2   3
ENDBRANCH   1   2
BRANCH   1  11
ATOM     11  C   UNL     1       8.085   8.998  27.821  1.00  0.00     0.000 C 
BRANCH  11  12
ATOM     12  C   UNL     1       7.009   8.345  26.942  1.00  0.00    -0.000 C 
BRANCH  12  13
ATOM     13  C   UNL     1       6.526   6.998  27.503  1.00  0.00    -0.000 C 
BRANCH  13  14
ATOM     14  C   UNL     1       6.610   5.863  26.465  1.00  0.00    -0.000 C 
BRANCH  14  15
ATOM     15  C   UNL     1       7.436   6.251  25.228  1.00  0.00    -0.000 C 
BRANCH  15  16
ATOM     16  C   UNL     1       8.795   5.531  25.178  1.00  0.00    -0.000 C 
BRANCH  16  17
ATOM     17  C   UNL     1       9.519   5.545  26.532  1.00  0.00    -0.003 C 
ATOM     18  C   UNL     1      10.677   6.543  26.576  1.00  0.00     0.004 C 
ENDBRANCH  16  17
ENDBRANCH  15  16
ENDBRANCH  14  15
ENDBRANCH  13  14
ENDBRANCH  12  13
ENDBRANCH  11  12
ENDBRANCH   1  11
TORSDOF 14
ENDMDL
MODEL 8
REMARK VINA RESULT:    -4.567      3.207      5.357
REMARK INTER + INTRA:         -10.482
REMARK INTER:                  -7.722
REMARK INTRA:                  -2.761
REMARK UNBOUND:                -2.177
REMARK SMILES CCCCCCCCCCCCCCCC(=O)[O-]
REMARK SMILES IDX 9 1 10 2 11 3 12 4 13 5 14 6 15 7 16 8 17 9 18 10 8 11 7 12
REMARK SMILES IDX 6 13 5 14 4 15 3 16 2 17 1 18
REMARK H PARENT
REMARK Flexibility Score: inf
ROOT
ATOM      1  C   UNL     1       9.504   9.055  26.021  1.00  0.00     0.000 C 
ENDROOT
BRANCH   1   2
ATOM      2  C   UNL     1       8.592   7.821  25.925  1.00  0.00     0.000 C 
BRANCH   2   3
ATOM      3  C   UNL     1       7.181   8.082  26.476  1.00  0.00     0.000 C 
BRANCH   3   4
ATOM      4  C   UNL     1       6.786   7.084  27.579  1.00  0.00     0.000 C 
BRANCH   4   5
ATOM      5  C   UNL     1       6.115   7.769  28.782  1.00  0.00     0.000 C 
BRANCH   5   6
ATOM      6  C   UNL     1       5.657   9.202  28.472  1.00  0.00     0.006 C 
BRANCH   6   7
ATOM      7  C   UNL     1       6.155  10.179  29.540  1.00  0.00     0.053 C 
BRANCH   7   8
ATOM      8  C   UNL     1       5.399   9.991  30.818  1.00  0.00     0.041 C 
ATOM      9  O   UNL     1       4.150   9.833  30.796  1.00  0.00    -0.550 OA
ATOM     10  O   UNL     1       6.067  10.039  32.034  1.00  0.00    -0.550 OA
ENDBRANCH   7   8
ENDBRANCH   6   7
ENDBRANCH   5   6
ENDBRANCH   4   5
ENDBRANCH   3   4
ENDBRANCH   2   3
ENDBRANCH   1   2
BRANCH   1  11
ATOM     11  C   UNL     1       9.178   9.881  27.272  1.00  0.00     0.000 C 
BRANCH  11  12
ATOM     12  C   UNL     1      10.211   9.631  28.381  1.00  0.00    -0.000 C 
BRANCH  12  13
ATOM     13  C   UNL     1       9.627   8.847  29.566  1.00  0.00    -0.000 C 
BRANCH  13  14
ATOM     14  C   UNL     1       9.984   7.349  29.516  1.00  0.00    -0.000 C 
BRANCH  14  15
ATOM     15  C   UNL     1      11.217   7.064  28.644  1.00  0.00    -0.000 C 
BRANCH  15  16
ATOM     16  C   UNL     1      11.069   5.772  27.821  1.00  0.00    -0.000 C 
BRANCH  16  17
ATOM     17  C   UNL     1       9.773   5.013  28.145  1.00  0.00    -0.003 C 
ATOM     18  C   UNL     1       9.587   3.762  27.284  1.00  0.00     0.004 C 
ENDBRANCH  16  17
ENDBRANCH  15  16
ENDBRANCH  14  15
ENDBRANCH  13  14
ENDBRANCH  12  13
ENDBRANCH  11  12
ENDBRANCH   1  11
TORSDOF 14
ENDMDL
MODEL 9
REMARK VINA RESULT:    -4.514      2.782      6.096
REMARK INTER + INTRA:         -10.386
REMARK INTER:                  -7.919
REMARK INTRA:                  -2.466
REMARK UNBOUND:                -2.177
REMARK SMILES CCCCCCCCCCCCCCCC(=O)[O-]
REMARK SMILES IDX 9 1 10 2 11 3 12 4 13 5 14 6 15 7 16 8 17 9 18 10 8 11 7 12
REMARK SMILES IDX 6 13 5 14 4 15 3 16 2 17 1 18
REMARK H PARENT
REMARK Flexibility Score: inf
ROOT
ATOM      1  C   UNL     1      11.010   6.162  26.915  1.00  0.00     0.000 C 
ENDROOT
BRANCH   1   2
ATOM      2  C   UNL     1      11.082   7.681  27.135  1.00  0.00     0.000 C 
BRANCH   2   3
ATOM      3  C   UNL     1      10.764   8.087  28.584  1.00  0.00     0.000 C 
BRANCH   3   4
ATOM      4  C   UNL     1      10.029   9.436  28.670  1.00  0.00     0.000 C 
BRANCH   4   5
ATOM      5  C   UNL     1       9.281   9.784  27.372  1.00  0.00     0.000 C 
BRANCH   5   6
ATOM      6  C   UNL     1       7.851  10.284  27.625  1.00  0.00     0.006 C 
BRANCH   6   7
ATOM      7  C   UNL     1       7.186   9.491  28.753  1.00  0.00     0.053 C 
BRANCH   7   8
ATOM      8  C   UNL     1       5.749   9.222  28.430  1.00  0.00     0.041 C 
ATOM      9  O   UNL     1       5.223   9.739  27.411  1.00  0.00    -0.550 OA
ATOM     10  O   UNL     1       4.980   8.441  29.282  1.00  0.00    -0.550 OA
ENDBRANCH   7   8
ENDBRANCH   6   7
ENDBRANCH   5   6
ENDBRANCH   4   5
ENDBRANCH   3   4
ENDBRANCH   2   3
ENDBRANCH   1   2
BRANCH   1  11
ATOM     11  C   UNL     1      10.300   5.472  28.087  1.00  0.00     0.000 C 
BRANCH  11  12
ATOM     12  C   UNL     1       9.488   4.261  27.602  1.00  0.00    -0.000 C 
BRANCH  12  13
ATOM     13  C   UNL     1       8.006   4.346  28.000  1.00  0.00    -0.000 C 
BRANCH  13  14
ATOM     14  C   UNL     1       7.474   5.791  27.990  1.00  0.00    -0.000 C 
BRANCH  14  15
ATOM     15  C   UNL     1       6.700   6.129  26.706  1.00  0.00    -0.000 C 
BRANCH  15  16
ATOM     16  C   UNL     1       7.490   7.059  25.769  1.00  0.00    -0.000 C 
BRANCH  16  17
ATOM     17  C   UNL     1       8.110   6.310  24.581  1.00  0.00    -0.003 C 
ATOM     18  C   UNL     1       7.494   6.711  23.239  1.00  0.00     0.004 C 
ENDBRANCH  16  17
ENDBRANCH  15  16
ENDBRANCH  14  15
ENDBRANCH  13  14
ENDBRANCH  12  13
ENDBRANCH  11  12
ENDBRANCH   1  11
TORSDOF 14
ENDMDL
