MODEL 1
REMARK VINA RESULT:    -3.578      0.000      0.000
REMARK INTER + INTRA:          -5.413
REMARK INTER:                  -5.042
REMARK INTRA:                  -0.370
REMARK UNBOUND:                -0.370
REMARK SMILES C=CCCCCCCC(=O)[O-]
REMARK SMILES IDX 6 1 7 2 8 3 9 4 10 5 11 6 5 7 4 8 3 9 2 10 1 11
REMARK H PARENT
REMARK Flexibility Score: inf
ROOT
ATOM      1  C   UNL     1      61.245  32.447  59.221  1.00  0.00     0.000 C 
ENDROOT
BRANCH   1   2
ATOM      2  C   UNL     1      60.770  31.070  59.708  1.00  0.00     0.006 C 
BRANCH   2   3
ATOM      3  C   UNL     1      61.116  30.824  61.183  1.00  0.00     0.053 C 
BRANCH   3   4
ATOM      4  C   UNL     1      62.205  29.806  61.334  1.00  0.00     0.041 C 
ATOM      5  O   UNL     1      63.410  30.169  61.376  1.00  0.00    -0.550 OA
ATOM      6  O   UNL     1      61.886  28.461  61.462  1.00  0.00    -0.550 OA
ENDBRANCH   3   4
ENDBRANCH   2   3
ENDBRANCH   1   2
BRANCH   1   7
ATOM      7  C   UNL     1      61.824  33.270  60.378  1.00  0.00     0.000 C 
BRANCH   7   8
ATOM      8  C   UNL     1      61.443  34.751  60.245  1.00  0.00     0.004 C 
BRANCH   8   9
ATOM      9  C   UNL     1      62.553  35.683  60.754  1.00  0.00     0.027 C 
BRANCH   9  10
ATOM     10  C   UNL     1      63.863  34.964  60.947  1.00  0.00    -0.035 C 
ATOM     11  C   UNL     1      64.924  35.566  61.490  1.00  0.00     0.004 C 
ENDBRANCH   9  10
ENDBRANCH   8   9
ENDBRANCH   7   8
ENDBRANCH   1   7
TORSDOF 7
ENDMDL
MODEL 2
REMARK VINA RESULT:    -3.455     12.084     13.732
REMARK INTER + INTRA:          -5.240
REMARK INTER:                  -4.876
REMARK INTRA:                  -0.364
REMARK UNBOUND:                -0.370
REMARK SMILES C=CCCCCCCC(=O)[O-]
REMARK SMILES IDX 6 1 7 2 8 3 9 4 10 5 11 6 5 7 4 8 3 9 2 10 1 11
REMARK H PARENT
REMARK Flexibility Score: inf
ROOT
ATOM      1  C   UNL     1      57.768  28.245  50.264  1.00  0.00     0.000 C 
ENDROOT
BRANCH   1   2
ATOM      2  C   UNL     1      58.701  29.318  49.682  1.00  0.00     0.006 C 
BRANCH   2   3
ATOM      3  C   UNL     1      59.806  28.714  48.805  1.00  0.00     0.053 C 
BRANCH   3   4
ATOM      4  C   UNL     1      60.771  27.901  49.613  1.00  0.00     0.041 C 
ATOM      5  O   UNL     1      61.435  28.440  50.537  1.00  0.00    -0.550 OA
ATOM      6  O   UNL     1      60.914  26.542  49.364  1.00  0.00    -0.550 OA
ENDBRANCH   3   4
ENDBRANCH   2   3
ENDBRANCH   1   2
BRANCH   1   7
ATOM      7  C   UNL     1      56.378  28.823  50.551  1.00  0.00     0.000 C 
BRANCH   7   8
ATOM      8  C   UNL     1      55.277  27.926  49.967  1.00  0.00     0.004 C 
BRANCH   8   9
ATOM      9  C   UNL     1      55.768  26.491  49.723  1.00  0.00     0.027 C 
BRANCH   9  10
ATOM     10  C   UNL     1      54.654  25.566  49.309  1.00  0.00    -0.035 C 
ATOM     11  C   UNL     1      53.484  26.028  48.858  1.00  0.00     0.004 C 
ENDBRANCH   9  10
ENDBRANCH   8   9
ENDBRANCH   7   8
ENDBRANCH   1   7
TORSDOF 7
ENDMDL
MODEL 3
REMARK VINA RESULT:    -3.401     12.127     13.355
REMARK INTER + INTRA:          -5.164
REMARK INTER:                  -4.672
REMARK INTRA:                  -0.491
REMARK UNBOUND:                -0.370
REMARK SMILES C=CCCCCCCC(=O)[O-]
REMARK SMILES IDX 6 1 7 2 8 3 9 4 10 5 11 6 5 7 4 8 3 9 2 10 1 11
REMARK H PARENT
REMARK Flexibility Score: inf
ROOT
ATOM      1  C   UNL     1      58.781  28.936  49.691  1.00  0.00     0.000 C 
ENDROOT
BRANCH   1   2
ATOM      2  C   UNL     1      59.931  28.021  49.241  1.00  0.00     0.006 C 
BRANCH   2   3
ATOM      3  C   UNL     1      59.568  26.535  49.352  1.00  0.00     0.053 C 
BRANCH   3   4
ATOM      4  C   UNL     1      60.606  25.767  50.113  1.00  0.00     0.041 C 
ATOM      5  O   UNL     1      61.108  26.248  51.162  1.00  0.00    -0.550 OA
ATOM      6  O   UNL     1      60.994  24.506  49.679  1.00  0.00    -0.550 OA
ENDBRANCH   3   4
ENDBRANCH   2   3
ENDBRANCH   1   2
BRANCH   1   7
ATOM      7  C   UNL     1      57.668  28.127  50.367  1.00  0.00     0.000 C 
BRANCH   7   8
ATOM      8  C   UNL     1      56.353  28.920  50.400  1.00  0.00     0.004 C 
BRANCH   8   9
ATOM      9  C   UNL     1      55.149  28.063  49.981  1.00  0.00     0.027 C 
BRANCH   9  10
ATOM     10  C   UNL     1      55.519  26.618  49.769  1.00  0.00    -0.035 C 
ATOM     11  C   UNL     1      54.731  25.782  49.086  1.00  0.00     0.004 C 
ENDBRANCH   9  10
ENDBRANCH   8   9
ENDBRANCH   7   8
ENDBRANCH   1   7
TORSDOF 7
ENDMDL
MODEL 4
REMARK VINA RESULT:    -3.341      1.507      2.651
REMARK INTER + INTRA:          -5.078
REMARK INTER:                  -4.437
REMARK INTRA:                  -0.641
REMARK UNBOUND:                -0.370
REMARK SMILES C=CCCCCCCC(=O)[O-]
REMARK SMILES IDX 6 1 7 2 8 3 9 4 10 5 11 6 5 7 4 8 3 9 2 10 1 11
REMARK H PARENT
REMARK Flexibility Score: inf
ROOT
ATOM      1  C   UNL     1      64.265  33.253  59.964  1.00  0.00     0.000 C 
ENDROOT
BRANCH   1   2
ATOM      2  C   UNL     1      63.733  31.942  60.562  1.00  0.00     0.006 C 
BRANCH   2   3
ATOM      3  C   UNL     1      62.204  31.847  60.486  1.00  0.00     0.053 C 
BRANCH   3   4
ATOM      4  C   UNL     1      61.676  30.727  61.330  1.00  0.00     0.041 C 
ATOM      5  O   UNL     1      60.534  30.811  61.853  1.00  0.00    -0.550 OA
ATOM      6  O   UNL     1      62.433  29.577  61.512  1.00  0.00    -0.550 OA
ENDBRANCH   3   4
ENDBRANCH   2   3
ENDBRANCH   1   2
BRANCH   1   7
ATOM      7  C   UNL     1      64.155  34.402  60.973  1.00  0.00     0.000 C 
BRANCH   7   8
ATOM      8  C   UNL     1      63.612  35.673  60.303  1.00  0.00     0.004 C 
BRANCH   8   9
ATOM      9  C   UNL     1      62.270  36.116  60.905  1.00  0.00     0.027 C 
BRANCH   9  10
ATOM     10  C   UNL     1      61.094  35.447  60.243  1.00  0.00    -0.035 C 
ATOM     11  C   UNL     1      61.124  35.080  58.959  1.00  0.00     0.004 C 
ENDBRANCH   9  10
ENDBRANCH   8   9
ENDBRANCH   7   8
ENDBRANCH   1   7
TORSDOF 7
ENDMDL
MODEL 5
REMARK VINA RESULT:    -3.328      2.933      4.864
REMARK INTER + INTRA:          -5.060
REMARK INTER:                  -4.411
REMARK INTRA:                  -0.649
REMARK UNBOUND:                -0.370
REMARK SMILES C=CCCCCCCC(=O)[O-]
REMARK SMILES IDX 6 1 7 2 8 3 9 4 10 5 11 6 5 7 4 8 3 9 2 10 1 11
REMARK H PARENT
REMARK Flexibility Score: inf
ROOT
ATOM      1  C   UNL     1      61.686  32.596  59.173  1.00  0.00     0.000 C 
ENDROOT
BRANCH   1   2
ATOM      2  C   UNL     1      62.024  33.499  60.370  1.00  0.00     0.006 C 
BRANCH   2   3
ATOM      3  C   UNL     1      63.536  33.696  60.540  1.00  0.00     0.053 C 
BRANCH   3   4
ATOM      4  C   UNL     1      63.864  35.079  61.014  1.00  0.00     0.041 C 
ATOM      5  O   UNL     1      62.974  35.968  61.040  1.00  0.00    -0.550 OA
ATOM      6  O   UNL     1      65.147  35.375  61.456  1.00  0.00    -0.550 OA
ENDBRANCH   3   4
ENDBRANCH   2   3
ENDBRANCH   1   2
BRANCH   1   7
ATOM      7  C   UNL     1      60.880  31.371  59.620  1.00  0.00     0.000 C 
BRANCH   7   8
ATOM      8  C   UNL     1      60.907  31.221  61.148  1.00  0.00     0.004 C 
BRANCH   8   9
ATOM      9  C   UNL     1      61.588  29.918  61.590  1.00  0.00     0.027 C 
BRANCH   9  10
ATOM     10  C   UNL     1      62.815  29.605  60.774  1.00  0.00    -0.035 C 
ATOM     11  C   UNL     1      64.023  30.068  61.111  1.00  0.00     0.004 C 
ENDBRANCH   9  10
ENDBRANCH   8   9
ENDBRANCH   7   8
ENDBRANCH   1   7
TORSDOF 7
ENDMDL
MODEL 6
REMARK VINA RESULT:    -3.322      3.257      5.268
REMARK INTER + INTRA:          -5.052
REMARK INTER:                  -4.399
REMARK INTRA:                  -0.653
REMARK UNBOUND:                -0.370
REMARK SMILES C=CCCCCCCC(=O)[O-]
REMARK SMILES IDX 6 1 7 2 8 3 9 4 10 5 11 6 5 7 4 8 3 9 2 10 1 11
REMARK H PARENT
REMARK Flexibility Score: inf
ROOT
ATOM      1  C   UNL     1      64.186  32.753  60.285  1.00  0.00     0.000 C 
ENDROOT
BRANCH   1   2
ATOM      2  C   UNL     1      63.149  33.538  59.466  1.00  0.00     0.006 C 
BRANCH   2   3
ATOM      3  C   UNL     1      61.921  33.923  60.300  1.00  0.00     0.053 C 
BRANCH   3   4
ATOM      4  C   UNL     1      61.898  35.389  60.609  1.00  0.00     0.041 C 
ATOM      5  O   UNL     1      60.829  36.044  60.494  1.00  0.00    -0.550 OA
ATOM      6  O   UNL     1      63.050  36.023  61.054  1.00  0.00    -0.550 OA
ENDBRANCH   3   4
ENDBRANCH   2   3
ENDBRANCH   1   2
BRANCH   1   7
ATOM      7  C   UNL     1      64.633  31.490  59.540  1.00  0.00     0.000 C 
BRANCH   7   8
ATOM      8  C   UNL     1      63.643  30.338  59.767  1.00  0.00     0.004 C 
BRANCH   8   9
ATOM      9  C   UNL     1      63.280  30.170  61.250  1.00  0.00     0.027 C 
BRANCH   9  10
ATOM     10  C   UNL     1      61.850  29.739  61.445  1.00  0.00    -0.035 C 
ATOM     11  C   UNL     1      60.851  30.624  61.517  1.00  0.00     0.004 C 
ENDBRANCH   9  10
ENDBRANCH   8   9
ENDBRANCH   7   8
ENDBRANCH   1   7
TORSDOF 7
ENDMDL
MODEL 7
REMARK VINA RESULT:    -3.315      0.905      1.649
REMARK INTER + INTRA:          -5.042
REMARK INTER:                  -4.601
REMARK INTRA:                  -0.441
REMARK UNBOUND:                -0.370
REMARK SMILES C=CCCCCCCC(=O)[O-]
REMARK SMILES IDX 6 1 7 2 8 3 9 4 10 5 11 6 5 7 4 8 3 9 2 10 1 11
REMARK H PARENT
REMARK Flexibility Score: inf
ROOT
ATOM      1  C   UNL     1      61.334  31.989  59.447  1.00  0.00     0.000 C 
ENDROOT
BRANCH   1   2
ATOM      2  C   UNL     1      60.615  30.762  60.028  1.00  0.00     0.006 C 
BRANCH   2   3
ATOM      3  C   UNL     1      61.116  30.406  61.434  1.00  0.00     0.053 C 
BRANCH   3   4
ATOM      4  C   UNL     1      62.268  29.448  61.386  1.00  0.00     0.041 C 
ATOM      5  O   UNL     1      63.451  29.879  61.386  1.00  0.00    -0.550 OA
ATOM      6  O   UNL     1      62.033  28.080  61.374  1.00  0.00    -0.550 OA
ENDBRANCH   3   4
ENDBRANCH   2   3
ENDBRANCH   1   2
BRANCH   1   7
ATOM      7  C   UNL     1      61.675  32.999  60.549  1.00  0.00     0.000 C 
BRANCH   7   8
ATOM      8  C   UNL     1      63.025  33.677  60.276  1.00  0.00     0.004 C 
BRANCH   8   9
ATOM      9  C   UNL     1      62.955  35.201  60.456  1.00  0.00     0.027 C 
BRANCH   9  10
ATOM     10  C   UNL     1      61.546  35.690  60.669  1.00  0.00    -0.035 C 
ATOM     11  C   UNL     1      61.054  36.736  60.000  1.00  0.00     0.004 C 
ENDBRANCH   9  10
ENDBRANCH   8   9
ENDBRANCH   7   8
ENDBRANCH   1   7
TORSDOF 7
ENDMDL
MODEL 8
REMARK VINA RESULT:    -3.237     12.854     13.630
REMARK INTER + INTRA:          -4.932
REMARK INTER:                  -4.561
REMARK INTRA:                  -0.372
REMARK UNBOUND:                -0.370
REMARK SMILES C=CCCCCCCC(=O)[O-]
REMARK SMILES IDX 6 1 7 2 8 3 9 4 10 5 11 6 5 7 4 8 3 9 2 10 1 11
REMARK H PARENT
REMARK Flexibility Score: inf
ROOT
ATOM      1  C   UNL     1      57.761  27.940  50.565  1.00  0.00     0.000 C 
ENDROOT
BRANCH   1   2
ATOM      2  C   UNL     1      56.306  27.755  50.108  1.00  0.00     0.006 C 
BRANCH   2   3
ATOM      3  C   UNL     1      56.001  26.304  49.714  1.00  0.00     0.053 C 
BRANCH   3   4
ATOM      4  C   UNL     1      54.547  26.107  49.409  1.00  0.00     0.041 C 
ATOM      5  O   UNL     1      53.793  27.102  49.245  1.00  0.00    -0.550 OA
ATOM      6  O   UNL     1      54.033  24.824  49.274  1.00  0.00    -0.550 OA
ENDBRANCH   3   4
ENDBRANCH   2   3
ENDBRANCH   1   2
BRANCH   1   7
ATOM      7  C   UNL     1      58.409  29.141  49.866  1.00  0.00     0.000 C 
BRANCH   7   8
ATOM      8  C   UNL     1      59.696  28.726  49.139  1.00  0.00     0.004 C 
BRANCH   8   9
ATOM      9  C   UNL     1      59.979  27.222  49.274  1.00  0.00     0.027 C 
BRANCH   9  10
ATOM     10  C   UNL     1      61.416  26.937  49.625  1.00  0.00    -0.035 C 
ATOM     11  C   UNL     1      61.812  25.733  50.049  1.00  0.00     0.004 C 
ENDBRANCH   9  10
ENDBRANCH   8   9
ENDBRANCH   7   8
ENDBRANCH   1   7
TORSDOF 7
ENDMDL
MODEL 9
REMARK VINA RESULT:    -3.229     12.931     13.748
REMARK INTER + INTRA:          -4.921
REMARK INTER:                  -4.288
REMARK INTRA:                  -0.632
REMARK UNBOUND:                -0.370
REMARK SMILES C=CCCCCCCC(=O)[O-]
REMARK SMILES IDX 6 1 7 2 8 3 9 4 10 5 11 6 5 7 4 8 3 9 2 10 1 11
REMARK H PARENT
REMARK Flexibility Score: inf
ROOT
ATOM      1  C   UNL     1      57.597  26.321  51.095  1.00  0.00     0.000 C 
ENDROOT
BRANCH   1   2
ATOM      2  C   UNL     1      56.649  26.310  49.886  1.00  0.00     0.006 C 
BRANCH   2   3
ATOM      3  C   UNL     1      55.586  27.413  49.971  1.00  0.00     0.053 C 
BRANCH   3   4
ATOM      4  C   UNL     1      54.264  26.950  49.441  1.00  0.00     0.041 C 
ATOM      5  O   UNL     1      53.248  27.688  49.540  1.00  0.00    -0.550 OA
ATOM      6  O   UNL     1      54.161  25.718  48.810  1.00  0.00    -0.550 OA
ENDBRANCH   3   4
ENDBRANCH   2   3
ENDBRANCH   1   2
BRANCH   1   7
ATOM      7  C   UNL     1      58.967  25.743  50.725  1.00  0.00     0.000 C 
BRANCH   7   8
ATOM      8  C   UNL     1      59.440  26.276  49.365  1.00  0.00     0.004 C 
BRANCH   8   9
ATOM      9  C   UNL     1      60.497  27.382  49.512  1.00  0.00     0.027 C 
BRANCH   9  10
ATOM     10  C   UNL     1      60.028  28.701  48.957  1.00  0.00    -0.035 C 
ATOM     11  C   UNL     1      58.963  29.337  49.454  1.00  0.00     0.004 C 
ENDBRANCH   9  10
ENDBRANCH   8   9
ENDBRANCH   7   8
ENDBRANCH   1   7
TORSDOF 7
ENDMDL
