MODEL 1
REMARK VINA RESULT:    -7.375      0.000      0.000
REMARK INTER + INTRA:         -21.403
REMARK INTER:                 -18.584
REMARK INTRA:                  -2.820
REMARK UNBOUND:                -2.820
REMARK SMILES CCCCCCCCCCCCCCCCCCCCCCCCCCCC(=O)[O-]
REMARK SMILES IDX 15 1 16 2 17 3 18 4 19 5 20 6 21 7 22 8 23 9 24 10 25 11
REMARK SMILES IDX 26 12 27 13 28 14 29 15 30 16 14 17 13 18 12 19 11 20 10 21
REMARK SMILES IDX 9 22 8 23 7 24 6 25 5 26 4 27 3 28 2 29 1 30
REMARK H PARENT
REMARK Flexibility Score: inf
ROOT
ATOM      1  C   UNL     1      10.678  72.277  74.819  1.00  0.00     0.000 C 
ENDROOT
BRANCH   1   2
ATOM      2  C   UNL     1      10.384  71.885  76.276  1.00  0.00     0.000 C 
BRANCH   2   3
ATOM      3  C   UNL     1       9.970  73.088  77.142  1.00  0.00     0.000 C 
BRANCH   3   4
ATOM      4  C   UNL     1       8.748  72.802  78.027  1.00  0.00     0.000 C 
BRANCH   4   5
ATOM      5  C   UNL     1       8.193  71.379  77.836  1.00  0.00     0.000 C 
BRANCH   5   6
ATOM      6  C   UNL     1       6.698  71.369  77.474  1.00  0.00     0.000 C 
BRANCH   6   7
ATOM      7  C   UNL     1       6.334  72.366  76.355  1.00  0.00     0.000 C 
BRANCH   7   8
ATOM      8  C   UNL     1       7.015  72.025  75.014  1.00  0.00     0.000 C 
BRANCH   8   9
ATOM      9  C   UNL     1       6.001  71.550  73.959  1.00  0.00     0.000 C 
BRANCH   9  10
ATOM     10  C   UNL     1       6.674  70.895  72.737  1.00  0.00     0.000 C 
BRANCH  10  11
ATOM     11  C   UNL     1       8.194  70.748  72.925  1.00  0.00     0.000 C 
BRANCH  11  12
ATOM     12  C   UNL     1       8.888  70.342  71.613  1.00  0.00     0.006 C 
BRANCH  12  13
ATOM     13  C   UNL     1       9.523  71.552  70.915  1.00  0.00     0.053 C 
BRANCH  13  14
ATOM     14  C   UNL     1      10.998  71.355  70.753  1.00  0.00     0.041 C 
ATOM     15  O   UNL     1      11.751  72.338  70.518  1.00  0.00    -0.550 OA
ATOM     16  O   UNL     1      11.545  70.084  70.890  1.00  0.00    -0.550 OA
ENDBRANCH  13  14
ENDBRANCH  12  13
ENDBRANCH  11  12
ENDBRANCH  10  11
ENDBRANCH   9  10
ENDBRANCH   8   9
ENDBRANCH   7   8
ENDBRANCH   6   7
ENDBRANCH   5   6
ENDBRANCH   4   5
ENDBRANCH   3   4
ENDBRANCH   2   3
ENDBRANCH   1   2
BRANCH   1  17
ATOM     17  C   UNL     1      11.968  71.638  74.281  1.00  0.00     0.000 C 
BRANCH  17  18
ATOM     18  C   UNL     1      12.854  71.143  75.430  1.00  0.00     0.000 C 
BRANCH  18  19
ATOM     19  C   UNL     1      14.177  70.572  74.895  1.00  0.00     0.000 C 
BRANCH  19  20
ATOM     20  C   UNL     1      14.014  69.879  73.529  1.00  0.00     0.000 C 
BRANCH  20  21
ATOM     21  C   UNL     1      14.775  70.550  72.369  1.00  0.00     0.000 C 
BRANCH  21  22
ATOM     22  C   UNL     1      14.782  72.083  72.472  1.00  0.00    -0.000 C 
BRANCH  22  23
ATOM     23  C   UNL     1      16.204  72.646  72.358  1.00  0.00    -0.000 C 
BRANCH  23  24
ATOM     24  C   UNL     1      17.238  71.582  71.948  1.00  0.00    -0.000 C 
BRANCH  24  25
ATOM     25  C   UNL     1      18.673  72.132  71.819  1.00  0.00    -0.000 C 
BRANCH  25  26
ATOM     26  C   UNL     1      19.604  71.586  72.920  1.00  0.00    -0.000 C 
BRANCH  26  27
ATOM     27  C   UNL     1      20.860  70.905  72.352  1.00  0.00    -0.000 C 
BRANCH  27  28
ATOM     28  C   UNL     1      20.705  70.527  70.863  1.00  0.00    -0.000 C 
BRANCH  28  29
ATOM     29  C   UNL     1      20.656  69.010  70.641  1.00  0.00    -0.003 C 
ATOM     30  C   UNL     1      20.028  68.624  69.300  1.00  0.00     0.004 C 
ENDBRANCH  28  29
ENDBRANCH  27  28
ENDBRANCH  26  27
ENDBRANCH  25  26
ENDBRANCH  24  25
ENDBRANCH  23  24
ENDBRANCH  22  23
ENDBRANCH  21  22
ENDBRANCH  20  21
ENDBRANCH  19  20
ENDBRANCH  18  19
ENDBRANCH  17  18
ENDBRANCH   1  17
TORSDOF 26
ENDMDL
MODEL 2
REMARK VINA RESULT:    -7.305      3.274      7.548
REMARK INTER + INTRA:         -21.229
REMARK INTER:                 -17.695
REMARK INTRA:                  -3.534
REMARK UNBOUND:                -2.820
REMARK SMILES CCCCCCCCCCCCCCCCCCCCCCCCCCCC(=O)[O-]
REMARK SMILES IDX 15 1 16 2 17 3 18 4 19 5 20 6 21 7 22 8 23 9 24 10 25 11
REMARK SMILES IDX 26 12 27 13 28 14 29 15 30 16 14 17 13 18 12 19 11 20 10 21
REMARK SMILES IDX 9 22 8 23 7 24 6 25 5 26 4 27 3 28 2 29 1 30
REMARK H PARENT
REMARK Flexibility Score: inf
ROOT
ATOM      1  C   UNL     1      19.113  71.414  71.613  1.00  0.00     0.000 C 
ENDROOT
BRANCH   1   2
ATOM      2  C   UNL     1      19.060  72.950  71.643  1.00  0.00     0.000 C 
BRANCH   2   3
ATOM      3  C   UNL     1      17.620  73.491  71.691  1.00  0.00     0.000 C 
BRANCH   3   4
ATOM      4  C   UNL     1      16.608  72.465  72.220  1.00  0.00     0.000 C 
BRANCH   4   5
ATOM      5  C   UNL     1      16.257  72.681  73.703  1.00  0.00     0.000 C 
BRANCH   5   6
ATOM      6  C   UNL     1      16.190  71.364  74.495  1.00  0.00     0.000 C 
BRANCH   6   7
ATOM      7  C   UNL     1      14.752  70.839  74.687  1.00  0.00     0.000 C 
BRANCH   7   8
ATOM      8  C   UNL     1      14.350  69.809  73.611  1.00  0.00     0.000 C 
BRANCH   8   9
ATOM      9  C   UNL     1      13.585  70.463  72.448  1.00  0.00     0.000 C 
BRANCH   9  10
ATOM     10  C   UNL     1      12.770  71.695  72.889  1.00  0.00     0.000 C 
BRANCH  10  11
ATOM     11  C   UNL     1      11.308  71.619  72.414  1.00  0.00     0.000 C 
BRANCH  11  12
ATOM     12  C   UNL     1      11.192  70.905  71.056  1.00  0.00     0.006 C 
BRANCH  12  13
ATOM     13  C   UNL     1       9.973  69.974  71.013  1.00  0.00     0.053 C 
BRANCH  13  14
ATOM     14  C   UNL     1       8.714  70.760  70.813  1.00  0.00     0.041 C 
ATOM     15  O   UNL     1       7.714  70.562  71.552  1.00  0.00    -0.550 OA
ATOM     16  O   UNL     1       8.658  71.733  69.821  1.00  0.00    -0.550 OA
ENDBRANCH  13  14
ENDBRANCH  12  13
ENDBRANCH  11  12
ENDBRANCH  10  11
ENDBRANCH   9  10
ENDBRANCH   8   9
ENDBRANCH   7   8
ENDBRANCH   6   7
ENDBRANCH   5   6
ENDBRANCH   4   5
ENDBRANCH   3   4
ENDBRANCH   2   3
ENDBRANCH   1   2
BRANCH   1  17
ATOM     17  C   UNL     1      20.381  70.878  70.930  1.00  0.00     0.000 C 
BRANCH  17  18
ATOM     18  C   UNL     1      21.271  72.029  70.445  1.00  0.00     0.000 C 
BRANCH  18  19
ATOM     19  C   UNL     1      22.622  72.022  71.177  1.00  0.00     0.000 C 
BRANCH  19  20
ATOM     20  C   UNL     1      22.659  73.002  72.364  1.00  0.00     0.000 C 
BRANCH  20  21
ATOM     21  C   UNL     1      22.595  72.337  73.753  1.00  0.00     0.000 C 
BRANCH  21  22
ATOM     22  C   UNL     1      22.699  70.806  73.683  1.00  0.00    -0.000 C 
BRANCH  22  23
ATOM     23  C   UNL     1      21.582  70.131  74.488  1.00  0.00    -0.000 C 
BRANCH  23  24
ATOM     24  C   UNL     1      20.425  71.088  74.826  1.00  0.00    -0.000 C 
BRANCH  24  25
ATOM     25  C   UNL     1      19.658  70.703  76.107  1.00  0.00    -0.000 C 
BRANCH  25  26
ATOM     26  C   UNL     1      20.409  69.641  76.934  1.00  0.00    -0.000 C 
BRANCH  26  27
ATOM     27  C   UNL     1      19.638  69.214  78.194  1.00  0.00    -0.000 C 
BRANCH  27  28
ATOM     28  C   UNL     1      18.901  70.394  78.863  1.00  0.00    -0.000 C 
BRANCH  28  29
ATOM     29  C   UNL     1      17.423  70.086  79.140  1.00  0.00    -0.003 C 
ATOM     30  C   UNL     1      16.478  70.742  78.130  1.00  0.00     0.004 C 
ENDBRANCH  28  29
ENDBRANCH  27  28
ENDBRANCH  26  27
ENDBRANCH  25  26
ENDBRANCH  24  25
ENDBRANCH  23  24
ENDBRANCH  22  23
ENDBRANCH  21  22
ENDBRANCH  20  21
ENDBRANCH  19  20
ENDBRANCH  18  19
ENDBRANCH  17  18
ENDBRANCH   1  17
TORSDOF 26
ENDMDL
MODEL 3
REMARK VINA RESULT:    -7.258      3.454      6.729
REMARK INTER + INTRA:         -21.109
REMARK INTER:                 -17.786
REMARK INTRA:                  -3.323
REMARK UNBOUND:                -2.820
REMARK SMILES CCCCCCCCCCCCCCCCCCCCCCCCCCCC(=O)[O-]
REMARK SMILES IDX 15 1 16 2 17 3 18 4 19 5 20 6 21 7 22 8 23 9 24 10 25 11
REMARK SMILES IDX 26 12 27 13 28 14 29 15 30 16 14 17 13 18 12 19 11 20 10 21
REMARK SMILES IDX 9 22 8 23 7 24 6 25 5 26 4 27 3 28 2 29 1 30
REMARK H PARENT
REMARK Flexibility Score: inf
ROOT
ATOM      1  C   UNL     1      17.472  71.560  71.963  1.00  0.00     0.000 C 
ENDROOT
BRANCH   1   2
ATOM      2  C   UNL     1      16.641  72.770  72.422  1.00  0.00     0.000 C 
BRANCH   2   3
ATOM      3  C   UNL     1      16.129  72.622  73.866  1.00  0.00     0.000 C 
BRANCH   3   4
ATOM      4  C   UNL     1      16.294  71.199  74.421  1.00  0.00     0.000 C 
BRANCH   4   5
ATOM      5  C   UNL     1      15.132  70.777  75.338  1.00  0.00     0.000 C 
BRANCH   5   6
ATOM      6  C   UNL     1      14.045  69.983  74.593  1.00  0.00     0.000 C 
BRANCH   6   7
ATOM      7  C   UNL     1      14.243  69.966  73.063  1.00  0.00     0.000 C 
BRANCH   7   8
ATOM      8  C   UNL     1      13.056  70.599  72.307  1.00  0.00     0.000 C 
BRANCH   8   9
ATOM      9  C   UNL     1      12.553  71.878  72.996  1.00  0.00     0.000 C 
BRANCH   9  10
ATOM     10  C   UNL     1      11.625  72.716  72.095  1.00  0.00     0.000 C 
BRANCH  10  11
ATOM     11  C   UNL     1      11.665  72.246  70.631  1.00  0.00     0.000 C 
BRANCH  11  12
ATOM     12  C   UNL     1      10.337  72.537  69.909  1.00  0.00     0.006 C 
BRANCH  12  13
ATOM     13  C   UNL     1       9.292  71.451  70.196  1.00  0.00     0.053 C 
BRANCH  13  14
ATOM     14  C   UNL     1       9.836  70.095  69.870  1.00  0.00     0.041 C 
ATOM     15  O   UNL     1      10.172  69.809  68.689  1.00  0.00    -0.550 OA
ATOM     16  O   UNL     1       9.995  69.153  70.880  1.00  0.00    -0.550 OA
ENDBRANCH  13  14
ENDBRANCH  12  13
ENDBRANCH  11  12
ENDBRANCH  10  11
ENDBRANCH   9  10
ENDBRANCH   8   9
ENDBRANCH   7   8
ENDBRANCH   6   7
ENDBRANCH   5   6
ENDBRANCH   4   5
ENDBRANCH   3   4
ENDBRANCH   2   3
ENDBRANCH   1   2
BRANCH   1  17
ATOM     17  C   UNL     1      18.953  71.906  71.745  1.00  0.00     0.000 C 
BRANCH  17  18
ATOM     18  C   UNL     1      19.728  70.691  71.222  1.00  0.00     0.000 C 
BRANCH  18  19
ATOM     19  C   UNL     1      21.134  71.098  70.753  1.00  0.00     0.000 C 
BRANCH  19  20
ATOM     20  C   UNL     1      21.525  72.515  71.212  1.00  0.00     0.000 C 
BRANCH  20  21
ATOM     21  C   UNL     1      22.655  72.567  72.260  1.00  0.00     0.000 C 
BRANCH  21  22
ATOM     22  C   UNL     1      22.126  72.541  73.702  1.00  0.00    -0.000 C 
BRANCH  22  23
ATOM     23  C   UNL     1      22.537  71.253  74.426  1.00  0.00    -0.000 C 
BRANCH  23  24
ATOM     24  C   UNL     1      21.393  70.228  74.519  1.00  0.00    -0.000 C 
BRANCH  24  25
ATOM     25  C   UNL     1      20.079  70.817  75.073  1.00  0.00    -0.000 C 
BRANCH  25  26
ATOM     26  C   UNL     1      19.871  70.470  76.560  1.00  0.00    -0.000 C 
BRANCH  26  27
ATOM     27  C   UNL     1      20.395  69.071  76.924  1.00  0.00    -0.000 C 
BRANCH  27  28
ATOM     28  C   UNL     1      20.967  69.009  78.356  1.00  0.00    -0.000 C 
BRANCH  28  29
ATOM     29  C   UNL     1      19.893  68.699  79.408  1.00  0.00    -0.003 C 
ATOM     30  C   UNL     1      19.619  69.877  80.345  1.00  0.00     0.004 C 
ENDBRANCH  28  29
ENDBRANCH  27  28
ENDBRANCH  26  27
ENDBRANCH  25  26
ENDBRANCH  24  25
ENDBRANCH  23  24
ENDBRANCH  22  23
ENDBRANCH  21  22
ENDBRANCH  20  21
ENDBRANCH  19  20
ENDBRANCH  18  19
ENDBRANCH  17  18
ENDBRANCH   1  17
TORSDOF 26
ENDMDL
MODEL 4
REMARK VINA RESULT:    -7.258      4.818      8.456
REMARK INTER + INTRA:         -21.109
REMARK INTER:                 -17.341
REMARK INTRA:                  -3.768
REMARK UNBOUND:                -2.820
REMARK SMILES CCCCCCCCCCCCCCCCCCCCCCCCCCCC(=O)[O-]
REMARK SMILES IDX 15 1 16 2 17 3 18 4 19 5 20 6 21 7 22 8 23 9 24 10 25 11
REMARK SMILES IDX 26 12 27 13 28 14 29 15 30 16 14 17 13 18 12 19 11 20 10 21
REMARK SMILES IDX 9 22 8 23 7 24 6 25 5 26 4 27 3 28 2 29 1 30
REMARK H PARENT
REMARK Flexibility Score: inf
ROOT
ATOM      1  C   UNL     1      17.192  73.330  72.426  1.00  0.00     0.000 C 
ENDROOT
BRANCH   1   2
ATOM      2  C   UNL     1      15.825  72.647  72.264  1.00  0.00     0.000 C 
BRANCH   2   3
ATOM      3  C   UNL     1      15.943  71.124  72.076  1.00  0.00     0.000 C 
BRANCH   3   4
ATOM      4  C   UNL     1      14.737  70.353  72.632  1.00  0.00     0.000 C 
BRANCH   4   5
ATOM      5  C   UNL     1      13.623  71.280  73.150  1.00  0.00     0.000 C 
BRANCH   5   6
ATOM      6  C   UNL     1      13.189  70.942  74.587  1.00  0.00     0.000 C 
BRANCH   6   7
ATOM      7  C   UNL     1      14.111  69.915  75.278  1.00  0.00     0.000 C 
BRANCH   7   8
ATOM      8  C   UNL     1      14.896  70.525  76.457  1.00  0.00     0.000 C 
BRANCH   8   9
ATOM      9  C   UNL     1      16.172  71.243  75.986  1.00  0.00     0.000 C 
BRANCH   9  10
ATOM     10  C   UNL     1      17.378  70.982  76.909  1.00  0.00     0.000 C 
BRANCH  10  11
ATOM     11  C   UNL     1      17.858  72.265  77.609  1.00  0.00     0.000 C 
BRANCH  11  12
ATOM     12  C   UNL     1      18.025  72.053  79.124  1.00  0.00     0.006 C 
BRANCH  12  13
ATOM     13  C   UNL     1      18.792  70.759  79.429  1.00  0.00     0.053 C 
BRANCH  13  14
ATOM     14  C   UNL     1      17.992  69.870  80.330  1.00  0.00     0.041 C 
ATOM     15  O   UNL     1      18.346  69.689  81.526  1.00  0.00    -0.550 OA
ATOM     16  O   UNL     1      16.836  69.263  79.852  1.00  0.00    -0.550 OA
ENDBRANCH  13  14
ENDBRANCH  12  13
ENDBRANCH  11  12
ENDBRANCH  10  11
ENDBRANCH   9  10
ENDBRANCH   8   9
ENDBRANCH   7   8
ENDBRANCH   6   7
ENDBRANCH   5   6
ENDBRANCH   4   5
ENDBRANCH   3   4
ENDBRANCH   2   3
ENDBRANCH   1   2
BRANCH   1  17
ATOM     17  C   UNL     1      18.318  72.336  72.754  1.00  0.00     0.000 C 
BRANCH  17  18
ATOM     18  C   UNL     1      19.228  72.120  71.539  1.00  0.00     0.000 C 
BRANCH  18  19
ATOM     19  C   UNL     1      19.858  70.718  71.570  1.00  0.00     0.000 C 
BRANCH  19  20
ATOM     20  C   UNL     1      21.223  70.666  70.858  1.00  0.00     0.000 C 
BRANCH  20  21
ATOM     21  C   UNL     1      21.589  71.937  70.067  1.00  0.00     0.000 C 
BRANCH  21  22
ATOM     22  C   UNL     1      22.871  72.608  70.585  1.00  0.00    -0.000 C 
BRANCH  22  23
ATOM     23  C   UNL     1      22.766  72.935  72.080  1.00  0.00    -0.000 C 
BRANCH  23  24
ATOM     24  C   UNL     1      23.984  72.448  72.886  1.00  0.00    -0.000 C 
BRANCH  24  25
ATOM     25  C   UNL     1      23.610  71.770  74.220  1.00  0.00    -0.000 C 
BRANCH  25  26
ATOM     26  C   UNL     1      22.084  71.642  74.397  1.00  0.00    -0.000 C 
BRANCH  26  27
ATOM     27  C   UNL     1      21.641  70.206  74.724  1.00  0.00    -0.000 C 
BRANCH  27  28
ATOM     28  C   UNL     1      20.515  70.161  75.778  1.00  0.00    -0.000 C 
BRANCH  28  29
ATOM     29  C   UNL     1      20.885  69.312  77.002  1.00  0.00    -0.003 C 
ATOM     30  C   UNL     1      22.396  69.181  77.202  1.00  0.00     0.004 C 
ENDBRANCH  28  29
ENDBRANCH  27  28
ENDBRANCH  26  27
ENDBRANCH  25  26
ENDBRANCH  24  25
ENDBRANCH  23  24
ENDBRANCH  22  23
ENDBRANCH  21  22
ENDBRANCH  20  21
ENDBRANCH  19  20
ENDBRANCH  18  19
ENDBRANCH  17  18
ENDBRANCH   1  17
TORSDOF 26
ENDMDL
MODEL 5
REMARK VINA RESULT:    -7.233      4.665      8.806
REMARK INTER + INTRA:         -21.046
REMARK INTER:                 -17.805
REMARK INTRA:                  -3.242
REMARK UNBOUND:                -2.820
REMARK SMILES CCCCCCCCCCCCCCCCCCCCCCCCCCCC(=O)[O-]
REMARK SMILES IDX 15 1 16 2 17 3 18 4 19 5 20 6 21 7 22 8 23 9 24 10 25 11
REMARK SMILES IDX 26 12 27 13 28 14 29 15 30 16 14 17 13 18 12 19 11 20 10 21
REMARK SMILES IDX 9 22 8 23 7 24 6 25 5 26 4 27 3 28 2 29 1 30
REMARK H PARENT
REMARK Flexibility Score: inf
ROOT
ATOM      1  C   UNL     1      15.130  70.381  76.438  1.00  0.00     0.000 C 
ENDROOT
BRANCH   1   2
ATOM      2  C   UNL     1      13.675  70.261  75.957  1.00  0.00     0.000 C 
BRANCH   2   3
ATOM      3  C   UNL     1      13.485  70.760  74.513  1.00  0.00     0.000 C 
BRANCH   3   4
ATOM      4  C   UNL     1      14.056  69.795  73.464  1.00  0.00     0.000 C 
BRANCH   4   5
ATOM      5  C   UNL     1      14.420  70.497  72.143  1.00  0.00     0.000 C 
BRANCH   5   6
ATOM      6  C   UNL     1      15.868  71.016  72.126  1.00  0.00     0.000 C 
BRANCH   6   7
ATOM      7  C   UNL     1      15.968  72.552  72.226  1.00  0.00     0.000 C 
BRANCH   7   8
ATOM      8  C   UNL     1      17.422  73.041  72.390  1.00  0.00     0.000 C 
BRANCH   8   9
ATOM      9  C   UNL     1      18.438  71.990  71.910  1.00  0.00     0.000 C 
BRANCH   9  10
ATOM     10  C   UNL     1      19.774  72.614  71.462  1.00  0.00     0.000 C 
BRANCH  10  11
ATOM     11  C   UNL     1      20.973  71.709  71.794  1.00  0.00     0.000 C 
BRANCH  11  12
ATOM     12  C   UNL     1      20.704  70.247  71.398  1.00  0.00     0.006 C 
BRANCH  12  13
ATOM     13  C   UNL     1      20.981  70.008  69.907  1.00  0.00     0.053 C 
BRANCH  13  14
ATOM     14  C   UNL     1      20.452  68.674  69.479  1.00  0.00     0.041 C 
ATOM     15  O   UNL     1      19.567  68.090  70.160  1.00  0.00    -0.550 OA
ATOM     16  O   UNL     1      20.920  68.088  68.309  1.00  0.00    -0.550 OA
ENDBRANCH  13  14
ENDBRANCH  12  13
ENDBRANCH  11  12
ENDBRANCH  10  11
ENDBRANCH   9  10
ENDBRANCH   8   9
ENDBRANCH   7   8
ENDBRANCH   6   7
ENDBRANCH   5   6
ENDBRANCH   4   5
ENDBRANCH   3   4
ENDBRANCH   2   3
ENDBRANCH   1   2
BRANCH   1  17
ATOM     17  C   UNL     1      15.933  71.425  75.645  1.00  0.00     0.000 C 
BRANCH  17  18
ATOM     18  C   UNL     1      17.380  71.499  76.147  1.00  0.00     0.000 C 
BRANCH  18  19
ATOM     19  C   UNL     1      17.452  71.213  77.655  1.00  0.00     0.000 C 
BRANCH  19  20
ATOM     20  C   UNL     1      18.393  72.181  78.398  1.00  0.00     0.000 C 
BRANCH  20  21
ATOM     21  C   UNL     1      18.080  72.363  79.897  1.00  0.00     0.000 C 
BRANCH  21  22
ATOM     22  C   UNL     1      18.724  71.278  80.773  1.00  0.00    -0.000 C 
BRANCH  22  23
ATOM     23  C   UNL     1      17.669  70.324  81.348  1.00  0.00    -0.000 C 
BRANCH  23  24
ATOM     24  C   UNL     1      17.293  69.192  80.377  1.00  0.00    -0.000 C 
BRANCH  24  25
ATOM     25  C   UNL     1      18.400  68.133  80.203  1.00  0.00    -0.000 C 
BRANCH  25  26
ATOM     26  C   UNL     1      19.174  68.314  78.882  1.00  0.00    -0.000 C 
BRANCH  26  27
ATOM     27  C   UNL     1      20.670  68.591  79.102  1.00  0.00    -0.000 C 
BRANCH  27  28
ATOM     28  C   UNL     1      21.358  69.154  77.840  1.00  0.00    -0.000 C 
BRANCH  28  29
ATOM     29  C   UNL     1      20.401  69.262  76.644  1.00  0.00    -0.003 C 
ATOM     30  C   UNL     1      20.774  70.393  75.684  1.00  0.00     0.004 C 
ENDBRANCH  28  29
ENDBRANCH  27  28
ENDBRANCH  26  27
ENDBRANCH  25  26
ENDBRANCH  24  25
ENDBRANCH  23  24
ENDBRANCH  22  23
ENDBRANCH  21  22
ENDBRANCH  20  21
ENDBRANCH  19  20
ENDBRANCH  18  19
ENDBRANCH  17  18
ENDBRANCH   1  17
TORSDOF 26
ENDMDL
MODEL 6
REMARK VINA RESULT:    -7.211      3.879      6.292
REMARK INTER + INTRA:         -20.991
REMARK INTER:                 -17.945
REMARK INTRA:                  -3.046
REMARK UNBOUND:                -2.820
REMARK SMILES CCCCCCCCCCCCCCCCCCCCCCCCCCCC(=O)[O-]
REMARK SMILES IDX 15 1 16 2 17 3 18 4 19 5 20 6 21 7 22 8 23 9 24 10 25 11
REMARK SMILES IDX 26 12 27 13 28 14 29 15 30 16 14 17 13 18 12 19 11 20 10 21
REMARK SMILES IDX 9 22 8 23 7 24 6 25 5 26 4 27 3 28 2 29 1 30
REMARK H PARENT
REMARK Flexibility Score: inf
ROOT
ATOM      1  C   UNL     1      14.749  70.380  76.157  1.00  0.00     0.000 C 
ENDROOT
BRANCH   1   2
ATOM      2  C   UNL     1      13.749  70.347  74.989  1.00  0.00     0.000 C 
BRANCH   2   3
ATOM      3  C   UNL     1      14.317  69.641  73.744  1.00  0.00     0.000 C 
BRANCH   3   4
ATOM      4  C   UNL     1      14.099  70.437  72.450  1.00  0.00     0.000 C 
BRANCH   4   5
ATOM      5  C   UNL     1      14.942  71.724  72.391  1.00  0.00     0.000 C 
BRANCH   5   6
ATOM      6  C   UNL     1      14.091  72.998  72.538  1.00  0.00     0.000 C 
BRANCH   6   7
ATOM      7  C   UNL     1      13.061  73.179  71.404  1.00  0.00     0.000 C 
BRANCH   7   8
ATOM      8  C   UNL     1      11.608  73.010  71.892  1.00  0.00     0.000 C 
BRANCH   8   9
ATOM      9  C   UNL     1      11.510  73.054  73.427  1.00  0.00     0.000 C 
BRANCH   9  10
ATOM     10  C   UNL     1      10.581  71.964  73.996  1.00  0.00     0.000 C 
BRANCH  10  11
ATOM     11  C   UNL     1      10.390  72.104  75.517  1.00  0.00     0.000 C 
BRANCH  11  12
ATOM     12  C   UNL     1       8.900  72.179  75.894  1.00  0.00     0.006 C 
BRANCH  12  13
ATOM     13  C   UNL     1       8.017  71.509  74.832  1.00  0.00     0.053 C 
BRANCH  13  14
ATOM     14  C   UNL     1       6.571  71.803  75.086  1.00  0.00     0.041 C 
ATOM     15  O   UNL     1       5.836  72.236  74.159  1.00  0.00    -0.550 OA
ATOM     16  O   UNL     1       6.030  71.571  76.345  1.00  0.00    -0.550 OA
ENDBRANCH  13  14
ENDBRANCH  12  13
ENDBRANCH  11  12
ENDBRANCH  10  11
ENDBRANCH   9  10
ENDBRANCH   8   9
ENDBRANCH   7   8
ENDBRANCH   6   7
ENDBRANCH   5   6
ENDBRANCH   4   5
ENDBRANCH   3   4
ENDBRANCH   2   3
ENDBRANCH   1   2
BRANCH   1  17
ATOM     17  C   UNL     1      16.055  71.106  75.800  1.00  0.00     0.000 C 
BRANCH  17  18
ATOM     18  C   UNL     1      16.883  71.394  77.059  1.00  0.00     0.000 C 
BRANCH  18  19
ATOM     19  C   UNL     1      16.276  70.694  78.285  1.00  0.00     0.000 C 
BRANCH  19  20
ATOM     20  C   UNL     1      17.267  70.591  79.460  1.00  0.00     0.000 C 
BRANCH  20  21
ATOM     21  C   UNL     1      17.425  69.175  80.050  1.00  0.00     0.000 C 
BRANCH  21  22
ATOM     22  C   UNL     1      18.798  68.956  80.705  1.00  0.00    -0.000 C 
BRANCH  22  23
ATOM     23  C   UNL     1      19.926  69.550  79.851  1.00  0.00    -0.000 C 
BRANCH  23  24
ATOM     24  C   UNL     1      20.540  68.530  78.877  1.00  0.00    -0.000 C 
BRANCH  24  25
ATOM     25  C   UNL     1      21.141  69.171  77.609  1.00  0.00    -0.000 C 
BRANCH  25  26
ATOM     26  C   UNL     1      20.056  69.779  76.698  1.00  0.00    -0.000 C 
BRANCH  26  27
ATOM     27  C   UNL     1      20.604  70.216  75.330  1.00  0.00    -0.000 C 
BRANCH  27  28
ATOM     28  C   UNL     1      19.621  71.125  74.563  1.00  0.00    -0.000 C 
BRANCH  28  29
ATOM     29  C   UNL     1      20.073  71.402  73.123  1.00  0.00    -0.003 C 
ATOM     30  C   UNL     1      18.903  71.565  72.151  1.00  0.00     0.004 C 
ENDBRANCH  28  29
ENDBRANCH  27  28
ENDBRANCH  26  27
ENDBRANCH  25  26
ENDBRANCH  24  25
ENDBRANCH  23  24
ENDBRANCH  22  23
ENDBRANCH  21  22
ENDBRANCH  20  21
ENDBRANCH  19  20
ENDBRANCH  18  19
ENDBRANCH  17  18
ENDBRANCH   1  17
TORSDOF 26
ENDMDL
MODEL 7
REMARK VINA RESULT:    -7.205      3.993      6.451
REMARK INTER + INTRA:         -20.976
REMARK INTER:                 -17.874
REMARK INTRA:                  -3.102
REMARK UNBOUND:                -2.820
REMARK SMILES CCCCCCCCCCCCCCCCCCCCCCCCCCCC(=O)[O-]
REMARK SMILES IDX 15 1 16 2 17 3 18 4 19 5 20 6 21 7 22 8 23 9 24 10 25 11
REMARK SMILES IDX 26 12 27 13 28 14 29 15 30 16 14 17 13 18 12 19 11 20 10 21
REMARK SMILES IDX 9 22 8 23 7 24 6 25 5 26 4 27 3 28 2 29 1 30
REMARK H PARENT
REMARK Flexibility Score: inf
ROOT
ATOM      1  C   UNL     1      16.023  70.629  77.988  1.00  0.00     0.000 C 
ENDROOT
BRANCH   1   2
ATOM      2  C   UNL     1      15.617  70.742  76.509  1.00  0.00     0.000 C 
BRANCH   2   3
ATOM      3  C   UNL     1      14.236  70.124  76.226  1.00  0.00     0.000 C 
BRANCH   3   4
ATOM      4  C   UNL     1      14.000  69.835  74.736  1.00  0.00     0.000 C 
BRANCH   4   5
ATOM      5  C   UNL     1      14.920  70.656  73.815  1.00  0.00     0.000 C 
BRANCH   5   6
ATOM      6  C   UNL     1      14.303  70.906  72.429  1.00  0.00     0.000 C 
BRANCH   6   7
ATOM      7  C   UNL     1      13.731  72.330  72.263  1.00  0.00     0.000 C 
BRANCH   7   8
ATOM      8  C   UNL     1      12.190  72.343  72.197  1.00  0.00     0.000 C 
BRANCH   8   9
ATOM      9  C   UNL     1      11.568  73.010  73.436  1.00  0.00     0.000 C 
BRANCH   9  10
ATOM     10  C   UNL     1      10.707  72.038  74.266  1.00  0.00     0.000 C 
BRANCH  10  11
ATOM     11  C   UNL     1      10.988  72.162  75.774  1.00  0.00     0.000 C 
BRANCH  11  12
ATOM     12  C   UNL     1       9.711  72.502  76.561  1.00  0.00     0.006 C 
BRANCH  12  13
ATOM     13  C   UNL     1       8.583  71.506  76.259  1.00  0.00     0.053 C 
BRANCH  13  14
ATOM     14  C   UNL     1       7.260  72.058  76.692  1.00  0.00     0.041 C 
ATOM     15  O   UNL     1       7.205  73.007  77.519  1.00  0.00    -0.550 OA
ATOM     16  O   UNL     1       6.086  71.538  76.159  1.00  0.00    -0.550 OA
ENDBRANCH  13  14
ENDBRANCH  12  13
ENDBRANCH  11  12
ENDBRANCH  10  11
ENDBRANCH   9  10
ENDBRANCH   8   9
ENDBRANCH   7   8
ENDBRANCH   6   7
ENDBRANCH   5   6
ENDBRANCH   4   5
ENDBRANCH   3   4
ENDBRANCH   2   3
ENDBRANCH   1   2
BRANCH   1  17
ATOM     17  C   UNL     1      17.282  71.445  78.321  1.00  0.00     0.000 C 
BRANCH  17  18
ATOM     18  C   UNL     1      17.795  71.110  79.727  1.00  0.00     0.000 C 
BRANCH  18  19
ATOM     19  C   UNL     1      17.321  69.715  80.165  1.00  0.00     0.000 C 
BRANCH  19  20
ATOM     20  C   UNL     1      18.244  68.590  79.660  1.00  0.00     0.000 C 
BRANCH  20  21
ATOM     21  C   UNL     1      19.711  68.700  80.124  1.00  0.00     0.000 C 
BRANCH  21  22
ATOM     22  C   UNL     1      20.709  68.600  78.960  1.00  0.00    -0.000 C 
BRANCH  22  23
ATOM     23  C   UNL     1      20.034  68.903  77.616  1.00  0.00    -0.000 C 
BRANCH  23  24
ATOM     24  C   UNL     1      20.689  70.078  76.869  1.00  0.00    -0.000 C 
BRANCH  24  25
ATOM     25  C   UNL     1      19.942  70.485  75.582  1.00  0.00    -0.000 C 
BRANCH  25  26
ATOM     26  C   UNL     1      20.844  70.394  74.336  1.00  0.00    -0.000 C 
BRANCH  26  27
ATOM     27  C   UNL     1      20.103  70.754  73.037  1.00  0.00    -0.000 C 
BRANCH  27  28
ATOM     28  C   UNL     1      18.826  71.582  73.297  1.00  0.00    -0.000 C 
BRANCH  28  29
ATOM     29  C   UNL     1      17.973  71.765  72.034  1.00  0.00    -0.003 C 
ATOM     30  C   UNL     1      17.326  73.148  71.947  1.00  0.00     0.004 C 
ENDBRANCH  28  29
ENDBRANCH  27  28
ENDBRANCH  26  27
ENDBRANCH  25  26
ENDBRANCH  24  25
ENDBRANCH  23  24
ENDBRANCH  22  23
ENDBRANCH  21  22
ENDBRANCH  20  21
ENDBRANCH  19  20
ENDBRANCH  18  19
ENDBRANCH  17  18
ENDBRANCH   1  17
TORSDOF 26
ENDMDL
MODEL 8
REMARK VINA RESULT:    -7.197      4.097      6.756
REMARK INTER + INTRA:         -20.957
REMARK INTER:                 -17.612
REMARK INTRA:                  -3.345
REMARK UNBOUND:                -2.820
REMARK SMILES CCCCCCCCCCCCCCCCCCCCCCCCCCCC(=O)[O-]
REMARK SMILES IDX 15 1 16 2 17 3 18 4 19 5 20 6 21 7 22 8 23 9 24 10 25 11
REMARK SMILES IDX 26 12 27 13 28 14 29 15 30 16 14 17 13 18 12 19 11 20 10 21
REMARK SMILES IDX 9 22 8 23 7 24 6 25 5 26 4 27 3 28 2 29 1 30
REMARK H PARENT
REMARK Flexibility Score: inf
ROOT
ATOM      1  C   UNL     1      13.997  69.649  73.754  1.00  0.00     0.000 C 
ENDROOT
BRANCH   1   2
ATOM      2  C   UNL     1      14.488  70.216  72.412  1.00  0.00     0.000 C 
BRANCH   2   3
ATOM      3  C   UNL     1      15.692  71.161  72.574  1.00  0.00     0.000 C 
BRANCH   3   4
ATOM      4  C   UNL     1      15.407  72.588  72.087  1.00  0.00     0.000 C 
BRANCH   4   5
ATOM      5  C   UNL     1      14.038  73.117  72.553  1.00  0.00     0.000 C 
BRANCH   5   6
ATOM      6  C   UNL     1      13.091  73.429  71.382  1.00  0.00     0.000 C 
BRANCH   6   7
ATOM      7  C   UNL     1      11.599  73.358  71.767  1.00  0.00     0.000 C 
BRANCH   7   8
ATOM      8  C   UNL     1      11.054  71.914  71.760  1.00  0.00     0.000 C 
BRANCH   8   9
ATOM      9  C   UNL     1      10.310  71.575  73.063  1.00  0.00     0.000 C 
BRANCH   9  10
ATOM     10  C   UNL     1      10.805  72.403  74.265  1.00  0.00     0.000 C 
BRANCH  10  11
ATOM     11  C   UNL     1      10.069  72.032  75.564  1.00  0.00     0.000 C 
BRANCH  11  12
ATOM     12  C   UNL     1       8.599  71.665  75.295  1.00  0.00     0.006 C 
BRANCH  12  13
ATOM     13  C   UNL     1       7.679  72.173  76.412  1.00  0.00     0.053 C 
BRANCH  13  14
ATOM     14  C   UNL     1       6.241  72.003  76.031  1.00  0.00     0.041 C 
ATOM     15  O   UNL     1       5.327  72.262  76.859  1.00  0.00    -0.550 OA
ATOM     16  O   UNL     1       5.911  71.582  74.748  1.00  0.00    -0.550 OA
ENDBRANCH  13  14
ENDBRANCH  12  13
ENDBRANCH  11  12
ENDBRANCH  10  11
ENDBRANCH   9  10
ENDBRANCH   8   9
ENDBRANCH   7   8
ENDBRANCH   6   7
ENDBRANCH   5   6
ENDBRANCH   4   5
ENDBRANCH   3   4
ENDBRANCH   2   3
ENDBRANCH   1   2
BRANCH   1  17
ATOM     17  C   UNL     1      14.092  70.668  74.900  1.00  0.00     0.000 C 
BRANCH  17  18
ATOM     18  C   UNL     1      14.370  69.967  76.235  1.00  0.00     0.000 C 
BRANCH  18  19
ATOM     19  C   UNL     1      15.489  70.683  77.008  1.00  0.00     0.000 C 
BRANCH  19  20
ATOM     20  C   UNL     1      16.568  71.271  76.080  1.00  0.00     0.000 C 
BRANCH  20  21
ATOM     21  C   UNL     1      17.868  71.698  76.789  1.00  0.00     0.000 C 
BRANCH  21  22
ATOM     22  C   UNL     1      19.099  71.613  75.873  1.00  0.00    -0.000 C 
BRANCH  22  23
ATOM     23  C   UNL     1      19.729  70.216  75.910  1.00  0.00    -0.000 C 
BRANCH  23  24
ATOM     24  C   UNL     1      20.450  69.919  77.237  1.00  0.00    -0.000 C 
BRANCH  24  25
ATOM     25  C   UNL     1      19.895  68.686  77.979  1.00  0.00    -0.000 C 
BRANCH  25  26
ATOM     26  C   UNL     1      20.401  68.609  79.433  1.00  0.00    -0.000 C 
BRANCH  26  27
ATOM     27  C   UNL     1      19.258  68.594  80.461  1.00  0.00    -0.000 C 
BRANCH  27  28
ATOM     28  C   UNL     1      17.888  68.909  79.825  1.00  0.00    -0.000 C 
BRANCH  28  29
ATOM     29  C   UNL     1      17.284  70.222  80.341  1.00  0.00    -0.003 C 
ATOM     30  C   UNL     1      18.273  71.388  80.304  1.00  0.00     0.004 C 
ENDBRANCH  28  29
ENDBRANCH  27  28
ENDBRANCH  26  27
ENDBRANCH  25  26
ENDBRANCH  24  25
ENDBRANCH  23  24
ENDBRANCH  22  23
ENDBRANCH  21  22
ENDBRANCH  20  21
ENDBRANCH  19  20
ENDBRANCH  18  19
ENDBRANCH  17  18
ENDBRANCH   1  17
TORSDOF 26
ENDMDL
MODEL 9
REMARK VINA RESULT:    -7.175      3.295      7.080
REMARK INTER + INTRA:         -20.900
REMARK INTER:                 -17.711
REMARK INTRA:                  -3.189
REMARK UNBOUND:                -2.820
REMARK SMILES CCCCCCCCCCCCCCCCCCCCCCCCCCCC(=O)[O-]
REMARK SMILES IDX 15 1 16 2 17 3 18 4 19 5 20 6 21 7 22 8 23 9 24 10 25 11
REMARK SMILES IDX 26 12 27 13 28 14 29 15 30 16 14 17 13 18 12 19 11 20 10 21
REMARK SMILES IDX 9 22 8 23 7 24 6 25 5 26 4 27 3 28 2 29 1 30
REMARK H PARENT
REMARK Flexibility Score: inf
ROOT
ATOM      1  C   UNL     1      19.491  69.132  78.452  1.00  0.00     0.000 C 
ENDROOT
BRANCH   1   2
ATOM      2  C   UNL     1      19.175  70.327  79.365  1.00  0.00     0.000 C 
BRANCH   2   3
ATOM      3  C   UNL     1      18.107  71.261  78.768  1.00  0.00     0.000 C 
BRANCH   3   4
ATOM      4  C   UNL     1      16.847  70.517  78.305  1.00  0.00     0.000 C 
BRANCH   4   5
ATOM      5  C   UNL     1      16.268  71.079  76.995  1.00  0.00     0.000 C 
BRANCH   5   6
ATOM      6  C   UNL     1      17.357  71.590  76.036  1.00  0.00     0.000 C 
BRANCH   6   7
ATOM      7  C   UNL     1      17.022  71.351  74.548  1.00  0.00     0.000 C 
BRANCH   7   8
ATOM      8  C   UNL     1      16.240  72.525  73.923  1.00  0.00     0.000 C 
BRANCH   8   9
ATOM      9  C   UNL     1      15.721  72.183  72.515  1.00  0.00     0.000 C 
BRANCH   9  10
ATOM     10  C   UNL     1      15.352  70.695  72.361  1.00  0.00     0.000 C 
BRANCH  10  11
ATOM     11  C   UNL     1      13.868  70.434  72.668  1.00  0.00     0.000 C 
BRANCH  11  12
ATOM     12  C   UNL     1      12.966  71.528  72.070  1.00  0.00     0.006 C 
BRANCH  12  13
ATOM     13  C   UNL     1      11.688  70.933  71.463  1.00  0.00     0.053 C 
BRANCH  13  14
ATOM     14  C   UNL     1      10.494  71.289  72.294  1.00  0.00     0.041 C 
ATOM     15  O   UNL     1      10.582  72.166  73.195  1.00  0.00    -0.550 OA
ATOM     16  O   UNL     1       9.274  70.667  72.053  1.00  0.00    -0.550 OA
ENDBRANCH  13  14
ENDBRANCH  12  13
ENDBRANCH  11  12
ENDBRANCH  10  11
ENDBRANCH   9  10
ENDBRANCH   8   9
ENDBRANCH   7   8
ENDBRANCH   6   7
ENDBRANCH   5   6
ENDBRANCH   4   5
ENDBRANCH   3   4
ENDBRANCH   2   3
ENDBRANCH   1   2
BRANCH   1  17
ATOM     17  C   UNL     1      21.000  68.880  78.306  1.00  0.00     0.000 C 
BRANCH  17  18
ATOM     18  C   UNL     1      21.537  69.504  77.013  1.00  0.00     0.000 C 
BRANCH  18  19
ATOM     19  C   UNL     1      20.384  69.921  76.086  1.00  0.00     0.000 C 
BRANCH  19  20
ATOM     20  C   UNL     1      20.873  70.658  74.825  1.00  0.00     0.000 C 
BRANCH  20  21
ATOM     21  C   UNL     1      22.317  70.325  74.401  1.00  0.00     0.000 C 
BRANCH  21  22
ATOM     22  C   UNL     1      23.221  71.566  74.354  1.00  0.00    -0.000 C 
BRANCH  22  23
ATOM     23  C   UNL     1      23.694  71.860  72.925  1.00  0.00    -0.000 C 
BRANCH  23  24
ATOM     24  C   UNL     1      22.872  72.964  72.237  1.00  0.00    -0.000 C 
BRANCH  24  25
ATOM     25  C   UNL     1      22.829  72.837  70.701  1.00  0.00    -0.000 C 
BRANCH  25  26
ATOM     26  C   UNL     1      21.699  71.900  70.229  1.00  0.00    -0.000 C 
BRANCH  26  27
ATOM     27  C   UNL     1      20.462  71.954  71.141  1.00  0.00    -0.000 C 
BRANCH  27  28
ATOM     28  C   UNL     1      19.753  70.588  71.255  1.00  0.00    -0.000 C 
BRANCH  28  29
ATOM     29  C   UNL     1      20.665  69.415  70.871  1.00  0.00    -0.003 C 
ATOM     30  C   UNL     1      20.224  68.713  69.585  1.00  0.00     0.004 C 
ENDBRANCH  28  29
ENDBRANCH  27  28
ENDBRANCH  26  27
ENDBRANCH  25  26
ENDBRANCH  24  25
ENDBRANCH  23  24
ENDBRANCH  22  23
ENDBRANCH  21  22
ENDBRANCH  20  21
ENDBRANCH  19  20
ENDBRANCH  18  19
ENDBRANCH  17  18
ENDBRANCH   1  17
TORSDOF 26
ENDMDL
