MODEL 1
REMARK VINA RESULT:    -5.913      0.000      0.000
REMARK INTER + INTRA:          -7.686
REMARK INTER:                  -7.296
REMARK INTRA:                  -0.389
REMARK UNBOUND:                -0.389
REMARK SMILES COc1cc(-c2oc3cc(O)cc(O)c3c(=O)c2O)ccc1O
REMARK SMILES IDX 6 1 18 2 16 3 17 4 15 5 13 6 12 7 10 8 9 9 8 10 7 11 5 12
REMARK SMILES IDX 3 13 22 14 4 15 21 16 20 17 2 18 1 19 23 20 19 22 14 24
REMARK SMILES IDX 11 26
REMARK H PARENT 23 21 19 23 14 25 11 27
REMARK Flexibility Score: inf
ROOT
ATOM      1  C   UNL     1      19.128  -2.244  -8.287  1.00  0.00     0.180 A 
ATOM      2  C   UNL     1      19.017  -2.752  -6.981  1.00  0.00     0.208 A 
ATOM      3  C   UNL     1      20.185  -3.094  -6.281  1.00  0.00     0.238 A 
ATOM      4  O   UNL     1      20.082  -3.497  -5.094  1.00  0.00    -0.285 OA
ATOM      5  C   UNL     1      21.449  -2.940  -6.902  1.00  0.00     0.111 A 
ATOM      6  C   UNL     1      22.694  -3.292  -6.302  1.00  0.00     0.134 A 
ATOM      7  C   UNL     1      23.891  -2.974  -6.957  1.00  0.00     0.093 A 
ATOM      8  C   UNL     1      23.884  -2.377  -8.219  1.00  0.00     0.123 A 
ATOM      9  C   UNL     1      22.672  -2.084  -8.840  1.00  0.00     0.094 A 
ATOM     10  C   UNL     1      21.463  -2.355  -8.195  1.00  0.00     0.146 A 
ATOM     11  O   UNL     1      20.330  -2.050  -8.816  1.00  0.00    -0.452 OA
ENDROOT
BRANCH   1  12
ATOM     12  C   UNL     1      17.941  -1.884  -9.096  1.00  0.00     0.025 A 
ATOM     13  C   UNL     1      16.113  -2.577 -10.567  1.00  0.00     0.161 A 
ATOM     14  C   UNL     1      15.645  -1.251 -10.595  1.00  0.00     0.157 A 
ATOM     15  C   UNL     1      17.260  -2.885  -9.808  1.00  0.00     0.062 A 
ATOM     16  C   UNL     1      16.310  -0.259  -9.869  1.00  0.00     0.051 A 
ATOM     17  C   UNL     1      17.444  -0.571  -9.118  1.00  0.00     0.016 A 
BRANCH  13  18
ATOM     18  O   UNL     1      15.421  -3.555 -11.299  1.00  0.00    -0.493 OA
ATOM     19  C   UNL     1      14.708  -4.643 -10.720  1.00  0.00     0.278 C 
ENDBRANCH  13  18
BRANCH  14  20
ATOM     20  O   UNL     1      14.515  -0.901 -11.333  1.00  0.00    -0.504 OA
ATOM     21  H   UNL     1      14.481  -0.989 -12.343  1.00  0.00     0.293 HD
ENDBRANCH  14  20
ENDBRANCH   1  12
BRANCH   2  22
ATOM     22  O   UNL     1      17.761  -2.876  -6.380  1.00  0.00    -0.502 OA
ATOM     23  H   UNL     1      17.617  -3.398  -5.524  1.00  0.00     0.293 HD
ENDBRANCH   2  22
BRANCH   6  24
ATOM     24  O   UNL     1      22.810  -3.974  -5.086  1.00  0.00    -0.507 OA
ATOM     25  H   UNL     1      22.159  -4.668  -4.753  1.00  0.00     0.293 HD
ENDBRANCH   6  24
BRANCH   8  26
ATOM     26  O   UNL     1      25.079  -2.079  -8.870  1.00  0.00    -0.508 OA
ATOM     27  H   UNL     1      25.976  -2.209  -8.418  1.00  0.00     0.293 HD
ENDBRANCH   8  26
TORSDOF 6
ENDMDL
MODEL 2
REMARK VINA RESULT:    -5.879      6.363     11.418
REMARK INTER + INTRA:          -7.643
REMARK INTER:                  -7.939
REMARK INTRA:                   0.296
REMARK UNBOUND:                -0.389
REMARK SMILES COc1cc(-c2oc3cc(O)cc(O)c3c(=O)c2O)ccc1O
REMARK SMILES IDX 6 1 18 2 16 3 17 4 15 5 13 6 12 7 10 8 9 9 8 10 7 11 5 12
REMARK SMILES IDX 3 13 22 14 4 15 21 16 20 17 2 18 1 19 23 20 19 22 14 24
REMARK SMILES IDX 11 26
REMARK H PARENT 23 21 19 23 14 25 11 27
REMARK Flexibility Score: inf
ROOT
ATOM      1  C   UNL     1      10.813  -7.128  -9.518  1.00  0.00     0.180 A 
ATOM      2  C   UNL     1       9.822  -8.092  -9.775  1.00  0.00     0.208 A 
ATOM      3  C   UNL     1       8.771  -8.251  -8.858  1.00  0.00     0.238 A 
ATOM      4  O   UNL     1       7.860  -9.077  -9.120  1.00  0.00    -0.285 OA
ATOM      5  C   UNL     1       8.733  -7.455  -7.687  1.00  0.00     0.111 A 
ATOM      6  C   UNL     1       7.737  -7.559  -6.670  1.00  0.00     0.134 A 
ATOM      7  C   UNL     1       7.724  -6.633  -5.619  1.00  0.00     0.093 A 
ATOM      8  C   UNL     1       8.709  -5.648  -5.515  1.00  0.00     0.123 A 
ATOM      9  C   UNL     1       9.720  -5.576  -6.471  1.00  0.00     0.094 A 
ATOM     10  C   UNL     1       9.738  -6.463  -7.550  1.00  0.00     0.146 A 
ATOM     11  O   UNL     1      10.712  -6.353  -8.444  1.00  0.00    -0.452 OA
ENDROOT
BRANCH   1  12
ATOM     12  C   UNL     1      11.964  -6.920 -10.426  1.00  0.00     0.025 A 
ATOM     13  C   UNL     1      13.821  -5.514 -11.175  1.00  0.00     0.161 A 
ATOM     14  C   UNL     1      14.195  -6.513 -12.092  1.00  0.00     0.157 A 
ATOM     15  C   UNL     1      12.706  -5.730 -10.340  1.00  0.00     0.062 A 
ATOM     16  C   UNL     1      13.469  -7.705 -12.163  1.00  0.00     0.051 A 
ATOM     17  C   UNL     1      12.367  -7.913 -11.333  1.00  0.00     0.016 A 
BRANCH  13  18
ATOM     18  O   UNL     1      14.573  -4.330 -11.119  1.00  0.00    -0.493 OA
ATOM     19  C   UNL     1      15.707  -4.131 -10.282  1.00  0.00     0.278 C 
ENDBRANCH  13  18
BRANCH  14  20
ATOM     20  O   UNL     1      15.290  -6.341 -12.938  1.00  0.00    -0.504 OA
ATOM     21  H   UNL     1      15.187  -6.048 -13.903  1.00  0.00     0.293 HD
ENDBRANCH  14  20
ENDBRANCH   1  12
BRANCH   2  22
ATOM     22  O   UNL     1       9.869  -8.851 -10.948  1.00  0.00    -0.502 OA
ATOM     23  H   UNL     1      10.331  -8.525 -11.788  1.00  0.00     0.293 HD
ENDBRANCH   2  22
BRANCH   6  24
ATOM     24  O   UNL     1       6.763  -8.562  -6.630  1.00  0.00    -0.507 OA
ATOM     25  H   UNL     1       6.100  -8.748  -7.367  1.00  0.00     0.293 HD
ENDBRANCH   6  24
BRANCH   8  26
ATOM     26  O   UNL     1       8.697  -4.741  -4.458  1.00  0.00    -0.508 OA
ATOM     27  H   UNL     1       9.471  -4.673  -3.809  1.00  0.00     0.293 HD
ENDBRANCH   8  26
TORSDOF 6
ENDMDL
MODEL 3
REMARK VINA RESULT:    -5.643      4.732      8.081
REMARK INTER + INTRA:          -7.352
REMARK INTER:                  -7.042
REMARK INTRA:                  -0.310
REMARK UNBOUND:                -0.389
REMARK SMILES COc1cc(-c2oc3cc(O)cc(O)c3c(=O)c2O)ccc1O
REMARK SMILES IDX 6 1 18 2 16 3 17 4 15 5 13 6 12 7 10 8 9 9 8 10 7 11 5 12
REMARK SMILES IDX 3 13 22 14 4 15 21 16 20 17 2 18 1 19 23 20 19 22 14 24
REMARK SMILES IDX 11 26
REMARK H PARENT 23 21 19 23 14 25 11 27
REMARK Flexibility Score: inf
ROOT
ATOM      1  C   UNL     1      13.132  -5.752 -10.829  1.00  0.00     0.180 A 
ATOM      2  C   UNL     1      13.566  -6.611 -11.854  1.00  0.00     0.208 A 
ATOM      3  C   UNL     1      14.850  -6.433 -12.394  1.00  0.00     0.238 A 
ATOM      4  O   UNL     1      15.252  -7.239 -13.273  1.00  0.00    -0.285 OA
ATOM      5  C   UNL     1      15.677  -5.388 -11.915  1.00  0.00     0.111 A 
ATOM      6  C   UNL     1      16.979  -5.091 -12.417  1.00  0.00     0.134 A 
ATOM      7  C   UNL     1      17.759  -4.118 -11.781  1.00  0.00     0.093 A 
ATOM      8  C   UNL     1      17.259  -3.387 -10.701  1.00  0.00     0.123 A 
ATOM      9  C   UNL     1      15.966  -3.628 -10.241  1.00  0.00     0.094 A 
ATOM     10  C   UNL     1      15.178  -4.618 -10.833  1.00  0.00     0.146 A 
ATOM     11  O   UNL     1      13.956  -4.824 -10.357  1.00  0.00    -0.452 OA
ENDROOT
BRANCH   1  12
ATOM     12  C   UNL     1      11.784  -5.862 -10.227  1.00  0.00     0.025 A 
ATOM     13  C   UNL     1       9.362  -5.585 -10.435  1.00  0.00     0.161 A 
ATOM     14  C   UNL     1       9.199  -6.114  -9.142  1.00  0.00     0.157 A 
ATOM     15  C   UNL     1      10.659  -5.469 -10.972  1.00  0.00     0.062 A 
ATOM     16  C   UNL     1      10.316  -6.525  -8.409  1.00  0.00     0.051 A 
ATOM     17  C   UNL     1      11.599  -6.409  -8.947  1.00  0.00     0.016 A 
BRANCH  13  18
ATOM     18  O   UNL     1       8.222  -5.188 -11.152  1.00  0.00    -0.493 OA
ATOM     19  C   UNL     1       7.893  -5.640 -12.462  1.00  0.00     0.278 C 
ENDBRANCH  13  18
BRANCH  14  20
ATOM     20  O   UNL     1       7.934  -6.245  -8.570  1.00  0.00    -0.504 OA
ATOM     21  H   UNL     1       7.590  -5.602  -7.866  1.00  0.00     0.293 HD
ENDBRANCH  14  20
ENDBRANCH   1  12
BRANCH   2  22
ATOM     22  O   UNL     1      12.741  -7.649 -12.297  1.00  0.00    -0.502 OA
ATOM     23  H   UNL     1      11.991  -7.502 -12.961  1.00  0.00     0.293 HD
ENDBRANCH   2  22
BRANCH   6  24
ATOM     24  O   UNL     1      17.538  -5.699 -13.546  1.00  0.00    -0.507 OA
ATOM     25  H   UNL     1      17.164  -5.628 -14.481  1.00  0.00     0.293 HD
ENDBRANCH   6  24
BRANCH   8  26
ATOM     26  O   UNL     1      18.036  -2.410 -10.084  1.00  0.00    -0.508 OA
ATOM     27  H   UNL     1      17.814  -1.425 -10.165  1.00  0.00     0.293 HD
ENDBRANCH   8  26
TORSDOF 6
ENDMDL
MODEL 4
REMARK VINA RESULT:    -5.599      6.510      9.664
REMARK INTER + INTRA:          -7.298
REMARK INTER:                  -6.953
REMARK INTRA:                  -0.346
REMARK UNBOUND:                -0.389
REMARK SMILES COc1cc(-c2oc3cc(O)cc(O)c3c(=O)c2O)ccc1O
REMARK SMILES IDX 6 1 18 2 16 3 17 4 15 5 13 6 12 7 10 8 9 9 8 10 7 11 5 12
REMARK SMILES IDX 3 13 22 14 4 15 21 16 20 17 2 18 1 19 23 20 19 22 14 24
REMARK SMILES IDX 11 26
REMARK H PARENT 23 21 19 23 14 25 11 27
REMARK Flexibility Score: inf
ROOT
ATOM      1  C   UNL     1      11.254  -6.347 -10.494  1.00  0.00     0.180 A 
ATOM      2  C   UNL     1      11.477  -7.608 -11.074  1.00  0.00     0.208 A 
ATOM      3  C   UNL     1      12.685  -7.843 -11.751  1.00  0.00     0.238 A 
ATOM      4  O   UNL     1      12.901  -8.990 -12.220  1.00  0.00    -0.285 OA
ATOM      5  C   UNL     1      13.647  -6.809 -11.854  1.00  0.00     0.111 A 
ATOM      6  C   UNL     1      14.887  -6.923 -12.551  1.00  0.00     0.134 A 
ATOM      7  C   UNL     1      15.819  -5.880 -12.478  1.00  0.00     0.093 A 
ATOM      8  C   UNL     1      15.528  -4.702 -11.787  1.00  0.00     0.123 A 
ATOM      9  C   UNL     1      14.296  -4.557 -11.154  1.00  0.00     0.094 A 
ATOM     10  C   UNL     1      13.361  -5.594 -11.179  1.00  0.00     0.146 A 
ATOM     11  O   UNL     1      12.203  -5.420 -10.553  1.00  0.00    -0.452 OA
ENDROOT
BRANCH   1  12
ATOM     12  C   UNL     1       9.997  -6.017  -9.786  1.00  0.00     0.025 A 
ATOM     13  C   UNL     1       8.722  -5.928  -7.700  1.00  0.00     0.161 A 
ATOM     14  C   UNL     1       7.645  -5.346  -8.393  1.00  0.00     0.157 A 
ATOM     15  C   UNL     1       9.898  -6.254  -8.405  1.00  0.00     0.062 A 
ATOM     16  C   UNL     1       7.752  -5.090  -9.763  1.00  0.00     0.051 A 
ATOM     17  C   UNL     1       8.919  -5.415 -10.455  1.00  0.00     0.016 A 
BRANCH  13  18
ATOM     18  O   UNL     1       8.591  -6.167  -6.322  1.00  0.00    -0.493 OA
ATOM     19  C   UNL     1       8.782  -5.183  -5.310  1.00  0.00     0.278 C 
ENDBRANCH  13  18
BRANCH  14  20
ATOM     20  O   UNL     1       6.463  -5.009  -7.736  1.00  0.00    -0.504 OA
ATOM     21  H   UNL     1       6.214  -5.402  -6.835  1.00  0.00     0.293 HD
ENDBRANCH  14  20
ENDBRANCH   1  12
BRANCH   2  22
ATOM     22  O   UNL     1      10.523  -8.621 -10.941  1.00  0.00    -0.502 OA
ATOM     23  H   UNL     1       9.533  -8.426 -10.855  1.00  0.00     0.293 HD
ENDBRANCH   2  22
BRANCH   6  24
ATOM     24  O   UNL     1      15.238  -8.019 -13.345  1.00  0.00    -0.507 OA
ATOM     25  H   UNL     1      14.679  -8.383 -14.101  1.00  0.00     0.293 HD
ENDBRANCH   6  24
BRANCH   8  26
ATOM     26  O   UNL     1      16.455  -3.663 -11.733  1.00  0.00    -0.508 OA
ATOM     27  H   UNL     1      16.973  -3.371 -12.553  1.00  0.00     0.293 HD
ENDBRANCH   8  26
TORSDOF 6
ENDMDL
MODEL 5
REMARK VINA RESULT:    -5.581      2.793      6.968
REMARK INTER + INTRA:          -7.275
REMARK INTER:                  -6.898
REMARK INTRA:                  -0.378
REMARK UNBOUND:                -0.389
REMARK SMILES COc1cc(-c2oc3cc(O)cc(O)c3c(=O)c2O)ccc1O
REMARK SMILES IDX 6 1 18 2 16 3 17 4 15 5 13 6 12 7 10 8 9 9 8 10 7 11 5 12
REMARK SMILES IDX 3 13 22 14 4 15 21 16 20 17 2 18 1 19 23 20 19 22 14 24
REMARK SMILES IDX 11 26
REMARK H PARENT 23 21 19 23 14 25 11 27
REMARK Flexibility Score: inf
ROOT
ATOM      1  C   UNL     1      20.716  -1.415  -7.392  1.00  0.00     0.180 A 
ATOM      2  C   UNL     1      19.448  -1.857  -7.809  1.00  0.00     0.208 A 
ATOM      3  C   UNL     1      18.452  -0.907  -8.086  1.00  0.00     0.238 A 
ATOM      4  O   UNL     1      17.337  -1.306  -8.510  1.00  0.00    -0.285 OA
ATOM      5  C   UNL     1      18.731   0.472  -7.925  1.00  0.00     0.111 A 
ATOM      6  C   UNL     1      17.785   1.520  -8.139  1.00  0.00     0.134 A 
ATOM      7  C   UNL     1      18.207   2.854  -8.077  1.00  0.00     0.093 A 
ATOM      8  C   UNL     1      19.525   3.178  -7.746  1.00  0.00     0.123 A 
ATOM      9  C   UNL     1      20.441   2.163  -7.478  1.00  0.00     0.094 A 
ATOM     10  C   UNL     1      20.058   0.823  -7.567  1.00  0.00     0.146 A 
ATOM     11  O   UNL     1      20.965  -0.113  -7.314  1.00  0.00    -0.452 OA
ENDROOT
BRANCH   1  12
ATOM     12  C   UNL     1      21.808  -2.358  -7.059  1.00  0.00     0.025 A 
ATOM     13  C   UNL     1      23.927  -3.418  -7.670  1.00  0.00     0.161 A 
ATOM     14  C   UNL     1      23.934  -4.094  -6.436  1.00  0.00     0.157 A 
ATOM     15  C   UNL     1      22.861  -2.546  -7.970  1.00  0.00     0.062 A 
ATOM     16  C   UNL     1      22.897  -3.890  -5.521  1.00  0.00     0.051 A 
ATOM     17  C   UNL     1      21.846  -3.024  -5.824  1.00  0.00     0.016 A 
BRANCH  13  18
ATOM     18  O   UNL     1      24.985  -3.635  -8.567  1.00  0.00    -0.493 OA
ATOM     19  C   UNL     1      24.945  -4.549  -9.659  1.00  0.00     0.278 C 
ENDBRANCH  13  18
BRANCH  14  20
ATOM     20  O   UNL     1      24.967  -4.967  -6.099  1.00  0.00    -0.504 OA
ATOM     21  H   UNL     1      24.793  -5.876  -5.686  1.00  0.00     0.293 HD
ENDBRANCH  14  20
ENDBRANCH   1  12
BRANCH   2  22
ATOM     22  O   UNL     1      19.202  -3.222  -7.981  1.00  0.00    -0.502 OA
ATOM     23  H   UNL     1      19.877  -3.932  -7.725  1.00  0.00     0.293 HD
ENDBRANCH   2  22
BRANCH   6  24
ATOM     24  O   UNL     1      16.426   1.306  -8.384  1.00  0.00    -0.507 OA
ATOM     25  H   UNL     1      15.815   0.757  -7.798  1.00  0.00     0.293 HD
ENDBRANCH   6  24
BRANCH   8  26
ATOM     26  O   UNL     1      19.932   4.508  -7.672  1.00  0.00    -0.508 OA
ATOM     27  H   UNL     1      19.945   5.105  -8.490  1.00  0.00     0.293 HD
ENDBRANCH   8  26
TORSDOF 6
ENDMDL
MODEL 6
REMARK VINA RESULT:    -5.555     13.325     15.380
REMARK INTER + INTRA:          -7.243
REMARK INTER:                  -6.840
REMARK INTRA:                  -0.403
REMARK UNBOUND:                -0.389
REMARK SMILES COc1cc(-c2oc3cc(O)cc(O)c3c(=O)c2O)ccc1O
REMARK SMILES IDX 6 1 18 2 16 3 17 4 15 5 13 6 12 7 10 8 9 9 8 10 7 11 5 12
REMARK SMILES IDX 3 13 22 14 4 15 21 16 20 17 2 18 1 19 23 20 19 22 14 24
REMARK SMILES IDX 11 26
REMARK H PARENT 23 21 19 23 14 25 11 27
REMARK Flexibility Score: inf
ROOT
ATOM      1  C   UNL     1      11.088   4.301 -18.753  1.00  0.00     0.180 A 
ATOM      2  C   UNL     1      12.153   3.535 -18.245  1.00  0.00     0.208 A 
ATOM      3  C   UNL     1      13.392   4.155 -18.021  1.00  0.00     0.238 A 
ATOM      4  O   UNL     1      14.324   3.478 -17.516  1.00  0.00    -0.285 OA
ATOM      5  C   UNL     1      13.557   5.529 -18.322  1.00  0.00     0.111 A 
ATOM      6  C   UNL     1      14.779   6.250 -18.172  1.00  0.00     0.134 A 
ATOM      7  C   UNL     1      14.793   7.635 -18.377  1.00  0.00     0.093 A 
ATOM      8  C   UNL     1      13.645   8.314 -18.790  1.00  0.00     0.123 A 
ATOM      9  C   UNL     1      12.461   7.609 -18.997  1.00  0.00     0.094 A 
ATOM     10  C   UNL     1      12.407   6.233 -18.765  1.00  0.00     0.146 A 
ATOM     11  O   UNL     1      11.257   5.601 -18.964  1.00  0.00    -0.452 OA
ENDROOT
BRANCH   1  12
ATOM     12  C   UNL     1       9.760   3.712 -19.038  1.00  0.00     0.025 A 
ATOM     13  C   UNL     1       7.442   3.331 -18.358  1.00  0.00     0.161 A 
ATOM     14  C   UNL     1       7.205   2.660 -19.571  1.00  0.00     0.157 A 
ATOM     15  C   UNL     1       8.723   3.860 -18.103  1.00  0.00     0.062 A 
ATOM     16  C   UNL     1       8.232   2.532 -20.511  1.00  0.00     0.051 A 
ATOM     17  C   UNL     1       9.498   3.058 -20.253  1.00  0.00     0.016 A 
BRANCH  13  18
ATOM     18  O   UNL     1       6.390   3.453 -17.435  1.00  0.00    -0.493 OA
ATOM     19  C   UNL     1       5.635   4.642 -17.223  1.00  0.00     0.278 C 
ENDBRANCH  13  18
BRANCH  14  20
ATOM     20  O   UNL     1       5.953   2.120 -19.864  1.00  0.00    -0.504 OA
ATOM     21  H   UNL     1       5.702   1.812 -20.797  1.00  0.00     0.293 HD
ENDBRANCH  14  20
ENDBRANCH   1  12
BRANCH   2  22
ATOM     22  O   UNL     1      11.961   2.186 -17.935  1.00  0.00    -0.502 OA
ATOM     23  H   UNL     1      12.550   1.453 -18.311  1.00  0.00     0.293 HD
ENDBRANCH   2  22
BRANCH   6  24
ATOM     24  O   UNL     1      16.003   5.654 -17.853  1.00  0.00    -0.507 OA
ATOM     25  H   UNL     1      16.291   5.397 -16.921  1.00  0.00     0.293 HD
ENDBRANCH   6  24
BRANCH   8  26
ATOM     26  O   UNL     1      13.672   9.690 -19.007  1.00  0.00    -0.508 OA
ATOM     27  H   UNL     1      14.452  10.259 -18.702  1.00  0.00     0.293 HD
ENDBRANCH   8  26
TORSDOF 6
ENDMDL
MODEL 7
REMARK VINA RESULT:    -5.553      1.533      7.267
REMARK INTER + INTRA:          -7.241
REMARK INTER:                  -6.864
REMARK INTRA:                  -0.377
REMARK UNBOUND:                -0.389
REMARK SMILES COc1cc(-c2oc3cc(O)cc(O)c3c(=O)c2O)ccc1O
REMARK SMILES IDX 6 1 18 2 16 3 17 4 15 5 13 6 12 7 10 8 9 9 8 10 7 11 5 12
REMARK SMILES IDX 3 13 22 14 4 15 21 16 20 17 2 18 1 19 23 20 19 22 14 24
REMARK SMILES IDX 11 26
REMARK H PARENT 23 21 19 23 14 25 11 27
REMARK Flexibility Score: inf
ROOT
ATOM      1  C   UNL     1      18.247  -2.115  -8.714  1.00  0.00     0.180 A 
ATOM      2  C   UNL     1      17.618  -0.858  -8.683  1.00  0.00     0.208 A 
ATOM      3  C   UNL     1      16.568  -0.599  -9.579  1.00  0.00     0.238 A 
ATOM      4  O   UNL     1      15.974   0.507  -9.510  1.00  0.00    -0.285 OA
ATOM      5  C   UNL     1      16.171  -1.594 -10.506  1.00  0.00     0.111 A 
ATOM      6  C   UNL     1      15.148  -1.426 -11.486  1.00  0.00     0.134 A 
ATOM      7  C   UNL     1      14.750  -2.521 -12.263  1.00  0.00     0.093 A 
ATOM      8  C   UNL     1      15.384  -3.759 -12.142  1.00  0.00     0.123 A 
ATOM      9  C   UNL     1      16.425  -3.917 -11.229  1.00  0.00     0.094 A 
ATOM     10  C   UNL     1      16.819  -2.853 -10.414  1.00  0.00     0.146 A 
ATOM     11  O   UNL     1      17.808  -3.049  -9.551  1.00  0.00    -0.452 OA
ENDROOT
BRANCH   1  12
ATOM     12  C   UNL     1      19.376  -2.453  -7.818  1.00  0.00     0.025 A 
ATOM     13  C   UNL     1      21.789  -2.594  -7.441  1.00  0.00     0.161 A 
ATOM     14  C   UNL     1      21.549  -3.027  -6.124  1.00  0.00     0.157 A 
ATOM     15  C   UNL     1      20.694  -2.303  -8.279  1.00  0.00     0.062 A 
ATOM     16  C   UNL     1      20.237  -3.156  -5.658  1.00  0.00     0.051 A 
ATOM     17  C   UNL     1      19.157  -2.865  -6.493  1.00  0.00     0.016 A 
BRANCH  13  18
ATOM     18  O   UNL     1      23.116  -2.465  -7.880  1.00  0.00    -0.493 OA
ATOM     19  C   UNL     1      23.828  -3.464  -8.603  1.00  0.00     0.278 C 
ENDBRANCH  13  18
BRANCH  14  20
ATOM     20  O   UNL     1      22.601  -3.327  -5.261  1.00  0.00    -0.504 OA
ATOM     21  H   UNL     1      22.501  -3.289  -4.253  1.00  0.00     0.293 HD
ENDBRANCH  14  20
ENDBRANCH   1  12
BRANCH   2  22
ATOM     22  O   UNL     1      18.011   0.101  -7.746  1.00  0.00    -0.502 OA
ATOM     23  H   UNL     1      18.156  -0.122  -6.769  1.00  0.00     0.293 HD
ENDBRANCH   2  22
BRANCH   6  24
ATOM     24  O   UNL     1      14.514  -0.208 -11.752  1.00  0.00    -0.507 OA
ATOM     25  H   UNL     1      14.702   0.374 -12.554  1.00  0.00     0.293 HD
ENDBRANCH   6  24
BRANCH   8  26
ATOM     26  O   UNL     1      14.992  -4.838 -12.930  1.00  0.00    -0.508 OA
ATOM     27  H   UNL     1      15.552  -5.681 -12.992  1.00  0.00     0.293 HD
ENDBRANCH   8  26
TORSDOF 6
ENDMDL
MODEL 8
REMARK VINA RESULT:    -5.552      8.004     13.082
REMARK INTER + INTRA:          -7.240
REMARK INTER:                  -6.832
REMARK INTRA:                  -0.407
REMARK UNBOUND:                -0.389
REMARK SMILES COc1cc(-c2oc3cc(O)cc(O)c3c(=O)c2O)ccc1O
REMARK SMILES IDX 6 1 18 2 16 3 17 4 15 5 13 6 12 7 10 8 9 9 8 10 7 11 5 12
REMARK SMILES IDX 3 13 22 14 4 15 21 16 20 17 2 18 1 19 23 20 19 22 14 24
REMARK SMILES IDX 11 26
REMARK H PARENT 23 21 19 23 14 25 11 27
REMARK Flexibility Score: inf
ROOT
ATOM      1  C   UNL     1      13.604   2.602 -16.269  1.00  0.00     0.180 A 
ATOM      2  C   UNL     1      13.827   3.970 -16.032  1.00  0.00     0.208 A 
ATOM      3  C   UNL     1      13.317   4.911 -16.942  1.00  0.00     0.238 A 
ATOM      4  O   UNL     1      13.473   6.134 -16.696  1.00  0.00    -0.285 OA
ATOM      5  C   UNL     1      12.606   4.471 -18.085  1.00  0.00     0.111 A 
ATOM      6  C   UNL     1      12.081   5.334 -19.093  1.00  0.00     0.134 A 
ATOM      7  C   UNL     1      11.282   4.799 -20.111  1.00  0.00     0.093 A 
ATOM      8  C   UNL     1      11.045   3.426 -20.195  1.00  0.00     0.123 A 
ATOM      9  C   UNL     1      11.603   2.568 -19.249  1.00  0.00     0.094 A 
ATOM     10  C   UNL     1      12.374   3.076 -18.201  1.00  0.00     0.146 A 
ATOM     11  O   UNL     1      12.878   2.226 -17.315  1.00  0.00    -0.452 OA
ENDROOT
BRANCH   1  12
ATOM     12  C   UNL     1      14.131   1.551 -15.368  1.00  0.00     0.025 A 
ATOM     13  C   UNL     1      13.762  -0.010 -13.521  1.00  0.00     0.161 A 
ATOM     14  C   UNL     1      15.075  -0.491 -13.677  1.00  0.00     0.157 A 
ATOM     15  C   UNL     1      13.297   1.008 -14.377  1.00  0.00     0.062 A 
ATOM     16  C   UNL     1      15.898   0.035 -14.677  1.00  0.00     0.051 A 
ATOM     17  C   UNL     1      15.431   1.043 -15.522  1.00  0.00     0.016 A 
BRANCH  13  18
ATOM     18  O   UNL     1      12.955  -0.562 -12.514  1.00  0.00    -0.493 OA
ATOM     19  C   UNL     1      12.012  -1.610 -12.718  1.00  0.00     0.278 C 
ENDBRANCH  13  18
BRANCH  14  20
ATOM     20  O   UNL     1      15.578  -1.495 -12.852  1.00  0.00    -0.504 OA
ATOM     21  H   UNL     1      15.773  -1.341 -11.869  1.00  0.00     0.293 HD
ENDBRANCH  14  20
ENDBRANCH   1  12
BRANCH   2  22
ATOM     22  O   UNL     1      14.513   4.382 -14.886  1.00  0.00    -0.502 OA
ATOM     23  H   UNL     1      15.113   5.198 -14.876  1.00  0.00     0.293 HD
ENDBRANCH   2  22
BRANCH   6  24
ATOM     24  O   UNL     1      12.334   6.708 -19.154  1.00  0.00    -0.507 OA
ATOM     25  H   UNL     1      11.626   7.418 -19.258  1.00  0.00     0.293 HD
ENDBRANCH   6  24
BRANCH   8  26
ATOM     26  O   UNL     1      10.262   2.901 -21.220  1.00  0.00    -0.508 OA
ATOM     27  H   UNL     1      10.640   2.741 -22.147  1.00  0.00     0.293 HD
ENDBRANCH   8  26
TORSDOF 6
ENDMDL
MODEL 9
REMARK VINA RESULT:    -5.392     13.310     15.144
REMARK INTER + INTRA:          -7.042
REMARK INTER:                  -6.641
REMARK INTRA:                  -0.401
REMARK UNBOUND:                -0.389
REMARK SMILES COc1cc(-c2oc3cc(O)cc(O)c3c(=O)c2O)ccc1O
REMARK SMILES IDX 6 1 18 2 16 3 17 4 15 5 13 6 12 7 10 8 9 9 8 10 7 11 5 12
REMARK SMILES IDX 3 13 22 14 4 15 21 16 20 17 2 18 1 19 23 20 19 22 14 24
REMARK SMILES IDX 11 26
REMARK H PARENT 23 21 19 23 14 25 11 27
REMARK Flexibility Score: inf
ROOT
ATOM      1  C   UNL     1      20.052   8.702 -18.688  1.00  0.00     0.180 A 
ATOM      2  C   UNL     1      20.725   9.769 -18.068  1.00  0.00     0.208 A 
ATOM      3  C   UNL     1      22.129   9.777 -18.062  1.00  0.00     0.238 A 
ATOM      4  O   UNL     1      22.726  10.761 -17.553  1.00  0.00    -0.285 OA
ATOM      5  C   UNL     1      22.842   8.710 -18.661  1.00  0.00     0.111 A 
ATOM      6  C   UNL     1      24.265   8.595 -18.678  1.00  0.00     0.134 A 
ATOM      7  C   UNL     1      24.865   7.565 -19.413  1.00  0.00     0.093 A 
ATOM      8  C   UNL     1      24.093   6.609 -20.076  1.00  0.00     0.123 A 
ATOM      9  C   UNL     1      22.703   6.678 -20.016  1.00  0.00     0.094 A 
ATOM     10  C   UNL     1      22.076   7.715 -19.322  1.00  0.00     0.146 A 
ATOM     11  O   UNL     1      20.749   7.751 -19.298  1.00  0.00    -0.452 OA
ENDROOT
BRANCH   1  12
ATOM     12  C   UNL     1      18.574   8.612 -18.714  1.00  0.00     0.025 A 
ATOM     13  C   UNL     1      16.495   7.885 -17.648  1.00  0.00     0.161 A 
ATOM     14  C   UNL     1      15.763   8.474 -18.695  1.00  0.00     0.157 A 
ATOM     15  C   UNL     1      17.902   7.965 -17.663  1.00  0.00     0.062 A 
ATOM     16  C   UNL     1      16.431   9.136 -19.729  1.00  0.00     0.051 A 
ATOM     17  C   UNL     1      17.824   9.213 -19.738  1.00  0.00     0.016 A 
BRANCH  13  18
ATOM     18  O   UNL     1      15.799   7.233 -16.618  1.00  0.00    -0.493 OA
ATOM     19  C   UNL     1      15.781   5.823 -16.421  1.00  0.00     0.278 C 
ENDBRANCH  13  18
BRANCH  14  20
ATOM     20  O   UNL     1      14.370   8.417 -18.721  1.00  0.00    -0.504 OA
ATOM     21  H   UNL     1      13.793   9.242 -18.604  1.00  0.00     0.293 HD
ENDBRANCH  14  20
ENDBRANCH   1  12
BRANCH   2  22
ATOM     22  O   UNL     1      20.001  10.822 -17.502  1.00  0.00    -0.502 OA
ATOM     23  H   UNL     1      19.549  11.534 -18.062  1.00  0.00     0.293 HD
ENDBRANCH   2  22
BRANCH   6  24
ATOM     24  O   UNL     1      25.125   9.443 -17.974  1.00  0.00    -0.507 OA
ATOM     25  H   UNL     1      25.901   9.942 -18.382  1.00  0.00     0.293 HD
ENDBRANCH   6  24
BRANCH   8  26
ATOM     26  O   UNL     1      24.699   5.578 -20.791  1.00  0.00    -0.508 OA
ATOM     27  H   UNL     1      25.575   5.168 -20.491  1.00  0.00     0.293 HD
ENDBRANCH   8  26
TORSDOF 6
ENDMDL
