MODEL 1
REMARK VINA RESULT:    -5.088      0.000      0.000
REMARK INTER + INTRA:          -8.539
REMARK INTER:                  -8.063
REMARK INTRA:                  -0.476
REMARK UNBOUND:                -0.476
REMARK SMILES CCCCCCCCCCCC(=O)[O-]
REMARK SMILES IDX 7 1 8 2 9 3 10 4 11 5 12 6 13 7 14 8 6 9 5 10 4 11 3 12 2 13
REMARK SMILES IDX 1 14
REMARK H PARENT
REMARK Flexibility Score: inf
ROOT
ATOM      1  C   UNL     1      23.345   0.089 -15.329  1.00  0.00     0.000 C 
ENDROOT
BRANCH   1   2
ATOM      2  C   UNL     1      22.148  -0.355 -16.179  1.00  0.00     0.000 C 
BRANCH   2   3
ATOM      3  C   UNL     1      21.220  -1.281 -15.379  1.00  0.00     0.000 C 
BRANCH   3   4
ATOM      4  C   UNL     1      19.752  -0.815 -15.400  1.00  0.00     0.006 C 
BRANCH   4   5
ATOM      5  C   UNL     1      19.490   0.413 -16.286  1.00  0.00     0.053 C 
BRANCH   5   6
ATOM      6  C   UNL     1      18.158   1.037 -16.004  1.00  0.00     0.041 C 
ATOM      7  O   UNL     1      17.563   0.796 -14.921  1.00  0.00    -0.550 OA
ATOM      8  O   UNL     1      17.590   1.912 -16.922  1.00  0.00    -0.550 OA
ENDBRANCH   5   6
ENDBRANCH   4   5
ENDBRANCH   3   4
ENDBRANCH   2   3
ENDBRANCH   1   2
BRANCH   1   9
ATOM      9  C   UNL     1      23.864  -1.068 -14.462  1.00  0.00     0.000 C 
BRANCH   9  10
ATOM     10  C   UNL     1      25.115  -0.689 -13.653  1.00  0.00    -0.000 C 
BRANCH  10  11
ATOM     11  C   UNL     1      26.104  -1.856 -13.507  1.00  0.00    -0.000 C 
BRANCH  11  12
ATOM     12  C   UNL     1      26.672  -1.915 -12.082  1.00  0.00    -0.000 C 
BRANCH  12  13
ATOM     13  C   UNL     1      25.802  -1.157 -11.067  1.00  0.00    -0.003 C 
ATOM     14  C   UNL     1      26.202  -1.438  -9.619  1.00  0.00     0.004 C 
ENDBRANCH  12  13
ENDBRANCH  11  12
ENDBRANCH  10  11
ENDBRANCH   9  10
ENDBRANCH   1   9
TORSDOF 10
ENDMDL
MODEL 2
REMARK VINA RESULT:    -5.065      3.141      4.726
REMARK INTER + INTRA:          -8.503
REMARK INTER:                  -6.996
REMARK INTRA:                  -1.507
REMARK UNBOUND:                -0.476
REMARK SMILES CCCCCCCCCCCC(=O)[O-]
REMARK SMILES IDX 7 1 8 2 9 3 10 4 11 5 12 6 13 7 14 8 6 9 5 10 4 11 3 12 2 13
REMARK SMILES IDX 1 14
REMARK H PARENT
REMARK Flexibility Score: inf
ROOT
ATOM      1  C   UNL     1      20.932  -0.285 -18.854  1.00  0.00     0.000 C 
ENDROOT
BRANCH   1   2
ATOM      2  C   UNL     1      20.326   1.122 -18.924  1.00  0.00     0.000 C 
BRANCH   2   3
ATOM      3  C   UNL     1      20.876   2.014 -17.801  1.00  0.00     0.000 C 
BRANCH   3   4
ATOM      4  C   UNL     1      19.770   2.788 -17.059  1.00  0.00     0.006 C 
BRANCH   4   5
ATOM      5  C   UNL     1      19.296   2.123 -15.757  1.00  0.00     0.053 C 
BRANCH   5   6
ATOM      6  C   UNL     1      17.883   1.637 -15.854  1.00  0.00     0.041 C 
ATOM      7  O   UNL     1      17.178   1.938 -16.853  1.00  0.00    -0.550 OA
ATOM      8  O   UNL     1      17.356   0.823 -14.859  1.00  0.00    -0.550 OA
ENDBRANCH   5   6
ENDBRANCH   4   5
ENDBRANCH   3   4
ENDBRANCH   2   3
ENDBRANCH   1   2
BRANCH   1   9
ATOM      9  C   UNL     1      19.896  -1.307 -18.365  1.00  0.00     0.000 C 
BRANCH   9  10
ATOM     10  C   UNL     1      20.370  -2.086 -17.128  1.00  0.00    -0.000 C 
BRANCH  10  11
ATOM     11  C   UNL     1      19.812  -1.513 -15.816  1.00  0.00    -0.000 C 
BRANCH  11  12
ATOM     12  C   UNL     1      20.940  -0.942 -14.944  1.00  0.00    -0.000 C 
BRANCH  12  13
ATOM     13  C   UNL     1      22.303  -0.966 -15.654  1.00  0.00    -0.003 C 
ATOM     14  C   UNL     1      23.111   0.310 -15.425  1.00  0.00     0.004 C 
ENDBRANCH  12  13
ENDBRANCH  11  12
ENDBRANCH  10  11
ENDBRANCH   9  10
ENDBRANCH   1   9
TORSDOF 10
ENDMDL
MODEL 3
REMARK VINA RESULT:    -5.040      2.971      4.920
REMARK INTER + INTRA:          -8.463
REMARK INTER:                  -7.311
REMARK INTRA:                  -1.151
REMARK UNBOUND:                -0.476
REMARK SMILES CCCCCCCCCCCC(=O)[O-]
REMARK SMILES IDX 7 1 8 2 9 3 10 4 11 5 12 6 13 7 14 8 6 9 5 10 4 11 3 12 2 13
REMARK SMILES IDX 1 14
REMARK H PARENT
REMARK Flexibility Score: inf
ROOT
ATOM      1  C   UNL     1      23.185   1.326 -14.818  1.00  0.00     0.000 C 
ENDROOT
BRANCH   1   2
ATOM      2  C   UNL     1      22.001   2.034 -15.489  1.00  0.00     0.000 C 
BRANCH   2   3
ATOM      3  C   UNL     1      21.018   2.574 -14.439  1.00  0.00     0.000 C 
BRANCH   3   4
ATOM      4  C   UNL     1      19.662   2.981 -15.047  1.00  0.00     0.006 C 
BRANCH   4   5
ATOM      5  C   UNL     1      19.258   2.175 -16.291  1.00  0.00     0.053 C 
BRANCH   5   6
ATOM      6  C   UNL     1      17.871   1.621 -16.178  1.00  0.00     0.041 C 
ATOM      7  O   UNL     1      17.053   1.767 -17.124  1.00  0.00    -0.550 OA
ATOM      8  O   UNL     1      17.494   0.915 -15.043  1.00  0.00    -0.550 OA
ENDBRANCH   5   6
ENDBRANCH   4   5
ENDBRANCH   3   4
ENDBRANCH   2   3
ENDBRANCH   1   2
BRANCH   1   9
ATOM      9  C   UNL     1      23.489  -0.012 -15.508  1.00  0.00     0.000 C 
BRANCH   9  10
ATOM     10  C   UNL     1      22.250  -0.630 -16.176  1.00  0.00    -0.000 C 
BRANCH  10  11
ATOM     11  C   UNL     1      21.403  -1.463 -15.200  1.00  0.00    -0.000 C 
BRANCH  11  12
ATOM     12  C   UNL     1      19.936  -1.509 -15.651  1.00  0.00    -0.000 C 
BRANCH  12  13
ATOM     13  C   UNL     1      19.780  -1.343 -17.171  1.00  0.00    -0.003 C 
ATOM     14  C   UNL     1      19.702  -2.679 -17.907  1.00  0.00     0.004 C 
ENDBRANCH  12  13
ENDBRANCH  11  12
ENDBRANCH  10  11
ENDBRANCH   9  10
ENDBRANCH   1   9
TORSDOF 10
ENDMDL
MODEL 4
REMARK VINA RESULT:    -4.999     10.669     12.615
REMARK INTER + INTRA:          -8.397
REMARK INTER:                  -7.397
REMARK INTRA:                  -1.000
REMARK UNBOUND:                -0.476
REMARK SMILES CCCCCCCCCCCC(=O)[O-]
REMARK SMILES IDX 7 1 8 2 9 3 10 4 11 5 12 6 13 7 14 8 6 9 5 10 4 11 3 12 2 13
REMARK SMILES IDX 1 14
REMARK H PARENT
REMARK Flexibility Score: inf
ROOT
ATOM      1  C   UNL     1      19.909  -0.619 -24.535  1.00  0.00     0.000 C 
ENDROOT
BRANCH   1   2
ATOM      2  C   UNL     1      18.992  -1.686 -25.144  1.00  0.00     0.000 C 
BRANCH   2   3
ATOM      3  C   UNL     1      19.763  -2.575 -26.132  1.00  0.00     0.000 C 
BRANCH   3   4
ATOM      4  C   UNL     1      19.753  -4.061 -25.729  1.00  0.00     0.006 C 
BRANCH   4   5
ATOM      5  C   UNL     1      19.007  -4.357 -24.418  1.00  0.00     0.053 C 
BRANCH   5   6
ATOM      6  C   UNL     1      17.881  -5.323 -24.616  1.00  0.00     0.041 C 
ATOM      7  O   UNL     1      18.103  -6.463 -25.104  1.00  0.00    -0.550 OA
ATOM      8  O   UNL     1      16.592  -4.980 -24.229  1.00  0.00    -0.550 OA
ENDBRANCH   5   6
ENDBRANCH   4   5
ENDBRANCH   3   4
ENDBRANCH   2   3
ENDBRANCH   1   2
BRANCH   1   9
ATOM      9  C   UNL     1      19.222   0.093 -23.361  1.00  0.00     0.000 C 
BRANCH   9  10
ATOM     10  C   UNL     1      17.925  -0.605 -22.921  1.00  0.00    -0.000 C 
BRANCH  10  11
ATOM     11  C   UNL     1      16.686   0.291 -23.077  1.00  0.00    -0.000 C 
BRANCH  11  12
ATOM     12  C   UNL     1      17.035   1.579 -23.838  1.00  0.00    -0.000 C 
BRANCH  12  13
ATOM     13  C   UNL     1      16.135   1.802 -25.063  1.00  0.00    -0.003 C 
ATOM     14  C   UNL     1      15.834   0.509 -25.819  1.00  0.00     0.004 C 
ENDBRANCH  12  13
ENDBRANCH  11  12
ENDBRANCH  10  11
ENDBRANCH   9  10
ENDBRANCH   1   9
TORSDOF 10
ENDMDL
MODEL 5
REMARK VINA RESULT:    -4.976     11.279     12.946
REMARK INTER + INTRA:          -8.361
REMARK INTER:                  -6.923
REMARK INTRA:                  -1.438
REMARK UNBOUND:                -0.476
REMARK SMILES CCCCCCCCCCCC(=O)[O-]
REMARK SMILES IDX 7 1 8 2 9 3 10 4 11 5 12 6 13 7 14 8 6 9 5 10 4 11 3 12 2 13
REMARK SMILES IDX 1 14
REMARK H PARENT
REMARK Flexibility Score: inf
ROOT
ATOM      1  C   UNL     1      18.895   0.055 -27.116  1.00  0.00     0.000 C 
ENDROOT
BRANCH   1   2
ATOM      2  C   UNL     1      19.656   0.809 -26.018  1.00  0.00     0.000 C 
BRANCH   2   3
ATOM      3  C   UNL     1      19.902  -0.095 -24.801  1.00  0.00     0.000 C 
BRANCH   3   4
ATOM      4  C   UNL     1      19.940  -1.591 -25.167  1.00  0.00     0.006 C 
BRANCH   4   5
ATOM      5  C   UNL     1      18.850  -2.436 -24.488  1.00  0.00     0.053 C 
BRANCH   5   6
ATOM      6  C   UNL     1      18.988  -3.893 -24.807  1.00  0.00     0.041 C 
ATOM      7  O   UNL     1      18.057  -4.693 -24.525  1.00  0.00    -0.550 OA
ATOM      8  O   UNL     1      20.128  -4.361 -25.447  1.00  0.00    -0.550 OA
ENDBRANCH   5   6
ENDBRANCH   4   5
ENDBRANCH   3   4
ENDBRANCH   2   3
ENDBRANCH   1   2
BRANCH   1   9
ATOM      9  C   UNL     1      17.382   0.283 -26.993  1.00  0.00     0.000 C 
BRANCH   9  10
ATOM     10  C   UNL     1      17.032   1.710 -26.540  1.00  0.00    -0.000 C 
BRANCH  10  11
ATOM     11  C   UNL     1      16.073   1.734 -25.340  1.00  0.00    -0.000 C 
BRANCH  11  12
ATOM     12  C   UNL     1      15.920   0.331 -24.734  1.00  0.00    -0.000 C 
BRANCH  12  13
ATOM     13  C   UNL     1      16.586   0.208 -23.356  1.00  0.00    -0.003 C 
ATOM     14  C   UNL     1      17.161   1.532 -22.856  1.00  0.00     0.004 C 
ENDBRANCH  12  13
ENDBRANCH  11  12
ENDBRANCH  10  11
ENDBRANCH   9  10
ENDBRANCH   1   9
TORSDOF 10
ENDMDL
MODEL 6
REMARK VINA RESULT:    -4.968     10.399     12.693
REMARK INTER + INTRA:          -8.349
REMARK INTER:                  -6.921
REMARK INTRA:                  -1.428
REMARK UNBOUND:                -0.476
REMARK SMILES CCCCCCCCCCCC(=O)[O-]
REMARK SMILES IDX 7 1 8 2 9 3 10 4 11 5 12 6 13 7 14 8 6 9 5 10 4 11 3 12 2 13
REMARK SMILES IDX 1 14
REMARK H PARENT
REMARK Flexibility Score: inf
ROOT
ATOM      1  C   UNL     1      18.626   1.128 -22.405  1.00  0.00     0.000 C 
ENDROOT
BRANCH   1   2
ATOM      2  C   UNL     1      19.142  -0.225 -22.911  1.00  0.00     0.000 C 
BRANCH   2   3
ATOM      3  C   UNL     1      20.055  -0.042 -24.132  1.00  0.00     0.000 C 
BRANCH   3   4
ATOM      4  C   UNL     1      20.082  -1.281 -25.047  1.00  0.00     0.006 C 
BRANCH   4   5
ATOM      5  C   UNL     1      19.014  -2.336 -24.715  1.00  0.00     0.053 C 
BRANCH   5   6
ATOM      6  C   UNL     1      19.454  -3.718 -25.087  1.00  0.00     0.041 C 
ATOM      7  O   UNL     1      18.621  -4.663 -25.109  1.00  0.00    -0.550 OA
ATOM      8  O   UNL     1      20.776  -3.957 -25.442  1.00  0.00    -0.550 OA
ENDBRANCH   5   6
ENDBRANCH   4   5
ENDBRANCH   3   4
ENDBRANCH   2   3
ENDBRANCH   1   2
BRANCH   1   9
ATOM      9  C   UNL     1      17.115   1.264 -22.641  1.00  0.00     0.000 C 
BRANCH   9  10
ATOM     10  C   UNL     1      16.536   0.100 -23.461  1.00  0.00    -0.000 C 
BRANCH  10  11
ATOM     11  C   UNL     1      15.895   0.565 -24.779  1.00  0.00    -0.000 C 
BRANCH  11  12
ATOM     12  C   UNL     1      16.712   0.080 -25.985  1.00  0.00    -0.000 C 
BRANCH  12  13
ATOM     13  C   UNL     1      17.364   1.236 -26.759  1.00  0.00    -0.003 C 
ATOM     14  C   UNL     1      17.079   2.601 -26.134  1.00  0.00     0.004 C 
ENDBRANCH  12  13
ENDBRANCH  11  12
ENDBRANCH  10  11
ENDBRANCH   9  10
ENDBRANCH   1   9
TORSDOF 10
ENDMDL
MODEL 7
REMARK VINA RESULT:    -4.866     10.069     12.653
REMARK INTER + INTRA:          -8.186
REMARK INTER:                  -6.594
REMARK INTRA:                  -1.593
REMARK UNBOUND:                -0.476
REMARK SMILES CCCCCCCCCCCC(=O)[O-]
REMARK SMILES IDX 7 1 8 2 9 3 10 4 11 5 12 6 13 7 14 8 6 9 5 10 4 11 3 12 2 13
REMARK SMILES IDX 1 14
REMARK H PARENT
REMARK Flexibility Score: inf
ROOT
ATOM      1  C   UNL     1      19.345   0.552 -22.409  1.00  0.00     0.000 C 
ENDROOT
BRANCH   1   2
ATOM      2  C   UNL     1      20.518   0.441 -23.391  1.00  0.00     0.000 C 
BRANCH   2   3
ATOM      3  C   UNL     1      20.226   1.216 -24.685  1.00  0.00     0.000 C 
BRANCH   3   4
ATOM      4  C   UNL     1      20.034   0.292 -25.902  1.00  0.00     0.006 C 
BRANCH   4   5
ATOM      5  C   UNL     1      20.437  -1.171 -25.656  1.00  0.00     0.053 C 
BRANCH   5   6
ATOM      6  C   UNL     1      19.441  -2.133 -26.227  1.00  0.00     0.041 C 
ATOM      7  O   UNL     1      18.920  -1.912 -27.352  1.00  0.00    -0.550 OA
ATOM      8  O   UNL     1      19.116  -3.292 -25.533  1.00  0.00    -0.550 OA
ENDBRANCH   5   6
ENDBRANCH   4   5
ENDBRANCH   3   4
ENDBRANCH   2   3
ENDBRANCH   1   2
BRANCH   1   9
ATOM      9  C   UNL     1      18.297  -0.538 -22.678  1.00  0.00     0.000 C 
BRANCH   9  10
ATOM     10  C   UNL     1      16.968   0.033 -23.199  1.00  0.00    -0.000 C 
BRANCH  10  11
ATOM     11  C   UNL     1      16.458  -0.698 -24.451  1.00  0.00    -0.000 C 
BRANCH  11  12
ATOM     12  C   UNL     1      16.072   0.303 -25.549  1.00  0.00    -0.000 C 
BRANCH  12  13
ATOM     13  C   UNL     1      16.277   1.763 -25.116  1.00  0.00    -0.003 C 
ATOM     14  C   UNL     1      17.044   2.585 -26.150  1.00  0.00     0.004 C 
ENDBRANCH  12  13
ENDBRANCH  11  12
ENDBRANCH  10  11
ENDBRANCH   9  10
ENDBRANCH   1   9
TORSDOF 10
ENDMDL
MODEL 8
REMARK VINA RESULT:    -4.835      9.323     11.241
REMARK INTER + INTRA:          -8.138
REMARK INTER:                  -6.611
REMARK INTRA:                  -1.526
REMARK UNBOUND:                -0.476
REMARK SMILES CCCCCCCCCCCC(=O)[O-]
REMARK SMILES IDX 7 1 8 2 9 3 10 4 11 5 12 6 13 7 14 8 6 9 5 10 4 11 3 12 2 13
REMARK SMILES IDX 1 14
REMARK H PARENT
REMARK Flexibility Score: inf
ROOT
ATOM      1  C   UNL     1      19.017  -2.139 -24.954  1.00  0.00     0.000 C 
ENDROOT
BRANCH   1   2
ATOM      2  C   UNL     1      18.043  -1.684 -23.860  1.00  0.00     0.000 C 
BRANCH   2   3
ATOM      3  C   UNL     1      16.884  -0.872 -24.459  1.00  0.00     0.000 C 
BRANCH   3   4
ATOM      4  C   UNL     1      16.531   0.370 -23.620  1.00  0.00     0.006 C 
BRANCH   4   5
ATOM      5  C   UNL     1      16.974   1.703 -24.245  1.00  0.00     0.053 C 
BRANCH   5   6
ATOM      6  C   UNL     1      16.340   1.935 -25.583  1.00  0.00     0.041 C 
ATOM      7  O   UNL     1      15.154   2.350 -25.657  1.00  0.00    -0.550 OA
ATOM      8  O   UNL     1      17.072   1.728 -26.745  1.00  0.00    -0.550 OA
ENDBRANCH   5   6
ENDBRANCH   4   5
ENDBRANCH   3   4
ENDBRANCH   2   3
ENDBRANCH   1   2
BRANCH   1   9
ATOM      9  C   UNL     1      19.182  -1.054 -26.029  1.00  0.00     0.000 C 
BRANCH   9  10
ATOM     10  C   UNL     1      20.213   0.017 -25.637  1.00  0.00    -0.000 C 
BRANCH  10  11
ATOM     11  C   UNL     1      21.347  -0.542 -24.763  1.00  0.00    -0.000 C 
BRANCH  11  12
ATOM     12  C   UNL     1      21.799   0.496 -23.725  1.00  0.00    -0.000 C 
BRANCH  12  13
ATOM     13  C   UNL     1      20.619   1.223 -23.064  1.00  0.00    -0.003 C 
ATOM     14  C   UNL     1      20.083   0.486 -21.837  1.00  0.00     0.004 C 
ENDBRANCH  12  13
ENDBRANCH  11  12
ENDBRANCH  10  11
ENDBRANCH   9  10
ENDBRANCH   1   9
TORSDOF 10
ENDMDL
MODEL 9
REMARK VINA RESULT:    -4.814     10.618     11.806
REMARK INTER + INTRA:          -8.104
REMARK INTER:                  -6.417
REMARK INTRA:                  -1.688
REMARK UNBOUND:                -0.476
REMARK SMILES CCCCCCCCCCCC(=O)[O-]
REMARK SMILES IDX 7 1 8 2 9 3 10 4 11 5 12 6 13 7 14 8 6 9 5 10 4 11 3 12 2 13
REMARK SMILES IDX 1 14
REMARK H PARENT
REMARK Flexibility Score: inf
ROOT
ATOM      1  C   UNL     1      18.308   1.938 -22.802  1.00  0.00     0.000 C 
ENDROOT
BRANCH   1   2
ATOM      2  C   UNL     1      17.094   1.033 -22.558  1.00  0.00     0.000 C 
BRANCH   2   3
ATOM      3  C   UNL     1      17.148  -0.212 -23.455  1.00  0.00     0.000 C 
BRANCH   3   4
ATOM      4  C   UNL     1      16.116  -0.169 -24.597  1.00  0.00     0.006 C 
BRANCH   4   5
ATOM      5  C   UNL     1      16.630   0.482 -25.891  1.00  0.00     0.053 C 
BRANCH   5   6
ATOM      6  C   UNL     1      16.270   1.934 -25.972  1.00  0.00     0.041 C 
ATOM      7  O   UNL     1      15.117   2.319 -25.643  1.00  0.00    -0.550 OA
ATOM      8  O   UNL     1      17.218   2.865 -26.377  1.00  0.00    -0.550 OA
ENDBRANCH   5   6
ENDBRANCH   4   5
ENDBRANCH   3   4
ENDBRANCH   2   3
ENDBRANCH   1   2
BRANCH   1   9
ATOM      9  C   UNL     1      19.489   1.134 -23.364  1.00  0.00     0.000 C 
BRANCH   9  10
ATOM     10  C   UNL     1      20.032   1.718 -24.679  1.00  0.00    -0.000 C 
BRANCH  10  11
ATOM     11  C   UNL     1      20.333   0.636 -25.728  1.00  0.00    -0.000 C 
BRANCH  11  12
ATOM     12  C   UNL     1      20.411  -0.752 -25.076  1.00  0.00    -0.000 C 
BRANCH  12  13
ATOM     13  C   UNL     1      19.623  -1.816 -25.856  1.00  0.00    -0.003 C 
ATOM     14  C   UNL     1      19.221  -3.008 -24.988  1.00  0.00     0.004 C 
ENDBRANCH  12  13
ENDBRANCH  11  12
ENDBRANCH  10  11
ENDBRANCH   9  10
ENDBRANCH   1   9
TORSDOF 10
ENDMDL
