MODEL 1
REMARK VINA RESULT:    -2.986      0.000      0.000
REMARK INTER + INTRA:          -3.372
REMARK INTER:                  -3.335
REMARK INTRA:                  -0.037
REMARK UNBOUND:                -0.037
REMARK SMILES CCCC(=O)[O-]
REMARK SMILES IDX 3 1 4 2 5 3 6 4 2 5 1 6
REMARK H PARENT
REMARK Flexibility Score: inf
ROOT
ATOM      1  C   UNL     1      25.864  -4.511  17.455  1.00  0.00     0.052 C 
ENDROOT
BRANCH   1   2
ATOM      2  C   UNL     1      25.245  -5.700  18.123  1.00  0.00     0.041 C 
ATOM      3  O   UNL     1      24.274  -5.550  18.911  1.00  0.00    -0.550 OA
ATOM      4  O   UNL     1      25.761  -6.970  17.902  1.00  0.00    -0.550 OA
ENDBRANCH   1   2
BRANCH   1   5
ATOM      5  C   UNL     1      24.838  -3.398  17.210  1.00  0.00     0.003 C 
ATOM      6  C   UNL     1      25.075  -2.181  18.104  1.00  0.00     0.004 C 
ENDBRANCH   1   5
TORSDOF 2
ENDMDL
MODEL 2
REMARK VINA RESULT:    -2.984      0.096      1.325
REMARK INTER + INTRA:          -3.369
REMARK INTER:                  -3.331
REMARK INTRA:                  -0.038
REMARK UNBOUND:                -0.037
REMARK SMILES CCCC(=O)[O-]
REMARK SMILES IDX 3 1 4 2 5 3 6 4 2 5 1 6
REMARK H PARENT
REMARK Flexibility Score: inf
ROOT
ATOM      1  C   UNL     1      25.848  -4.492  17.470  1.00  0.00     0.052 C 
ENDROOT
BRANCH   1   2
ATOM      2  C   UNL     1      25.237  -5.677  18.152  1.00  0.00     0.041 C 
ATOM      3  O   UNL     1      25.689  -6.834  17.939  1.00  0.00    -0.550 OA
ATOM      4  O   UNL     1      24.147  -5.510  18.996  1.00  0.00    -0.550 OA
ENDBRANCH   1   2
BRANCH   1   5
ATOM      5  C   UNL     1      24.821  -3.377  17.239  1.00  0.00     0.003 C 
ATOM      6  C   UNL     1      25.081  -2.154  18.119  1.00  0.00     0.004 C 
ENDBRANCH   1   5
TORSDOF 2
ENDMDL
MODEL 3
REMARK VINA RESULT:    -2.697     12.288     12.712
REMARK INTER + INTRA:          -3.049
REMARK INTER:                  -3.011
REMARK INTRA:                  -0.038
REMARK UNBOUND:                -0.037
REMARK SMILES CCCC(=O)[O-]
REMARK SMILES IDX 3 1 4 2 5 3 6 4 2 5 1 6
REMARK H PARENT
REMARK Flexibility Score: inf
ROOT
ATOM      1  C   UNL     1      27.609   0.018   6.090  1.00  0.00     0.052 C 
ENDROOT
BRANCH   1   2
ATOM      2  C   UNL     1      27.886  -0.000   7.562  1.00  0.00     0.041 C 
ATOM      3  O   UNL     1      27.255   0.768   8.335  1.00  0.00    -0.550 OA
ATOM      4  O   UNL     1      28.864  -0.841   8.076  1.00  0.00    -0.550 OA
ENDBRANCH   1   2
BRANCH   1   5
ATOM      5  C   UNL     1      27.926   1.384   5.469  1.00  0.00     0.003 C 
ATOM      6  C   UNL     1      26.663   2.148   5.068  1.00  0.00     0.004 C 
ENDBRANCH   1   5
TORSDOF 2
ENDMDL
MODEL 4
REMARK VINA RESULT:    -2.584      2.516      3.681
REMARK INTER + INTRA:          -2.922
REMARK INTER:                  -2.886
REMARK INTRA:                  -0.036
REMARK UNBOUND:                -0.037
REMARK SMILES CCCC(=O)[O-]
REMARK SMILES IDX 3 1 4 2 5 3 6 4 2 5 1 6
REMARK H PARENT
REMARK Flexibility Score: inf
ROOT
ATOM      1  C   UNL     1      25.010  -2.224  18.171  1.00  0.00     0.052 C 
ENDROOT
BRANCH   1   2
ATOM      2  C   UNL     1      23.644  -1.901  18.693  1.00  0.00     0.041 C 
ATOM      3  O   UNL     1      23.328  -0.708  18.947  1.00  0.00    -0.550 OA
ATOM      4  O   UNL     1      22.731  -2.920  18.933  1.00  0.00    -0.550 OA
ENDBRANCH   1   2
BRANCH   1   5
ATOM      5  C   UNL     1      24.964  -3.314  17.094  1.00  0.00     0.003 C 
ATOM      6  C   UNL     1      25.759  -4.559  17.490  1.00  0.00     0.004 C 
ENDBRANCH   1   5
TORSDOF 2
ENDMDL
MODEL 5
REMARK VINA RESULT:    -2.503     12.274     12.761
REMARK INTER + INTRA:          -2.832
REMARK INTER:                  -2.762
REMARK INTRA:                  -0.070
REMARK UNBOUND:                -0.037
REMARK SMILES CCCC(=O)[O-]
REMARK SMILES IDX 3 1 4 2 5 3 6 4 2 5 1 6
REMARK H PARENT
REMARK Flexibility Score: inf
ROOT
ATOM      1  C   UNL     1      26.672   2.641   7.158  1.00  0.00     0.052 C 
ENDROOT
BRANCH   1   2
ATOM      2  C   UNL     1      26.087   1.504   7.937  1.00  0.00     0.041 C 
ATOM      3  O   UNL     1      24.927   1.088   7.677  1.00  0.00    -0.550 OA
ATOM      4  O   UNL     1      26.808   0.927   8.974  1.00  0.00    -0.550 OA
ENDBRANCH   1   2
BRANCH   1   5
ATOM      5  C   UNL     1      26.814   2.297   5.670  1.00  0.00     0.003 C 
ATOM      6  C   UNL     1      27.821   1.172   5.427  1.00  0.00     0.004 C 
ENDBRANCH   1   5
TORSDOF 2
ENDMDL
MODEL 6
REMARK VINA RESULT:    -2.473     12.687     13.187
REMARK INTER + INTRA:          -2.799
REMARK INTER:                  -2.741
REMARK INTRA:                  -0.058
REMARK UNBOUND:                -0.037
REMARK SMILES CCCC(=O)[O-]
REMARK SMILES IDX 3 1 4 2 5 3 6 4 2 5 1 6
REMARK H PARENT
REMARK Flexibility Score: inf
ROOT
ATOM      1  C   UNL     1      27.727   0.360   6.616  1.00  0.00     0.052 C 
ENDROOT
BRANCH   1   2
ATOM      2  C   UNL     1      27.033  -0.898   6.196  1.00  0.00     0.041 C 
ATOM      3  O   UNL     1      27.634  -1.746   5.484  1.00  0.00    -0.550 OA
ATOM      4  O   UNL     1      25.712  -1.120   6.561  1.00  0.00    -0.550 OA
ENDBRANCH   1   2
BRANCH   1   5
ATOM      5  C   UNL     1      27.884   1.341   5.447  1.00  0.00     0.003 C 
ATOM      6  C   UNL     1      26.543   1.904   4.975  1.00  0.00     0.004 C 
ENDBRANCH   1   5
TORSDOF 2
ENDMDL
MODEL 7
REMARK VINA RESULT:    -2.450     13.072     13.564
REMARK INTER + INTRA:          -2.773
REMARK INTER:                  -2.741
REMARK INTRA:                  -0.031
REMARK UNBOUND:                -0.037
REMARK SMILES CCCC(=O)[O-]
REMARK SMILES IDX 3 1 4 2 5 3 6 4 2 5 1 6
REMARK H PARENT
REMARK Flexibility Score: inf
ROOT
ATOM      1  C   UNL     1      27.653   0.001   5.755  1.00  0.00     0.052 C 
ENDROOT
BRANCH   1   2
ATOM      2  C   UNL     1      27.577   1.478   5.524  1.00  0.00     0.041 C 
ATOM      3  O   UNL     1      28.413   2.249   6.065  1.00  0.00    -0.550 OA
ATOM      4  O   UNL     1      26.561   2.008   4.738  1.00  0.00    -0.550 OA
ENDBRANCH   1   2
BRANCH   1   5
ATOM      5  C   UNL     1      27.275  -0.370   7.194  1.00  0.00     0.003 C 
ATOM      6  C   UNL     1      28.501  -0.637   8.068  1.00  0.00     0.004 C 
ENDBRANCH   1   5
TORSDOF 2
ENDMDL
MODEL 8
REMARK VINA RESULT:    -2.443      1.863      3.249
REMARK INTER + INTRA:          -2.765
REMARK INTER:                  -2.727
REMARK INTRA:                  -0.038
REMARK UNBOUND:                -0.037
REMARK SMILES CCCC(=O)[O-]
REMARK SMILES IDX 3 1 4 2 5 3 6 4 2 5 1 6
REMARK H PARENT
REMARK Flexibility Score: inf
ROOT
ATOM      1  C   UNL     1      25.781  -4.446  17.389  1.00  0.00     0.052 C 
ENDROOT
BRANCH   1   2
ATOM      2  C   UNL     1      24.895  -3.420  18.024  1.00  0.00     0.041 C 
ATOM      3  O   UNL     1      23.788  -3.759  18.522  1.00  0.00    -0.550 OA
ATOM      4  O   UNL     1      25.274  -2.084  18.037  1.00  0.00    -0.550 OA
ENDBRANCH   1   2
BRANCH   1   5
ATOM      5  C   UNL     1      25.592  -5.831  18.020  1.00  0.00     0.003 C 
ATOM      6  C   UNL     1      25.088  -6.866  17.014  1.00  0.00     0.004 C 
ENDBRANCH   1   5
TORSDOF 2
ENDMDL
MODEL 9
REMARK VINA RESULT:    -2.362      9.772     10.244
REMARK INTER + INTRA:          -2.675
REMARK INTER:                  -2.657
REMARK INTRA:                  -0.018
REMARK UNBOUND:                -0.037
REMARK SMILES CCCC(=O)[O-]
REMARK SMILES IDX 3 1 4 2 5 3 6 4 2 5 1 6
REMARK H PARENT
REMARK Flexibility Score: inf
ROOT
ATOM      1  C   UNL     1      28.568  -0.474   9.206  1.00  0.00     0.052 C 
ENDROOT
BRANCH   1   2
ATOM      2  C   UNL     1      28.539  -1.649   8.279  1.00  0.00     0.041 C 
ATOM      3  O   UNL     1      29.123  -2.720   8.594  1.00  0.00    -0.550 OA
ATOM      4  O   UNL     1      27.896  -1.553   7.051  1.00  0.00    -0.550 OA
ENDBRANCH   1   2
BRANCH   1   5
ATOM      5  C   UNL     1      28.349  -0.893  10.664  1.00  0.00     0.003 C 
ATOM      6  C   UNL     1      29.125  -0.015  11.646  1.00  0.00     0.004 C 
ENDBRANCH   1   5
TORSDOF 2
ENDMDL
