MODEL 1
REMARK VINA RESULT:    -3.234      0.000      0.000
REMARK INTER + INTRA:          -4.394
REMARK INTER:                  -4.180
REMARK INTRA:                  -0.214
REMARK UNBOUND:                -0.214
REMARK SMILES CCCCCCC(=O)[O-]
REMARK SMILES IDX 5 1 6 2 7 3 8 4 9 5 4 6 3 7 2 8 1 9
REMARK H PARENT
REMARK Flexibility Score: inf
ROOT
ATOM      1  C   UNL     1      57.264  28.636  50.321  1.00  0.00     0.006 C 
ENDROOT
BRANCH   1   2
ATOM      2  C   UNL     1      58.487  27.736  50.102  1.00  0.00     0.053 C 
BRANCH   2   3
ATOM      3  C   UNL     1      59.510  28.441  49.267  1.00  0.00     0.041 C 
ATOM      4  O   UNL     1      59.328  29.637  48.918  1.00  0.00    -0.550 OA
ATOM      5  O   UNL     1      60.687  27.792  48.915  1.00  0.00    -0.550 OA
ENDBRANCH   2   3
ENDBRANCH   1   2
BRANCH   1   6
ATOM      6  C   UNL     1      55.936  27.876  50.171  1.00  0.00     0.000 C 
BRANCH   6   7
ATOM      7  C   UNL     1      56.135  26.414  49.748  1.00  0.00    -0.000 C 
BRANCH   7   8
ATOM      8  C   UNL     1      54.880  25.867  49.058  1.00  0.00    -0.003 C 
ATOM      9  C   UNL     1      53.719  26.851  49.163  1.00  0.00     0.004 C 
ENDBRANCH   7   8
ENDBRANCH   6   7
ENDBRANCH   1   6
TORSDOF 5
ENDMDL
MODEL 2
REMARK VINA RESULT:    -3.218     13.067     14.418
REMARK INTER + INTRA:          -4.373
REMARK INTER:                  -4.160
REMARK INTRA:                  -0.212
REMARK UNBOUND:                -0.214
REMARK SMILES CCCCCCC(=O)[O-]
REMARK SMILES IDX 5 1 6 2 7 3 8 4 9 5 4 6 3 7 2 8 1 9
REMARK H PARENT
REMARK Flexibility Score: inf
ROOT
ATOM      1  C   UNL     1      61.907  33.107  60.100  1.00  0.00     0.006 C 
ENDROOT
BRANCH   1   2
ATOM      2  C   UNL     1      62.665  31.785  60.276  1.00  0.00     0.053 C 
BRANCH   2   3
ATOM      3  C   UNL     1      61.881  30.845  61.138  1.00  0.00     0.041 C 
ATOM      4  O   UNL     1      60.680  31.099  61.422  1.00  0.00    -0.550 OA
ATOM      5  O   UNL     1      62.461  29.665  61.587  1.00  0.00    -0.550 OA
ENDBRANCH   2   3
ENDBRANCH   1   2
BRANCH   1   6
ATOM      6  C   UNL     1      62.822  34.335  60.232  1.00  0.00     0.000 C 
BRANCH   6   7
ATOM      7  C   UNL     1      64.266  33.961  60.596  1.00  0.00    -0.000 C 
BRANCH   7   8
ATOM      8  C   UNL     1      64.933  35.078  61.408  1.00  0.00    -0.003 C 
ATOM      9  C   UNL     1      64.169  36.392  61.272  1.00  0.00     0.004 C 
ENDBRANCH   7   8
ENDBRANCH   6   7
ENDBRANCH   1   6
TORSDOF 5
ENDMDL
MODEL 3
REMARK VINA RESULT:    -3.118      1.282      1.893
REMARK INTER + INTRA:          -4.244
REMARK INTER:                  -4.110
REMARK INTRA:                  -0.134
REMARK UNBOUND:                -0.214
REMARK SMILES CCCCCCC(=O)[O-]
REMARK SMILES IDX 5 1 6 2 7 3 8 4 9 5 4 6 3 7 2 8 1 9
REMARK H PARENT
REMARK Flexibility Score: inf
ROOT
ATOM      1  C   UNL     1      58.425  29.152  50.206  1.00  0.00     0.006 C 
ENDROOT
BRANCH   1   2
ATOM      2  C   UNL     1      59.424  29.090  49.043  1.00  0.00     0.053 C 
BRANCH   2   3
ATOM      3  C   UNL     1      60.534  28.138  49.359  1.00  0.00     0.041 C 
ATOM      4  O   UNL     1      60.417  26.914  49.086  1.00  0.00    -0.550 OA
ATOM      5  O   UNL     1      61.719  28.610  49.911  1.00  0.00    -0.550 OA
ENDBRANCH   2   3
ENDBRANCH   1   2
BRANCH   1   6
ATOM      6  C   UNL     1      57.380  28.026  50.149  1.00  0.00     0.000 C 
BRANCH   6   7
ATOM      7  C   UNL     1      55.943  28.544  50.296  1.00  0.00    -0.000 C 
BRANCH   7   8
ATOM      8  C   UNL     1      54.934  27.522  49.761  1.00  0.00    -0.003 C 
ATOM      9  C   UNL     1      55.618  26.206  49.402  1.00  0.00     0.004 C 
ENDBRANCH   7   8
ENDBRANCH   6   7
ENDBRANCH   1   6
TORSDOF 5
ENDMDL
MODEL 4
REMARK VINA RESULT:    -3.090     12.433     13.645
REMARK INTER + INTRA:          -4.207
REMARK INTER:                  -4.072
REMARK INTRA:                  -0.135
REMARK UNBOUND:                -0.214
REMARK SMILES CCCCCCC(=O)[O-]
REMARK SMILES IDX 5 1 6 2 7 3 8 4 9 5 4 6 3 7 2 8 1 9
REMARK H PARENT
REMARK Flexibility Score: inf
ROOT
ATOM      1  C   UNL     1      61.403  31.632  60.103  1.00  0.00     0.006 C 
ENDROOT
BRANCH   1   2
ATOM      2  C   UNL     1      61.395  30.778  61.378  1.00  0.00     0.053 C 
BRANCH   2   3
ATOM      3  C   UNL     1      62.428  29.699  61.288  1.00  0.00     0.041 C 
ATOM      4  O   UNL     1      63.651  29.982  61.381  1.00  0.00    -0.550 OA
ATOM      5  O   UNL     1      62.037  28.372  61.149  1.00  0.00    -0.550 OA
ENDBRANCH   2   3
ENDBRANCH   1   2
BRANCH   1   6
ATOM      6  C   UNL     1      62.244  32.910  60.252  1.00  0.00     0.000 C 
BRANCH   6   7
ATOM      7  C   UNL     1      61.499  34.168  59.782  1.00  0.00    -0.000 C 
BRANCH   7   8
ATOM      8  C   UNL     1      62.179  35.437  60.308  1.00  0.00    -0.003 C 
ATOM      9  C   UNL     1      63.625  35.162  60.713  1.00  0.00     0.004 C 
ENDBRANCH   7   8
ENDBRANCH   6   7
ENDBRANCH   1   6
TORSDOF 5
ENDMDL
MODEL 5
REMARK VINA RESULT:    -3.053     13.079     14.011
REMARK INTER + INTRA:          -4.159
REMARK INTER:                  -3.931
REMARK INTRA:                  -0.229
REMARK UNBOUND:                -0.214
REMARK SMILES CCCCCCC(=O)[O-]
REMARK SMILES IDX 5 1 6 2 7 3 8 4 9 5 4 6 3 7 2 8 1 9
REMARK H PARENT
REMARK Flexibility Score: inf
ROOT
ATOM      1  C   UNL     1      62.686  33.636  60.209  1.00  0.00     0.006 C 
ENDROOT
BRANCH   1   2
ATOM      2  C   UNL     1      64.170  33.835  60.548  1.00  0.00     0.053 C 
BRANCH   2   3
ATOM      3  C   UNL     1      64.415  35.237  61.011  1.00  0.00     0.041 C 
ATOM      4  O   UNL     1      63.451  36.036  61.152  1.00  0.00    -0.550 OA
ATOM      5  O   UNL     1      65.702  35.647  61.335  1.00  0.00    -0.550 OA
ENDBRANCH   2   3
ENDBRANCH   1   2
BRANCH   1   6
ATOM      6  C   UNL     1      62.371  32.202  59.755  1.00  0.00     0.000 C 
BRANCH   6   7
ATOM      7  C   UNL     1      61.127  31.622  60.444  1.00  0.00    -0.000 C 
BRANCH   7   8
ATOM      8  C   UNL     1      61.521  30.581  61.498  1.00  0.00    -0.003 C 
ATOM      9  C   UNL     1      62.907  30.007  61.217  1.00  0.00     0.004 C 
ENDBRANCH   7   8
ENDBRANCH   6   7
ENDBRANCH   1   6
TORSDOF 5
ENDMDL
MODEL 6
REMARK VINA RESULT:    -2.997      2.778      4.854
REMARK INTER + INTRA:          -4.087
REMARK INTER:                  -3.944
REMARK INTRA:                  -0.143
REMARK UNBOUND:                -0.214
REMARK SMILES CCCCCCC(=O)[O-]
REMARK SMILES IDX 5 1 6 2 7 3 8 4 9 5 4 6 3 7 2 8 1 9
REMARK H PARENT
REMARK Flexibility Score: inf
ROOT
ATOM      1  C   UNL     1      57.492  27.929  50.088  1.00  0.00     0.006 C 
ENDROOT
BRANCH   1   2
ATOM      2  C   UNL     1      56.016  28.130  50.455  1.00  0.00     0.053 C 
BRANCH   2   3
ATOM      3  C   UNL     1      55.146  27.242  49.622  1.00  0.00     0.041 C 
ATOM      4  O   UNL     1      53.991  27.617  49.290  1.00  0.00    -0.550 OA
ATOM      5  O   UNL     1      55.630  26.020  49.170  1.00  0.00    -0.550 OA
ENDBRANCH   2   3
ENDBRANCH   1   2
BRANCH   1   6
ATOM      6  C   UNL     1      58.308  29.228  50.185  1.00  0.00     0.000 C 
BRANCH   6   7
ATOM      7  C   UNL     1      59.537  29.226  49.265  1.00  0.00    -0.000 C 
BRANCH   7   8
ATOM      8  C   UNL     1      60.144  27.821  49.165  1.00  0.00    -0.003 C 
ATOM      9  C   UNL     1      61.669  27.876  49.187  1.00  0.00     0.004 C 
ENDBRANCH   7   8
ENDBRANCH   6   7
ENDBRANCH   1   6
TORSDOF 5
ENDMDL
MODEL 7
REMARK VINA RESULT:    -2.939      1.122      2.055
REMARK INTER + INTRA:          -4.012
REMARK INTER:                  -3.789
REMARK INTRA:                  -0.224
REMARK UNBOUND:                -0.214
REMARK SMILES CCCCCCC(=O)[O-]
REMARK SMILES IDX 5 1 6 2 7 3 8 4 9 5 4 6 3 7 2 8 1 9
REMARK H PARENT
REMARK Flexibility Score: inf
ROOT
ATOM      1  C   UNL     1      57.649  26.928  50.080  1.00  0.00     0.006 C 
ENDROOT
BRANCH   1   2
ATOM      2  C   UNL     1      58.657  27.995  50.528  1.00  0.00     0.053 C 
BRANCH   2   3
ATOM      3  C   UNL     1      59.560  28.368  49.394  1.00  0.00     0.041 C 
ATOM      4  O   UNL     1      60.436  27.558  48.989  1.00  0.00    -0.550 OA
ATOM      5  O   UNL     1      59.402  29.590  48.752  1.00  0.00    -0.550 OA
ENDBRANCH   2   3
ENDBRANCH   1   2
BRANCH   1   6
ATOM      6  C   UNL     1      56.198  27.437  50.106  1.00  0.00     0.000 C 
BRANCH   6   7
ATOM      7  C   UNL     1      56.094  28.908  50.534  1.00  0.00    -0.000 C 
BRANCH   7   8
ATOM      8  C   UNL     1      54.707  29.475  50.211  1.00  0.00    -0.003 C 
ATOM      9  C   UNL     1      53.774  28.387  49.687  1.00  0.00     0.004 C 
ENDBRANCH   7   8
ENDBRANCH   6   7
ENDBRANCH   1   6
TORSDOF 5
ENDMDL
MODEL 8
REMARK VINA RESULT:    -2.783     13.294     13.907
REMARK INTER + INTRA:          -3.810
REMARK INTER:                  -3.643
REMARK INTRA:                  -0.168
REMARK UNBOUND:                -0.214
REMARK SMILES CCCCCCC(=O)[O-]
REMARK SMILES IDX 5 1 6 2 7 3 8 4 9 5 4 6 3 7 2 8 1 9
REMARK H PARENT
REMARK Flexibility Score: inf
ROOT
ATOM      1  C   UNL     1      63.182  33.807  60.325  1.00  0.00     0.006 C 
ENDROOT
BRANCH   1   2
ATOM      2  C   UNL     1      64.474  32.980  60.283  1.00  0.00     0.053 C 
BRANCH   2   3
ATOM      3  C   UNL     1      64.166  31.525  60.458  1.00  0.00     0.041 C 
ATOM      4  O   UNL     1      62.982  31.148  60.661  1.00  0.00    -0.550 OA
ATOM      5  O   UNL     1      65.181  30.582  60.348  1.00  0.00    -0.550 OA
ENDBRANCH   2   3
ENDBRANCH   1   2
BRANCH   1   6
ATOM      6  C   UNL     1      63.430  35.271  60.726  1.00  0.00     0.000 C 
BRANCH   6   7
ATOM      7  C   UNL     1      62.200  36.162  60.504  1.00  0.00    -0.000 C 
BRANCH   7   8
ATOM      8  C   UNL     1      61.031  35.350  59.933  1.00  0.00    -0.003 C 
ATOM      9  C   UNL     1      60.101  36.230  59.102  1.00  0.00     0.004 C 
ENDBRANCH   7   8
ENDBRANCH   6   7
ENDBRANCH   1   6
TORSDOF 5
ENDMDL
MODEL 9
REMARK VINA RESULT:    -2.780     12.853     13.868
REMARK INTER + INTRA:          -3.806
REMARK INTER:                  -3.548
REMARK INTRA:                  -0.259
REMARK UNBOUND:                -0.214
REMARK SMILES CCCCCCC(=O)[O-]
REMARK SMILES IDX 5 1 6 2 7 3 8 4 9 5 4 6 3 7 2 8 1 9
REMARK H PARENT
REMARK Flexibility Score: inf
ROOT
ATOM      1  C   UNL     1      63.796  33.308  59.724  1.00  0.00     0.006 C 
ENDROOT
BRANCH   1   2
ATOM      2  C   UNL     1      63.988  34.477  60.700  1.00  0.00     0.053 C 
BRANCH   2   3
ATOM      3  C   UNL     1      62.795  35.380  60.672  1.00  0.00     0.041 C 
ATOM      4  O   UNL     1      62.889  36.568  61.080  1.00  0.00    -0.550 OA
ATOM      5  O   UNL     1      61.591  34.924  60.150  1.00  0.00    -0.550 OA
ENDBRANCH   2   3
ENDBRANCH   1   2
BRANCH   1   6
ATOM      6  C   UNL     1      64.448  32.008  60.224  1.00  0.00     0.000 C 
BRANCH   6   7
ATOM      7  C   UNL     1      63.425  31.014  60.792  1.00  0.00    -0.000 C 
BRANCH   7   8
ATOM      8  C   UNL     1      62.000  31.393  60.371  1.00  0.00    -0.003 C 
ATOM      9  C   UNL     1      60.974  30.896  61.385  1.00  0.00     0.004 C 
ENDBRANCH   7   8
ENDBRANCH   6   7
ENDBRANCH   1   6
TORSDOF 5
ENDMDL
