MODEL 1
REMARK VINA RESULT:    -5.630      0.000      0.000
REMARK INTER + INTRA:         -11.946
REMARK INTER:                 -10.238
REMARK INTRA:                  -1.707
REMARK UNBOUND:                -1.707
REMARK SMILES CCCCCCCCCCCCCC[C@H](C)C(=O)[O-]
REMARK SMILES IDX 9 1 10 2 11 3 12 4 13 5 14 6 15 7 16 8 17 9 18 10 19 11 8 12
REMARK SMILES IDX 7 13 6 14 5 15 4 16 3 17 2 18 1 19
REMARK H PARENT
REMARK Flexibility Score: inf
ROOT
ATOM      1  C   UNL     1     -28.536  -2.249  21.452  1.00  0.00     0.000 C 
ENDROOT
BRANCH   1   2
ATOM      2  C   UNL     1     -28.057  -1.095  20.556  1.00  0.00     0.000 C 
BRANCH   2   3
ATOM      3  C   UNL     1     -28.213  -1.408  19.057  1.00  0.00     0.000 C 
BRANCH   3   4
ATOM      4  C   UNL     1     -29.006  -2.701  18.805  1.00  0.00     0.000 C 
BRANCH   4   5
ATOM      5  C   UNL     1     -28.915  -3.179  17.346  1.00  0.00     0.001 C 
BRANCH   5   6
ATOM      6  C   UNL     1     -28.088  -2.230  16.459  1.00  0.00     0.009 C 
BRANCH   6   7
ATOM      7  C   UNL     1     -27.513  -2.895  15.188  1.00  0.00     0.032 C 
ATOM      8  C   UNL     1     -26.893  -1.839  14.265  1.00  0.00     0.014 C 
BRANCH   7   9
ATOM      9  C   UNL     1     -28.571  -3.662  14.441  1.00  0.00     0.044 C 
ATOM     10  O   UNL     1     -28.463  -4.908  14.294  1.00  0.00    -0.550 OA
ATOM     11  O   UNL     1     -29.676  -3.003  13.914  1.00  0.00    -0.550 OA
ENDBRANCH   7   9
ENDBRANCH   6   7
ENDBRANCH   5   6
ENDBRANCH   4   5
ENDBRANCH   3   4
ENDBRANCH   2   3
ENDBRANCH   1   2
BRANCH   1  12
ATOM     12  C   UNL     1     -29.784  -1.880  22.272  1.00  0.00     0.000 C 
BRANCH  12  13
ATOM     13  C   UNL     1     -30.373  -0.519  21.870  1.00  0.00    -0.000 C 
BRANCH  13  14
ATOM     14  C   UNL     1     -31.003   0.229  23.060  1.00  0.00    -0.000 C 
BRANCH  14  15
ATOM     15  C   UNL     1     -30.545  -0.325  24.419  1.00  0.00    -0.000 C 
BRANCH  15  16
ATOM     16  C   UNL     1     -29.355   0.455  25.002  1.00  0.00    -0.000 C 
BRANCH  16  17
ATOM     17  C   UNL     1     -28.185  -0.457  25.414  1.00  0.00    -0.000 C 
BRANCH  17  18
ATOM     18  C   UNL     1     -27.040  -0.548  24.389  1.00  0.00    -0.003 C 
ATOM     19  C   UNL     1     -26.857   0.734  23.578  1.00  0.00     0.004 C 
ENDBRANCH  17  18
ENDBRANCH  16  17
ENDBRANCH  15  16
ENDBRANCH  14  15
ENDBRANCH  13  14
ENDBRANCH  12  13
ENDBRANCH   1  12
TORSDOF 14
ENDMDL
MODEL 2
REMARK VINA RESULT:    -5.522      3.558      8.478
REMARK INTER + INTRA:         -11.749
REMARK INTER:                 -10.466
REMARK INTRA:                  -1.284
REMARK UNBOUND:                -1.707
REMARK SMILES CCCCCCCCCCCCCC[C@H](C)C(=O)[O-]
REMARK SMILES IDX 9 1 10 2 11 3 12 4 13 5 14 6 15 7 16 8 17 9 18 10 19 11 8 12
REMARK SMILES IDX 7 13 6 14 5 15 4 16 3 17 2 18 1 19
REMARK H PARENT
REMARK Flexibility Score: inf
ROOT
ATOM      1  C   UNL     1     -27.179  -1.483  20.255  1.00  0.00     0.000 C 
ENDROOT
BRANCH   1   2
ATOM      2  C   UNL     1     -27.910  -1.370  21.603  1.00  0.00     0.000 C 
BRANCH   2   3
ATOM      3  C   UNL     1     -27.056  -0.678  22.681  1.00  0.00     0.000 C 
BRANCH   3   4
ATOM      4  C   UNL     1     -26.895  -1.539  23.945  1.00  0.00     0.000 C 
BRANCH   4   5
ATOM      5  C   UNL     1     -28.211  -2.204  24.383  1.00  0.00     0.001 C 
BRANCH   5   6
ATOM      6  C   UNL     1     -29.107  -1.263  25.210  1.00  0.00     0.009 C 
BRANCH   6   7
ATOM      7  C   UNL     1     -30.513  -1.039  24.607  1.00  0.00     0.032 C 
ATOM      8  C   UNL     1     -30.902  -2.216  23.705  1.00  0.00     0.014 C 
BRANCH   7   9
ATOM      9  C   UNL     1     -30.576   0.244  23.822  1.00  0.00     0.044 C 
ATOM     10  O   UNL     1     -29.684   1.119  23.969  1.00  0.00    -0.550 OA
ATOM     11  O   UNL     1     -31.616   0.469  22.927  1.00  0.00    -0.550 OA
ENDBRANCH   7   9
ENDBRANCH   6   7
ENDBRANCH   5   6
ENDBRANCH   4   5
ENDBRANCH   3   4
ENDBRANCH   2   3
ENDBRANCH   1   2
BRANCH   1  12
ATOM     12  C   UNL     1     -28.136  -1.380  19.054  1.00  0.00     0.000 C 
BRANCH  12  13
ATOM     13  C   UNL     1     -29.010  -2.633  18.888  1.00  0.00    -0.000 C 
BRANCH  13  14
ATOM     14  C   UNL     1     -29.002  -3.175  17.447  1.00  0.00    -0.000 C 
BRANCH  14  15
ATOM     15  C   UNL     1     -28.236  -2.263  16.475  1.00  0.00    -0.000 C 
BRANCH  15  16
ATOM     16  C   UNL     1     -28.492  -2.623  15.002  1.00  0.00    -0.000 C 
BRANCH  16  17
ATOM     17  C   UNL     1     -28.231  -4.109  14.696  1.00  0.00    -0.000 C 
BRANCH  17  18
ATOM     18  C   UNL     1     -29.436  -4.878  14.125  1.00  0.00    -0.003 C 
ATOM     19  C   UNL     1     -30.751  -4.109  14.249  1.00  0.00     0.004 C 
ENDBRANCH  17  18
ENDBRANCH  16  17
ENDBRANCH  15  16
ENDBRANCH  14  15
ENDBRANCH  13  14
ENDBRANCH  12  13
ENDBRANCH   1  12
TORSDOF 14
ENDMDL
MODEL 3
REMARK VINA RESULT:    -5.490      1.028      2.454
REMARK INTER + INTRA:         -11.691
REMARK INTER:                 -10.044
REMARK INTRA:                  -1.646
REMARK UNBOUND:                -1.707
REMARK SMILES CCCCCCCCCCCCCC[C@H](C)C(=O)[O-]
REMARK SMILES IDX 9 1 10 2 11 3 12 4 13 5 14 6 15 7 16 8 17 9 18 10 19 11 8 12
REMARK SMILES IDX 7 13 6 14 5 15 4 16 3 17 2 18 1 19
REMARK H PARENT
REMARK Flexibility Score: inf
ROOT
ATOM      1  C   UNL     1     -27.443  -1.210  21.422  1.00  0.00     0.000 C 
ENDROOT
BRANCH   1   2
ATOM      2  C   UNL     1     -28.666  -2.115  21.199  1.00  0.00     0.000 C 
BRANCH   2   3
ATOM      3  C   UNL     1     -28.995  -2.305  19.707  1.00  0.00     0.000 C 
BRANCH   3   4
ATOM      4  C   UNL     1     -28.042  -1.521  18.790  1.00  0.00     0.000 C 
BRANCH   4   5
ATOM      5  C   UNL     1     -28.200  -1.898  17.307  1.00  0.00     0.001 C 
BRANCH   5   6
ATOM      6  C   UNL     1     -28.816  -3.296  17.111  1.00  0.00     0.009 C 
BRANCH   6   7
ATOM      7  C   UNL     1     -28.502  -3.938  15.740  1.00  0.00     0.032 C 
ATOM      8  C   UNL     1     -27.355  -3.192  15.050  1.00  0.00     0.014 C 
BRANCH   7   9
ATOM      9  C   UNL     1     -29.713  -3.944  14.846  1.00  0.00     0.044 C 
ATOM     10  O   UNL     1     -30.098  -5.016  14.310  1.00  0.00    -0.550 OA
ATOM     11  O   UNL     1     -30.417  -2.769  14.608  1.00  0.00    -0.550 OA
ENDBRANCH   7   9
ENDBRANCH   6   7
ENDBRANCH   5   6
ENDBRANCH   4   5
ENDBRANCH   3   4
ENDBRANCH   2   3
ENDBRANCH   1   2
BRANCH   1  12
ATOM     12  C   UNL     1     -27.805   0.106  22.132  1.00  0.00     0.000 C 
BRANCH  12  13
ATOM     13  C   UNL     1     -27.208   0.195  23.546  1.00  0.00    -0.000 C 
BRANCH  13  14
ATOM     14  C   UNL     1     -27.075  -1.182  24.222  1.00  0.00    -0.000 C 
BRANCH  14  15
ATOM     15  C   UNL     1     -28.310  -1.553  25.059  1.00  0.00    -0.000 C 
BRANCH  15  16
ATOM     16  C   UNL     1     -29.012  -0.321  25.653  1.00  0.00    -0.000 C 
BRANCH  16  17
ATOM     17  C   UNL     1     -30.494  -0.223  25.247  1.00  0.00    -0.000 C 
BRANCH  17  18
ATOM     18  C   UNL     1     -30.893  -1.075  24.029  1.00  0.00    -0.003 C 
ATOM     19  C   UNL     1     -31.486  -0.250  22.888  1.00  0.00     0.004 C 
ENDBRANCH  17  18
ENDBRANCH  16  17
ENDBRANCH  15  16
ENDBRANCH  14  15
ENDBRANCH  13  14
ENDBRANCH  12  13
ENDBRANCH   1  12
TORSDOF 14
ENDMDL
MODEL 4
REMARK VINA RESULT:    -5.477      7.653     11.827
REMARK INTER + INTRA:         -11.667
REMARK INTER:                 -10.038
REMARK INTRA:                  -1.629
REMARK UNBOUND:                -1.707
REMARK SMILES CCCCCCCCCCCCCC[C@H](C)C(=O)[O-]
REMARK SMILES IDX 9 1 10 2 11 3 12 4 13 5 14 6 15 7 16 8 17 9 18 10 19 11 8 12
REMARK SMILES IDX 7 13 6 14 5 15 4 16 3 17 2 18 1 19
REMARK H PARENT
REMARK Flexibility Score: inf
ROOT
ATOM      1  C   UNL     1     -28.161   0.252  26.033  1.00  0.00     0.000 C 
ENDROOT
BRANCH   1   2
ATOM      2  C   UNL     1     -28.988   0.015  27.307  1.00  0.00     0.000 C 
BRANCH   2   3
ATOM      3  C   UNL     1     -30.101   1.063  27.492  1.00  0.00     0.000 C 
BRANCH   3   4
ATOM      4  C   UNL     1     -30.222   1.542  28.948  1.00  0.00     0.000 C 
BRANCH   4   5
ATOM      5  C   UNL     1     -29.201   0.868  29.882  1.00  0.00     0.001 C 
BRANCH   5   6
ATOM      6  C   UNL     1     -29.405   1.248  31.360  1.00  0.00     0.009 C 
BRANCH   6   7
ATOM      7  C   UNL     1     -29.478   2.771  31.616  1.00  0.00     0.032 C 
ATOM      8  C   UNL     1     -28.175   3.270  32.252  1.00  0.00     0.014 C 
BRANCH   7   9
ATOM      9  C   UNL     1     -30.642   3.124  32.503  1.00  0.00     0.044 C 
ATOM     10  O   UNL     1     -30.439   3.589  33.656  1.00  0.00    -0.550 OA
ATOM     11  O   UNL     1     -31.946   2.945  32.056  1.00  0.00    -0.550 OA
ENDBRANCH   7   9
ENDBRANCH   6   7
ENDBRANCH   5   6
ENDBRANCH   4   5
ENDBRANCH   3   4
ENDBRANCH   2   3
ENDBRANCH   1   2
BRANCH   1  12
ATOM     12  C   UNL     1     -27.797  -1.057  25.313  1.00  0.00     0.000 C 
BRANCH  12  13
ATOM     13  C   UNL     1     -26.844  -0.834  24.128  1.00  0.00    -0.000 C 
BRANCH  13  14
ATOM     14  C   UNL     1     -27.162   0.454  23.346  1.00  0.00    -0.000 C 
BRANCH  14  15
ATOM     15  C   UNL     1     -28.369   0.294  22.407  1.00  0.00    -0.000 C 
BRANCH  15  16
ATOM     16  C   UNL     1     -29.538   1.217  22.788  1.00  0.00    -0.000 C 
BRANCH  16  17
ATOM     17  C   UNL     1     -30.771   0.444  23.290  1.00  0.00    -0.000 C 
BRANCH  17  18
ATOM     18  C   UNL     1     -30.767  -1.063  22.975  1.00  0.00    -0.003 C 
ATOM     19  C   UNL     1     -31.196  -1.925  24.161  1.00  0.00     0.004 C 
ENDBRANCH  17  18
ENDBRANCH  16  17
ENDBRANCH  15  16
ENDBRANCH  14  15
ENDBRANCH  13  14
ENDBRANCH  12  13
ENDBRANCH   1  12
TORSDOF 14
ENDMDL
MODEL 5
REMARK VINA RESULT:    -5.469      0.994      1.722
REMARK INTER + INTRA:         -11.652
REMARK INTER:                  -9.839
REMARK INTRA:                  -1.814
REMARK UNBOUND:                -1.707
REMARK SMILES CCCCCCCCCCCCCC[C@H](C)C(=O)[O-]
REMARK SMILES IDX 9 1 10 2 11 3 12 4 13 5 14 6 15 7 16 8 17 9 18 10 19 11 8 12
REMARK SMILES IDX 7 13 6 14 5 15 4 16 3 17 2 18 1 19
REMARK H PARENT
REMARK Flexibility Score: inf
ROOT
ATOM      1  C   UNL     1     -30.029  -0.834  21.831  1.00  0.00     0.000 C 
ENDROOT
BRANCH   1   2
ATOM      2  C   UNL     1     -29.313  -2.194  21.790  1.00  0.00     0.000 C 
BRANCH   2   3
ATOM      3  C   UNL     1     -28.621  -2.456  20.440  1.00  0.00     0.000 C 
BRANCH   3   4
ATOM      4  C   UNL     1     -28.451  -1.174  19.608  1.00  0.00     0.000 C 
BRANCH   4   5
ATOM      5  C   UNL     1     -28.039  -1.461  18.153  1.00  0.00     0.001 C 
BRANCH   5   6
ATOM      6  C   UNL     1     -28.722  -2.716  17.577  1.00  0.00     0.009 C 
BRANCH   6   7
ATOM      7  C   UNL     1     -28.312  -3.047  16.124  1.00  0.00     0.032 C 
ATOM      8  C   UNL     1     -27.984  -1.763  15.355  1.00  0.00     0.014 C 
BRANCH   7   9
ATOM      9  C   UNL     1     -29.397  -3.805  15.406  1.00  0.00     0.044 C 
ATOM     10  O   UNL     1     -29.314  -5.054  15.276  1.00  0.00    -0.550 OA
ATOM     11  O   UNL     1     -30.498  -3.133  14.887  1.00  0.00    -0.550 OA
ENDBRANCH   7   9
ENDBRANCH   6   7
ENDBRANCH   5   6
ENDBRANCH   4   5
ENDBRANCH   3   4
ENDBRANCH   2   3
ENDBRANCH   1   2
BRANCH   1  12
ATOM     12  C   UNL     1     -31.042  -0.735  22.985  1.00  0.00     0.000 C 
BRANCH  12  13
ATOM     13  C   UNL     1     -30.686   0.375  23.988  1.00  0.00    -0.000 C 
BRANCH  13  14
ATOM     14  C   UNL     1     -30.464  -0.164  25.413  1.00  0.00    -0.000 C 
BRANCH  14  15
ATOM     15  C   UNL     1     -29.288  -1.151  25.498  1.00  0.00    -0.000 C 
BRANCH  15  16
ATOM     16  C   UNL     1     -27.923  -0.445  25.458  1.00  0.00    -0.000 C 
BRANCH  16  17
ATOM     17  C   UNL     1     -26.909  -1.155  24.542  1.00  0.00    -0.000 C 
BRANCH  17  18
ATOM     18  C   UNL     1     -26.630  -0.445  23.205  1.00  0.00    -0.003 C 
ATOM     19  C   UNL     1     -27.078   1.016  23.197  1.00  0.00     0.004 C 
ENDBRANCH  17  18
ENDBRANCH  16  17
ENDBRANCH  15  16
ENDBRANCH  14  15
ENDBRANCH  13  14
ENDBRANCH  12  13
ENDBRANCH   1  12
TORSDOF 14
ENDMDL
MODEL 6
REMARK VINA RESULT:    -5.464      4.146      8.396
REMARK INTER + INTRA:         -11.643
REMARK INTER:                 -10.391
REMARK INTRA:                  -1.252
REMARK UNBOUND:                -1.707
REMARK SMILES CCCCCCCCCCCCCC[C@H](C)C(=O)[O-]
REMARK SMILES IDX 9 1 10 2 11 3 12 4 13 5 14 6 15 7 16 8 17 9 18 10 19 11 8 12
REMARK SMILES IDX 7 13 6 14 5 15 4 16 3 17 2 18 1 19
REMARK H PARENT
REMARK Flexibility Score: inf
ROOT
ATOM      1  C   UNL     1     -29.930  -1.377  20.493  1.00  0.00     0.000 C 
ENDROOT
BRANCH   1   2
ATOM      2  C   UNL     1     -29.771  -1.930  21.919  1.00  0.00     0.000 C 
BRANCH   2   3
ATOM      3  C   UNL     1     -30.729  -1.261  22.921  1.00  0.00     0.000 C 
BRANCH   3   4
ATOM      4  C   UNL     1     -30.701   0.274  22.826  1.00  0.00     0.000 C 
BRANCH   4   5
ATOM      5  C   UNL     1     -29.685   0.910  23.790  1.00  0.00     0.001 C 
BRANCH   5   6
ATOM      6  C   UNL     1     -28.252   0.917  23.224  1.00  0.00     0.009 C 
BRANCH   6   7
ATOM      7  C   UNL     1     -27.212   0.219  24.131  1.00  0.00     0.032 C 
ATOM      8  C   UNL     1     -26.570  -0.962  23.396  1.00  0.00     0.014 C 
BRANCH   7   9
ATOM      9  C   UNL     1     -27.836  -0.260  25.414  1.00  0.00     0.044 C 
ATOM     10  O   UNL     1     -27.796   0.463  26.444  1.00  0.00    -0.550 OA
ATOM     11  O   UNL     1     -28.462  -1.500  25.471  1.00  0.00    -0.550 OA
ENDBRANCH   7   9
ENDBRANCH   6   7
ENDBRANCH   5   6
ENDBRANCH   4   5
ENDBRANCH   3   4
ENDBRANCH   2   3
ENDBRANCH   1   2
BRANCH   1  12
ATOM     12  C   UNL     1     -28.628  -0.763  19.950  1.00  0.00     0.000 C 
BRANCH  12  13
ATOM     13  C   UNL     1     -28.063  -1.543  18.752  1.00  0.00    -0.000 C 
BRANCH  13  14
ATOM     14  C   UNL     1     -28.999  -2.674  18.286  1.00  0.00    -0.000 C 
BRANCH  14  15
ATOM     15  C   UNL     1     -28.694  -3.144  16.854  1.00  0.00    -0.000 C 
BRANCH  15  16
ATOM     16  C   UNL     1     -28.084  -2.031  15.986  1.00  0.00    -0.000 C 
BRANCH  16  17
ATOM     17  C   UNL     1     -27.988  -2.417  14.499  1.00  0.00    -0.000 C 
BRANCH  17  18
ATOM     18  C   UNL     1     -26.574  -2.333  13.895  1.00  0.00    -0.003 C 
ATOM     19  C   UNL     1     -25.497  -2.921  14.805  1.00  0.00     0.004 C 
ENDBRANCH  17  18
ENDBRANCH  16  17
ENDBRANCH  15  16
ENDBRANCH  14  15
ENDBRANCH  13  14
ENDBRANCH  12  13
ENDBRANCH   1  12
TORSDOF 14
ENDMDL
MODEL 7
REMARK VINA RESULT:    -5.445      1.418      2.631
REMARK INTER + INTRA:         -11.609
REMARK INTER:                 -10.242
REMARK INTRA:                  -1.366
REMARK UNBOUND:                -1.707
REMARK SMILES CCCCCCCCCCCCCC[C@H](C)C(=O)[O-]
REMARK SMILES IDX 9 1 10 2 11 3 12 4 13 5 14 6 15 7 16 8 17 9 18 10 19 11 8 12
REMARK SMILES IDX 7 13 6 14 5 15 4 16 3 17 2 18 1 19
REMARK H PARENT
REMARK Flexibility Score: inf
ROOT
ATOM      1  C   UNL     1     -28.205  -1.549  21.374  1.00  0.00     0.000 C 
ENDROOT
BRANCH   1   2
ATOM      2  C   UNL     1     -28.555  -0.767  20.098  1.00  0.00     0.000 C 
BRANCH   2   3
ATOM      3  C   UNL     1     -28.129  -1.507  18.817  1.00  0.00     0.000 C 
BRANCH   3   4
ATOM      4  C   UNL     1     -28.997  -2.744  18.536  1.00  0.00     0.000 C 
BRANCH   4   5
ATOM      5  C   UNL     1     -28.825  -3.277  17.102  1.00  0.00     0.001 C 
BRANCH   5   6
ATOM      6  C   UNL     1     -28.046  -2.306  16.195  1.00  0.00     0.009 C 
BRANCH   6   7
ATOM      7  C   UNL     1     -27.866  -2.805  14.744  1.00  0.00     0.032 C 
ATOM      8  C   UNL     1     -28.692  -4.074  14.508  1.00  0.00     0.014 C 
BRANCH   7   9
ATOM      9  C   UNL     1     -26.419  -3.076  14.430  1.00  0.00     0.044 C 
ATOM     10  O   UNL     1     -26.024  -4.257  14.244  1.00  0.00    -0.550 OA
ATOM     11  O   UNL     1     -25.511  -2.027  14.340  1.00  0.00    -0.550 OA
ENDBRANCH   7   9
ENDBRANCH   6   7
ENDBRANCH   5   6
ENDBRANCH   4   5
ENDBRANCH   3   4
ENDBRANCH   2   3
ENDBRANCH   1   2
BRANCH   1  12
ATOM     12  C   UNL     1     -27.378  -0.716  22.369  1.00  0.00     0.000 C 
BRANCH  12  13
ATOM     13  C   UNL     1     -27.011  -1.505  23.636  1.00  0.00    -0.000 C 
BRANCH  13  14
ATOM     14  C   UNL     1     -27.773  -1.015  24.881  1.00  0.00    -0.000 C 
BRANCH  14  15
ATOM     15  C   UNL     1     -28.402   0.373  24.683  1.00  0.00    -0.000 C 
BRANCH  15  16
ATOM     16  C   UNL     1     -29.889   0.408  25.073  1.00  0.00    -0.000 C 
BRANCH  16  17
ATOM     17  C   UNL     1     -30.598  -0.940  24.848  1.00  0.00    -0.000 C 
BRANCH  17  18
ATOM     18  C   UNL     1     -31.114  -1.173  23.417  1.00  0.00    -0.003 C 
ATOM     19  C   UNL     1     -31.640   0.100  22.754  1.00  0.00     0.004 C 
ENDBRANCH  17  18
ENDBRANCH  16  17
ENDBRANCH  15  16
ENDBRANCH  14  15
ENDBRANCH  13  14
ENDBRANCH  12  13
ENDBRANCH   1  12
TORSDOF 14
ENDMDL
MODEL 8
REMARK VINA RESULT:    -5.326      1.299      1.793
REMARK INTER + INTRA:         -11.392
REMARK INTER:                  -9.829
REMARK INTRA:                  -1.562
REMARK UNBOUND:                -1.707
REMARK SMILES CCCCCCCCCCCCCC[C@H](C)C(=O)[O-]
REMARK SMILES IDX 9 1 10 2 11 3 12 4 13 5 14 6 15 7 16 8 17 9 18 10 19 11 8 12
REMARK SMILES IDX 7 13 6 14 5 15 4 16 3 17 2 18 1 19
REMARK H PARENT
REMARK Flexibility Score: inf
ROOT
ATOM      1  C   UNL     1     -27.434  -1.191  21.908  1.00  0.00     0.000 C 
ENDROOT
BRANCH   1   2
ATOM      2  C   UNL     1     -27.994  -1.156  20.476  1.00  0.00     0.000 C 
BRANCH   2   3
ATOM      3  C   UNL     1     -28.938  -2.336  20.184  1.00  0.00     0.000 C 
BRANCH   3   4
ATOM      4  C   UNL     1     -28.969  -2.709  18.692  1.00  0.00     0.000 C 
BRANCH   4   5
ATOM      5  C   UNL     1     -28.095  -1.782  17.830  1.00  0.00     0.001 C 
BRANCH   5   6
ATOM      6  C   UNL     1     -28.263  -2.039  16.320  1.00  0.00     0.009 C 
BRANCH   6   7
ATOM      7  C   UNL     1     -28.164  -3.528  15.919  1.00  0.00     0.032 C 
ATOM      8  C   UNL     1     -26.973  -3.752  14.982  1.00  0.00     0.014 C 
BRANCH   7   9
ATOM      9  C   UNL     1     -29.428  -4.003  15.254  1.00  0.00     0.044 C 
ATOM     10  O   UNL     1     -29.594  -5.228  15.015  1.00  0.00    -0.550 OA
ATOM     11  O   UNL     1     -30.422  -3.096  14.903  1.00  0.00    -0.550 OA
ENDBRANCH   7   9
ENDBRANCH   6   7
ENDBRANCH   5   6
ENDBRANCH   4   5
ENDBRANCH   3   4
ENDBRANCH   2   3
ENDBRANCH   1   2
BRANCH   1  12
ATOM     12  C   UNL     1     -27.859   0.032  22.738  1.00  0.00     0.000 C 
BRANCH  12  13
ATOM     13  C   UNL     1     -29.063   0.769  22.128  1.00  0.00    -0.000 C 
BRANCH  13  14
ATOM     14  C   UNL     1     -30.319   0.689  23.016  1.00  0.00    -0.000 C 
BRANCH  14  15
ATOM     15  C   UNL     1     -30.928  -0.722  23.056  1.00  0.00    -0.000 C 
BRANCH  15  16
ATOM     16  C   UNL     1     -30.855  -1.356  24.454  1.00  0.00    -0.000 C 
BRANCH  16  17
ATOM     17  C   UNL     1     -30.365  -0.373  25.533  1.00  0.00    -0.000 C 
BRANCH  17  18
ATOM     18  C   UNL     1     -29.043  -0.765  26.218  1.00  0.00    -0.003 C 
ATOM     19  C   UNL     1     -28.153   0.435  26.536  1.00  0.00     0.004 C 
ENDBRANCH  17  18
ENDBRANCH  16  17
ENDBRANCH  15  16
ENDBRANCH  14  15
ENDBRANCH  13  14
ENDBRANCH  12  13
ENDBRANCH   1  12
TORSDOF 14
ENDMDL
MODEL 9
REMARK VINA RESULT:    -5.325      8.031     12.116
REMARK INTER + INTRA:         -11.391
REMARK INTER:                  -9.833
REMARK INTRA:                  -1.558
REMARK UNBOUND:                -1.707
REMARK SMILES CCCCCCCCCCCCCC[C@H](C)C(=O)[O-]
REMARK SMILES IDX 9 1 10 2 11 3 12 4 13 5 14 6 15 7 16 8 17 9 18 10 19 11 8 12
REMARK SMILES IDX 7 13 6 14 5 15 4 16 3 17 2 18 1 19
REMARK H PARENT
REMARK Flexibility Score: inf
ROOT
ATOM      1  C   UNL     1     -29.608   0.755  26.436  1.00  0.00     0.000 C 
ENDROOT
BRANCH   1   2
ATOM      2  C   UNL     1     -28.579   0.159  27.411  1.00  0.00     0.000 C 
BRANCH   2   3
ATOM      3  C   UNL     1     -28.931   0.438  28.883  1.00  0.00     0.000 C 
BRANCH   3   4
ATOM      4  C   UNL     1     -30.092   1.435  29.032  1.00  0.00     0.000 C 
BRANCH   4   5
ATOM      5  C   UNL     1     -30.353   1.829  30.496  1.00  0.00     0.001 C 
BRANCH   5   6
ATOM      6  C   UNL     1     -29.204   1.418  31.437  1.00  0.00     0.009 C 
BRANCH   6   7
ATOM      7  C   UNL     1     -29.022   2.350  32.656  1.00  0.00     0.032 C 
ATOM      8  C   UNL     1     -27.767   1.961  33.444  1.00  0.00     0.014 C 
BRANCH   7   9
ATOM      9  C   UNL     1     -30.222   2.311  33.563  1.00  0.00     0.044 C 
ATOM     10  O   UNL     1     -30.556   1.234  34.123  1.00  0.00    -0.550 OA
ATOM     11  O   UNL     1     -30.968   3.462  33.793  1.00  0.00    -0.550 OA
ENDBRANCH   7   9
ENDBRANCH   6   7
ENDBRANCH   5   6
ENDBRANCH   4   5
ENDBRANCH   3   4
ENDBRANCH   2   3
ENDBRANCH   1   2
BRANCH   1  12
ATOM     12  C   UNL     1     -30.583  -0.302  25.889  1.00  0.00     0.000 C 
BRANCH  12  13
ATOM     13  C   UNL     1     -30.841  -0.142  24.382  1.00  0.00    -0.000 C 
BRANCH  13  14
ATOM     14  C   UNL     1     -30.890  -1.492  23.643  1.00  0.00    -0.000 C 
BRANCH  14  15
ATOM     15  C   UNL     1     -29.558  -1.841  22.957  1.00  0.00    -0.000 C 
BRANCH  15  16
ATOM     16  C   UNL     1     -28.577  -2.552  23.903  1.00  0.00    -0.000 C 
BRANCH  16  17
ATOM     17  C   UNL     1     -27.395  -1.658  24.321  1.00  0.00    -0.000 C 
BRANCH  17  18
ATOM     18  C   UNL     1     -26.910  -0.673  23.241  1.00  0.00    -0.003 C 
ATOM     19  C   UNL     1     -27.052   0.790  23.656  1.00  0.00     0.004 C 
ENDBRANCH  17  18
ENDBRANCH  16  17
ENDBRANCH  15  16
ENDBRANCH  14  15
ENDBRANCH  13  14
ENDBRANCH  12  13
ENDBRANCH   1  12
TORSDOF 14
ENDMDL
