MODEL 1
REMARK VINA RESULT:    -0.790      0.000      0.000
REMARK INTER + INTRA:          -0.357
REMARK INTER:                  -0.837
REMARK INTRA:                   0.480
REMARK UNBOUND:                 0.480
REMARK SMILES CC(C)[C@H]1CC[C@@H](C)CC1=O
REMARK SMILES IDX 8 1 7 2 6 3 5 4 4 5 10 6 11 7 9 8 2 9 1 10 3 11
REMARK H PARENT
REMARK Flexibility Score: inf
ROOT
ATOM      1  C   UNL     1       0.617 -11.870  14.498  1.00  0.00     0.008 C 
ATOM      2  C   UNL     1       0.350 -12.977  15.530  1.00  0.00    -0.007 C 
ATOM      3  C   UNL     1       1.305 -12.875  16.744  1.00  0.00     0.004 C 
ATOM      4  C   UNL     1       2.754 -13.283  16.410  1.00  0.00     0.012 C 
ATOM      5  C   UNL     1       2.829 -14.702  15.795  1.00  0.00     0.058 C 
ATOM      6  C   UNL     1       1.856 -14.748  14.631  1.00  0.00     0.136 C 
ATOM      7  O   UNL     1       2.223 -14.987  13.489  1.00  0.00    -0.299 OA
ATOM      8  C   UNL     1       0.424 -14.375  14.889  1.00  0.00     0.079 C 
ENDROOT
BRANCH   5   9
ATOM      9  C   UNL     1       4.280 -15.125  15.393  1.00  0.00    -0.007 C 
ATOM     10  C   UNL     1       4.794 -14.379  14.148  1.00  0.00     0.008 C 
ATOM     11  C   UNL     1       5.265 -14.875  16.552  1.00  0.00     0.008 C 
ENDBRANCH   5   9
TORSDOF 1
ENDMDL
MODEL 2
REMARK VINA RESULT:     0.436      2.374      4.392
REMARK INTER + INTRA:           0.941
REMARK INTER:                   0.612
REMARK INTRA:                   0.329
REMARK UNBOUND:                 0.480
REMARK SMILES CC(C)[C@H]1CC[C@@H](C)CC1=O
REMARK SMILES IDX 8 1 7 2 6 3 5 4 4 5 10 6 11 7 9 8 2 9 1 10 3 11
REMARK H PARENT
REMARK Flexibility Score: inf
ROOT
ATOM      1  C   UNL     1       6.441 -13.158  17.574  1.00  0.00     0.008 C 
ATOM      2  C   UNL     1       6.305 -14.670  17.329  1.00  0.00    -0.007 C 
ATOM      3  C   UNL     1       6.950 -15.096  15.989  1.00  0.00     0.004 C 
ATOM      4  C   UNL     1       6.142 -14.640  14.757  1.00  0.00     0.012 C 
ATOM      5  C   UNL     1       4.673 -15.125  14.816  1.00  0.00     0.058 C 
ATOM      6  C   UNL     1       4.105 -14.700  16.159  1.00  0.00     0.136 C 
ATOM      7  O   UNL     1       3.137 -13.959  16.247  1.00  0.00    -0.299 OA
ATOM      8  C   UNL     1       4.835 -15.123  17.401  1.00  0.00     0.079 C 
ENDROOT
BRANCH   5   9
ATOM      9  C   UNL     1       3.811 -14.631  13.607  1.00  0.00    -0.007 C 
ATOM     10  C   UNL     1       4.367 -15.098  12.250  1.00  0.00     0.008 C 
ATOM     11  C   UNL     1       2.357 -15.123  13.734  1.00  0.00     0.008 C 
ENDBRANCH   5   9
TORSDOF 1
ENDMDL
MODEL 3
REMARK VINA RESULT:     0.682      1.681      4.215
REMARK INTER + INTRA:           1.201
REMARK INTER:                   1.190
REMARK INTRA:                   0.011
REMARK UNBOUND:                 0.480
REMARK SMILES CC(C)[C@H]1CC[C@@H](C)CC1=O
REMARK SMILES IDX 8 1 7 2 6 3 5 4 4 5 10 6 11 7 9 8 2 9 1 10 3 11
REMARK H PARENT
REMARK Flexibility Score: inf
ROOT
ATOM      1  C   UNL     1       4.625 -14.153  14.266  1.00  0.00     0.008 C 
ATOM      2  C   UNL     1       3.491 -15.125  14.632  1.00  0.00    -0.007 C 
ATOM      3  C   UNL     1       2.264 -14.953  13.706  1.00  0.00     0.004 C 
ATOM      4  C   UNL     1       1.481 -13.652  13.975  1.00  0.00     0.012 C 
ATOM      5  C   UNL     1       1.047 -13.532  15.456  1.00  0.00     0.058 C 
ATOM      6  C   UNL     1       2.285 -13.734  16.312  1.00  0.00     0.136 C 
ATOM      7  O   UNL     1       2.688 -12.874  17.082  1.00  0.00    -0.299 OA
ATOM      8  C   UNL     1       3.087 -14.988  16.112  1.00  0.00     0.079 C 
ENDROOT
BRANCH   5   9
ATOM      9  C   UNL     1       0.299 -12.195  15.774  1.00  0.00    -0.007 C 
ATOM     10  C   UNL     1       1.033 -10.958  15.226  1.00  0.00     0.008 C 
ATOM     11  C   UNL     1      -1.127 -12.214  15.192  1.00  0.00     0.008 C 
ENDBRANCH   5   9
TORSDOF 1
ENDMDL
