MODEL 1
REMARK VINA RESULT:    -5.513      0.000      0.000
REMARK INTER + INTRA:          -8.502
REMARK INTER:                  -7.447
REMARK INTRA:                  -1.055
REMARK UNBOUND:                -1.055
REMARK SMILES CC(=O)CCC=C(C)CCC=C(C)C
REMARK SMILES IDX 7 1 6 2 8 3 9 4 10 5 11 6 13 7 12 8 14 9 5 10 4 11 2 12 3 13
REMARK SMILES IDX 1 14
REMARK H PARENT
REMARK Flexibility Score: inf
ROOT
ATOM      1  C   UNL     1      31.578   8.396 106.262  1.00  0.00    -0.077 C 
ATOM      2  C   UNL     1      30.908   7.395 105.645  1.00  0.00    -0.028 C 
ATOM      3  C   UNL     1      31.842   9.662 105.490  1.00  0.00     0.039 C 
ENDROOT
BRANCH   1   4
ATOM      4  C   UNL     1      32.143   8.272 107.664  1.00  0.00     0.034 C 
BRANCH   4   5
ATOM      5  C   UNL     1      33.656   8.037 107.616  1.00  0.00     0.032 C 
BRANCH   5   6
ATOM      6  C   UNL     1      34.400   9.219 108.182  1.00  0.00    -0.028 C 
ATOM      7  C   UNL     1      35.880  11.203 108.124  1.00  0.00     0.039 C 
ATOM      8  C   UNL     1      35.209  10.029 107.461  1.00  0.00    -0.080 C 
ATOM      9  C   UNL     1      35.505   9.773 106.003  1.00  0.00     0.039 C 
ENDBRANCH   5   6
ENDBRANCH   4   5
ENDBRANCH   1   4
BRANCH   2  10
ATOM     10  C   UNL     1      30.557   6.071 106.280  1.00  0.00     0.035 C 
BRANCH  10  11
ATOM     11  C   UNL     1      31.576   4.977 105.933  1.00  0.00     0.079 C 
BRANCH  11  12
ATOM     12  C   UNL     1      32.354   4.534 107.147  1.00  0.00     0.130 C 
ATOM     13  O   UNL     1      31.993   4.891 108.258  1.00  0.00    -0.300 OA
ATOM     14  C   UNL     1      33.576   3.672 107.020  1.00  0.00     0.087 C 
ENDBRANCH  11  12
ENDBRANCH  10  11
ENDBRANCH   2  10
TORSDOF 6
ENDMDL
MODEL 2
REMARK VINA RESULT:    -5.174      2.285      5.758
REMARK INTER + INTRA:          -8.044
REMARK INTER:                  -7.237
REMARK INTRA:                  -0.807
REMARK UNBOUND:                -1.055
REMARK SMILES CC(=O)CCC=C(C)CCC=C(C)C
REMARK SMILES IDX 7 1 6 2 8 3 9 4 10 5 11 6 13 7 12 8 14 9 5 10 4 11 2 12 3 13
REMARK SMILES IDX 1 14
REMARK H PARENT
REMARK Flexibility Score: inf
ROOT
ATOM      1  C   UNL     1      32.518   8.575 106.952  1.00  0.00    -0.077 C 
ATOM      2  C   UNL     1      33.660   9.106 106.460  1.00  0.00    -0.028 C 
ATOM      3  C   UNL     1      31.332   8.449 106.031  1.00  0.00     0.039 C 
ENDROOT
BRANCH   1   4
ATOM      4  C   UNL     1      32.351   8.174 108.405  1.00  0.00     0.034 C 
BRANCH   4   5
ATOM      5  C   UNL     1      31.641   6.821 108.512  1.00  0.00     0.032 C 
BRANCH   5   6
ATOM      6  C   UNL     1      32.603   5.689 108.252  1.00  0.00    -0.028 C 
ATOM      7  C   UNL     1      33.545   3.754 107.029  1.00  0.00     0.039 C 
ATOM      8  C   UNL     1      32.509   4.832 107.210  1.00  0.00    -0.080 C 
ATOM      9  C   UNL     1      31.363   4.886 106.228  1.00  0.00     0.039 C 
ENDBRANCH   5   6
ENDBRANCH   4   5
ENDBRANCH   1   4
BRANCH   2  10
ATOM     10  C   UNL     1      34.935   9.292 107.246  1.00  0.00     0.035 C 
BRANCH  10  11
ATOM     11  C   UNL     1      35.862  10.333 106.603  1.00  0.00     0.079 C 
BRANCH  11  12
ATOM     12  C   UNL     1      36.216  11.437 107.569  1.00  0.00     0.130 C 
ATOM     13  O   UNL     1      35.757  11.417 108.701  1.00  0.00    -0.300 OA
ATOM     14  C   UNL     1      37.110  12.571 107.164  1.00  0.00     0.087 C 
ENDBRANCH  11  12
ENDBRANCH  10  11
ENDBRANCH   2  10
TORSDOF 6
ENDMDL
MODEL 3
REMARK VINA RESULT:    -5.170      2.541      5.742
REMARK INTER + INTRA:          -8.038
REMARK INTER:                  -7.110
REMARK INTRA:                  -0.928
REMARK UNBOUND:                -1.055
REMARK SMILES CC(=O)CCC=C(C)CCC=C(C)C
REMARK SMILES IDX 7 1 6 2 8 3 9 4 10 5 11 6 13 7 12 8 14 9 5 10 4 11 2 12 3 13
REMARK SMILES IDX 1 14
REMARK H PARENT
REMARK Flexibility Score: inf
ROOT
ATOM      1  C   UNL     1      32.716   8.607 107.045  1.00  0.00    -0.077 C 
ATOM      2  C   UNL     1      33.858   9.134 106.547  1.00  0.00    -0.028 C 
ATOM      3  C   UNL     1      31.502   8.559 106.153  1.00  0.00     0.039 C 
ENDROOT
BRANCH   1   4
ATOM      4  C   UNL     1      32.578   8.135 108.479  1.00  0.00     0.034 C 
BRANCH   4   5
ATOM      5  C   UNL     1      31.800   6.817 108.540  1.00  0.00     0.032 C 
BRANCH   5   6
ATOM      6  C   UNL     1      32.704   5.648 108.242  1.00  0.00    -0.028 C 
ATOM      7  C   UNL     1      33.532   3.693 106.969  1.00  0.00     0.039 C 
ATOM      8  C   UNL     1      32.550   4.814 107.188  1.00  0.00    -0.080 C 
ATOM      9  C   UNL     1      31.389   4.938 106.231  1.00  0.00     0.039 C 
ENDBRANCH   5   6
ENDBRANCH   4   5
ENDBRANCH   1   4
BRANCH   2  10
ATOM     10  C   UNL     1      35.159   9.247 107.305  1.00  0.00     0.035 C 
BRANCH  10  11
ATOM     11  C   UNL     1      35.496  10.702 107.659  1.00  0.00     0.079 C 
BRANCH  11  12
ATOM     12  C   UNL     1      35.741  11.534 106.424  1.00  0.00     0.130 C 
ATOM     13  O   UNL     1      35.102  12.561 106.253  1.00  0.00    -0.300 OA
ATOM     14  C   UNL     1      36.745  11.118 105.390  1.00  0.00     0.087 C 
ENDBRANCH  11  12
ENDBRANCH  10  11
ENDBRANCH   2  10
TORSDOF 6
ENDMDL
MODEL 4
REMARK VINA RESULT:    -4.954      1.837      3.407
REMARK INTER + INTRA:          -7.747
REMARK INTER:                  -6.949
REMARK INTRA:                  -0.797
REMARK UNBOUND:                -1.055
REMARK SMILES CC(=O)CCC=C(C)CCC=C(C)C
REMARK SMILES IDX 7 1 6 2 8 3 9 4 10 5 11 6 13 7 12 8 14 9 5 10 4 11 2 12 3 13
REMARK SMILES IDX 1 14
REMARK H PARENT
REMARK Flexibility Score: inf
ROOT
ATOM      1  C   UNL     1      32.856   8.428 107.096  1.00  0.00    -0.077 C 
ATOM      2  C   UNL     1      32.876   7.587 108.155  1.00  0.00    -0.028 C 
ATOM      3  C   UNL     1      34.058   9.304 106.854  1.00  0.00     0.039 C 
ENDROOT
BRANCH   1   4
ATOM      4  C   UNL     1      31.652   8.586 106.188  1.00  0.00     0.034 C 
BRANCH   4   5
ATOM      5  C   UNL     1      31.912   9.664 105.132  1.00  0.00     0.032 C 
BRANCH   5   6
ATOM      6  C   UNL     1      30.915  10.788 105.257  1.00  0.00    -0.028 C 
ATOM      7  C   UNL     1      30.143  13.140 105.270  1.00  0.00     0.039 C 
ATOM      8  C   UNL     1      31.227  12.100 105.158  1.00  0.00    -0.080 C 
ATOM      9  C   UNL     1      32.649  12.574 104.980  1.00  0.00     0.039 C 
ENDBRANCH   5   6
ENDBRANCH   4   5
ENDBRANCH   1   4
BRANCH   2  10
ATOM     10  C   UNL     1      31.760   6.641 108.528  1.00  0.00     0.035 C 
BRANCH  10  11
ATOM     11  C   UNL     1      32.214   5.175 108.501  1.00  0.00     0.079 C 
BRANCH  11  12
ATOM     12  C   UNL     1      32.374   4.667 107.089  1.00  0.00     0.130 C 
ATOM     13  O   UNL     1      31.516   4.919 106.257  1.00  0.00    -0.300 OA
ATOM     14  C   UNL     1      33.562   3.844 106.686  1.00  0.00     0.087 C 
ENDBRANCH  11  12
ENDBRANCH  10  11
ENDBRANCH   2  10
TORSDOF 6
ENDMDL
MODEL 5
REMARK VINA RESULT:    -4.932      2.949      6.064
REMARK INTER + INTRA:          -7.717
REMARK INTER:                  -6.955
REMARK INTRA:                  -0.762
REMARK UNBOUND:                -1.055
REMARK SMILES CC(=O)CCC=C(C)CCC=C(C)C
REMARK SMILES IDX 7 1 6 2 8 3 9 4 10 5 11 6 13 7 12 8 14 9 5 10 4 11 2 12 3 13
REMARK SMILES IDX 1 14
REMARK H PARENT
REMARK Flexibility Score: inf
ROOT
ATOM      1  C   UNL     1      32.722   8.875 106.496  1.00  0.00    -0.077 C 
ATOM      2  C   UNL     1      33.558   9.669 105.789  1.00  0.00    -0.028 C 
ATOM      3  C   UNL     1      31.358   8.584 105.926  1.00  0.00     0.039 C 
ENDROOT
BRANCH   1   4
ATOM      4  C   UNL     1      33.064   8.329 107.869  1.00  0.00     0.034 C 
BRANCH   4   5
ATOM      5  C   UNL     1      32.150   7.151 108.222  1.00  0.00     0.032 C 
BRANCH   5   6
ATOM      6  C   UNL     1      32.889   5.843 108.090  1.00  0.00    -0.028 C 
ATOM      7  C   UNL     1      33.409   3.624 107.123  1.00  0.00     0.039 C 
ATOM      8  C   UNL     1      32.584   4.883 107.188  1.00  0.00    -0.080 C 
ATOM      9  C   UNL     1      31.402   5.004 106.256  1.00  0.00     0.039 C 
ENDBRANCH   5   6
ENDBRANCH   4   5
ENDBRANCH   1   4
BRANCH   2  10
ATOM     10  C   UNL     1      34.956  10.048 106.215  1.00  0.00     0.035 C 
BRANCH  10  11
ATOM     11  C   UNL     1      35.114  11.564 106.392  1.00  0.00     0.079 C 
BRANCH  11  12
ATOM     12  C   UNL     1      35.078  12.287 105.068  1.00  0.00     0.130 C 
ATOM     13  O   UNL     1      35.995  12.139 104.275  1.00  0.00    -0.300 OA
ATOM     14  C   UNL     1      33.941  13.198 104.707  1.00  0.00     0.087 C 
ENDBRANCH  11  12
ENDBRANCH  10  11
ENDBRANCH   2  10
TORSDOF 6
ENDMDL
MODEL 6
REMARK VINA RESULT:    -4.842      1.354      1.749
REMARK INTER + INTRA:          -7.595
REMARK INTER:                  -7.096
REMARK INTRA:                  -0.499
REMARK UNBOUND:                -1.055
REMARK SMILES CC(=O)CCC=C(C)CCC=C(C)C
REMARK SMILES IDX 7 1 6 2 8 3 9 4 10 5 11 6 13 7 12 8 14 9 5 10 4 11 2 12 3 13
REMARK SMILES IDX 1 14
REMARK H PARENT
REMARK Flexibility Score: inf
ROOT
ATOM      1  C   UNL     1      31.333   9.176 105.544  1.00  0.00    -0.077 C 
ATOM      2  C   UNL     1      30.588   8.095 105.217  1.00  0.00    -0.028 C 
ATOM      3  C   UNL     1      30.813  10.541 105.177  1.00  0.00     0.039 C 
ENDROOT
BRANCH   1   4
ATOM      4  C   UNL     1      32.701   9.073 106.190  1.00  0.00     0.034 C 
BRANCH   4   5
ATOM      5  C   UNL     1      33.697  10.005 105.493  1.00  0.00     0.032 C 
BRANCH   5   6
ATOM      6  C   UNL     1      34.926  10.206 106.343  1.00  0.00    -0.028 C 
ATOM      7  C   UNL     1      36.705  11.498 107.481  1.00  0.00     0.039 C 
ATOM      8  C   UNL     1      35.493  11.409 106.591  1.00  0.00    -0.080 C 
ATOM      9  C   UNL     1      34.979  12.682 105.965  1.00  0.00     0.039 C 
ENDBRANCH   5   6
ENDBRANCH   4   5
ENDBRANCH   1   4
BRANCH   2  10
ATOM     10  C   UNL     1      30.962   6.665 105.521  1.00  0.00     0.035 C 
BRANCH  10  11
ATOM     11  C   UNL     1      30.838   6.341 107.016  1.00  0.00     0.079 C 
BRANCH  11  12
ATOM     12  C   UNL     1      32.085   5.679 107.549  1.00  0.00     0.130 C 
ATOM     13  O   UNL     1      32.744   6.240 108.411  1.00  0.00    -0.300 OA
ATOM     14  C   UNL     1      32.544   4.348 107.031  1.00  0.00     0.087 C 
ENDBRANCH  11  12
ENDBRANCH  10  11
ENDBRANCH   2  10
TORSDOF 6
ENDMDL
MODEL 7
REMARK VINA RESULT:    -4.803      2.691      5.535
REMARK INTER + INTRA:          -7.542
REMARK INTER:                  -6.862
REMARK INTRA:                  -0.680
REMARK UNBOUND:                -1.055
REMARK SMILES CC(=O)CCC=C(C)CCC=C(C)C
REMARK SMILES IDX 7 1 6 2 8 3 9 4 10 5 11 6 13 7 12 8 14 9 5 10 4 11 2 12 3 13
REMARK SMILES IDX 1 14
REMARK H PARENT
REMARK Flexibility Score: inf
ROOT
ATOM      1  C   UNL     1      32.880   8.448 107.664  1.00  0.00    -0.077 C 
ATOM      2  C   UNL     1      32.584   8.868 106.413  1.00  0.00    -0.028 C 
ATOM      3  C   UNL     1      34.327   8.227 108.021  1.00  0.00     0.039 C 
ENDROOT
BRANCH   1   4
ATOM      4  C   UNL     1      31.821   8.114 108.697  1.00  0.00     0.034 C 
BRANCH   4   5
ATOM      5  C   UNL     1      31.179   6.757 108.390  1.00  0.00     0.032 C 
BRANCH   5   6
ATOM      6  C   UNL     1      32.232   5.688 108.245  1.00  0.00    -0.028 C 
ATOM      7  C   UNL     1      33.497   3.896 107.096  1.00  0.00     0.039 C 
ATOM      8  C   UNL     1      32.390   4.917 107.145  1.00  0.00    -0.080 C 
ATOM      9  C   UNL     1      31.458   5.009 105.961  1.00  0.00     0.039 C 
ENDBRANCH   5   6
ENDBRANCH   4   5
ENDBRANCH   1   4
BRANCH   2  10
ATOM     10  C   UNL     1      31.191   9.144 105.902  1.00  0.00     0.035 C 
BRANCH  10  11
ATOM     11  C   UNL     1      31.184  10.202 104.789  1.00  0.00     0.079 C 
BRANCH  11  12
ATOM     12  C   UNL     1      30.485  11.465 105.226  1.00  0.00     0.130 C 
ATOM     13  O   UNL     1      31.088  12.527 105.200  1.00  0.00    -0.300 OA
ATOM     14  C   UNL     1      29.064  11.445 105.707  1.00  0.00     0.087 C 
ENDBRANCH  11  12
ENDBRANCH  10  11
ENDBRANCH   2  10
TORSDOF 6
ENDMDL
MODEL 8
REMARK VINA RESULT:    -4.594      2.418      5.667
REMARK INTER + INTRA:          -7.260
REMARK INTER:                  -6.543
REMARK INTRA:                  -0.716
REMARK UNBOUND:                -1.055
REMARK SMILES CC(=O)CCC=C(C)CCC=C(C)C
REMARK SMILES IDX 7 1 6 2 8 3 9 4 10 5 11 6 13 7 12 8 14 9 5 10 4 11 2 12 3 13
REMARK SMILES IDX 1 14
REMARK H PARENT
REMARK Flexibility Score: inf
ROOT
ATOM      1  C   UNL     1      32.172  11.180 105.127  1.00  0.00    -0.077 C 
ATOM      2  C   UNL     1      33.261  11.982 105.106  1.00  0.00    -0.028 C 
ATOM      3  C   UNL     1      30.810  11.823 105.099  1.00  0.00     0.039 C 
ENDROOT
BRANCH   1   4
ATOM      4  C   UNL     1      32.258   9.672 105.256  1.00  0.00     0.034 C 
BRANCH   4   5
ATOM      5  C   UNL     1      30.868   9.073 105.493  1.00  0.00     0.032 C 
BRANCH   5   6
ATOM      6  C   UNL     1      30.916   7.567 105.423  1.00  0.00    -0.028 C 
ATOM      7  C   UNL     1      31.166   5.266 106.301  1.00  0.00     0.039 C 
ATOM      8  C   UNL     1      31.172   6.762 106.479  1.00  0.00    -0.080 C 
ATOM      9  C   UNL     1      31.514   7.313 107.842  1.00  0.00     0.039 C 
ENDBRANCH   5   6
ENDBRANCH   4   5
ENDBRANCH   1   4
BRANCH   2  10
ATOM     10  C   UNL     1      34.691  11.497 105.119  1.00  0.00     0.035 C 
BRANCH  10  11
ATOM     11  C   UNL     1      35.440  11.947 106.381  1.00  0.00     0.079 C 
BRANCH  11  12
ATOM     12  C   UNL     1      35.470  10.861 107.429  1.00  0.00     0.130 C 
ATOM     13  O   UNL     1      35.538  11.164 108.610  1.00  0.00    -0.300 OA
ATOM     14  C   UNL     1      35.432   9.410 107.049  1.00  0.00     0.087 C 
ENDBRANCH  11  12
ENDBRANCH  10  11
ENDBRANCH   2  10
TORSDOF 6
ENDMDL
MODEL 9
REMARK VINA RESULT:    -4.590      2.916      5.952
REMARK INTER + INTRA:          -7.255
REMARK INTER:                  -6.436
REMARK INTRA:                  -0.819
REMARK UNBOUND:                -1.055
REMARK SMILES CC(=O)CCC=C(C)CCC=C(C)C
REMARK SMILES IDX 7 1 6 2 8 3 9 4 10 5 11 6 13 7 12 8 14 9 5 10 4 11 2 12 3 13
REMARK SMILES IDX 1 14
REMARK H PARENT
REMARK Flexibility Score: inf
ROOT
ATOM      1  C   UNL     1      35.343  10.740 106.973  1.00  0.00    -0.077 C 
ATOM      2  C   UNL     1      34.804  11.693 106.179  1.00  0.00    -0.028 C 
ATOM      3  C   UNL     1      36.370  11.156 107.994  1.00  0.00     0.039 C 
ENDROOT
BRANCH   1   4
ATOM      4  C   UNL     1      35.019   9.265 106.833  1.00  0.00     0.034 C 
BRANCH   4   5
ATOM      5  C   UNL     1      34.009   8.832 107.900  1.00  0.00     0.032 C 
BRANCH   5   6
ATOM      6  C   UNL     1      32.749   8.306 107.262  1.00  0.00    -0.028 C 
ATOM      7  C   UNL     1      30.966   6.653 106.796  1.00  0.00     0.039 C 
ATOM      8  C   UNL     1      32.253   7.064 107.463  1.00  0.00    -0.080 C 
ATOM      9  C   UNL     1      32.971   6.041 108.308  1.00  0.00     0.039 C 
ENDBRANCH   5   6
ENDBRANCH   4   5
ENDBRANCH   1   4
BRANCH   2  10
ATOM     10  C   UNL     1      33.760  11.443 105.117  1.00  0.00     0.035 C 
BRANCH  10  11
ATOM     11  C   UNL     1      32.830  12.650 104.928  1.00  0.00     0.079 C 
BRANCH  11  12
ATOM     12  C   UNL     1      31.383  12.274 105.128  1.00  0.00     0.130 C 
ATOM     13  O   UNL     1      30.544  13.154 105.257  1.00  0.00    -0.300 OA
ATOM     14  C   UNL     1      30.949  10.839 105.187  1.00  0.00     0.087 C 
ENDBRANCH  11  12
ENDBRANCH  10  11
ENDBRANCH   2  10
TORSDOF 6
ENDMDL
