MODEL 1
REMARK VINA RESULT:    -5.455      0.000      0.000
REMARK INTER + INTRA:          -5.870
REMARK INTER:                  -5.774
REMARK INTRA:                  -0.096
REMARK UNBOUND:                -0.096
REMARK SMILES C=C(C)[C@@H]1CC=C(C)C(=O)C1
REMARK SMILES IDX 8 1 7 2 6 3 5 4 4 5 11 6 9 7 10 8 2 9 1 10 3 11
REMARK H PARENT
REMARK Flexibility Score: inf
ROOT
ATOM      1  C   UNL     1     114.158 179.281 125.825  1.00  0.00     0.048 C 
ATOM      2  C   UNL     1     115.538 178.772 125.510  1.00  0.00    -0.012 C 
ATOM      3  C   UNL     1     116.203 178.022 126.406  1.00  0.00    -0.019 C 
ATOM      4  C   UNL     1     117.552 177.424 126.105  1.00  0.00     0.036 C 
ATOM      5  C   UNL     1     118.347 178.309 125.125  1.00  0.00     0.025 C 
ATOM      6  C   UNL     1     117.523 178.567 123.849  1.00  0.00     0.089 C 
ATOM      7  C   UNL     1     116.154 179.082 124.196  1.00  0.00     0.158 C 
ATOM      8  O   UNL     1     115.511 179.745 123.336  1.00  0.00    -0.295 OA
ENDROOT
BRANCH   5   9
ATOM      9  C   UNL     1     119.709 177.709 124.803  1.00  0.00    -0.077 C 
ATOM     10  C   UNL     1     120.074 176.506 125.278  1.00  0.00     0.008 C 
ATOM     11  C   UNL     1     120.682 178.466 123.936  1.00  0.00     0.039 C 
ENDBRANCH   5   9
TORSDOF 1
ENDMDL
MODEL 2
REMARK VINA RESULT:    -5.154     12.247     13.310
REMARK INTER + INTRA:          -5.551
REMARK INTER:                  -5.458
REMARK INTRA:                  -0.093
REMARK UNBOUND:                -0.096
REMARK SMILES C=C(C)[C@@H]1CC=C(C)C(=O)C1
REMARK SMILES IDX 8 1 7 2 6 3 5 4 4 5 11 6 9 7 10 8 2 9 1 10 3 11
REMARK H PARENT
REMARK Flexibility Score: inf
ROOT
ATOM      1  C   UNL     1     116.133 165.602 117.801  1.00  0.00     0.048 C 
ATOM      2  C   UNL     1     116.026 165.870 119.277  1.00  0.00    -0.012 C 
ATOM      3  C   UNL     1     115.109 166.735 119.744  1.00  0.00    -0.019 C 
ATOM      4  C   UNL     1     114.911 166.975 121.217  1.00  0.00     0.036 C 
ATOM      5  C   UNL     1     116.229 166.782 121.994  1.00  0.00     0.025 C 
ATOM      6  C   UNL     1     116.824 165.391 121.702  1.00  0.00     0.089 C 
ATOM      7  C   UNL     1     116.924 165.157 120.220  1.00  0.00     0.158 C 
ATOM      8  O   UNL     1     117.752 164.310 119.788  1.00  0.00    -0.295 OA
ENDROOT
BRANCH   5   9
ATOM      9  C   UNL     1     116.040 167.011 123.487  1.00  0.00    -0.077 C 
ATOM     10  C   UNL     1     115.079 166.373 124.177  1.00  0.00     0.008 C 
ATOM     11  C   UNL     1     116.940 167.970 124.225  1.00  0.00     0.039 C 
ENDBRANCH   5   9
TORSDOF 1
ENDMDL
MODEL 3
REMARK VINA RESULT:    -5.052      7.552      9.466
REMARK INTER + INTRA:          -5.444
REMARK INTER:                  -5.347
REMARK INTRA:                  -0.097
REMARK UNBOUND:                -0.096
REMARK SMILES C=C(C)[C@@H]1CC=C(C)C(=O)C1
REMARK SMILES IDX 8 1 7 2 6 3 5 4 4 5 11 6 9 7 10 8 2 9 1 10 3 11
REMARK H PARENT
REMARK Flexibility Score: inf
ROOT
ATOM      1  C   UNL     1     124.950 177.863 117.730  1.00  0.00     0.048 C 
ATOM      2  C   UNL     1     124.950 177.551 119.202  1.00  0.00    -0.012 C 
ATOM      3  C   UNL     1     123.843 177.755 119.936  1.00  0.00    -0.019 C 
ATOM      4  C   UNL     1     123.770 177.383 121.394  1.00  0.00     0.036 C 
ATOM      5  C   UNL     1     125.152 177.496 122.067  1.00  0.00     0.025 C 
ATOM      6  C   UNL     1     126.191 176.656 121.300  1.00  0.00     0.089 C 
ATOM      7  C   UNL     1     126.172 176.996 119.835  1.00  0.00     0.158 C 
ATOM      8  O   UNL     1     127.195 176.760 119.137  1.00  0.00    -0.295 OA
ENDROOT
BRANCH   5   9
ATOM      9  C   UNL     1     125.094 177.111 123.539  1.00  0.00    -0.077 C 
ATOM     10  C   UNL     1     126.207 177.046 124.289  1.00  0.00     0.008 C 
ATOM     11  C   UNL     1     123.770 176.792 124.185  1.00  0.00     0.039 C 
ENDBRANCH   5   9
TORSDOF 1
ENDMDL
MODEL 4
REMARK VINA RESULT:    -5.011     11.841     13.252
REMARK INTER + INTRA:          -5.400
REMARK INTER:                  -5.306
REMARK INTRA:                  -0.094
REMARK UNBOUND:                -0.096
REMARK SMILES C=C(C)[C@@H]1CC=C(C)C(=O)C1
REMARK SMILES IDX 8 1 7 2 6 3 5 4 4 5 11 6 9 7 10 8 2 9 1 10 3 11
REMARK H PARENT
REMARK Flexibility Score: inf
ROOT
ATOM      1  C   UNL     1     119.048 167.938 124.274  1.00  0.00     0.048 C 
ATOM      2  C   UNL     1     118.614 167.006 123.177  1.00  0.00    -0.012 C 
ATOM      3  C   UNL     1     119.529 166.422 122.384  1.00  0.00    -0.019 C 
ATOM      4  C   UNL     1     119.149 165.421 121.325  1.00  0.00     0.036 C 
ATOM      5  C   UNL     1     117.742 165.709 120.765  1.00  0.00     0.025 C 
ATOM      6  C   UNL     1     116.713 165.770 121.911  1.00  0.00     0.089 C 
ATOM      7  C   UNL     1     117.171 166.715 122.987  1.00  0.00     0.158 C 
ATOM      8  O   UNL     1     116.315 167.224 123.761  1.00  0.00    -0.295 OA
ENDROOT
BRANCH   5   9
ATOM      9  C   UNL     1     117.340 164.697 119.702  1.00  0.00    -0.077 C 
ATOM     10  C   UNL     1     117.701 163.406 119.793  1.00  0.00     0.008 C 
ATOM     11  C   UNL     1     116.522 165.134 118.513  1.00  0.00     0.039 C 
ENDBRANCH   5   9
TORSDOF 1
ENDMDL
MODEL 5
REMARK VINA RESULT:    -4.973      2.541      5.099
REMARK INTER + INTRA:          -5.359
REMARK INTER:                  -5.263
REMARK INTRA:                  -0.097
REMARK UNBOUND:                -0.096
REMARK SMILES C=C(C)[C@@H]1CC=C(C)C(=O)C1
REMARK SMILES IDX 8 1 7 2 6 3 5 4 4 5 11 6 9 7 10 8 2 9 1 10 3 11
REMARK H PARENT
REMARK Flexibility Score: inf
ROOT
ATOM      1  C   UNL     1     122.915 177.677 125.127  1.00  0.00     0.048 C 
ATOM      2  C   UNL     1     121.420 177.745 124.982  1.00  0.00    -0.012 C 
ATOM      3  C   UNL     1     120.868 178.473 123.996  1.00  0.00    -0.019 C 
ATOM      4  C   UNL     1     119.381 178.507 123.762  1.00  0.00     0.036 C 
ATOM      5  C   UNL     1     118.606 178.315 125.081  1.00  0.00     0.025 C 
ATOM      6  C   UNL     1     119.058 177.021 125.784  1.00  0.00     0.089 C 
ATOM      7  C   UNL     1     120.555 176.986 125.920  1.00  0.00     0.158 C 
ATOM      8  O   UNL     1     121.073 176.265 126.816  1.00  0.00    -0.295 OA
ENDROOT
BRANCH   5   9
ATOM      9  C   UNL     1     117.100 178.336 124.857  1.00  0.00    -0.077 C 
ATOM     10  C   UNL     1     116.240 178.091 125.860  1.00  0.00     0.008 C 
ATOM     11  C   UNL     1     116.544 178.635 123.488  1.00  0.00     0.039 C 
ENDBRANCH   5   9
TORSDOF 1
ENDMDL
MODEL 6
REMARK VINA RESULT:    -4.972      7.872     10.034
REMARK INTER + INTRA:          -5.359
REMARK INTER:                  -5.264
REMARK INTRA:                  -0.095
REMARK UNBOUND:                -0.096
REMARK SMILES C=C(C)[C@@H]1CC=C(C)C(=O)C1
REMARK SMILES IDX 8 1 7 2 6 3 5 4 4 5 11 6 9 7 10 8 2 9 1 10 3 11
REMARK H PARENT
REMARK Flexibility Score: inf
ROOT
ATOM      1  C   UNL     1     128.651 176.949 124.688  1.00  0.00     0.048 C 
ATOM      2  C   UNL     1     127.498 177.218 123.761  1.00  0.00    -0.012 C 
ATOM      3  C   UNL     1     126.241 176.937 124.145  1.00  0.00    -0.019 C 
ATOM      4  C   UNL     1     125.049 177.263 123.285  1.00  0.00     0.036 C 
ATOM      5  C   UNL     1     125.410 177.202 121.788  1.00  0.00     0.025 C 
ATOM      6  C   UNL     1     126.614 178.116 121.490  1.00  0.00     0.089 C 
ATOM      7  C   UNL     1     127.752 177.818 122.427  1.00  0.00     0.158 C 
ATOM      8  O   UNL     1     128.926 178.126 122.085  1.00  0.00    -0.295 OA
ENDROOT
BRANCH   5   9
ATOM      9  C   UNL     1     124.216 177.541 120.906  1.00  0.00    -0.077 C 
ATOM     10  C   UNL     1     123.130 178.157 121.405  1.00  0.00     0.008 C 
ATOM     11  C   UNL     1     124.232 177.185 119.442  1.00  0.00     0.039 C 
ENDBRANCH   5   9
TORSDOF 1
ENDMDL
MODEL 7
REMARK VINA RESULT:    -4.941      2.910      4.035
REMARK INTER + INTRA:          -5.326
REMARK INTER:                  -5.234
REMARK INTRA:                  -0.092
REMARK UNBOUND:                -0.096
REMARK SMILES C=C(C)[C@@H]1CC=C(C)C(=O)C1
REMARK SMILES IDX 8 1 7 2 6 3 5 4 4 5 11 6 9 7 10 8 2 9 1 10 3 11
REMARK H PARENT
REMARK Flexibility Score: inf
ROOT
ATOM      1  C   UNL     1     117.255 178.185 125.112  1.00  0.00     0.048 C 
ATOM      2  C   UNL     1     118.701 178.265 125.514  1.00  0.00    -0.012 C 
ATOM      3  C   UNL     1     119.315 179.458 125.600  1.00  0.00    -0.019 C 
ATOM      4  C   UNL     1     120.737 179.595 126.075  1.00  0.00     0.036 C 
ATOM      5  C   UNL     1     121.566 178.346 125.716  1.00  0.00     0.025 C 
ATOM      6  C   UNL     1     120.885 177.077 126.264  1.00  0.00     0.089 C 
ATOM      7  C   UNL     1     119.444 177.022 125.839  1.00  0.00     0.158 C 
ATOM      8  O   UNL     1     118.856 175.907 125.805  1.00  0.00    -0.295 OA
ENDROOT
BRANCH   5   9
ATOM      9  C   UNL     1     123.004 178.466 126.202  1.00  0.00    -0.077 C 
ATOM     10  C   UNL     1     124.008 177.821 125.582  1.00  0.00     0.008 C 
ATOM     11  C   UNL     1     123.328 179.320 127.401  1.00  0.00     0.039 C 
ENDBRANCH   5   9
TORSDOF 1
ENDMDL
MODEL 8
REMARK VINA RESULT:    -4.937      2.496      3.417
REMARK INTER + INTRA:          -5.321
REMARK INTER:                  -5.227
REMARK INTRA:                  -0.094
REMARK UNBOUND:                -0.096
REMARK SMILES C=C(C)[C@@H]1CC=C(C)C(=O)C1
REMARK SMILES IDX 8 1 7 2 6 3 5 4 4 5 11 6 9 7 10 8 2 9 1 10 3 11
REMARK H PARENT
REMARK Flexibility Score: inf
ROOT
ATOM      1  C   UNL     1     116.969 177.717 125.607  1.00  0.00     0.048 C 
ATOM      2  C   UNL     1     118.462 177.798 125.764  1.00  0.00    -0.012 C 
ATOM      3  C   UNL     1     119.039 177.469 126.932  1.00  0.00    -0.019 C 
ATOM      4  C   UNL     1     120.534 177.457 127.112  1.00  0.00     0.036 C 
ATOM      5  C   UNL     1     121.212 178.504 126.207  1.00  0.00     0.025 C 
ATOM      6  C   UNL     1     120.797 178.291 124.739  1.00  0.00     0.089 C 
ATOM      7  C   UNL     1     119.300 178.222 124.614  1.00  0.00     0.158 C 
ATOM      8  O   UNL     1     118.764 178.485 123.503  1.00  0.00    -0.295 OA
ENDROOT
BRANCH   5   9
ATOM      9  C   UNL     1     122.725 178.495 126.371  1.00  0.00    -0.077 C 
ATOM     10  C   UNL     1     123.511 177.754 125.571  1.00  0.00     0.008 C 
ATOM     11  C   UNL     1     123.374 179.327 127.448  1.00  0.00     0.039 C 
ENDBRANCH   5   9
TORSDOF 1
ENDMDL
MODEL 9
REMARK VINA RESULT:    -4.904      4.813      6.082
REMARK INTER + INTRA:          -5.287
REMARK INTER:                  -5.191
REMARK INTRA:                  -0.096
REMARK UNBOUND:                -0.096
REMARK SMILES C=C(C)[C@@H]1CC=C(C)C(=O)C1
REMARK SMILES IDX 8 1 7 2 6 3 5 4 4 5 11 6 9 7 10 8 2 9 1 10 3 11
REMARK H PARENT
REMARK Flexibility Score: inf
ROOT
ATOM      1  C   UNL     1     120.619 178.857 127.764  1.00  0.00     0.048 C 
ATOM      2  C   UNL     1     121.536 178.481 126.633  1.00  0.00    -0.012 C 
ATOM      3  C   UNL     1     121.041 178.271 125.402  1.00  0.00    -0.019 C 
ATOM      4  C   UNL     1     121.927 177.971 124.222  1.00  0.00     0.036 C 
ATOM      5  C   UNL     1     123.201 177.221 124.659  1.00  0.00     0.025 C 
ATOM      6  C   UNL     1     123.936 178.012 125.759  1.00  0.00     0.089 C 
ATOM      7  C   UNL     1     122.996 178.366 126.878  1.00  0.00     0.158 C 
ATOM      8  O   UNL     1     123.467 178.610 128.021  1.00  0.00    -0.295 OA
ENDROOT
BRANCH   5   9
ATOM      9  C   UNL     1     124.112 176.923 123.477  1.00  0.00    -0.077 C 
ATOM     10  C   UNL     1     125.269 176.258 123.636  1.00  0.00     0.008 C 
ATOM     11  C   UNL     1     123.727 177.376 122.092  1.00  0.00     0.039 C 
ENDBRANCH   5   9
TORSDOF 1
ENDMDL
