MODEL 1
REMARK VINA RESULT:    -2.343      0.000      0.000
REMARK INTER + INTRA:          -3.463
REMARK INTER:                  -3.164
REMARK INTRA:                  -0.298
REMARK UNBOUND:                -0.298
REMARK SMILES CCCCCCCC=O
REMARK SMILES IDX 5 1 4 2 3 3 2 4 1 5 6 6 7 7 8 8 9 9
REMARK H PARENT
REMARK Flexibility Score: inf
ROOT
ATOM      1  C   UNL     1     128.834 127.422 116.556  1.00  0.00     0.000 C 
ENDROOT
BRANCH   1   2
ATOM      2  C   UNL     1     128.139 127.988 117.807  1.00  0.00     0.000 C 
BRANCH   2   3
ATOM      3  C   UNL     1     126.667 127.557 117.911  1.00  0.00    -0.000 C 
BRANCH   3   4
ATOM      4  C   UNL     1     125.738 128.710 118.318  1.00  0.00    -0.003 C 
ATOM      5  C   UNL     1     126.541 129.940 118.737  1.00  0.00     0.004 C 
ENDBRANCH   3   4
ENDBRANCH   2   3
ENDBRANCH   1   2
BRANCH   1   6
ATOM      6  C   UNL     1     127.853 126.704 115.611  1.00  0.00     0.008 C 
BRANCH   6   7
ATOM      7  C   UNL     1     128.429 125.431 114.968  1.00  0.00     0.072 C 
BRANCH   7   8
ATOM      8  C   UNL     1     128.644 124.331 115.968  1.00  0.00     0.224 C 
ATOM      9  O   UNL     1     128.304 123.191 115.699  1.00  0.00    -0.303 OA
ENDBRANCH   7   8
ENDBRANCH   6   7
ENDBRANCH   1   6
TORSDOF 6
ENDMDL
MODEL 2
REMARK VINA RESULT:    -2.323      2.047      3.755
REMARK INTER + INTRA:          -3.436
REMARK INTER:                  -2.987
REMARK INTRA:                  -0.449
REMARK UNBOUND:                -0.298
REMARK SMILES CCCCCCCC=O
REMARK SMILES IDX 5 1 4 2 3 3 2 4 1 5 6 6 7 7 8 8 9 9
REMARK H PARENT
REMARK Flexibility Score: inf
ROOT
ATOM      1  C   UNL     1     129.726 123.503 115.512  1.00  0.00     0.000 C 
ENDROOT
BRANCH   1   2
ATOM      2  C   UNL     1     129.473 124.882 114.876  1.00  0.00     0.000 C 
BRANCH   2   3
ATOM      3  C   UNL     1     128.004 125.324 114.988  1.00  0.00    -0.000 C 
BRANCH   3   4
ATOM      4  C   UNL     1     127.856 126.779 115.456  1.00  0.00    -0.003 C 
ATOM      5  C   UNL     1     127.848 126.867 116.980  1.00  0.00     0.004 C 
ENDBRANCH   3   4
ENDBRANCH   2   3
ENDBRANCH   1   2
BRANCH   1   6
ATOM      6  C   UNL     1     129.055 123.358 116.890  1.00  0.00     0.008 C 
BRANCH   6   7
ATOM      7  C   UNL     1     128.176 122.102 117.024  1.00  0.00     0.072 C 
BRANCH   7   8
ATOM      8  C   UNL     1     127.759 121.550 115.691  1.00  0.00     0.224 C 
ATOM      9  O   UNL     1     126.599 121.651 115.328  1.00  0.00    -0.303 OA
ENDBRANCH   7   8
ENDBRANCH   6   7
ENDBRANCH   1   6
TORSDOF 6
ENDMDL
MODEL 3
REMARK VINA RESULT:    -2.304     12.949     14.931
REMARK INTER + INTRA:          -3.410
REMARK INTER:                  -3.195
REMARK INTRA:                  -0.216
REMARK UNBOUND:                -0.298
REMARK SMILES CCCCCCCC=O
REMARK SMILES IDX 5 1 4 2 3 3 2 4 1 5 6 6 7 7 8 8 9 9
REMARK H PARENT
REMARK Flexibility Score: inf
ROOT
ATOM      1  C   UNL     1     127.396 111.993 117.464  1.00  0.00     0.000 C 
ENDROOT
BRANCH   1   2
ATOM      2  C   UNL     1     128.668 111.893 118.325  1.00  0.00     0.000 C 
BRANCH   2   3
ATOM      3  C   UNL     1     129.304 113.266 118.599  1.00  0.00    -0.000 C 
BRANCH   3   4
ATOM      4  C   UNL     1     128.282 114.412 118.562  1.00  0.00    -0.003 C 
ATOM      5  C   UNL     1     127.941 114.888 119.972  1.00  0.00     0.004 C 
ENDBRANCH   3   4
ENDBRANCH   2   3
ENDBRANCH   1   2
BRANCH   1   6
ATOM      6  C   UNL     1     127.076 110.676 116.733  1.00  0.00     0.008 C 
BRANCH   6   7
ATOM      7  C   UNL     1     126.616 110.870 115.277  1.00  0.00     0.072 C 
BRANCH   7   8
ATOM      8  C   UNL     1     125.243 110.312 115.031  1.00  0.00     0.224 C 
ATOM      9  O   UNL     1     124.282 110.788 115.612  1.00  0.00    -0.303 OA
ENDBRANCH   7   8
ENDBRANCH   6   7
ENDBRANCH   1   6
TORSDOF 6
ENDMDL
MODEL 4
REMARK VINA RESULT:    -2.295      1.132      1.527
REMARK INTER + INTRA:          -3.399
REMARK INTER:                  -3.256
REMARK INTRA:                  -0.143
REMARK UNBOUND:                -0.298
REMARK SMILES CCCCCCCC=O
REMARK SMILES IDX 5 1 4 2 3 3 2 4 1 5 6 6 7 7 8 8 9 9
REMARK H PARENT
REMARK Flexibility Score: inf
ROOT
ATOM      1  C   UNL     1     127.981 126.711 117.004  1.00  0.00     0.000 C 
ENDROOT
BRANCH   1   2
ATOM      2  C   UNL     1     127.082 127.851 117.515  1.00  0.00     0.000 C 
BRANCH   2   3
ATOM      3  C   UNL     1     126.139 127.399 118.642  1.00  0.00    -0.000 C 
BRANCH   3   4
ATOM      4  C   UNL     1     124.806 128.161 118.641  1.00  0.00    -0.003 C 
ATOM      5  C   UNL     1     123.653 127.249 119.056  1.00  0.00     0.004 C 
ENDBRANCH   3   4
ENDBRANCH   2   3
ENDBRANCH   1   2
BRANCH   1   6
ATOM      6  C   UNL     1     127.853 126.497 115.484  1.00  0.00     0.008 C 
BRANCH   6   7
ATOM      7  C   UNL     1     128.883 125.510 114.907  1.00  0.00     0.072 C 
BRANCH   7   8
ATOM      8  C   UNL     1     129.005 124.262 115.734  1.00  0.00     0.224 C 
ATOM      9  O   UNL     1     128.157 123.390 115.646  1.00  0.00    -0.303 OA
ENDBRANCH   7   8
ENDBRANCH   6   7
ENDBRANCH   1   6
TORSDOF 6
ENDMDL
MODEL 5
REMARK VINA RESULT:    -2.275     14.585     16.247
REMARK INTER + INTRA:          -3.371
REMARK INTER:                  -3.129
REMARK INTRA:                  -0.242
REMARK UNBOUND:                -0.298
REMARK SMILES CCCCCCCC=O
REMARK SMILES IDX 5 1 4 2 3 3 2 4 1 5 6 6 7 7 8 8 9 9
REMARK H PARENT
REMARK Flexibility Score: inf
ROOT
ATOM      1  C   UNL     1     111.581 127.024 117.756  1.00  0.00     0.000 C 
ENDROOT
BRANCH   1   2
ATOM      2  C   UNL     1     111.321 128.521 117.512  1.00  0.00     0.000 C 
BRANCH   2   3
ATOM      3  C   UNL     1     111.755 128.974 116.108  1.00  0.00    -0.000 C 
BRANCH   3   4
ATOM      4  C   UNL     1     112.409 127.846 115.296  1.00  0.00    -0.003 C 
ATOM      5  C   UNL     1     113.880 128.150 115.022  1.00  0.00     0.004 C 
ENDBRANCH   3   4
ENDBRANCH   2   3
ENDBRANCH   1   2
BRANCH   1   6
ATOM      6  C   UNL     1     110.348 126.297 118.324  1.00  0.00     0.008 C 
BRANCH   6   7
ATOM      7  C   UNL     1     110.557 124.786 118.527  1.00  0.00     0.072 C 
BRANCH   7   8
ATOM      8  C   UNL     1     111.887 124.471 119.149  1.00  0.00     0.224 C 
ATOM      9  O   UNL     1     112.410 123.387 118.949  1.00  0.00    -0.303 OA
ENDBRANCH   7   8
ENDBRANCH   6   7
ENDBRANCH   1   6
TORSDOF 6
ENDMDL
MODEL 6
REMARK VINA RESULT:    -2.273     14.249     15.980
REMARK INTER + INTRA:          -3.369
REMARK INTER:                  -3.114
REMARK INTRA:                  -0.255
REMARK UNBOUND:                -0.298
REMARK SMILES CCCCCCCC=O
REMARK SMILES IDX 5 1 4 2 3 3 2 4 1 5 6 6 7 7 8 8 9 9
REMARK H PARENT
REMARK Flexibility Score: inf
ROOT
ATOM      1  C   UNL     1     126.766 111.164 115.554  1.00  0.00     0.000 C 
ENDROOT
BRANCH   1   2
ATOM      2  C   UNL     1     126.902 110.453 116.912  1.00  0.00     0.000 C 
BRANCH   2   3
ATOM      3  C   UNL     1     127.968 111.097 117.813  1.00  0.00    -0.000 C 
BRANCH   3   4
ATOM      4  C   UNL     1     127.868 112.629 117.848  1.00  0.00    -0.003 C 
ATOM      5  C   UNL     1     129.097 113.245 118.514  1.00  0.00     0.004 C 
ENDBRANCH   3   4
ENDBRANCH   2   3
ENDBRANCH   1   2
BRANCH   1   6
ATOM      6  C   UNL     1     125.319 111.159 115.029  1.00  0.00     0.008 C 
BRANCH   6   7
ATOM      7  C   UNL     1     124.460 110.011 115.586  1.00  0.00     0.072 C 
BRANCH   7   8
ATOM      8  C   UNL     1     123.208 110.504 116.253  1.00  0.00     0.224 C 
ATOM      9  O   UNL     1     122.503 111.326 115.691  1.00  0.00    -0.303 OA
ENDBRANCH   7   8
ENDBRANCH   6   7
ENDBRANCH   1   6
TORSDOF 6
ENDMDL
MODEL 7
REMARK VINA RESULT:    -2.263     12.536     14.169
REMARK INTER + INTRA:          -3.355
REMARK INTER:                  -3.002
REMARK INTRA:                  -0.353
REMARK UNBOUND:                -0.298
REMARK SMILES CCCCCCCC=O
REMARK SMILES IDX 5 1 4 2 3 3 2 4 1 5 6 6 7 7 8 8 9 9
REMARK H PARENT
REMARK Flexibility Score: inf
ROOT
ATOM      1  C   UNL     1     113.592 128.319 114.983  1.00  0.00     0.000 C 
ENDROOT
BRANCH   1   2
ATOM      2  C   UNL     1     112.185 128.917 115.160  1.00  0.00     0.000 C 
BRANCH   2   3
ATOM      3  C   UNL     1     111.777 129.039 116.638  1.00  0.00    -0.000 C 
BRANCH   3   4
ATOM      4  C   UNL     1     112.309 127.883 117.498  1.00  0.00    -0.003 C 
ATOM      5  C   UNL     1     111.252 126.794 117.667  1.00  0.00     0.004 C 
ENDBRANCH   3   4
ENDBRANCH   2   3
ENDBRANCH   1   2
BRANCH   1   6
ATOM      6  C   UNL     1     114.692 129.396 114.972  1.00  0.00     0.008 C 
BRANCH   6   7
ATOM      7  C   UNL     1     115.734 129.230 116.093  1.00  0.00     0.072 C 
BRANCH   7   8
ATOM      8  C   UNL     1     116.961 128.498 115.630  1.00  0.00     0.224 C 
ATOM      9  O   UNL     1     116.978 127.279 115.630  1.00  0.00    -0.303 OA
ENDBRANCH   7   8
ENDBRANCH   6   7
ENDBRANCH   1   6
TORSDOF 6
ENDMDL
MODEL 8
REMARK VINA RESULT:    -2.238      2.614      5.050
REMARK INTER + INTRA:          -3.322
REMARK INTER:                  -3.124
REMARK INTRA:                  -0.198
REMARK UNBOUND:                -0.298
REMARK SMILES CCCCCCCC=O
REMARK SMILES IDX 5 1 4 2 3 3 2 4 1 5 6 6 7 7 8 8 9 9
REMARK H PARENT
REMARK Flexibility Score: inf
ROOT
ATOM      1  C   UNL     1     127.150 127.378 117.436  1.00  0.00     0.000 C 
ENDROOT
BRANCH   1   2
ATOM      2  C   UNL     1     128.505 126.940 116.854  1.00  0.00     0.000 C 
BRANCH   2   3
ATOM      3  C   UNL     1     128.453 126.724 115.333  1.00  0.00    -0.000 C 
BRANCH   3   4
ATOM      4  C   UNL     1     127.994 125.309 114.950  1.00  0.00    -0.003 C 
ATOM      5  C   UNL     1     128.657 124.259 115.838  1.00  0.00     0.004 C 
ENDBRANCH   3   4
ENDBRANCH   2   3
ENDBRANCH   1   2
BRANCH   1   6
ATOM      6  C   UNL     1     127.247 128.695 118.228  1.00  0.00     0.008 C 
BRANCH   6   7
ATOM      7  C   UNL     1     125.881 129.321 118.562  1.00  0.00     0.072 C 
BRANCH   7   8
ATOM      8  C   UNL     1     124.771 128.309 118.556  1.00  0.00     0.224 C 
ATOM      9  O   UNL     1     124.113 128.124 119.566  1.00  0.00    -0.303 OA
ENDBRANCH   7   8
ENDBRANCH   6   7
ENDBRANCH   1   6
TORSDOF 6
ENDMDL
MODEL 9
REMARK VINA RESULT:    -2.233     14.802     16.351
REMARK INTER + INTRA:          -3.315
REMARK INTER:                  -3.101
REMARK INTRA:                  -0.214
REMARK UNBOUND:                -0.298
REMARK SMILES CCCCCCCC=O
REMARK SMILES IDX 5 1 4 2 3 3 2 4 1 5 6 6 7 7 8 8 9 9
REMARK H PARENT
REMARK Flexibility Score: inf
ROOT
ATOM      1  C   UNL     1     111.711 127.067 117.848  1.00  0.00     0.000 C 
ENDROOT
BRANCH   1   2
ATOM      2  C   UNL     1     110.230 126.938 118.246  1.00  0.00     0.000 C 
BRANCH   2   3
ATOM      3  C   UNL     1     109.875 125.529 118.749  1.00  0.00    -0.000 C 
BRANCH   3   4
ATOM      4  C   UNL     1     111.040 124.538 118.610  1.00  0.00    -0.003 C 
ATOM      5  C   UNL     1     111.375 123.892 119.953  1.00  0.00     0.004 C 
ENDBRANCH   3   4
ENDBRANCH   2   3
ENDBRANCH   1   2
BRANCH   1   6
ATOM      6  C   UNL     1     111.969 128.268 116.919  1.00  0.00     0.008 C 
BRANCH   6   7
ATOM      7  C   UNL     1     112.515 127.877 115.535  1.00  0.00     0.072 C 
BRANCH   7   8
ATOM      8  C   UNL     1     113.279 128.995 114.885  1.00  0.00     0.224 C 
ATOM      9  O   UNL     1     114.491 129.054 115.007  1.00  0.00    -0.303 OA
ENDBRANCH   7   8
ENDBRANCH   6   7
ENDBRANCH   1   6
TORSDOF 6
ENDMDL
