MODEL 1
REMARK VINA RESULT:    -3.650      0.000      0.000
REMARK INTER + INTRA:          -6.173
REMARK INTER:                  -5.571
REMARK INTRA:                  -0.602
REMARK UNBOUND:                -0.602
REMARK SMILES CC1=CCC[C@H](C)C(=O)C[C@H](C(C)C)C(=O)C1
REMARK SMILES IDX 8 1 9 2 6 3 7 4 5 5 4 6 3 7 2 8 1 9 10 11 11 12 15 13 16 14
REMARK SMILES IDX 17 15 12 17 13 18 14 19
REMARK H PARENT
REMARK Flexibility Score: 70.00
ROOT
ATOM      1  C   UNL     1       5.385  -3.213  -3.589  1.00  0.00     0.136 C 
ATOM      2  O   UNL     1       5.156  -3.427  -4.771  1.00  0.00    -0.299 OA
ENDROOT
BRANCH   1   3
ATOM      3  C   UNL     1       5.008  -4.258  -2.563  1.00  0.00     0.053 C 
ATOM      4  C   UNL     1       3.485  -4.388  -2.450  1.00  0.00     0.016 C 
BRANCH   3   5
ATOM      5  C   UNL     1       5.659  -5.607  -2.951  1.00  0.00     0.015 C 
BRANCH   5   6
ATOM      6  C   UNL     1       7.200  -5.655  -2.926  1.00  0.00     0.028 C 
BRANCH   6   7
ATOM      7  C   UNL     1       7.895  -5.357  -1.615  1.00  0.00    -0.028 C 
ATOM      8  C   UNL     1       8.739  -4.330  -1.348  1.00  0.00    -0.070 CG0
ATOM      9  C   UNL     1       9.459  -4.350  -0.021  1.00  0.00     0.039 C 
ATOM     10  G   UNL     1       8.948  -3.131  -2.260  1.00  0.00     0.000 G0
ENDBRANCH   6   7
ENDBRANCH   5   6
ENDBRANCH   3   5
ENDBRANCH   1   3
BRANCH   1  11
ATOM     11  C   UNL     1       5.993  -1.888  -3.189  1.00  0.00     0.087 C 
BRANCH  11  12
ATOM     12  C   UNL     1       6.621  -1.799  -1.769  1.00  0.00     0.066 C 
BRANCH  12  13
ATOM     13  C   UNL     1       8.148  -1.914  -1.763  1.00  0.00     0.140 C 
ATOM     14  O   UNL     1       8.768  -0.944  -1.348  1.00  0.00    -0.299 OA
BRANCH  13  15
ATOM     15  C   UNL     1       8.952  -3.104  -2.255  1.00  0.00     0.106 CG0
ATOM     16  G   UNL     1       8.728  -4.323  -1.372  1.00  0.00     0.000 G0
ENDBRANCH  13  15
ENDBRANCH  12  13
BRANCH  12  17
ATOM     17  C   UNL     1       5.918  -0.830  -0.756  1.00  0.00    -0.006 C 
ATOM     18  C   UNL     1       4.853   0.043  -1.439  1.00  0.00     0.008 C 
ATOM     19  C   UNL     1       5.352  -1.444   0.531  1.00  0.00     0.008 C 
ENDBRANCH  12  17
ENDBRANCH  11  12
ENDBRANCH   1  11
TORSDOF 1
ENDMDL
MODEL 2
REMARK VINA RESULT:    -3.462      2.274      4.386
REMARK INTER + INTRA:          -5.885
REMARK INTER:                  -5.426
REMARK INTRA:                  -0.459
REMARK UNBOUND:                -0.602
REMARK SMILES CC1=CCC[C@H](C)C(=O)C[C@H](C(C)C)C(=O)C1
REMARK SMILES IDX 8 1 9 2 6 3 7 4 5 5 4 6 3 7 2 8 1 9 10 11 11 12 15 13 16 14
REMARK SMILES IDX 17 15 12 17 13 18 14 19
REMARK H PARENT
REMARK Flexibility Score: 70.00
ROOT
ATOM      1  C   UNL     1       7.694  -3.282  -0.910  1.00  0.00     0.136 C 
ATOM      2  O   UNL     1       8.449  -3.918  -0.188  1.00  0.00    -0.299 OA
ENDROOT
BRANCH   1   3
ATOM      3  C   UNL     1       8.258  -2.181  -1.781  1.00  0.00     0.053 C 
ATOM      4  C   UNL     1       9.474  -1.528  -1.114  1.00  0.00     0.016 C 
BRANCH   3   5
ATOM      5  C   UNL     1       8.623  -2.767  -3.165  1.00  0.00     0.015 C 
BRANCH   5   6
ATOM      6  C   UNL     1       7.610  -2.520  -4.301  1.00  0.00     0.028 C 
BRANCH   6   7
ATOM      7  C   UNL     1       6.891  -3.720  -4.879  1.00  0.00    -0.028 C 
ATOM      8  C   UNL     1       5.582  -4.041  -4.732  1.00  0.00    -0.070 CG0
ATOM      9  C   UNL     1       5.136  -5.390  -5.245  1.00  0.00     0.039 C 
ATOM     10  G   UNL     1       4.527  -3.108  -4.158  1.00  0.00     0.000 G0
ENDBRANCH   6   7
ENDBRANCH   5   6
ENDBRANCH   3   5
ENDBRANCH   1   3
BRANCH   1  11
ATOM     11  C   UNL     1       6.213  -3.586  -0.872  1.00  0.00     0.087 C 
BRANCH  11  12
ATOM     12  C   UNL     1       5.269  -2.595  -1.608  1.00  0.00     0.066 C 
BRANCH  12  13
ATOM     13  C   UNL     1       4.372  -3.260  -2.654  1.00  0.00     0.140 C 
ATOM     14  O   UNL     1       3.492  -3.999  -2.230  1.00  0.00    -0.299 OA
BRANCH  13  15
ATOM     15  C   UNL     1       4.500  -3.112  -4.160  1.00  0.00     0.106 CG0
ATOM     16  G   UNL     1       5.581  -4.028  -4.713  1.00  0.00     0.000 G0
ENDBRANCH  13  15
ENDBRANCH  12  13
BRANCH  12  17
ATOM     17  C   UNL     1       4.705  -1.407  -0.754  1.00  0.00    -0.006 C 
ATOM     18  C   UNL     1       5.215  -1.447   0.696  1.00  0.00     0.008 C 
ATOM     19  C   UNL     1       4.855   0.009  -1.328  1.00  0.00     0.008 C 
ENDBRANCH  12  17
ENDBRANCH  11  12
ENDBRANCH   1  11
TORSDOF 1
ENDMDL
MODEL 3
REMARK VINA RESULT:    -3.438      2.014      3.947
REMARK INTER + INTRA:          -5.850
REMARK INTER:                  -5.603
REMARK INTRA:                  -0.246
REMARK UNBOUND:                -0.602
REMARK SMILES CC1=CCC[C@H](C)C(=O)C[C@H](C(C)C)C(=O)C1
REMARK SMILES IDX 8 1 9 2 6 3 7 4 5 5 4 6 3 7 2 8 1 9 10 11 11 12 15 13 16 14
REMARK SMILES IDX 17 15 12 17 13 18 14 19
REMARK H PARENT
REMARK Flexibility Score: 70.00
ROOT
ATOM      1  C   UNL     1       5.669  -1.355  -0.246  1.00  0.00     0.136 C 
ATOM      2  O   UNL     1       4.567  -1.043  -0.676  1.00  0.00    -0.299 OA
ENDROOT
BRANCH   1   3
ATOM      3  C   UNL     1       5.759  -2.224   0.989  1.00  0.00     0.053 C 
ATOM      4  C   UNL     1       4.964  -1.610   2.148  1.00  0.00     0.016 C 
BRANCH   3   5
ATOM      5  C   UNL     1       5.249  -3.644   0.649  1.00  0.00     0.015 C 
BRANCH   5   6
ATOM      6  C   UNL     1       6.048  -4.420  -0.417  1.00  0.00     0.028 C 
BRANCH   6   7
ATOM      7  C   UNL     1       5.339  -4.788  -1.703  1.00  0.00    -0.028 C 
ATOM      8  C   UNL     1       5.701  -4.450  -2.965  1.00  0.00    -0.070 CG0
ATOM      9  C   UNL     1       4.730  -4.772  -4.076  1.00  0.00     0.039 C 
ATOM     10  G   UNL     1       7.044  -3.842  -3.340  1.00  0.00     0.000 G0
ENDBRANCH   6   7
ENDBRANCH   5   6
ENDBRANCH   3   5
ENDBRANCH   1   3
BRANCH   1  11
ATOM     11  C   UNL     1       6.904  -0.823  -0.936  1.00  0.00     0.087 C 
BRANCH  11  12
ATOM     12  C   UNL     1       7.791  -1.852  -1.689  1.00  0.00     0.066 C 
BRANCH  12  13
ATOM     13  C   UNL     1       7.159  -2.385  -2.978  1.00  0.00     0.140 C 
ATOM     14  O   UNL     1       6.673  -1.554  -3.734  1.00  0.00    -0.299 OA
BRANCH  13  15
ATOM     15  C   UNL     1       7.053  -3.846  -3.379  1.00  0.00     0.106 CG0
ATOM     16  G   UNL     1       5.714  -4.435  -2.962  1.00  0.00     0.000 G0
ENDBRANCH  13  15
ENDBRANCH  12  13
BRANCH  12  17
ATOM     17  C   UNL     1       9.340  -1.607  -1.636  1.00  0.00    -0.006 C 
ATOM     18  C   UNL     1      10.053  -2.620  -0.727  1.00  0.00     0.008 C 
ATOM     19  C   UNL     1      10.081  -1.484  -2.975  1.00  0.00     0.008 C 
ENDBRANCH  12  17
ENDBRANCH  11  12
ENDBRANCH   1  11
TORSDOF 1
ENDMDL
MODEL 4
REMARK VINA RESULT:    -3.398      1.898      3.926
REMARK INTER + INTRA:          -5.787
REMARK INTER:                  -5.283
REMARK INTRA:                  -0.504
REMARK UNBOUND:                -0.602
REMARK SMILES CC1=CCC[C@H](C)C(=O)C[C@H](C(C)C)C(=O)C1
REMARK SMILES IDX 8 1 9 2 6 3 7 4 5 5 4 6 3 7 2 8 1 9 10 11 11 12 15 13 16 14
REMARK SMILES IDX 17 15 12 17 13 18 14 19
REMARK H PARENT
REMARK Flexibility Score: 70.00
ROOT
ATOM      1  C   UNL     1       5.596  -2.501   0.133  1.00  0.00     0.136 C 
ATOM      2  O   UNL     1       5.846  -2.187   1.288  1.00  0.00    -0.299 OA
ENDROOT
BRANCH   1   3
ATOM      3  C   UNL     1       5.577  -1.432  -0.936  1.00  0.00     0.053 C 
ATOM      4  C   UNL     1       4.551  -0.343  -0.601  1.00  0.00     0.016 C 
BRANCH   3   5
ATOM      5  C   UNL     1       6.998  -0.838  -1.085  1.00  0.00     0.015 C 
BRANCH   5   6
ATOM      6  C   UNL     1       8.059  -1.755  -1.723  1.00  0.00     0.028 C 
BRANCH   6   7
ATOM      7  C   UNL     1       8.925  -2.585  -0.799  1.00  0.00    -0.028 C 
ATOM      8  C   UNL     1       9.016  -3.937  -0.754  1.00  0.00    -0.070 CG0
ATOM      9  C   UNL     1       9.804  -4.542   0.383  1.00  0.00     0.039 C 
ATOM     10  G   UNL     1       8.446  -4.872  -1.809  1.00  0.00     0.000 G0
ENDBRANCH   6   7
ENDBRANCH   5   6
ENDBRANCH   3   5
ENDBRANCH   1   3
BRANCH   1  11
ATOM     11  C   UNL     1       5.268  -3.944  -0.179  1.00  0.00     0.087 C 
BRANCH  11  12
ATOM     12  C   UNL     1       5.756  -4.500  -1.546  1.00  0.00     0.066 C 
BRANCH  12  13
ATOM     13  C   UNL     1       7.029  -5.344  -1.448  1.00  0.00     0.140 C 
ATOM     14  O   UNL     1       6.901  -6.479  -1.008  1.00  0.00    -0.299 OA
BRANCH  13  15
ATOM     15  C   UNL     1       8.430  -4.887  -1.815  1.00  0.00     0.106 CG0
ATOM     16  G   UNL     1       8.997  -3.950  -0.760  1.00  0.00     0.000 G0
ENDBRANCH  13  15
ENDBRANCH  12  13
BRANCH  12  17
ATOM     17  C   UNL     1       4.640  -4.906  -2.570  1.00  0.00    -0.006 C 
ATOM     18  C   UNL     1       3.329  -4.140  -2.328  1.00  0.00     0.008 C 
ATOM     19  C   UNL     1       5.004  -4.872  -4.061  1.00  0.00     0.008 C 
ENDBRANCH  12  17
ENDBRANCH  11  12
ENDBRANCH   1  11
TORSDOF 1
ENDMDL
MODEL 5
REMARK VINA RESULT:    -3.344      1.767      3.980
REMARK INTER + INTRA:          -5.705
REMARK INTER:                  -5.487
REMARK INTRA:                  -0.218
REMARK UNBOUND:                -0.602
REMARK SMILES CC1=CCC[C@H](C)C(=O)C[C@H](C(C)C)C(=O)C1
REMARK SMILES IDX 8 1 9 2 6 3 7 4 5 5 4 6 3 7 2 8 1 9 10 11 11 12 15 13 16 14
REMARK SMILES IDX 17 15 12 17 13 18 14 19
REMARK H PARENT
REMARK Flexibility Score: 70.00
ROOT
ATOM      1  C   UNL     1       4.566  -1.225  -1.724  1.00  0.00     0.136 C 
ATOM      2  O   UNL     1       4.027  -0.261  -2.251  1.00  0.00    -0.299 OA
ENDROOT
BRANCH   1   3
ATOM      3  C   UNL     1       5.681  -0.994  -0.729  1.00  0.00     0.053 C 
ATOM      4  C   UNL     1       5.595  -1.995   0.429  1.00  0.00     0.016 C 
BRANCH   3   5
ATOM      5  C   UNL     1       7.041  -1.095  -1.459  1.00  0.00     0.015 C 
BRANCH   5   6
ATOM      6  C   UNL     1       8.004  -2.193  -0.963  1.00  0.00     0.028 C 
BRANCH   6   7
ATOM      7  C   UNL     1       8.492  -3.213  -1.970  1.00  0.00    -0.028 C 
ATOM      8  C   UNL     1       7.980  -4.446  -2.203  1.00  0.00    -0.070 CG0
ATOM      9  C   UNL     1       8.755  -5.357  -3.125  1.00  0.00     0.039 C 
ATOM     10  G   UNL     1       6.647  -4.939  -1.661  1.00  0.00     0.000 G0
ENDBRANCH   6   7
ENDBRANCH   5   6
ENDBRANCH   3   5
ENDBRANCH   1   3
BRANCH   1  11
ATOM     11  C   UNL     1       4.130  -2.616  -2.123  1.00  0.00     0.087 C 
BRANCH  11  12
ATOM     12  C   UNL     1       5.019  -3.367  -3.153  1.00  0.00     0.066 C 
BRANCH  12  13
ATOM     13  C   UNL     1       5.516  -4.729  -2.662  1.00  0.00     0.140 C 
ATOM     14  O   UNL     1       4.928  -5.714  -3.090  1.00  0.00    -0.299 OA
BRANCH  13  15
ATOM     15  C   UNL     1       6.643  -4.960  -1.671  1.00  0.00     0.106 CG0
ATOM     16  G   UNL     1       7.967  -4.441  -2.212  1.00  0.00     0.000 G0
ENDBRANCH  13  15
ENDBRANCH  12  13
BRANCH  12  17
ATOM     17  C   UNL     1       4.638  -3.186  -4.663  1.00  0.00    -0.006 C 
ATOM     18  C   UNL     1       5.649  -3.869  -5.599  1.00  0.00     0.008 C 
ATOM     19  C   UNL     1       3.205  -3.550  -5.078  1.00  0.00     0.008 C 
ENDBRANCH  12  17
ENDBRANCH  11  12
ENDBRANCH   1  11
TORSDOF 1
ENDMDL
MODEL 6
REMARK VINA RESULT:    -3.307      2.074      4.850
REMARK INTER + INTRA:          -5.649
REMARK INTER:                  -5.222
REMARK INTRA:                  -0.427
REMARK UNBOUND:                -0.602
REMARK SMILES CC1=CCC[C@H](C)C(=O)C[C@H](C(C)C)C(=O)C1
REMARK SMILES IDX 8 1 9 2 6 3 7 4 5 5 4 6 3 7 2 8 1 9 10 11 11 12 15 13 16 14
REMARK SMILES IDX 17 15 12 17 13 18 14 19
REMARK H PARENT
REMARK Flexibility Score: 70.00
ROOT
ATOM      1  C   UNL     1       6.679  -2.926  -0.023  1.00  0.00     0.136 C 
ATOM      2  O   UNL     1       6.896  -3.752   0.851  1.00  0.00    -0.299 OA
ENDROOT
BRANCH   1   3
ATOM      3  C   UNL     1       5.476  -2.017   0.103  1.00  0.00     0.053 C 
ATOM      4  C   UNL     1       5.242  -1.621   1.565  1.00  0.00     0.016 C 
BRANCH   3   5
ATOM      5  C   UNL     1       5.687  -0.771  -0.790  1.00  0.00     0.015 C 
BRANCH   5   6
ATOM      6  C   UNL     1       4.706  -0.599  -1.967  1.00  0.00     0.028 C 
BRANCH   6   7
ATOM      7  C   UNL     1       4.216  -1.849  -2.667  1.00  0.00    -0.028 C 
ATOM      8  C   UNL     1       4.849  -2.545  -3.643  1.00  0.00    -0.070 CG0
ATOM      9  C   UNL     1       4.076  -3.651  -4.321  1.00  0.00     0.039 C 
ATOM     10  G   UNL     1       6.302  -2.336  -4.043  1.00  0.00     0.000 G0
ENDBRANCH   6   7
ENDBRANCH   5   6
ENDBRANCH   3   5
ENDBRANCH   1   3
BRANCH   1  11
ATOM     11  C   UNL     1       7.594  -2.873  -1.226  1.00  0.00     0.087 C 
BRANCH  11  12
ATOM     12  C   UNL     1       7.478  -4.034  -2.253  1.00  0.00     0.066 C 
BRANCH  12  13
ATOM     13  C   UNL     1       7.150  -3.569  -3.674  1.00  0.00     0.140 C 
ATOM     14  O   UNL     1       7.632  -4.224  -4.589  1.00  0.00    -0.299 OA
BRANCH  13  15
ATOM     15  C   UNL     1       6.313  -2.357  -4.042  1.00  0.00     0.106 CG0
ATOM     16  G   UNL     1       4.856  -2.555  -3.653  1.00  0.00     0.000 G0
ENDBRANCH  13  15
ENDBRANCH  12  13
BRANCH  12  17
ATOM     17  C   UNL     1       8.451  -5.246  -2.045  1.00  0.00    -0.006 C 
ATOM     18  C   UNL     1       9.730  -4.837  -1.297  1.00  0.00     0.008 C 
ATOM     19  C   UNL     1       7.865  -6.524  -1.430  1.00  0.00     0.008 C 
ENDBRANCH  12  17
ENDBRANCH  11  12
ENDBRANCH   1  11
TORSDOF 1
ENDMDL
MODEL 7
REMARK VINA RESULT:    -3.111      1.249      1.698
REMARK INTER + INTRA:          -5.350
REMARK INTER:                  -4.857
REMARK INTRA:                  -0.493
REMARK UNBOUND:                -0.602
REMARK SMILES CC1=CCC[C@H](C)C(=O)C[C@H](C(C)C)C(=O)C1
REMARK SMILES IDX 8 1 9 2 6 3 7 4 5 5 4 6 3 7 2 8 1 9 10 11 11 12 15 13 16 14
REMARK SMILES IDX 17 15 12 17 13 18 14 19
REMARK H PARENT
REMARK Flexibility Score: 70.00
ROOT
ATOM      1  C   UNL     1       5.032  -3.028  -3.838  1.00  0.00     0.136 C 
ATOM      2  O   UNL     1       4.273  -3.572  -3.049  1.00  0.00    -0.299 OA
ENDROOT
BRANCH   1   3
ATOM      3  C   UNL     1       5.275  -3.665  -5.188  1.00  0.00     0.053 C 
ATOM      4  C   UNL     1       6.181  -2.781  -6.053  1.00  0.00     0.016 C 
BRANCH   3   5
ATOM      5  C   UNL     1       5.889  -5.069  -4.983  1.00  0.00     0.015 C 
BRANCH   5   6
ATOM      6  C   UNL     1       7.424  -5.132  -4.852  1.00  0.00     0.028 C 
BRANCH   6   7
ATOM      7  C   UNL     1       8.010  -5.243  -3.460  1.00  0.00    -0.028 C 
ATOM      8  C   UNL     1       8.670  -4.282  -2.768  1.00  0.00    -0.070 CG0
ATOM      9  C   UNL     1       9.329  -4.688  -1.472  1.00  0.00     0.039 C 
ATOM     10  G   UNL     1       8.723  -2.817  -3.172  1.00  0.00     0.000 G0
ENDBRANCH   6   7
ENDBRANCH   5   6
ENDBRANCH   3   5
ENDBRANCH   1   3
BRANCH   1  11
ATOM     11  C   UNL     1       5.742  -1.761  -3.416  1.00  0.00     0.087 C 
BRANCH  11  12
ATOM     12  C   UNL     1       6.472  -1.783  -2.044  1.00  0.00     0.066 C 
BRANCH  12  13
ATOM     13  C   UNL     1       7.992  -1.927  -2.158  1.00  0.00     0.140 C 
ATOM     14  O   UNL     1       8.665  -1.247  -1.394  1.00  0.00    -0.299 OA
BRANCH  13  15
ATOM     15  C   UNL     1       8.730  -2.807  -3.151  1.00  0.00     0.106 CG0
ATOM     16  G   UNL     1       8.660  -4.272  -2.746  1.00  0.00     0.000 G0
ENDBRANCH  13  15
ENDBRANCH  12  13
BRANCH  12  17
ATOM     17  C   UNL     1       5.867  -0.873  -0.920  1.00  0.00    -0.006 C 
ATOM     18  C   UNL     1       4.863   0.146  -1.481  1.00  0.00     0.008 C 
ATOM     19  C   UNL     1       5.278  -1.572   0.313  1.00  0.00     0.008 C 
ENDBRANCH  12  17
ENDBRANCH  11  12
ENDBRANCH   1  11
TORSDOF 1
ENDMDL
MODEL 8
REMARK VINA RESULT:    -3.037      1.485      1.772
REMARK INTER + INTRA:          -5.238
REMARK INTER:                  -4.775
REMARK INTRA:                  -0.462
REMARK UNBOUND:                -0.602
REMARK SMILES CC1=CCC[C@H](C)C(=O)C[C@H](C(C)C)C(=O)C1
REMARK SMILES IDX 8 1 9 2 6 3 7 4 5 5 4 6 3 7 2 8 1 9 10 11 11 12 15 13 16 14
REMARK SMILES IDX 17 15 12 17 13 18 14 19
REMARK H PARENT
REMARK Flexibility Score: 70.00
ROOT
ATOM      1  C   UNL     1       6.672  -3.114  -4.228  1.00  0.00     0.136 C 
ATOM      2  O   UNL     1       7.598  -3.522  -4.915  1.00  0.00    -0.299 OA
ENDROOT
BRANCH   1   3
ATOM      3  C   UNL     1       5.313  -3.766  -4.357  1.00  0.00     0.053 C 
ATOM      4  C   UNL     1       4.715  -3.510  -5.745  1.00  0.00     0.016 C 
BRANCH   3   5
ATOM      5  C   UNL     1       5.449  -5.280  -4.074  1.00  0.00     0.015 C 
BRANCH   5   6
ATOM      6  C   UNL     1       5.613  -5.687  -2.596  1.00  0.00     0.028 C 
BRANCH   6   7
ATOM      7  C   UNL     1       6.998  -6.070  -2.118  1.00  0.00    -0.028 C 
ATOM      8  C   UNL     1       7.779  -5.394  -1.240  1.00  0.00    -0.070 CG0
ATOM      9  C   UNL     1       9.200  -5.872  -1.063  1.00  0.00     0.039 C 
ATOM     10  G   UNL     1       7.297  -4.242  -0.371  1.00  0.00     0.000 G0
ENDBRANCH   6   7
ENDBRANCH   5   6
ENDBRANCH   3   5
ENDBRANCH   1   3
BRANCH   1  11
ATOM     11  C   UNL     1       6.907  -1.938  -3.308  1.00  0.00     0.087 C 
BRANCH  11  12
ATOM     12  C   UNL     1       6.505  -2.117  -1.817  1.00  0.00     0.066 C 
BRANCH  12  13
ATOM     13  C   UNL     1       7.526  -2.908  -0.994  1.00  0.00     0.140 C 
ATOM     14  O   UNL     1       8.638  -2.410  -0.877  1.00  0.00    -0.299 OA
BRANCH  13  15
ATOM     15  C   UNL     1       7.289  -4.261  -0.347  1.00  0.00     0.106 CG0
ATOM     16  G   UNL     1       7.776  -5.391  -1.241  1.00  0.00     0.000 G0
ENDBRANCH  13  15
ENDBRANCH  12  13
BRANCH  12  17
ATOM     17  C   UNL     1       5.745  -0.916  -1.152  1.00  0.00    -0.006 C 
ATOM     18  C   UNL     1       4.507  -0.499  -1.961  1.00  0.00     0.008 C 
ATOM     19  C   UNL     1       5.387  -1.045   0.335  1.00  0.00     0.008 C 
ENDBRANCH  12  17
ENDBRANCH  11  12
ENDBRANCH   1  11
TORSDOF 1
ENDMDL
MODEL 9
REMARK VINA RESULT:    -2.925      1.974      3.912
REMARK INTER + INTRA:          -5.067
REMARK INTER:                  -4.673
REMARK INTRA:                  -0.393
REMARK UNBOUND:                -0.602
REMARK SMILES CC1=CCC[C@H](C)C(=O)C[C@H](C(C)C)C(=O)C1
REMARK SMILES IDX 8 1 9 2 6 3 7 4 5 5 4 6 3 7 2 8 1 9 10 11 11 12 15 13 16 14
REMARK SMILES IDX 17 15 12 17 13 18 14 19
REMARK H PARENT
REMARK Flexibility Score: 70.00
ROOT
ATOM      1  C   UNL     1       5.493  -4.758  -3.471  1.00  0.00     0.136 C 
ATOM      2  O   UNL     1       4.856  -5.770  -3.725  1.00  0.00    -0.299 OA
ENDROOT
BRANCH   1   3
ATOM      3  C   UNL     1       5.170  -3.477  -4.207  1.00  0.00     0.053 C 
ATOM      4  C   UNL     1       4.656  -3.775  -5.620  1.00  0.00     0.016 C 
BRANCH   3   5
ATOM      5  C   UNL     1       4.134  -2.670  -3.391  1.00  0.00     0.015 C 
BRANCH   5   6
ATOM      6  C   UNL     1       4.647  -1.383  -2.716  1.00  0.00     0.028 C 
BRANCH   6   7
ATOM      7  C   UNL     1       4.489  -1.259  -1.215  1.00  0.00    -0.028 C 
ATOM      8  C   UNL     1       5.450  -1.421  -0.273  1.00  0.00    -0.070 CG0
ATOM      9  C   UNL     1       5.011  -1.436   1.171  1.00  0.00     0.039 C 
ATOM     10  G   UNL     1       6.939  -1.511  -0.571  1.00  0.00     0.000 G0
ENDBRANCH   6   7
ENDBRANCH   5   6
ENDBRANCH   3   5
ENDBRANCH   1   3
BRANCH   1  11
ATOM     11  C   UNL     1       6.616  -4.834  -2.461  1.00  0.00     0.087 C 
BRANCH  11  12
ATOM     12  C   UNL     1       7.481  -3.557  -2.269  1.00  0.00     0.066 C 
BRANCH  12  13
ATOM     13  C   UNL     1       7.365  -2.939  -0.872  1.00  0.00     0.140 C 
ATOM     14  O   UNL     1       7.611  -3.676   0.074  1.00  0.00    -0.299 OA
BRANCH  13  15
ATOM     15  C   UNL     1       6.943  -1.514  -0.562  1.00  0.00     0.106 CG0
ATOM     16  G   UNL     1       5.450  -1.431  -0.284  1.00  0.00     0.000 G0
ENDBRANCH  13  15
ENDBRANCH  12  13
BRANCH  12  17
ATOM     17  C   UNL     1       8.863  -3.534  -3.008  1.00  0.00    -0.006 C 
ATOM     18  C   UNL     1       8.777  -2.828  -4.371  1.00  0.00     0.008 C 
ATOM     19  C   UNL     1      10.076  -3.018  -2.222  1.00  0.00     0.008 C 
ENDBRANCH  12  17
ENDBRANCH  11  12
ENDBRANCH   1  11
TORSDOF 1
ENDMDL
