MODEL 1
REMARK VINA RESULT:    -6.378      0.000      0.000
REMARK INTER + INTRA:          -9.603
REMARK INTER:                  -8.615
REMARK INTRA:                  -0.988
REMARK UNBOUND:                -0.988
REMARK SMILES O=c1c(-c2ccc(O)cc2)coc2c([C@H]3O[C@@H](CO)[C@H](O)[C@H](O)[C@H]3O)c(O)ccc12
REMARK SMILES IDX 3 1 11 2 12 3 13 4 30 5 2 6 1 7 29 8 28 9 26 10 14 11 4 12
REMARK SMILES IDX 5 13 6 14 7 15 10 16 9 17 8 18 15 20 24 21 16 22 22 23 17 24
REMARK SMILES IDX 20 25 25 26 23 28 18 30 19 31 21 33 27 35
REMARK H PARENT 8 19 25 27 23 29 19 32 21 34 27 36
REMARK Flexibility Score: inf
ROOT
ATOM      1  C   UNL     1      25.083  40.584  31.645  1.00  0.00     0.065 A 
ATOM      2  C   UNL     1      26.157  39.771  31.248  1.00  0.00     0.208 A 
ATOM      3  O   UNL     1      26.780  38.989  32.137  1.00  0.00    -0.463 OA
ATOM      4  C   UNL     1      26.384  38.864  33.402  1.00  0.00     0.147 A 
ATOM      5  C   UNL     1      25.241  39.575  33.841  1.00  0.00     0.066 A 
ATOM      6  C   UNL     1      24.635  40.483  32.970  1.00  0.00     0.200 A 
ATOM      7  O   UNL     1      23.706  41.232  33.387  1.00  0.00    -0.288 OA
ATOM      8  C   UNL     1      24.786  39.383  35.163  1.00  0.00     0.020 A 
ATOM      9  C   UNL     1      25.380  38.425  35.979  1.00  0.00     0.047 A 
ATOM     10  C   UNL     1      26.513  37.722  35.550  1.00  0.00     0.125 A 
ATOM     11  C   UNL     1      27.113  38.030  34.300  1.00  0.00     0.069 A 
ENDROOT
BRANCH   1  12
ATOM     12  C   UNL     1      24.616  41.650  30.737  1.00  0.00    -0.011 A 
ATOM     13  C   UNL     1      25.409  42.783  30.497  1.00  0.00     0.013 A 
ATOM     14  C   UNL     1      24.873  43.900  29.825  1.00  0.00     0.047 A 
ATOM     15  C   UNL     1      23.548  43.871  29.374  1.00  0.00     0.115 A 
ATOM     16  C   UNL     1      23.303  41.612  30.217  1.00  0.00     0.013 A 
ATOM     17  C   UNL     1      22.773  42.719  29.552  1.00  0.00     0.047 A 
BRANCH  15  18
ATOM     18  O   UNL     1      23.018  45.002  28.758  1.00  0.00    -0.508 OA
ATOM     19  H   UNL     1      23.562  45.603  28.155  1.00  0.00     0.293 HD
ENDBRANCH  15  18
ENDBRANCH   1  12
BRANCH  11  20
ATOM     20  C   UNL     1      28.580  37.652  34.041  1.00  0.00     0.188 C 
ATOM     21  C   UNL     1      28.628  36.571  32.907  1.00  0.00     0.179 C 
ATOM     22  O   UNL     1      29.217  37.220  35.231  1.00  0.00    -0.362 OA
ATOM     23  C   UNL     1      30.025  35.922  32.719  1.00  0.00     0.177 C 
ATOM     24  C   UNL     1      30.532  36.667  35.077  1.00  0.00     0.176 C 
ATOM     25  C   UNL     1      31.069  36.594  33.619  1.00  0.00     0.177 C 
BRANCH  21  26
ATOM     26  O   UNL     1      27.639  35.577  33.087  1.00  0.00    -0.387 OA
ATOM     27  H   UNL     1      27.804  35.149  33.972  1.00  0.00     0.211 HD
ENDBRANCH  21  26
BRANCH  23  28
ATOM     28  O   UNL     1      30.427  36.004  31.366  1.00  0.00    -0.387 OA
ATOM     29  H   UNL     1      30.547  36.967  31.162  1.00  0.00     0.211 HD
ENDBRANCH  23  28
BRANCH  24  30
ATOM     30  C   UNL     1      30.536  35.267  35.750  1.00  0.00     0.191 C 
BRANCH  30  31
ATOM     31  O   UNL     1      29.239  34.903  36.127  1.00  0.00    -0.394 OA
ATOM     32  H   UNL     1      28.985  34.129  35.566  1.00  0.00     0.210 HD
ENDBRANCH  30  31
ENDBRANCH  24  30
BRANCH  25  33
ATOM     33  O   UNL     1      31.378  37.867  33.117  1.00  0.00    -0.388 OA
ATOM     34  H   UNL     1      32.340  37.858  32.863  1.00  0.00     0.211 HD
ENDBRANCH  25  33
ENDBRANCH  11  20
BRANCH  10  35
ATOM     35  O   UNL     1      26.996  36.707  36.372  1.00  0.00    -0.507 OA
ATOM     36  H   UNL     1      27.268  36.863  37.329  1.00  0.00     0.293 HD
ENDBRANCH  10  35
TORSDOF 9
ENDMDL
MODEL 2
REMARK VINA RESULT:    -6.377      1.369      2.417
REMARK INTER + INTRA:          -9.602
REMARK INTER:                  -8.863
REMARK INTRA:                  -0.739
REMARK UNBOUND:                -0.988
REMARK SMILES O=c1c(-c2ccc(O)cc2)coc2c([C@H]3O[C@@H](CO)[C@H](O)[C@H](O)[C@H]3O)c(O)ccc12
REMARK SMILES IDX 3 1 11 2 12 3 13 4 30 5 2 6 1 7 29 8 28 9 26 10 14 11 4 12
REMARK SMILES IDX 5 13 6 14 7 15 10 16 9 17 8 18 15 20 24 21 16 22 22 23 17 24
REMARK SMILES IDX 20 25 25 26 23 28 18 30 19 31 21 33 27 35
REMARK H PARENT 8 19 25 27 23 29 19 32 21 34 27 36
REMARK Flexibility Score: inf
ROOT
ATOM      1  C   UNL     1      24.643  40.140  31.867  1.00  0.00     0.065 A 
ATOM      2  C   UNL     1      25.661  39.193  31.674  1.00  0.00     0.208 A 
ATOM      3  O   UNL     1      25.922  38.277  32.613  1.00  0.00    -0.463 OA
ATOM      4  C   UNL     1      25.202  38.148  33.725  1.00  0.00     0.147 A 
ATOM      5  C   UNL     1      24.093  39.004  33.933  1.00  0.00     0.066 A 
ATOM      6  C   UNL     1      23.861  40.041  33.027  1.00  0.00     0.200 A 
ATOM      7  O   UNL     1      22.968  40.901  33.270  1.00  0.00    -0.288 OA
ATOM      8  C   UNL     1      23.293  38.814  35.080  1.00  0.00     0.020 A 
ATOM      9  C   UNL     1      23.520  37.733  35.926  1.00  0.00     0.047 A 
ATOM     10  C   UNL     1      24.618  36.886  35.726  1.00  0.00     0.125 A 
ATOM     11  C   UNL     1      25.555  37.163  34.695  1.00  0.00     0.069 A 
ENDROOT
BRANCH   1  12
ATOM     12  C   UNL     1      24.576  41.313  30.974  1.00  0.00    -0.011 A 
ATOM     13  C   UNL     1      25.557  42.316  31.033  1.00  0.00     0.013 A 
ATOM     14  C   UNL     1      25.371  43.538  30.356  1.00  0.00     0.047 A 
ATOM     15  C   UNL     1      24.210  43.745  29.600  1.00  0.00     0.115 A 
ATOM     16  C   UNL     1      23.443  41.514  30.153  1.00  0.00     0.013 A 
ATOM     17  C   UNL     1      23.260  42.724  29.483  1.00  0.00     0.047 A 
BRANCH  15  18
ATOM     18  O   UNL     1      24.018  44.977  28.980  1.00  0.00    -0.508 OA
ATOM     19  H   UNL     1      23.307  45.133  28.278  1.00  0.00     0.293 HD
ENDBRANCH  15  18
ENDBRANCH   1  12
BRANCH  11  20
ATOM     20  C   UNL     1      26.972  36.575  34.770  1.00  0.00     0.188 C 
ATOM     21  C   UNL     1      27.914  37.619  35.462  1.00  0.00     0.179 C 
ATOM     22  O   UNL     1      27.438  36.190  33.487  1.00  0.00    -0.362 OA
ATOM     23  C   UNL     1      29.420  37.257  35.378  1.00  0.00     0.177 C 
ATOM     24  C   UNL     1      28.816  35.801  33.407  1.00  0.00     0.176 C 
ATOM     25  C   UNL     1      29.620  35.878  34.736  1.00  0.00     0.177 C 
BRANCH  21  26
ATOM     26  O   UNL     1      27.691  38.929  34.978  1.00  0.00    -0.387 OA
ATOM     27  H   UNL     1      27.183  38.849  34.124  1.00  0.00     0.211 HD
ENDBRANCH  21  26
BRANCH  23  28
ATOM     28  O   UNL     1      30.003  37.280  36.666  1.00  0.00    -0.387 OA
ATOM     29  H   UNL     1      30.524  36.441  36.759  1.00  0.00     0.211 HD
ENDBRANCH  23  28
BRANCH  24  30
ATOM     30  C   UNL     1      29.483  36.655  32.295  1.00  0.00     0.191 C 
BRANCH  30  31
ATOM     31  O   UNL     1      28.760  37.835  32.086  1.00  0.00    -0.394 OA
ATOM     32  H   UNL     1      28.540  37.868  31.122  1.00  0.00     0.210 HD
ENDBRANCH  30  31
ENDBRANCH  24  30
BRANCH  25  33
ATOM     33  O   UNL     1      29.229  34.876  35.637  1.00  0.00    -0.388 OA
ATOM     34  H   UNL     1      30.041  34.345  35.857  1.00  0.00     0.211 HD
ENDBRANCH  25  33
ENDBRANCH  11  20
BRANCH  10  35
ATOM     35  O   UNL     1      24.730  35.765  36.545  1.00  0.00    -0.507 OA
ATOM     36  H   UNL     1      25.048  35.817  37.499  1.00  0.00     0.293 HD
ENDBRANCH  10  35
TORSDOF 9
ENDMDL
MODEL 3
REMARK VINA RESULT:    -6.331      1.196      2.468
REMARK INTER + INTRA:          -9.540
REMARK INTER:                  -9.103
REMARK INTRA:                  -0.437
REMARK UNBOUND:                -0.988
REMARK SMILES O=c1c(-c2ccc(O)cc2)coc2c([C@H]3O[C@@H](CO)[C@H](O)[C@H](O)[C@H]3O)c(O)ccc12
REMARK SMILES IDX 3 1 11 2 12 3 13 4 30 5 2 6 1 7 29 8 28 9 26 10 14 11 4 12
REMARK SMILES IDX 5 13 6 14 7 15 10 16 9 17 8 18 15 20 24 21 16 22 22 23 17 24
REMARK SMILES IDX 20 25 25 26 23 28 18 30 19 31 21 33 27 35
REMARK H PARENT 8 19 25 27 23 29 19 32 21 34 27 36
REMARK Flexibility Score: inf
ROOT
ATOM      1  C   UNL     1      25.060  40.562  32.032  1.00  0.00     0.065 A 
ATOM      2  C   UNL     1      25.808  39.563  31.391  1.00  0.00     0.208 A 
ATOM      3  O   UNL     1      26.477  38.652  32.106  1.00  0.00    -0.463 OA
ATOM      4  C   UNL     1      26.412  38.577  33.434  1.00  0.00     0.147 A 
ATOM      5  C   UNL     1      25.590  39.489  34.138  1.00  0.00     0.066 A 
ATOM      6  C   UNL     1      24.967  40.520  33.431  1.00  0.00     0.200 A 
ATOM      7  O   UNL     1      24.348  41.428  34.056  1.00  0.00    -0.288 OA
ATOM      8  C   UNL     1      25.472  39.359  35.538  1.00  0.00     0.020 A 
ATOM      9  C   UNL     1      26.058  38.283  36.196  1.00  0.00     0.047 A 
ATOM     10  C   UNL     1      26.876  37.380  35.505  1.00  0.00     0.125 A 
ATOM     11  C   UNL     1      27.173  37.592  34.132  1.00  0.00     0.069 A 
ENDROOT
BRANCH   1  12
ATOM     12  C   UNL     1      24.590  41.721  31.249  1.00  0.00    -0.011 A 
ATOM     13  C   UNL     1      23.286  41.750  30.727  1.00  0.00     0.013 A 
ATOM     14  C   UNL     1      22.915  42.736  29.791  1.00  0.00     0.047 A 
ATOM     15  C   UNL     1      23.844  43.707  29.395  1.00  0.00     0.115 A 
ATOM     16  C   UNL     1      25.493  42.747  30.889  1.00  0.00     0.013 A 
ATOM     17  C   UNL     1      25.124  43.722  29.962  1.00  0.00     0.047 A 
BRANCH  15  18
ATOM     18  O   UNL     1      23.476  44.641  28.430  1.00  0.00    -0.508 OA
ATOM     19  H   UNL     1      23.042  44.383  27.555  1.00  0.00     0.293 HD
ENDBRANCH  15  18
ENDBRANCH   1  12
BRANCH  11  20
ATOM     20  C   UNL     1      28.414  36.938  33.507  1.00  0.00     0.188 C 
ATOM     21  C   UNL     1      29.691  37.475  34.240  1.00  0.00     0.179 C 
ATOM     22  O   UNL     1      28.459  37.156  32.106  1.00  0.00    -0.362 OA
ATOM     23  C   UNL     1      31.023  37.086  33.546  1.00  0.00     0.177 C 
ATOM     24  C   UNL     1      29.666  36.751  31.444  1.00  0.00     0.176 C 
ATOM     25  C   UNL     1      30.771  36.149  32.358  1.00  0.00     0.177 C 
BRANCH  21  26
ATOM     26  O   UNL     1      29.628  38.873  34.446  1.00  0.00    -0.387 OA
ATOM     27  H   UNL     1      30.205  39.302  33.755  1.00  0.00     0.211 HD
ENDBRANCH  21  26
BRANCH  23  28
ATOM     28  O   UNL     1      31.898  36.471  34.471  1.00  0.00    -0.387 OA
ATOM     29  H   UNL     1      32.808  36.528  34.083  1.00  0.00     0.211 HD
ENDBRANCH  23  28
BRANCH  24  30
ATOM     30  C   UNL     1      30.198  37.972  30.646  1.00  0.00     0.191 C 
BRANCH  30  31
ATOM     31  O   UNL     1      29.190  38.929  30.490  1.00  0.00    -0.394 OA
ATOM     32  H   UNL     1      29.509  39.755  30.932  1.00  0.00     0.210 HD
ENDBRANCH  30  31
ENDBRANCH  24  30
BRANCH  25  33
ATOM     33  O   UNL     1      30.418  34.875  32.828  1.00  0.00    -0.388 OA
ATOM     34  H   UNL     1      30.536  34.882  33.815  1.00  0.00     0.211 HD
ENDBRANCH  25  33
ENDBRANCH  11  20
BRANCH  10  35
ATOM     35  O   UNL     1      27.349  36.269  36.199  1.00  0.00    -0.507 OA
ATOM     36  H   UNL     1      28.324  36.134  36.412  1.00  0.00     0.293 HD
ENDBRANCH  10  35
TORSDOF 9
ENDMDL
MODEL 4
REMARK VINA RESULT:    -5.908      3.690      6.623
REMARK INTER + INTRA:          -8.969
REMARK INTER:                  -7.528
REMARK INTRA:                  -1.441
REMARK UNBOUND:                -0.988
REMARK SMILES O=c1c(-c2ccc(O)cc2)coc2c([C@H]3O[C@@H](CO)[C@H](O)[C@H](O)[C@H]3O)c(O)ccc12
REMARK SMILES IDX 3 1 11 2 12 3 13 4 30 5 2 6 1 7 29 8 28 9 26 10 14 11 4 12
REMARK SMILES IDX 5 13 6 14 7 15 10 16 9 17 8 18 15 20 24 21 16 22 22 23 17 24
REMARK SMILES IDX 20 25 25 26 23 28 18 30 19 31 21 33 27 35
REMARK H PARENT 8 19 25 27 23 29 19 32 21 34 27 36
REMARK Flexibility Score: inf
ROOT
ATOM      1  C   UNL     1      30.837  37.932  29.696  1.00  0.00     0.065 A 
ATOM      2  C   UNL     1      30.909  37.248  30.920  1.00  0.00     0.208 A 
ATOM      3  O   UNL     1      29.904  37.326  31.799  1.00  0.00    -0.463 OA
ATOM      4  C   UNL     1      28.763  37.965  31.548  1.00  0.00     0.147 A 
ATOM      5  C   UNL     1      28.583  38.587  30.289  1.00  0.00     0.066 A 
ATOM      6  C   UNL     1      29.653  38.620  29.392  1.00  0.00     0.200 A 
ATOM      7  O   UNL     1      29.562  39.293  28.327  1.00  0.00    -0.288 OA
ATOM      8  C   UNL     1      27.345  39.202  30.005  1.00  0.00     0.020 A 
ATOM      9  C   UNL     1      26.285  39.096  30.899  1.00  0.00     0.047 A 
ATOM     10  C   UNL     1      26.459  38.484  32.148  1.00  0.00     0.125 A 
ATOM     11  C   UNL     1      27.744  38.026  32.545  1.00  0.00     0.069 A 
ENDROOT
BRANCH   1  12
ATOM     12  C   UNL     1      32.062  38.084  28.886  1.00  0.00    -0.011 A 
ATOM     13  C   UNL     1      32.989  39.099  29.173  1.00  0.00     0.013 A 
ATOM     14  C   UNL     1      34.029  39.392  28.269  1.00  0.00     0.047 A 
ATOM     15  C   UNL     1      34.154  38.652  27.086  1.00  0.00     0.115 A 
ATOM     16  C   UNL     1      32.242  37.304  27.721  1.00  0.00     0.013 A 
ATOM     17  C   UNL     1      33.273  37.595  26.826  1.00  0.00     0.047 A 
BRANCH  15  18
ATOM     18  O   UNL     1      35.155  38.989  26.180  1.00  0.00    -0.508 OA
ATOM     19  H   UNL     1      35.148  38.683  25.216  1.00  0.00     0.293 HD
ENDBRANCH  15  18
ENDBRANCH   1  12
BRANCH  11  20
ATOM     20  C   UNL     1      28.059  37.824  34.035  1.00  0.00     0.188 C 
ATOM     21  C   UNL     1      27.841  36.315  34.395  1.00  0.00     0.179 C 
ATOM     22  O   UNL     1      27.286  38.694  34.845  1.00  0.00    -0.362 OA
ATOM     23  C   UNL     1      27.883  36.022  35.918  1.00  0.00     0.177 C 
ATOM     24  C   UNL     1      27.359  38.467  36.260  1.00  0.00     0.176 C 
ATOM     25  C   UNL     1      28.258  37.280  36.710  1.00  0.00     0.177 C 
BRANCH  21  26
ATOM     26  O   UNL     1      26.652  35.805  33.824  1.00  0.00    -0.387 OA
ATOM     27  H   UNL     1      26.035  36.576  33.684  1.00  0.00     0.211 HD
ENDBRANCH  21  26
BRANCH  23  28
ATOM     28  O   UNL     1      28.803  34.984  36.193  1.00  0.00    -0.387 OA
ATOM     29  H   UNL     1      29.464  35.352  36.834  1.00  0.00     0.211 HD
ENDBRANCH  23  28
BRANCH  24  30
ATOM     30  C   UNL     1      25.907  38.306  36.787  1.00  0.00     0.191 C 
BRANCH  30  31
ATOM     31  O   UNL     1      24.988  38.496  35.749  1.00  0.00    -0.394 OA
ATOM     32  H   UNL     1      24.982  39.464  35.546  1.00  0.00     0.210 HD
ENDBRANCH  30  31
ENDBRANCH  24  30
BRANCH  25  33
ATOM     33  O   UNL     1      29.620  37.564  36.530  1.00  0.00    -0.388 OA
ATOM     34  H   UNL     1      29.822  37.438  35.564  1.00  0.00     0.211 HD
ENDBRANCH  25  33
ENDBRANCH  11  20
BRANCH  10  35
ATOM     35  O   UNL     1      25.335  38.319  32.952  1.00  0.00    -0.507 OA
ATOM     36  H   UNL     1      24.408  38.206  32.576  1.00  0.00     0.293 HD
ENDBRANCH  10  35
TORSDOF 9
ENDMDL
MODEL 5
REMARK VINA RESULT:    -5.901      2.550      4.104
REMARK INTER + INTRA:          -8.959
REMARK INTER:                  -7.427
REMARK INTRA:                  -1.533
REMARK UNBOUND:                -0.988
REMARK SMILES O=c1c(-c2ccc(O)cc2)coc2c([C@H]3O[C@@H](CO)[C@H](O)[C@H](O)[C@H]3O)c(O)ccc12
REMARK SMILES IDX 3 1 11 2 12 3 13 4 30 5 2 6 1 7 29 8 28 9 26 10 14 11 4 12
REMARK SMILES IDX 5 13 6 14 7 15 10 16 9 17 8 18 15 20 24 21 16 22 22 23 17 24
REMARK SMILES IDX 20 25 25 26 23 28 18 30 19 31 21 33 27 35
REMARK H PARENT 8 19 25 27 23 29 19 32 21 34 27 36
REMARK Flexibility Score: inf
ROOT
ATOM      1  C   UNL     1      23.570  40.352  33.115  1.00  0.00     0.065 A 
ATOM      2  C   UNL     1      24.194  39.904  34.290  1.00  0.00     0.208 A 
ATOM      3  O   UNL     1      25.318  39.182  34.227  1.00  0.00    -0.463 OA
ATOM      4  C   UNL     1      25.953  38.918  33.087  1.00  0.00     0.147 A 
ATOM      5  C   UNL     1      25.433  39.432  31.873  1.00  0.00     0.066 A 
ATOM      6  C   UNL     1      24.204  40.095  31.892  1.00  0.00     0.200 A 
ATOM      7  O   UNL     1      23.654  40.432  30.805  1.00  0.00    -0.288 OA
ATOM      8  C   UNL     1      26.149  39.207  30.678  1.00  0.00     0.020 A 
ATOM      9  C   UNL     1      27.399  38.597  30.710  1.00  0.00     0.047 A 
ATOM     10  C   UNL     1      27.915  38.084  31.907  1.00  0.00     0.125 A 
ATOM     11  C   UNL     1      27.135  38.120  33.094  1.00  0.00     0.069 A 
ENDROOT
BRANCH   1  12
ATOM     12  C   UNL     1      22.190  40.873  33.190  1.00  0.00    -0.011 A 
ATOM     13  C   UNL     1      21.953  42.247  33.359  1.00  0.00     0.013 A 
ATOM     14  C   UNL     1      20.659  42.715  33.663  1.00  0.00     0.047 A 
ATOM     15  C   UNL     1      19.598  41.808  33.776  1.00  0.00     0.115 A 
ATOM     16  C   UNL     1      21.097  39.980  33.241  1.00  0.00     0.013 A 
ATOM     17  C   UNL     1      19.816  40.444  33.543  1.00  0.00     0.047 A 
BRANCH  15  18
ATOM     18  O   UNL     1      18.338  42.281  34.129  1.00  0.00    -0.508 OA
ATOM     19  H   UNL     1      17.569  41.669  34.367  1.00  0.00     0.293 HD
ENDBRANCH  15  18
ENDBRANCH   1  12
BRANCH  11  20
ATOM     20  C   UNL     1      27.451  37.156  34.248  1.00  0.00     0.188 C 
ATOM     21  C   UNL     1      28.280  37.925  35.334  1.00  0.00     0.179 C 
ATOM     22  O   UNL     1      28.114  35.994  33.780  1.00  0.00    -0.362 OA
ATOM     23  C   UNL     1      28.876  37.007  36.433  1.00  0.00     0.177 C 
ATOM     24  C   UNL     1      28.623  35.109  34.788  1.00  0.00     0.176 C 
ATOM     25  C   UNL     1      28.399  35.560  36.260  1.00  0.00     0.177 C 
BRANCH  21  26
ATOM     26  O   UNL     1      29.290  38.725  34.753  1.00  0.00    -0.387 OA
ATOM     27  H   UNL     1      28.941  39.059  33.881  1.00  0.00     0.211 HD
ENDBRANCH  21  26
BRANCH  23  28
ATOM     28  O   UNL     1      28.521  37.483  37.716  1.00  0.00    -0.387 OA
ATOM     29  H   UNL     1      28.113  38.377  37.586  1.00  0.00     0.211 HD
ENDBRANCH  23  28
BRANCH  24  30
ATOM     30  C   UNL     1      30.129  34.876  34.493  1.00  0.00     0.191 C 
BRANCH  30  31
ATOM     31  O   UNL     1      30.644  35.926  33.725  1.00  0.00    -0.394 OA
ATOM     32  H   UNL     1      30.271  35.823  32.814  1.00  0.00     0.210 HD
ENDBRANCH  30  31
ENDBRANCH  24  30
BRANCH  25  33
ATOM     33  O   UNL     1      27.050  35.458  36.633  1.00  0.00    -0.388 OA
ATOM     34  H   UNL     1      26.908  34.535  36.975  1.00  0.00     0.211 HD
ENDBRANCH  25  33
ENDBRANCH  11  20
BRANCH  10  35
ATOM     35  O   UNL     1      29.212  37.578  31.891  1.00  0.00    -0.507 OA
ATOM     36  H   UNL     1      30.022  38.151  32.057  1.00  0.00     0.293 HD
ENDBRANCH  10  35
TORSDOF 9
ENDMDL
MODEL 6
REMARK VINA RESULT:    -5.706      3.440      5.481
REMARK INTER + INTRA:          -8.696
REMARK INTER:                  -7.913
REMARK INTRA:                  -0.783
REMARK UNBOUND:                -0.988
REMARK SMILES O=c1c(-c2ccc(O)cc2)coc2c([C@H]3O[C@@H](CO)[C@H](O)[C@H](O)[C@H]3O)c(O)ccc12
REMARK SMILES IDX 3 1 11 2 12 3 13 4 30 5 2 6 1 7 29 8 28 9 26 10 14 11 4 12
REMARK SMILES IDX 5 13 6 14 7 15 10 16 9 17 8 18 15 20 24 21 16 22 22 23 17 24
REMARK SMILES IDX 20 25 25 26 23 28 18 30 19 31 21 33 27 35
REMARK H PARENT 8 19 25 27 23 29 19 32 21 34 27 36
REMARK Flexibility Score: inf
ROOT
ATOM      1  C   UNL     1      29.368  38.497  29.998  1.00  0.00     0.065 A 
ATOM      2  C   UNL     1      29.762  37.452  30.848  1.00  0.00     0.208 A 
ATOM      3  O   UNL     1      28.953  37.033  31.827  1.00  0.00    -0.463 OA
ATOM      4  C   UNL     1      27.720  37.503  32.006  1.00  0.00     0.147 A 
ATOM      5  C   UNL     1      27.220  38.484  31.115  1.00  0.00     0.066 A 
ATOM      6  C   UNL     1      28.077  39.021  30.152  1.00  0.00     0.200 A 
ATOM      7  O   UNL     1      27.696  39.997  29.445  1.00  0.00    -0.288 OA
ATOM      8  C   UNL     1      25.888  38.925  31.268  1.00  0.00     0.020 A 
ATOM      9  C   UNL     1      25.049  38.322  32.199  1.00  0.00     0.047 A 
ATOM     10  C   UNL     1      25.540  37.354  33.084  1.00  0.00     0.125 A 
ATOM     11  C   UNL     1      26.923  37.026  33.088  1.00  0.00     0.069 A 
ENDROOT
BRANCH   1  12
ATOM     12  C   UNL     1      30.379  39.141  29.136  1.00  0.00    -0.011 A 
ATOM     13  C   UNL     1      30.327  38.995  27.740  1.00  0.00     0.013 A 
ATOM     14  C   UNL     1      31.410  39.407  26.939  1.00  0.00     0.047 A 
ATOM     15  C   UNL     1      32.538  39.986  27.536  1.00  0.00     0.115 A 
ATOM     16  C   UNL     1      31.494  39.787  29.715  1.00  0.00     0.013 A 
ATOM     17  C   UNL     1      32.567  40.194  28.920  1.00  0.00     0.047 A 
BRANCH  15  18
ATOM     18  O   UNL     1      33.621  40.339  26.736  1.00  0.00    -0.508 OA
ATOM     19  H   UNL     1      34.574  40.341  27.073  1.00  0.00     0.293 HD
ENDBRANCH  15  18
ENDBRANCH   1  12
BRANCH  11  20
ATOM     20  C   UNL     1      27.552  36.374  34.328  1.00  0.00     0.188 C 
ATOM     21  C   UNL     1      28.130  37.501  35.251  1.00  0.00     0.179 C 
ATOM     22  O   UNL     1      28.531  35.415  33.964  1.00  0.00    -0.362 OA
ATOM     23  C   UNL     1      29.010  36.969  36.413  1.00  0.00     0.177 C 
ATOM     24  C   UNL     1      29.316  34.876  35.037  1.00  0.00     0.176 C 
ATOM     25  C   UNL     1      29.001  35.436  36.453  1.00  0.00     0.177 C 
BRANCH  21  26
ATOM     26  O   UNL     1      28.827  38.481  34.509  1.00  0.00    -0.387 OA
ATOM     27  H   UNL     1      29.431  38.961  35.141  1.00  0.00     0.211 HD
ENDBRANCH  21  26
BRANCH  23  28
ATOM     28  O   UNL     1      28.558  37.488  37.649  1.00  0.00    -0.387 OA
ATOM     29  H   UNL     1      28.454  38.467  37.526  1.00  0.00     0.211 HD
ENDBRANCH  23  28
BRANCH  24  30
ATOM     30  C   UNL     1      30.812  35.073  34.672  1.00  0.00     0.191 C 
BRANCH  30  31
ATOM     31  O   UNL     1      30.964  36.165  33.810  1.00  0.00    -0.394 OA
ATOM     32  H   UNL     1      31.537  36.822  34.279  1.00  0.00     0.210 HD
ENDBRANCH  30  31
ENDBRANCH  24  30
BRANCH  25  33
ATOM     33  O   UNL     1      27.761  34.982  36.927  1.00  0.00    -0.388 OA
ATOM     34  H   UNL     1      27.765  35.091  37.916  1.00  0.00     0.211 HD
ENDBRANCH  25  33
ENDBRANCH  11  20
BRANCH  10  35
ATOM     35  O   UNL     1      24.628  36.717  33.921  1.00  0.00    -0.507 OA
ATOM     36  H   UNL     1      24.816  36.536  34.894  1.00  0.00     0.293 HD
ENDBRANCH  10  35
TORSDOF 9
ENDMDL
MODEL 7
REMARK VINA RESULT:    -5.603      5.248      7.314
REMARK INTER + INTRA:          -8.557
REMARK INTER:                  -7.154
REMARK INTRA:                  -1.403
REMARK UNBOUND:                -0.988
REMARK SMILES O=c1c(-c2ccc(O)cc2)coc2c([C@H]3O[C@@H](CO)[C@H](O)[C@H](O)[C@H]3O)c(O)ccc12
REMARK SMILES IDX 3 1 11 2 12 3 13 4 30 5 2 6 1 7 29 8 28 9 26 10 14 11 4 12
REMARK SMILES IDX 5 13 6 14 7 15 10 16 9 17 8 18 15 20 24 21 16 22 22 23 17 24
REMARK SMILES IDX 20 25 25 26 23 28 18 30 19 31 21 33 27 35
REMARK H PARENT 8 19 25 27 23 29 19 32 21 34 27 36
REMARK Flexibility Score: inf
ROOT
ATOM      1  C   UNL     1      33.056  42.166  31.445  1.00  0.00     0.065 A 
ATOM      2  C   UNL     1      32.703  41.624  32.691  1.00  0.00     0.208 A 
ATOM      3  O   UNL     1      31.995  40.492  32.762  1.00  0.00    -0.463 OA
ATOM      4  C   UNL     1      31.661  39.773  31.692  1.00  0.00     0.147 A 
ATOM      5  C   UNL     1      32.078  40.207  30.411  1.00  0.00     0.066 A 
ATOM      6  C   UNL     1      32.722  41.441  30.292  1.00  0.00     0.200 A 
ATOM      7  O   UNL     1      32.973  41.913  29.147  1.00  0.00    -0.288 OA
ATOM      8  C   UNL     1      31.780  39.403  29.290  1.00  0.00     0.020 A 
ATOM      9  C   UNL     1      31.192  38.153  29.456  1.00  0.00     0.047 A 
ATOM     10  C   UNL     1      30.774  37.721  30.721  1.00  0.00     0.125 A 
ATOM     11  C   UNL     1      30.883  38.587  31.843  1.00  0.00     0.069 A 
ENDROOT
BRANCH   1  12
ATOM     12  C   UNL     1      33.561  43.552  31.382  1.00  0.00    -0.011 A 
ATOM     13  C   UNL     1      34.937  43.817  31.467  1.00  0.00     0.013 A 
ATOM     14  C   UNL     1      35.400  45.136  31.642  1.00  0.00     0.047 A 
ATOM     15  C   UNL     1      34.484  46.193  31.710  1.00  0.00     0.115 A 
ATOM     16  C   UNL     1      32.655  44.636  31.385  1.00  0.00     0.013 A 
ATOM     17  C   UNL     1      33.114  45.942  31.559  1.00  0.00     0.047 A 
BRANCH  15  18
ATOM     18  O   UNL     1      34.955  47.483  31.935  1.00  0.00    -0.508 OA
ATOM     19  H   UNL     1      35.939  47.704  32.004  1.00  0.00     0.293 HD
ENDBRANCH  15  18
ENDBRANCH   1  12
BRANCH  11  20
ATOM     20  C   UNL     1      30.008  38.347  33.083  1.00  0.00     0.188 C 
ATOM     21  C   UNL     1      30.773  37.388  34.060  1.00  0.00     0.179 C 
ATOM     22  O   UNL     1      28.730  37.849  32.722  1.00  0.00    -0.362 OA
ATOM     23  C   UNL     1      29.903  36.867  35.234  1.00  0.00     0.177 C 
ATOM     24  C   UNL     1      27.895  37.413  33.804  1.00  0.00     0.176 C 
ATOM     25  C   UNL     1      28.517  37.524  35.226  1.00  0.00     0.177 C 
BRANCH  21  26
ATOM     26  O   UNL     1      31.376  36.311  33.373  1.00  0.00    -0.387 OA
ATOM     27  H   UNL     1      31.621  35.623  34.052  1.00  0.00     0.211 HD
ENDBRANCH  21  26
BRANCH  23  28
ATOM     28  O   UNL     1      30.547  37.111  36.469  1.00  0.00    -0.387 OA
ATOM     29  H   UNL     1      31.494  37.315  36.261  1.00  0.00     0.211 HD
ENDBRANCH  23  28
BRANCH  24  30
ATOM     30  C   UNL     1      27.447  35.959  33.497  1.00  0.00     0.191 C 
BRANCH  30  31
ATOM     31  O   UNL     1      28.398  35.313  32.700  1.00  0.00    -0.394 OA
ATOM     32  H   UNL     1      27.906  34.896  31.949  1.00  0.00     0.210 HD
ENDBRANCH  30  31
ENDBRANCH  24  30
BRANCH  25  33
ATOM     33  O   UNL     1      28.624  38.859  35.643  1.00  0.00    -0.388 OA
ATOM     34  H   UNL     1      29.420  39.246  35.190  1.00  0.00     0.211 HD
ENDBRANCH  25  33
ENDBRANCH  11  20
BRANCH  10  35
ATOM     35  O   UNL     1      30.288  36.422  30.835  1.00  0.00    -0.507 OA
ATOM     36  H   UNL     1      29.375  36.151  30.506  1.00  0.00     0.293 HD
ENDBRANCH  10  35
TORSDOF 9
ENDMDL
MODEL 8
REMARK VINA RESULT:    -5.519      3.776      6.887
REMARK INTER + INTRA:          -8.443
REMARK INTER:                  -7.084
REMARK INTRA:                  -1.360
REMARK UNBOUND:                -0.988
REMARK SMILES O=c1c(-c2ccc(O)cc2)coc2c([C@H]3O[C@@H](CO)[C@H](O)[C@H](O)[C@H]3O)c(O)ccc12
REMARK SMILES IDX 3 1 11 2 12 3 13 4 30 5 2 6 1 7 29 8 28 9 26 10 14 11 4 12
REMARK SMILES IDX 5 13 6 14 7 15 10 16 9 17 8 18 15 20 24 21 16 22 22 23 17 24
REMARK SMILES IDX 20 25 25 26 23 28 18 30 19 31 21 33 27 35
REMARK H PARENT 8 19 25 27 23 29 19 32 21 34 27 36
REMARK Flexibility Score: inf
ROOT
ATOM      1  C   UNL     1      30.123  38.653  29.684  1.00  0.00     0.065 A 
ATOM      2  C   UNL     1      29.100  39.574  29.959  1.00  0.00     0.208 A 
ATOM      3  O   UNL     1      28.153  39.287  30.859  1.00  0.00    -0.463 OA
ATOM      4  C   UNL     1      28.162  38.180  31.599  1.00  0.00     0.147 A 
ATOM      5  C   UNL     1      29.225  37.257  31.447  1.00  0.00     0.066 A 
ATOM      6  C   UNL     1      30.168  37.472  30.440  1.00  0.00     0.200 A 
ATOM      7  O   UNL     1      31.038  36.590  30.193  1.00  0.00    -0.288 OA
ATOM      8  C   UNL     1      29.264  36.121  32.284  1.00  0.00     0.020 A 
ATOM      9  C   UNL     1      28.341  35.974  33.315  1.00  0.00     0.047 A 
ATOM     10  C   UNL     1      27.286  36.883  33.466  1.00  0.00     0.125 A 
ATOM     11  C   UNL     1      27.104  37.930  32.523  1.00  0.00     0.069 A 
ENDROOT
BRANCH   1  12
ATOM     12  C   UNL     1      30.966  38.852  28.489  1.00  0.00    -0.011 A 
ATOM     13  C   UNL     1      32.352  39.038  28.614  1.00  0.00     0.013 A 
ATOM     14  C   UNL     1      33.118  39.459  27.508  1.00  0.00     0.047 A 
ATOM     15  C   UNL     1      32.497  39.671  26.271  1.00  0.00     0.115 A 
ATOM     16  C   UNL     1      30.367  39.005  27.218  1.00  0.00     0.013 A 
ATOM     17  C   UNL     1      31.127  39.422  26.124  1.00  0.00     0.047 A 
BRANCH  15  18
ATOM     18  O   UNL     1      33.259  40.136  25.202  1.00  0.00    -0.508 OA
ATOM     19  H   UNL     1      32.877  40.716  24.468  1.00  0.00     0.293 HD
ENDBRANCH  15  18
ENDBRANCH   1  12
BRANCH  11  20
ATOM     20  C   UNL     1      25.730  38.601  32.378  1.00  0.00     0.188 C 
ATOM     21  C   UNL     1      25.698  39.881  33.282  1.00  0.00     0.179 C 
ATOM     22  O   UNL     1      24.681  37.695  32.681  1.00  0.00    -0.362 OA
ATOM     23  C   UNL     1      24.288  40.514  33.422  1.00  0.00     0.177 C 
ATOM     24  C   UNL     1      23.365  38.259  32.760  1.00  0.00     0.176 C 
ATOM     25  C   UNL     1      23.271  39.794  32.527  1.00  0.00     0.177 C 
BRANCH  21  26
ATOM     26  O   UNL     1      26.262  39.639  34.555  1.00  0.00    -0.387 OA
ATOM     27  H   UNL     1      26.930  38.906  34.451  1.00  0.00     0.211 HD
ENDBRANCH  21  26
BRANCH  23  28
ATOM     28  O   UNL     1      24.332  41.889  33.096  1.00  0.00    -0.387 OA
ATOM     29  H   UNL     1      23.458  42.113  32.685  1.00  0.00     0.211 HD
ENDBRANCH  23  28
BRANCH  24  30
ATOM     30  C   UNL     1      22.763  37.860  34.135  1.00  0.00     0.191 C 
BRANCH  30  31
ATOM     31  O   UNL     1      23.782  37.546  35.040  1.00  0.00    -0.394 OA
ATOM     32  H   UNL     1      23.642  36.605  35.313  1.00  0.00     0.210 HD
ENDBRANCH  30  31
ENDBRANCH  24  30
BRANCH  25  33
ATOM     33  O   UNL     1      23.501  40.130  31.185  1.00  0.00    -0.388 OA
ATOM     34  H   UNL     1      22.631  40.420  30.800  1.00  0.00     0.211 HD
ENDBRANCH  25  33
ENDBRANCH  11  20
BRANCH  10  35
ATOM     35  O   UNL     1      26.459  36.738  34.577  1.00  0.00    -0.507 OA
ATOM     36  H   UNL     1      26.802  36.791  35.522  1.00  0.00     0.293 HD
ENDBRANCH  10  35
TORSDOF 9
ENDMDL
MODEL 9
REMARK VINA RESULT:    -5.398      4.127      5.534
REMARK INTER + INTRA:          -8.280
REMARK INTER:                  -6.752
REMARK INTRA:                  -1.528
REMARK UNBOUND:                -0.988
REMARK SMILES O=c1c(-c2ccc(O)cc2)coc2c([C@H]3O[C@@H](CO)[C@H](O)[C@H](O)[C@H]3O)c(O)ccc12
REMARK SMILES IDX 3 1 11 2 12 3 13 4 30 5 2 6 1 7 29 8 28 9 26 10 14 11 4 12
REMARK SMILES IDX 5 13 6 14 7 15 10 16 9 17 8 18 15 20 24 21 16 22 22 23 17 24
REMARK SMILES IDX 20 25 25 26 23 28 18 30 19 31 21 33 27 35
REMARK H PARENT 8 19 25 27 23 29 19 32 21 34 27 36
REMARK Flexibility Score: inf
ROOT
ATOM      1  C   UNL     1      25.755  36.061  32.889  1.00  0.00     0.065 A 
ATOM      2  C   UNL     1      26.459  36.592  31.796  1.00  0.00     0.208 A 
ATOM      3  O   UNL     1      27.748  36.929  31.919  1.00  0.00    -0.463 OA
ATOM      4  C   UNL     1      28.456  36.712  33.026  1.00  0.00     0.147 A 
ATOM      5  C   UNL     1      27.834  36.081  34.130  1.00  0.00     0.066 A 
ATOM      6  C   UNL     1      26.463  35.817  34.074  1.00  0.00     0.200 A 
ATOM      7  O   UNL     1      25.862  35.390  35.100  1.00  0.00    -0.288 OA
ATOM      8  C   UNL     1      28.610  35.791  35.273  1.00  0.00     0.020 A 
ATOM      9  C   UNL     1      29.983  36.013  35.267  1.00  0.00     0.047 A 
ATOM     10  C   UNL     1      30.602  36.640  34.178  1.00  0.00     0.125 A 
ATOM     11  C   UNL     1      29.821  37.121  33.092  1.00  0.00     0.069 A 
ENDROOT
BRANCH   1  12
ATOM     12  C   UNL     1      24.282  35.984  32.825  1.00  0.00    -0.011 A 
ATOM     13  C   UNL     1      23.648  34.875  32.242  1.00  0.00     0.013 A 
ATOM     14  C   UNL     1      22.266  34.905  31.969  1.00  0.00     0.047 A 
ATOM     15  C   UNL     1      21.515  36.040  32.302  1.00  0.00     0.115 A 
ATOM     16  C   UNL     1      23.498  37.093  33.214  1.00  0.00     0.013 A 
ATOM     17  C   UNL     1      22.129  37.122  32.944  1.00  0.00     0.047 A 
BRANCH  15  18
ATOM     18  O   UNL     1      20.161  36.073  31.978  1.00  0.00    -0.508 OA
ATOM     19  H   UNL     1      19.431  36.084  32.677  1.00  0.00     0.293 HD
ENDBRANCH  15  18
ENDBRANCH   1  12
BRANCH  11  20
ATOM     20  C   UNL     1      30.383  38.212  32.168  1.00  0.00     0.188 C 
ATOM     21  C   UNL     1      30.985  37.529  30.892  1.00  0.00     0.179 C 
ATOM     22  O   UNL     1      31.326  39.024  32.847  1.00  0.00    -0.362 OA
ATOM     23  C   UNL     1      31.805  38.493  29.994  1.00  0.00     0.177 C 
ATOM     24  C   UNL     1      32.054  39.957  32.035  1.00  0.00     0.176 C 
ATOM     25  C   UNL     1      31.724  39.933  30.515  1.00  0.00     0.177 C 
BRANCH  21  26
ATOM     26  O   UNL     1      31.748  36.385  31.220  1.00  0.00    -0.387 OA
ATOM     27  H   UNL     1      31.395  36.028  32.082  1.00  0.00     0.211 HD
ENDBRANCH  21  26
BRANCH  23  28
ATOM     28  O   UNL     1      31.342  38.434  28.659  1.00  0.00    -0.387 OA
ATOM     29  H   UNL     1      31.004  39.338  28.435  1.00  0.00     0.211 HD
ENDBRANCH  23  28
BRANCH  24  30
ATOM     30  C   UNL     1      33.567  39.721  32.288  1.00  0.00     0.191 C 
BRANCH  30  31
ATOM     31  O   UNL     1      33.783  38.435  32.794  1.00  0.00    -0.394 OA
ATOM     32  H   UNL     1      34.711  38.187  32.558  1.00  0.00     0.210 HD
ENDBRANCH  30  31
ENDBRANCH  24  30
BRANCH  25  33
ATOM     33  O   UNL     1      30.451  40.460  30.252  1.00  0.00    -0.388 OA
ATOM     34  H   UNL     1      29.810  39.700  30.259  1.00  0.00     0.211 HD
ENDBRANCH  25  33
ENDBRANCH  11  20
BRANCH  10  35
ATOM     35  O   UNL     1      31.990  36.741  34.189  1.00  0.00    -0.507 OA
ATOM     36  H   UNL     1      32.554  36.399  34.950  1.00  0.00     0.293 HD
ENDBRANCH  10  35
TORSDOF 9
ENDMDL
