MODEL 1
REMARK VINA RESULT:    -3.211      0.000      0.000
REMARK INTER + INTRA:          -4.705
REMARK INTER:                  -4.525
REMARK INTRA:                  -0.179
REMARK UNBOUND:                -0.179
REMARK SMILES CCCCCCCCC(=O)[O-]
REMARK SMILES IDX 6 1 7 2 8 3 9 4 10 5 11 6 5 7 4 8 3 9 2 10 1 11
REMARK H PARENT
REMARK Flexibility Score: inf
ROOT
ATOM      1  C   UNL     1       2.954 -51.029   9.894  1.00  0.00     0.000 C 
ENDROOT
BRANCH   1   2
ATOM      2  C   UNL     1       2.068 -49.921  10.493  1.00  0.00     0.006 C 
BRANCH   2   3
ATOM      3  C   UNL     1       0.656 -50.384  10.886  1.00  0.00     0.053 C 
BRANCH   3   4
ATOM      4  C   UNL     1      -0.276 -50.403   9.714  1.00  0.00     0.041 C 
ATOM      5  O   UNL     1      -0.448 -51.463   9.059  1.00  0.00    -0.550 OA
ATOM      6  O   UNL     1      -0.929 -49.240   9.326  1.00  0.00    -0.550 OA
ENDBRANCH   3   4
ENDBRANCH   2   3
ENDBRANCH   1   2
BRANCH   1   7
ATOM      7  C   UNL     1       3.729 -51.815  10.962  1.00  0.00     0.000 C 
BRANCH   7   8
ATOM      8  C   UNL     1       4.540 -52.951  10.328  1.00  0.00    -0.000 C 
BRANCH   8   9
ATOM      9  C   UNL     1       5.931 -53.059  10.970  1.00  0.00    -0.000 C 
BRANCH   9  10
ATOM     10  C   UNL     1       7.043 -53.293   9.936  1.00  0.00    -0.003 C 
ATOM     11  C   UNL     1       8.324 -53.846  10.559  1.00  0.00     0.004 C 
ENDBRANCH   9  10
ENDBRANCH   8   9
ENDBRANCH   7   8
ENDBRANCH   1   7
TORSDOF 7
ENDMDL
MODEL 2
REMARK VINA RESULT:    -2.813      4.057      6.621
REMARK INTER + INTRA:          -4.144
REMARK INTER:                  -3.796
REMARK INTRA:                  -0.347
REMARK UNBOUND:                -0.179
REMARK SMILES CCCCCCCCC(=O)[O-]
REMARK SMILES IDX 6 1 7 2 8 3 9 4 10 5 11 6 5 7 4 8 3 9 2 10 1 11
REMARK H PARENT
REMARK Flexibility Score: inf
ROOT
ATOM      1  C   UNL     1       4.438 -52.149   9.769  1.00  0.00     0.000 C 
ENDROOT
BRANCH   1   2
ATOM      2  C   UNL     1       5.403 -53.346   9.825  1.00  0.00     0.006 C 
BRANCH   2   3
ATOM      3  C   UNL     1       6.287 -53.388  11.082  1.00  0.00     0.053 C 
BRANCH   3   4
ATOM      4  C   UNL     1       7.735 -53.184  10.758  1.00  0.00     0.041 C 
ATOM      5  O   UNL     1       8.456 -54.164  10.435  1.00  0.00    -0.550 OA
ATOM      6  O   UNL     1       8.296 -51.916  10.845  1.00  0.00    -0.550 OA
ENDBRANCH   3   4
ENDBRANCH   2   3
ENDBRANCH   1   2
BRANCH   1   7
ATOM      7  C   UNL     1       3.748 -51.875  11.114  1.00  0.00     0.000 C 
BRANCH   7   8
ATOM      8  C   UNL     1       3.012 -50.530  11.091  1.00  0.00    -0.000 C 
BRANCH   8   9
ATOM      9  C   UNL     1       2.374 -50.275   9.718  1.00  0.00    -0.000 C 
BRANCH   9  10
ATOM     10  C   UNL     1       0.840 -50.335   9.759  1.00  0.00    -0.003 C 
ATOM     11  C   UNL     1       0.268 -49.928  11.116  1.00  0.00     0.004 C 
ENDBRANCH   9  10
ENDBRANCH   8   9
ENDBRANCH   7   8
ENDBRANCH   1   7
TORSDOF 7
ENDMDL
MODEL 3
REMARK VINA RESULT:    -1.656      3.029      6.125
REMARK INTER + INTRA:          -2.513
REMARK INTER:                  -2.159
REMARK INTRA:                  -0.354
REMARK UNBOUND:                -0.179
REMARK SMILES CCCCCCCCC(=O)[O-]
REMARK SMILES IDX 6 1 7 2 8 3 9 4 10 5 11 6 5 7 4 8 3 9 2 10 1 11
REMARK H PARENT
REMARK Flexibility Score: inf
ROOT
ATOM      1  C   UNL     1       3.170 -50.615   9.844  1.00  0.00     0.000 C 
ENDROOT
BRANCH   1   2
ATOM      2  C   UNL     1       3.539 -51.516  11.037  1.00  0.00     0.006 C 
BRANCH   2   3
ATOM      3  C   UNL     1       5.027 -51.895  11.108  1.00  0.00     0.053 C 
BRANCH   3   4
ATOM      4  C   UNL     1       5.313 -53.186  10.405  1.00  0.00     0.041 C 
ATOM      5  O   UNL     1       4.366 -53.919  10.015  1.00  0.00    -0.550 OA
ATOM      6  O   UNL     1       6.626 -53.597  10.211  1.00  0.00    -0.550 OA
ENDBRANCH   3   4
ENDBRANCH   2   3
ENDBRANCH   1   2
BRANCH   1   7
ATOM      7  C   UNL     1       1.740 -50.854   9.337  1.00  0.00     0.000 C 
BRANCH   7   8
ATOM      8  C   UNL     1       0.823 -49.682   9.707  1.00  0.00    -0.000 C 
BRANCH   8   9
ATOM      9  C   UNL     1      -0.601 -50.171  10.009  1.00  0.00    -0.000 C 
BRANCH   9  10
ATOM     10  C   UNL     1      -0.801 -51.655   9.669  1.00  0.00    -0.003 C 
ATOM     11  C   UNL     1      -1.111 -52.507  10.899  1.00  0.00     0.004 C 
ENDBRANCH   9  10
ENDBRANCH   8   9
ENDBRANCH   7   8
ENDBRANCH   1   7
TORSDOF 7
ENDMDL
MODEL 4
REMARK VINA RESULT:    -1.510      1.703      2.720
REMARK INTER + INTRA:          -2.308
REMARK INTER:                  -2.083
REMARK INTRA:                  -0.225
REMARK UNBOUND:                -0.179
REMARK SMILES CCCCCCCCC(=O)[O-]
REMARK SMILES IDX 6 1 7 2 8 3 9 4 10 5 11 6 5 7 4 8 3 9 2 10 1 11
REMARK H PARENT
REMARK Flexibility Score: inf
ROOT
ATOM      1  C   UNL     1       4.226 -52.668  10.735  1.00  0.00     0.000 C 
ENDROOT
BRANCH   1   2
ATOM      2  C   UNL     1       3.854 -52.275   9.294  1.00  0.00     0.006 C 
BRANCH   2   3
ATOM      3  C   UNL     1       3.414 -50.812   9.130  1.00  0.00     0.053 C 
BRANCH   3   4
ATOM      4  C   UNL     1       2.468 -50.385  10.211  1.00  0.00     0.041 C 
ATOM      5  O   UNL     1       2.857 -49.608  11.122  1.00  0.00    -0.550 OA
ATOM      6  O   UNL     1       1.168 -50.872  10.230  1.00  0.00    -0.550 OA
ENDBRANCH   3   4
ENDBRANCH   2   3
ENDBRANCH   1   2
BRANCH   1   7
ATOM      7  C   UNL     1       5.700 -52.391  11.067  1.00  0.00     0.000 C 
BRANCH   7   8
ATOM      8  C   UNL     1       6.618 -52.878   9.940  1.00  0.00    -0.000 C 
BRANCH   8   9
ATOM      9  C   UNL     1       7.537 -54.008  10.428  1.00  0.00    -0.000 C 
BRANCH   9  10
ATOM     10  C   UNL     1       8.802 -53.482  11.123  1.00  0.00    -0.003 C 
ATOM     11  C   UNL     1       9.060 -52.003  10.842  1.00  0.00     0.004 C 
ENDBRANCH   9  10
ENDBRANCH   8   9
ENDBRANCH   7   8
ENDBRANCH   1   7
TORSDOF 7
ENDMDL
MODEL 5
REMARK VINA RESULT:    -0.742      2.208      3.384
REMARK INTER + INTRA:          -1.225
REMARK INTER:                  -1.248
REMARK INTRA:                   0.023
REMARK UNBOUND:                -0.179
REMARK SMILES CCCCCCCCC(=O)[O-]
REMARK SMILES IDX 6 1 7 2 8 3 9 4 10 5 11 6 5 7 4 8 3 9 2 10 1 11
REMARK H PARENT
REMARK Flexibility Score: inf
ROOT
ATOM      1  C   UNL     1       4.892 -52.589   9.383  1.00  0.00     0.000 C 
ENDROOT
BRANCH   1   2
ATOM      2  C   UNL     1       3.662 -52.007  10.103  1.00  0.00     0.006 C 
BRANCH   2   3
ATOM      3  C   UNL     1       3.002 -50.826   9.373  1.00  0.00     0.053 C 
BRANCH   3   4
ATOM      4  C   UNL     1       1.840 -50.271  10.139  1.00  0.00     0.041 C 
ATOM      5  O   UNL     1       2.033 -49.482  11.101  1.00  0.00    -0.550 OA
ATOM      6  O   UNL     1       0.545 -50.652   9.811  1.00  0.00    -0.550 OA
ENDBRANCH   3   4
ENDBRANCH   2   3
ENDBRANCH   1   2
BRANCH   1   7
ATOM      7  C   UNL     1       5.920 -53.191  10.352  1.00  0.00     0.000 C 
BRANCH   7   8
ATOM      8  C   UNL     1       5.329 -54.386  11.108  1.00  0.00    -0.000 C 
BRANCH   8   9
ATOM      9  C   UNL     1       4.241 -55.081  10.275  1.00  0.00    -0.000 C 
BRANCH   9  10
ATOM     10  C   UNL     1       3.038 -55.521  11.123  1.00  0.00    -0.003 C 
ATOM     11  C   UNL     1       2.795 -57.029  11.068  1.00  0.00     0.004 C 
ENDBRANCH   9  10
ENDBRANCH   8   9
ENDBRANCH   7   8
ENDBRANCH   1   7
TORSDOF 7
ENDMDL
