MODEL 1
REMARK VINA RESULT:    -4.072      0.000      0.000
REMARK INTER + INTRA:          -5.702
REMARK INTER:                  -5.500
REMARK INTRA:                  -0.201
REMARK UNBOUND:                -0.201
REMARK SMILES CCCCCCCC=O
REMARK SMILES IDX 5 1 4 2 3 3 2 4 1 5 6 6 7 7 8 8 9 9
REMARK H PARENT
REMARK Flexibility Score: inf
ROOT
ATOM      1  C   UNL     1      27.174  45.321  -1.135  1.00  0.00     0.000 C 
ENDROOT
BRANCH   1   2
ATOM      2  C   UNL     1      28.525  44.724  -0.703  1.00  0.00     0.000 C 
BRANCH   2   3
ATOM      3  C   UNL     1      29.197  45.526   0.427  1.00  0.00    -0.000 C 
BRANCH   3   4
ATOM      4  C   UNL     1      30.488  44.898   0.982  1.00  0.00    -0.003 C 
ATOM      5  C   UNL     1      31.690  45.081   0.056  1.00  0.00     0.004 C 
ENDBRANCH   3   4
ENDBRANCH   2   3
ENDBRANCH   1   2
BRANCH   1   6
ATOM      6  C   UNL     1      27.068  46.828  -0.836  1.00  0.00     0.008 C 
BRANCH   6   7
ATOM      7  C   UNL     1      26.818  47.698  -2.080  1.00  0.00     0.072 C 
BRANCH   7   8
ATOM      8  C   UNL     1      25.549  47.326  -2.789  1.00  0.00     0.224 C 
ATOM      9  O   UNL     1      24.562  48.040  -2.709  1.00  0.00    -0.303 OA
ENDBRANCH   7   8
ENDBRANCH   6   7
ENDBRANCH   1   6
TORSDOF 6
ENDMDL
MODEL 2
REMARK VINA RESULT:    -4.013     12.391     14.549
REMARK INTER + INTRA:          -5.622
REMARK INTER:                  -5.551
REMARK INTRA:                  -0.071
REMARK UNBOUND:                -0.201
REMARK SMILES CCCCCCCC=O
REMARK SMILES IDX 5 1 4 2 3 3 2 4 1 5 6 6 7 7 8 8 9 9
REMARK H PARENT
REMARK Flexibility Score: inf
ROOT
ATOM      1  C   UNL     1      25.598  56.606  -9.260  1.00  0.00     0.000 C 
ENDROOT
BRANCH   1   2
ATOM      2  C   UNL     1      24.126  56.194  -9.078  1.00  0.00     0.000 C 
BRANCH   2   3
ATOM      3  C   UNL     1      23.957  54.992  -8.132  1.00  0.00    -0.000 C 
BRANCH   3   4
ATOM      4  C   UNL     1      22.499  54.672  -7.753  1.00  0.00    -0.003 C 
ATOM      5  C   UNL     1      22.328  54.314  -6.278  1.00  0.00     0.004 C 
ENDBRANCH   3   4
ENDBRANCH   2   3
ENDBRANCH   1   2
BRANCH   1   6
ATOM      6  C   UNL     1      25.765  58.117  -9.510  1.00  0.00     0.008 C 
BRANCH   6   7
ATOM      7  C   UNL     1      26.954  58.475 -10.417  1.00  0.00     0.072 C 
BRANCH   7   8
ATOM      8  C   UNL     1      27.221  59.951 -10.451  1.00  0.00     0.224 C 
ATOM      9  O   UNL     1      27.998  60.421 -11.266  1.00  0.00    -0.303 OA
ENDBRANCH   7   8
ENDBRANCH   6   7
ENDBRANCH   1   6
TORSDOF 6
ENDMDL
MODEL 3
REMARK VINA RESULT:    -4.012     12.154     13.992
REMARK INTER + INTRA:          -5.621
REMARK INTER:                  -5.408
REMARK INTRA:                  -0.212
REMARK UNBOUND:                -0.201
REMARK SMILES CCCCCCCC=O
REMARK SMILES IDX 5 1 4 2 3 3 2 4 1 5 6 6 7 7 8 8 9 9
REMARK H PARENT
REMARK Flexibility Score: inf
ROOT
ATOM      1  C   UNL     1      25.597  56.302  -9.042  1.00  0.00     0.000 C 
ENDROOT
BRANCH   1   2
ATOM      2  C   UNL     1      24.950  57.694  -8.948  1.00  0.00     0.000 C 
BRANCH   2   3
ATOM      3  C   UNL     1      25.773  58.783  -9.659  1.00  0.00    -0.000 C 
BRANCH   3   4
ATOM      4  C   UNL     1      26.948  58.255 -10.502  1.00  0.00    -0.003 C 
ATOM      5  C   UNL     1      28.109  59.243 -10.598  1.00  0.00     0.004 C 
ENDBRANCH   3   4
ENDBRANCH   2   3
ENDBRANCH   1   2
BRANCH   1   6
ATOM      6  C   UNL     1      24.742  55.203  -8.384  1.00  0.00     0.008 C 
BRANCH   6   7
ATOM      7  C   UNL     1      23.235  55.513  -8.357  1.00  0.00     0.072 C 
BRANCH   7   8
ATOM      8  C   UNL     1      22.459  54.498  -7.570  1.00  0.00     0.224 C 
ATOM      9  O   UNL     1      22.527  54.475  -6.352  1.00  0.00    -0.303 OA
ENDBRANCH   7   8
ENDBRANCH   6   7
ENDBRANCH   1   6
TORSDOF 6
ENDMDL
MODEL 4
REMARK VINA RESULT:    -3.897      3.235      5.856
REMARK INTER + INTRA:          -5.466
REMARK INTER:                  -5.374
REMARK INTRA:                  -0.092
REMARK UNBOUND:                -0.201
REMARK SMILES CCCCCCCC=O
REMARK SMILES IDX 5 1 4 2 3 3 2 4 1 5 6 6 7 7 8 8 9 9
REMARK H PARENT
REMARK Flexibility Score: inf
ROOT
ATOM      1  C   UNL     1      28.374  45.271  -0.755  1.00  0.00     0.000 C 
ENDROOT
BRANCH   1   2
ATOM      2  C   UNL     1      27.384  46.448  -0.756  1.00  0.00     0.000 C 
BRANCH   2   3
ATOM      3  C   UNL     1      27.098  46.986  -2.169  1.00  0.00    -0.000 C 
BRANCH   3   4
ATOM      4  C   UNL     1      25.883  47.926  -2.267  1.00  0.00    -0.003 C 
ATOM      5  C   UNL     1      24.776  47.384  -3.170  1.00  0.00     0.004 C 
ENDBRANCH   3   4
ENDBRANCH   2   3
ENDBRANCH   1   2
BRANCH   1   6
ATOM      6  C   UNL     1      29.356  45.320   0.431  1.00  0.00     0.008 C 
BRANCH   6   7
ATOM      7  C   UNL     1      30.833  45.179   0.028  1.00  0.00     0.072 C 
BRANCH   7   8
ATOM      8  C   UNL     1      31.704  44.791   1.186  1.00  0.00     0.224 C 
ATOM      9  O   UNL     1      31.702  43.645   1.608  1.00  0.00    -0.303 OA
ENDBRANCH   7   8
ENDBRANCH   6   7
ENDBRANCH   1   6
TORSDOF 6
ENDMDL
MODEL 5
REMARK VINA RESULT:    -3.876      0.882      1.192
REMARK INTER + INTRA:          -5.437
REMARK INTER:                  -5.341
REMARK INTRA:                  -0.095
REMARK UNBOUND:                -0.201
REMARK SMILES CCCCCCCC=O
REMARK SMILES IDX 5 1 4 2 3 3 2 4 1 5 6 6 7 7 8 8 9 9
REMARK H PARENT
REMARK Flexibility Score: inf
ROOT
ATOM      1  C   UNL     1      28.085  45.301  -0.843  1.00  0.00     0.000 C 
ENDROOT
BRANCH   1   2
ATOM      2  C   UNL     1      29.251  45.345   0.160  1.00  0.00     0.000 C 
BRANCH   2   3
ATOM      3  C   UNL     1      30.420  44.430  -0.246  1.00  0.00    -0.000 C 
BRANCH   3   4
ATOM      4  C   UNL     1      31.802  44.891   0.252  1.00  0.00    -0.003 C 
ATOM      5  C   UNL     1      31.962  44.773   1.767  1.00  0.00     0.004 C 
ENDBRANCH   3   4
ENDBRANCH   2   3
ENDBRANCH   1   2
BRANCH   1   6
ATOM      6  C   UNL     1      27.250  46.595  -0.839  1.00  0.00     0.008 C 
BRANCH   6   7
ATOM      7  C   UNL     1      27.037  47.209  -2.233  1.00  0.00     0.072 C 
BRANCH   7   8
ATOM      8  C   UNL     1      25.651  47.754  -2.410  1.00  0.00     0.224 C 
ATOM      9  O   UNL     1      24.922  47.322  -3.289  1.00  0.00    -0.303 OA
ENDBRANCH   7   8
ENDBRANCH   6   7
ENDBRANCH   1   6
TORSDOF 6
ENDMDL
MODEL 6
REMARK VINA RESULT:    -3.611      3.440      5.827
REMARK INTER + INTRA:          -5.079
REMARK INTER:                  -4.924
REMARK INTRA:                  -0.155
REMARK UNBOUND:                -0.201
REMARK SMILES CCCCCCCC=O
REMARK SMILES IDX 5 1 4 2 3 3 2 4 1 5 6 6 7 7 8 8 9 9
REMARK H PARENT
REMARK Flexibility Score: inf
ROOT
ATOM      1  C   UNL     1      29.902  45.327   0.994  1.00  0.00     0.000 C 
ENDROOT
BRANCH   1   2
ATOM      2  C   UNL     1      29.524  44.712  -0.365  1.00  0.00     0.000 C 
BRANCH   2   3
ATOM      3  C   UNL     1      28.062  44.991  -0.759  1.00  0.00    -0.000 C 
BRANCH   3   4
ATOM      4  C   UNL     1      27.673  46.481  -0.772  1.00  0.00    -0.003 C 
ATOM      5  C   UNL     1      26.846  46.873  -1.995  1.00  0.00     0.004 C 
ENDBRANCH   3   4
ENDBRANCH   2   3
ENDBRANCH   1   2
BRANCH   1   6
ATOM      6  C   UNL     1      31.263  44.827   1.513  1.00  0.00     0.008 C 
BRANCH   6   7
ATOM      7  C   UNL     1      32.287  45.946   1.767  1.00  0.00     0.072 C 
BRANCH   7   8
ATOM      8  C   UNL     1      32.291  46.401   3.197  1.00  0.00     0.224 C 
ATOM      9  O   UNL     1      31.466  47.210   3.592  1.00  0.00    -0.303 OA
ENDBRANCH   7   8
ENDBRANCH   6   7
ENDBRANCH   1   6
TORSDOF 6
ENDMDL
MODEL 7
REMARK VINA RESULT:    -3.566      3.068      4.818
REMARK INTER + INTRA:          -5.018
REMARK INTER:                  -4.794
REMARK INTRA:                  -0.224
REMARK UNBOUND:                -0.201
REMARK SMILES CCCCCCCC=O
REMARK SMILES IDX 5 1 4 2 3 3 2 4 1 5 6 6 7 7 8 8 9 9
REMARK H PARENT
REMARK Flexibility Score: inf
ROOT
ATOM      1  C   UNL     1      32.064  44.398   1.682  1.00  0.00     0.000 C 
ENDROOT
BRANCH   1   2
ATOM      2  C   UNL     1      32.319  45.905   1.849  1.00  0.00     0.000 C 
BRANCH   2   3
ATOM      3  C   UNL     1      32.439  46.329   3.324  1.00  0.00    -0.000 C 
BRANCH   3   4
ATOM      4  C   UNL     1      31.641  47.591   3.698  1.00  0.00    -0.003 C 
ATOM      5  C   UNL     1      32.496  48.857   3.718  1.00  0.00     0.004 C 
ENDBRANCH   3   4
ENDBRANCH   2   3
ENDBRANCH   1   2
BRANCH   1   6
ATOM      6  C   UNL     1      30.859  44.097   0.770  1.00  0.00     0.008 C 
BRANCH   6   7
ATOM      7  C   UNL     1      29.806  45.217   0.732  1.00  0.00     0.072 C 
BRANCH   7   8
ATOM      8  C   UNL     1      28.831  45.044  -0.395  1.00  0.00     0.224 C 
ATOM      9  O   UNL     1      28.207  46.001  -0.827  1.00  0.00    -0.303 OA
ENDBRANCH   7   8
ENDBRANCH   6   7
ENDBRANCH   1   6
TORSDOF 6
ENDMDL
MODEL 8
REMARK VINA RESULT:    -3.435      3.321      5.695
REMARK INTER + INTRA:          -4.841
REMARK INTER:                  -4.717
REMARK INTRA:                  -0.124
REMARK UNBOUND:                -0.201
REMARK SMILES CCCCCCCC=O
REMARK SMILES IDX 5 1 4 2 3 3 2 4 1 5 6 6 7 7 8 8 9 9
REMARK H PARENT
REMARK Flexibility Score: inf
ROOT
ATOM      1  C   UNL     1      29.292  45.420   0.499  1.00  0.00     0.000 C 
ENDROOT
BRANCH   1   2
ATOM      2  C   UNL     1      28.420  45.365  -0.767  1.00  0.00     0.000 C 
BRANCH   2   3
ATOM      3  C   UNL     1      27.367  46.486  -0.815  1.00  0.00    -0.000 C 
BRANCH   3   4
ATOM      4  C   UNL     1      26.704  46.688  -2.190  1.00  0.00    -0.003 C 
ATOM      5  C   UNL     1      25.808  47.924  -2.247  1.00  0.00     0.004 C 
ENDBRANCH   3   4
ENDBRANCH   2   3
ENDBRANCH   1   2
BRANCH   1   6
ATOM      6  C   UNL     1      30.720  44.896   0.261  1.00  0.00     0.008 C 
BRANCH   6   7
ATOM      7  C   UNL     1      30.822  43.829  -0.842  1.00  0.00     0.072 C 
BRANCH   7   8
ATOM      8  C   UNL     1      32.228  43.343  -1.037  1.00  0.00     0.224 C 
ATOM      9  O   UNL     1      32.827  43.580  -2.074  1.00  0.00    -0.303 OA
ENDBRANCH   7   8
ENDBRANCH   6   7
ENDBRANCH   1   6
TORSDOF 6
ENDMDL
MODEL 9
REMARK VINA RESULT:    -3.433     16.318     16.992
REMARK INTER + INTRA:          -4.839
REMARK INTER:                  -4.643
REMARK INTRA:                  -0.196
REMARK UNBOUND:                -0.201
REMARK SMILES CCCCCCCC=O
REMARK SMILES IDX 5 1 4 2 3 3 2 4 1 5 6 6 7 7 8 8 9 9
REMARK H PARENT
REMARK Flexibility Score: inf
ROOT
ATOM      1  C   UNL     1      30.659  58.394 -12.272  1.00  0.00     0.000 C 
ENDROOT
BRANCH   1   2
ATOM      2  C   UNL     1      30.237  57.571 -13.501  1.00  0.00     0.000 C 
BRANCH   2   3
ATOM      3  C   UNL     1      31.413  56.811 -14.142  1.00  0.00    -0.000 C 
BRANCH   3   4
ATOM      4  C   UNL     1      32.677  57.659 -14.373  1.00  0.00    -0.003 C 
ATOM      5  C   UNL     1      33.945  57.004 -13.827  1.00  0.00     0.004 C 
ENDBRANCH   3   4
ENDBRANCH   2   3
ENDBRANCH   1   2
BRANCH   1   6
ATOM      6  C   UNL     1      29.645  59.499 -11.920  1.00  0.00     0.008 C 
BRANCH   6   7
ATOM      7  C   UNL     1      28.881  59.254 -10.608  1.00  0.00     0.072 C 
BRANCH   7   8
ATOM      8  C   UNL     1      27.408  59.079 -10.831  1.00  0.00     0.224 C 
ATOM      9  O   UNL     1      26.810  58.146 -10.319  1.00  0.00    -0.303 OA
ENDBRANCH   7   8
ENDBRANCH   6   7
ENDBRANCH   1   6
TORSDOF 6
ENDMDL
