MODEL 1
REMARK VINA RESULT:    -3.159      0.000      0.000
REMARK INTER + INTRA:          -4.029
REMARK INTER:                  -3.805
REMARK INTRA:                  -0.224
REMARK UNBOUND:                -0.224
REMARK SMILES OCC(O)CO
REMARK SMILES IDX 3 1 5 2 6 3 2 5 1 6 4 8
REMARK H PARENT 6 4 1 7 4 9
REMARK Flexibility Score: inf
ROOT
ATOM      1  C   UNL     1      26.307 -33.051  22.114  1.00  0.00     0.165 C 
ENDROOT
BRANCH   1   2
ATOM      2  C   UNL     1      25.486 -33.220  20.826  1.00  0.00     0.190 C 
BRANCH   2   3
ATOM      3  O   UNL     1      25.477 -32.043  20.064  1.00  0.00    -0.394 OA
ATOM      4  H   UNL     1      24.538 -31.893  19.779  1.00  0.00     0.210 HD
ENDBRANCH   2   3
ENDBRANCH   1   2
BRANCH   1   5
ATOM      5  C   UNL     1      25.596 -32.151  23.141  1.00  0.00     0.190 C 
BRANCH   5   6
ATOM      6  O   UNL     1      25.568 -30.813  22.719  1.00  0.00    -0.394 OA
ATOM      7  H   UNL     1      26.003 -30.278  23.432  1.00  0.00     0.210 HD
ENDBRANCH   5   6
ENDBRANCH   1   5
BRANCH   1   8
ATOM      8  O   UNL     1      26.584 -34.311  22.669  1.00  0.00    -0.388 OA
ATOM      9  H   UNL     1      25.716 -34.786  22.747  1.00  0.00     0.211 HD
ENDBRANCH   1   8
TORSDOF 5
ENDMDL
MODEL 2
REMARK VINA RESULT:    -3.083      1.401      3.072
REMARK INTER + INTRA:          -3.937
REMARK INTER:                  -3.934
REMARK INTRA:                  -0.004
REMARK UNBOUND:                -0.224
REMARK SMILES OCC(O)CO
REMARK SMILES IDX 3 1 5 2 6 3 2 5 1 6 4 8
REMARK H PARENT 6 4 1 7 4 9
REMARK Flexibility Score: inf
ROOT
ATOM      1  C   UNL     1      25.355 -33.254  20.905  1.00  0.00     0.165 C 
ENDROOT
BRANCH   1   2
ATOM      2  C   UNL     1      26.468 -33.209  21.964  1.00  0.00     0.190 C 
BRANCH   2   3
ATOM      3  O   UNL     1      26.475 -34.370  22.752  1.00  0.00    -0.394 OA
ATOM      4  H   UNL     1      27.261 -34.302  23.354  1.00  0.00     0.210 HD
ENDBRANCH   2   3
ENDBRANCH   1   2
BRANCH   1   5
ATOM      5  C   UNL     1      23.963 -33.436  21.536  1.00  0.00     0.190 C 
BRANCH   5   6
ATOM      6  O   UNL     1      22.957 -33.477  20.558  1.00  0.00    -0.394 OA
ATOM      7  H   UNL     1      23.069 -34.333  20.068  1.00  0.00     0.210 HD
ENDBRANCH   5   6
ENDBRANCH   1   5
BRANCH   1   8
ATOM      8  O   UNL     1      25.396 -32.087  20.125  1.00  0.00    -0.388 OA
ATOM      9  H   UNL     1      26.353 -31.844  20.024  1.00  0.00     0.211 HD
ENDBRANCH   1   8
TORSDOF 5
ENDMDL
MODEL 3
REMARK VINA RESULT:    -3.070      0.583      2.288
REMARK INTER + INTRA:          -3.922
REMARK INTER:                  -3.699
REMARK INTRA:                  -0.224
REMARK UNBOUND:                -0.224
REMARK SMILES OCC(O)CO
REMARK SMILES IDX 3 1 5 2 6 3 2 5 1 6 4 8
REMARK H PARENT 6 4 1 7 4 9
REMARK Flexibility Score: inf
ROOT
ATOM      1  C   UNL     1      25.666 -33.108  22.505  1.00  0.00     0.165 C 
ENDROOT
BRANCH   1   2
ATOM      2  C   UNL     1      25.613 -31.930  23.491  1.00  0.00     0.190 C 
BRANCH   2   3
ATOM      3  O   UNL     1      25.538 -30.701  22.819  1.00  0.00    -0.394 OA
ATOM      4  H   UNL     1      24.997 -30.096  23.390  1.00  0.00     0.210 HD
ENDBRANCH   2   3
ENDBRANCH   1   2
BRANCH   1   5
ATOM      5  C   UNL     1      26.248 -32.696  21.141  1.00  0.00     0.190 C 
BRANCH   5   6
ATOM      6  O   UNL     1      25.261 -32.155  20.303  1.00  0.00    -0.394 OA
ATOM      7  H   UNL     1      24.629 -31.661  20.887  1.00  0.00     0.210 HD
ENDBRANCH   5   6
ENDBRANCH   1   5
BRANCH   1   8
ATOM      8  O   UNL     1      26.410 -34.160  23.063  1.00  0.00    -0.388 OA
ATOM      9  H   UNL     1      25.823 -34.960  23.061  1.00  0.00     0.211 HD
ENDBRANCH   1   8
TORSDOF 5
ENDMDL
MODEL 4
REMARK VINA RESULT:    -3.018      1.540      2.495
REMARK INTER + INTRA:          -3.859
REMARK INTER:                  -3.856
REMARK INTRA:                  -0.003
REMARK UNBOUND:                -0.224
REMARK SMILES OCC(O)CO
REMARK SMILES IDX 3 1 5 2 6 3 2 5 1 6 4 8
REMARK H PARENT 6 4 1 7 4 9
REMARK Flexibility Score: inf
ROOT
ATOM      1  C   UNL     1      24.848 -32.560  21.608  1.00  0.00     0.165 C 
ENDROOT
BRANCH   1   2
ATOM      2  C   UNL     1      24.023 -33.829  21.340  1.00  0.00     0.190 C 
BRANCH   2   3
ATOM      3  O   UNL     1      22.919 -33.559  20.518  1.00  0.00    -0.394 OA
ATOM      4  H   UNL     1      23.279 -33.218  19.658  1.00  0.00     0.210 HD
ENDBRANCH   2   3
ENDBRANCH   1   2
BRANCH   1   5
ATOM      5  C   UNL     1      25.925 -32.785  22.685  1.00  0.00     0.190 C 
BRANCH   5   6
ATOM      6  O   UNL     1      26.737 -33.887  22.376  1.00  0.00    -0.394 OA
ATOM      7  H   UNL     1      27.674 -33.608  22.544  1.00  0.00     0.210 HD
ENDBRANCH   5   6
ENDBRANCH   1   5
BRANCH   1   8
ATOM      8  O   UNL     1      25.431 -32.113  20.411  1.00  0.00    -0.388 OA
ATOM      9  H   UNL     1      25.337 -31.126  20.398  1.00  0.00     0.211 HD
ENDBRANCH   1   8
TORSDOF 5
ENDMDL
MODEL 5
REMARK VINA RESULT:    -3.001      2.308      3.364
REMARK INTER + INTRA:          -3.838
REMARK INTER:                  -3.624
REMARK INTRA:                  -0.215
REMARK UNBOUND:                -0.224
REMARK SMILES OCC(O)CO
REMARK SMILES IDX 3 1 5 2 6 3 2 5 1 6 4 8
REMARK H PARENT 6 4 1 7 4 9
REMARK Flexibility Score: inf
ROOT
ATOM      1  C   UNL     1      24.595 -30.581  24.343  1.00  0.00     0.165 C 
ENDROOT
BRANCH   1   2
ATOM      2  C   UNL     1      25.569 -31.458  23.541  1.00  0.00     0.190 C 
BRANCH   2   3
ATOM      3  O   UNL     1      25.230 -31.490  22.180  1.00  0.00    -0.394 OA
ATOM      4  H   UNL     1      26.063 -31.302  21.674  1.00  0.00     0.210 HD
ENDBRANCH   2   3
ENDBRANCH   1   2
BRANCH   1   5
ATOM      5  C   UNL     1      24.698 -29.095  23.952  1.00  0.00     0.190 C 
BRANCH   5   6
ATOM      6  O   UNL     1      25.772 -28.867  23.079  1.00  0.00    -0.394 OA
ATOM      7  H   UNL     1      26.601 -28.935  23.621  1.00  0.00     0.210 HD
ENDBRANCH   5   6
ENDBRANCH   1   5
BRANCH   1   8
ATOM      8  O   UNL     1      23.282 -31.048  24.168  1.00  0.00    -0.388 OA
ATOM      9  H   UNL     1      22.683 -30.264  24.272  1.00  0.00     0.211 HD
ENDBRANCH   1   8
TORSDOF 5
ENDMDL
MODEL 6
REMARK VINA RESULT:    -2.970      2.222      3.744
REMARK INTER + INTRA:          -3.801
REMARK INTER:                  -3.584
REMARK INTRA:                  -0.217
REMARK UNBOUND:                -0.224
REMARK SMILES OCC(O)CO
REMARK SMILES IDX 3 1 5 2 6 3 2 5 1 6 4 8
REMARK H PARENT 6 4 1 7 4 9
REMARK Flexibility Score: inf
ROOT
ATOM      1  C   UNL     1      24.512 -30.651  24.093  1.00  0.00     0.165 C 
ENDROOT
BRANCH   1   2
ATOM      2  C   UNL     1      24.756 -29.140  23.956  1.00  0.00     0.190 C 
BRANCH   2   3
ATOM      3  O   UNL     1      25.805 -28.868  23.065  1.00  0.00    -0.394 OA
ATOM      4  H   UNL     1      25.404 -28.409  22.282  1.00  0.00     0.210 HD
ENDBRANCH   2   3
ENDBRANCH   1   2
BRANCH   1   5
ATOM      5  C   UNL     1      25.621 -31.481  23.421  1.00  0.00     0.190 C 
BRANCH   5   6
ATOM      6  O   UNL     1      25.480 -31.492  22.025  1.00  0.00    -0.394 OA
ATOM      7  H   UNL     1      26.310 -31.891  21.656  1.00  0.00     0.210 HD
ENDBRANCH   5   6
ENDBRANCH   1   5
BRANCH   1   8
ATOM      8  O   UNL     1      24.394 -30.991  25.450  1.00  0.00    -0.388 OA
ATOM      9  H   UNL     1      24.470 -30.146  25.965  1.00  0.00     0.211 HD
ENDBRANCH   1   8
TORSDOF 5
ENDMDL
MODEL 7
REMARK VINA RESULT:    -2.941      2.571      3.552
REMARK INTER + INTRA:          -3.767
REMARK INTER:                  -3.756
REMARK INTRA:                  -0.011
REMARK UNBOUND:                -0.224
REMARK SMILES OCC(O)CO
REMARK SMILES IDX 3 1 5 2 6 3 2 5 1 6 4 8
REMARK H PARENT 6 4 1 7 4 9
REMARK Flexibility Score: inf
ROOT
ATOM      1  C   UNL     1      25.170 -30.959  23.639  1.00  0.00     0.165 C 
ENDROOT
BRANCH   1   2
ATOM      2  C   UNL     1      24.923 -29.450  23.796  1.00  0.00     0.190 C 
BRANCH   2   3
ATOM      3  O   UNL     1      25.775 -28.703  22.969  1.00  0.00    -0.394 OA
ATOM      4  H   UNL     1      26.442 -29.336  22.597  1.00  0.00     0.210 HD
ENDBRANCH   2   3
ENDBRANCH   1   2
BRANCH   1   5
ATOM      5  C   UNL     1      23.944 -31.792  24.056  1.00  0.00     0.190 C 
BRANCH   5   6
ATOM      6  O   UNL     1      22.896 -30.975  24.506  1.00  0.00    -0.394 OA
ATOM      7  H   UNL     1      22.057 -31.356  24.138  1.00  0.00     0.210 HD
ENDBRANCH   5   6
ENDBRANCH   1   5
BRANCH   1   8
ATOM      8  O   UNL     1      25.534 -31.245  22.314  1.00  0.00    -0.388 OA
ATOM      9  H   UNL     1      25.186 -32.151  22.110  1.00  0.00     0.211 HD
ENDBRANCH   1   8
TORSDOF 5
ENDMDL
MODEL 8
REMARK VINA RESULT:    -2.932      0.966      2.977
REMARK INTER + INTRA:          -3.755
REMARK INTER:                  -3.534
REMARK INTRA:                  -0.221
REMARK UNBOUND:                -0.224
REMARK SMILES OCC(O)CO
REMARK SMILES IDX 3 1 5 2 6 3 2 5 1 6 4 8
REMARK H PARENT 6 4 1 7 4 9
REMARK Flexibility Score: inf
ROOT
ATOM      1  C   UNL     1      25.984 -32.441  21.609  1.00  0.00     0.165 C 
ENDROOT
BRANCH   1   2
ATOM      2  C   UNL     1      25.438 -31.488  22.683  1.00  0.00     0.190 C 
BRANCH   2   3
ATOM      3  O   UNL     1      25.975 -31.776  23.947  1.00  0.00    -0.394 OA
ATOM      4  H   UNL     1      25.210 -31.845  24.574  1.00  0.00     0.210 HD
ENDBRANCH   2   3
ENDBRANCH   1   2
BRANCH   1   5
ATOM      5  C   UNL     1      25.670 -33.914  21.928  1.00  0.00     0.190 C 
BRANCH   5   6
ATOM      6  O   UNL     1      26.620 -34.464  22.802  1.00  0.00    -0.394 OA
ATOM      7  H   UNL     1      26.186 -35.236  23.249  1.00  0.00     0.210 HD
ENDBRANCH   5   6
ENDBRANCH   1   5
BRANCH   1   8
ATOM      8  O   UNL     1      25.466 -32.086  20.353  1.00  0.00    -0.388 OA
ATOM      9  H   UNL     1      25.359 -32.928  19.839  1.00  0.00     0.211 HD
ENDBRANCH   1   8
TORSDOF 5
ENDMDL
MODEL 9
REMARK VINA RESULT:    -2.890      1.876      2.595
REMARK INTER + INTRA:          -3.705
REMARK INTER:                  -3.492
REMARK INTRA:                  -0.213
REMARK UNBOUND:                -0.224
REMARK SMILES OCC(O)CO
REMARK SMILES IDX 3 1 5 2 6 3 2 5 1 6 4 8
REMARK H PARENT 6 4 1 7 4 9
REMARK Flexibility Score: inf
ROOT
ATOM      1  C   UNL     1      24.530 -33.786  22.005  1.00  0.00     0.165 C 
ENDROOT
BRANCH   1   2
ATOM      2  C   UNL     1      25.346 -32.517  21.708  1.00  0.00     0.190 C 
BRANCH   2   3
ATOM      3  O   UNL     1      25.294 -32.181  20.347  1.00  0.00    -0.394 OA
ATOM      4  H   UNL     1      25.966 -31.465  20.204  1.00  0.00     0.210 HD
ENDBRANCH   2   3
ENDBRANCH   1   2
BRANCH   1   5
ATOM      5  C   UNL     1      23.657 -34.207  20.809  1.00  0.00     0.190 C 
BRANCH   5   6
ATOM      6  O   UNL     1      22.517 -33.398  20.695  1.00  0.00    -0.394 OA
ATOM      7  H   UNL     1      22.823 -32.458  20.778  1.00  0.00     0.210 HD
ENDBRANCH   5   6
ENDBRANCH   1   5
BRANCH   1   8
ATOM      8  O   UNL     1      25.395 -34.828  22.378  1.00  0.00    -0.388 OA
ATOM      9  H   UNL     1      26.293 -34.425  22.502  1.00  0.00     0.211 HD
ENDBRANCH   1   8
TORSDOF 5
ENDMDL
