MODEL 1
REMARK VINA RESULT:    -4.299      0.000      0.000
REMARK INTER + INTRA:          -9.410
REMARK INTER:                  -7.566
REMARK INTRA:                  -1.845
REMARK UNBOUND:                -1.845
REMARK SMILES CCCCCCCCCCCCCCC(=O)[O-]
REMARK SMILES IDX 9 1 10 2 11 3 12 4 13 5 14 6 15 7 16 8 17 9 8 10 7 11 6 12
REMARK SMILES IDX 5 13 4 14 3 15 2 16 1 17
REMARK H PARENT
REMARK Flexibility Score: inf
ROOT
ATOM      1  C   UNL     1     -19.343 -30.509  19.001  1.00  0.00     0.000 C 
ENDROOT
BRANCH   1   2
ATOM      2  C   UNL     1     -18.882 -31.241  17.727  1.00  0.00     0.000 C 
BRANCH   2   3
ATOM      3  C   UNL     1     -17.368 -31.184  17.453  1.00  0.00     0.000 C 
BRANCH   3   4
ATOM      4  C   UNL     1     -16.612 -30.288  18.447  1.00  0.00     0.000 C 
BRANCH   4   5
ATOM      5  C   UNL     1     -16.024 -29.028  17.786  1.00  0.00     0.006 C 
BRANCH   5   6
ATOM      6  C   UNL     1     -17.032 -27.879  17.615  1.00  0.00     0.053 C 
BRANCH   6   7
ATOM      7  C   UNL     1     -17.441 -27.291  18.929  1.00  0.00     0.041 C 
ATOM      8  O   UNL     1     -18.646 -26.996  19.145  1.00  0.00    -0.550 OA
ATOM      9  O   UNL     1     -16.485 -27.037  19.905  1.00  0.00    -0.550 OA
ENDBRANCH   6   7
ENDBRANCH   5   6
ENDBRANCH   4   5
ENDBRANCH   3   4
ENDBRANCH   2   3
ENDBRANCH   1   2
BRANCH   1  10
ATOM     10  C   UNL     1     -20.017 -31.445  20.019  1.00  0.00     0.000 C 
BRANCH  10  11
ATOM     11  C   UNL     1     -19.684 -32.928  19.778  1.00  0.00    -0.000 C 
BRANCH  11  12
ATOM     12  C   UNL     1     -18.539 -33.496  20.640  1.00  0.00    -0.000 C 
BRANCH  12  13
ATOM     13  C   UNL     1     -18.088 -32.596  21.809  1.00  0.00    -0.000 C 
BRANCH  13  14
ATOM     14  C   UNL     1     -16.665 -32.024  21.677  1.00  0.00    -0.000 C 
BRANCH  14  15
ATOM     15  C   UNL     1     -15.555 -33.081  21.522  1.00  0.00    -0.000 C 
BRANCH  15  16
ATOM     16  C   UNL     1     -15.115 -33.312  20.061  1.00  0.00    -0.003 C 
ATOM     17  C   UNL     1     -13.775 -32.653  19.738  1.00  0.00     0.004 C 
ENDBRANCH  15  16
ENDBRANCH  14  15
ENDBRANCH  13  14
ENDBRANCH  12  13
ENDBRANCH  11  12
ENDBRANCH  10  11
ENDBRANCH   1  10
TORSDOF 13
ENDMDL
MODEL 2
REMARK VINA RESULT:    -4.288      3.095      4.861
REMARK INTER + INTRA:          -9.392
REMARK INTER:                  -7.666
REMARK INTRA:                  -1.725
REMARK UNBOUND:                -1.845
REMARK SMILES CCCCCCCCCCCCCCC(=O)[O-]
REMARK SMILES IDX 9 1 10 2 11 3 12 4 13 5 14 6 15 7 16 8 17 9 8 10 7 11 6 12
REMARK SMILES IDX 5 13 4 14 3 15 2 16 1 17
REMARK H PARENT
REMARK Flexibility Score: inf
ROOT
ATOM      1  C   UNL     1     -19.043 -31.720  20.591  1.00  0.00     0.000 C 
ENDROOT
BRANCH   1   2
ATOM      2  C   UNL     1     -20.308 -31.073  19.998  1.00  0.00     0.000 C 
BRANCH   2   3
ATOM      3  C   UNL     1     -20.050 -29.977  18.947  1.00  0.00     0.000 C 
BRANCH   3   4
ATOM      4  C   UNL     1     -18.608 -29.445  18.979  1.00  0.00     0.000 C 
BRANCH   4   5
ATOM      5  C   UNL     1     -17.791 -29.866  17.743  1.00  0.00     0.006 C 
BRANCH   5   6
ATOM      6  C   UNL     1     -16.433 -30.507  18.075  1.00  0.00     0.053 C 
BRANCH   6   7
ATOM      7  C   UNL     1     -15.739 -31.016  16.851  1.00  0.00     0.041 C 
ATOM      8  O   UNL     1     -16.101 -30.627  15.709  1.00  0.00    -0.550 OA
ATOM      9  O   UNL     1     -14.713 -31.945  16.968  1.00  0.00    -0.550 OA
ENDBRANCH   6   7
ENDBRANCH   5   6
ENDBRANCH   4   5
ENDBRANCH   3   4
ENDBRANCH   2   3
ENDBRANCH   1   2
BRANCH   1  10
ATOM     10  C   UNL     1     -18.867 -33.189  20.168  1.00  0.00     0.000 C 
BRANCH  10  11
ATOM     11  C   UNL     1     -19.569 -33.516  18.838  1.00  0.00    -0.000 C 
BRANCH  11  12
ATOM     12  C   UNL     1     -18.655 -33.534  17.597  1.00  0.00    -0.000 C 
BRANCH  12  13
ATOM     13  C   UNL     1     -19.250 -32.884  16.332  1.00  0.00    -0.000 C 
BRANCH  13  14
ATOM     14  C   UNL     1     -19.975 -33.856  15.382  1.00  0.00    -0.000 C 
BRANCH  14  15
ATOM     15  C   UNL     1     -19.315 -34.022  14.000  1.00  0.00    -0.000 C 
BRANCH  15  16
ATOM     16  C   UNL     1     -17.807 -33.693  13.986  1.00  0.00    -0.003 C 
ATOM     17  C   UNL     1     -17.462 -32.550  13.033  1.00  0.00     0.004 C 
ENDBRANCH  15  16
ENDBRANCH  14  15
ENDBRANCH  13  14
ENDBRANCH  12  13
ENDBRANCH  11  12
ENDBRANCH  10  11
ENDBRANCH   1  10
TORSDOF 13
ENDMDL
MODEL 3
REMARK VINA RESULT:    -4.254      1.374      3.006
REMARK INTER + INTRA:          -9.331
REMARK INTER:                  -7.235
REMARK INTRA:                  -2.097
REMARK UNBOUND:                -1.845
REMARK SMILES CCCCCCCCCCCCCCC(=O)[O-]
REMARK SMILES IDX 9 1 10 2 11 3 12 4 13 5 14 6 15 7 16 8 17 9 8 10 7 11 6 12
REMARK SMILES IDX 5 13 4 14 3 15 2 16 1 17
REMARK H PARENT
REMARK Flexibility Score: inf
ROOT
ATOM      1  C   UNL     1     -18.515 -33.549  20.509  1.00  0.00     0.000 C 
ENDROOT
BRANCH   1   2
ATOM      2  C   UNL     1     -19.325 -32.777  19.452  1.00  0.00     0.000 C 
BRANCH   2   3
ATOM      3  C   UNL     1     -20.005 -31.493  19.959  1.00  0.00     0.000 C 
BRANCH   3   4
ATOM      4  C   UNL     1     -19.893 -30.323  18.967  1.00  0.00     0.000 C 
BRANCH   4   5
ATOM      5  C   UNL     1     -18.560 -30.322  18.196  1.00  0.00     0.006 C 
BRANCH   5   6
ATOM      6  C   UNL     1     -18.021 -28.918  17.873  1.00  0.00     0.053 C 
BRANCH   6   7
ATOM      7  C   UNL     1     -17.718 -28.136  19.112  1.00  0.00     0.041 C 
ATOM      8  O   UNL     1     -18.244 -27.006  19.294  1.00  0.00    -0.550 OA
ATOM      9  O   UNL     1     -16.826 -28.638  20.052  1.00  0.00    -0.550 OA
ENDBRANCH   6   7
ENDBRANCH   5   6
ENDBRANCH   4   5
ENDBRANCH   3   4
ENDBRANCH   2   3
ENDBRANCH   1   2
BRANCH   1  10
ATOM     10  C   UNL     1     -18.081 -32.668  21.693  1.00  0.00     0.000 C 
BRANCH  10  11
ATOM     11  C   UNL     1     -16.703 -32.017  21.480  1.00  0.00    -0.000 C 
BRANCH  11  12
ATOM     12  C   UNL     1     -15.525 -33.001  21.335  1.00  0.00    -0.000 C 
BRANCH  12  13
ATOM     13  C   UNL     1     -14.711 -32.865  20.032  1.00  0.00    -0.000 C 
BRANCH  13  14
ATOM     14  C   UNL     1     -15.199 -31.764  19.073  1.00  0.00    -0.000 C 
BRANCH  14  15
ATOM     15  C   UNL     1     -15.460 -32.232  17.629  1.00  0.00    -0.000 C 
BRANCH  15  16
ATOM     16  C   UNL     1     -15.664 -33.756  17.496  1.00  0.00    -0.003 C 
ATOM     17  C   UNL     1     -17.080 -34.125  17.056  1.00  0.00     0.004 C 
ENDBRANCH  15  16
ENDBRANCH  14  15
ENDBRANCH  13  14
ENDBRANCH  12  13
ENDBRANCH  11  12
ENDBRANCH  10  11
ENDBRANCH   1  10
TORSDOF 13
ENDMDL
MODEL 4
REMARK VINA RESULT:    -4.236      2.447      4.431
REMARK INTER + INTRA:          -9.300
REMARK INTER:                  -7.312
REMARK INTRA:                  -1.987
REMARK UNBOUND:                -1.845
REMARK SMILES CCCCCCCCCCCCCCC(=O)[O-]
REMARK SMILES IDX 9 1 10 2 11 3 12 4 13 5 14 6 15 7 16 8 17 9 8 10 7 11 6 12
REMARK SMILES IDX 5 13 4 14 3 15 2 16 1 17
REMARK H PARENT
REMARK Flexibility Score: inf
ROOT
ATOM      1  C   UNL     1     -18.564 -33.423  20.168  1.00  0.00     0.000 C 
ENDROOT
BRANCH   1   2
ATOM      2  C   UNL     1     -18.922 -31.998  20.630  1.00  0.00     0.000 C 
BRANCH   2   3
ATOM      3  C   UNL     1     -20.202 -31.411  20.006  1.00  0.00     0.000 C 
BRANCH   3   4
ATOM      4  C   UNL     1     -19.927 -30.191  19.111  1.00  0.00     0.000 C 
BRANCH   4   5
ATOM      5  C   UNL     1     -18.433 -29.824  19.048  1.00  0.00     0.006 C 
BRANCH   5   6
ATOM      6  C   UNL     1     -17.774 -30.105  17.687  1.00  0.00     0.053 C 
BRANCH   6   7
ATOM      7  C   UNL     1     -16.815 -29.025  17.294  1.00  0.00     0.041 C 
ATOM      8  O   UNL     1     -15.574 -29.234  17.331  1.00  0.00    -0.550 OA
ATOM      9  O   UNL     1     -17.292 -27.774  16.920  1.00  0.00    -0.550 OA
ENDBRANCH   6   7
ENDBRANCH   5   6
ENDBRANCH   4   5
ENDBRANCH   3   4
ENDBRANCH   2   3
ENDBRANCH   1   2
BRANCH   1  10
ATOM     10  C   UNL     1     -17.410 -33.451  19.151  1.00  0.00     0.000 C 
BRANCH  10  11
ATOM     11  C   UNL     1     -17.836 -34.011  17.781  1.00  0.00    -0.000 C 
BRANCH  11  12
ATOM     12  C   UNL     1     -19.270 -33.655  17.341  1.00  0.00    -0.000 C 
BRANCH  12  13
ATOM     13  C   UNL     1     -19.385 -32.986  15.956  1.00  0.00    -0.000 C 
BRANCH  13  14
ATOM     14  C   UNL     1     -18.660 -33.723  14.816  1.00  0.00    -0.000 C 
BRANCH  14  15
ATOM     15  C   UNL     1     -17.749 -32.834  13.947  1.00  0.00    -0.000 C 
BRANCH  15  16
ATOM     16  C   UNL     1     -16.619 -32.141  14.736  1.00  0.00    -0.003 C 
ATOM     17  C   UNL     1     -15.466 -33.088  15.067  1.00  0.00     0.004 C 
ENDBRANCH  15  16
ENDBRANCH  14  15
ENDBRANCH  13  14
ENDBRANCH  12  13
ENDBRANCH  11  12
ENDBRANCH  10  11
ENDBRANCH   1  10
TORSDOF 13
ENDMDL
MODEL 5
REMARK VINA RESULT:    -4.190      1.641      4.172
REMARK INTER + INTRA:          -9.219
REMARK INTER:                  -7.297
REMARK INTRA:                  -1.921
REMARK UNBOUND:                -1.845
REMARK SMILES CCCCCCCCCCCCCCC(=O)[O-]
REMARK SMILES IDX 9 1 10 2 11 3 12 4 13 5 14 6 15 7 16 8 17 9 8 10 7 11 6 12
REMARK SMILES IDX 5 13 4 14 3 15 2 16 1 17
REMARK H PARENT
REMARK Flexibility Score: inf
ROOT
ATOM      1  C   UNL     1     -18.125 -32.324  21.763  1.00  0.00     0.000 C 
ENDROOT
BRANCH   1   2
ATOM      2  C   UNL     1     -18.686 -33.329  20.740  1.00  0.00     0.000 C 
BRANCH   2   3
ATOM      3  C   UNL     1     -19.600 -32.721  19.660  1.00  0.00     0.000 C 
BRANCH   3   4
ATOM      4  C   UNL     1     -20.052 -31.290  19.994  1.00  0.00     0.000 C 
BRANCH   4   5
ATOM      5  C   UNL     1     -19.620 -30.265  18.929  1.00  0.00     0.006 C 
BRANCH   5   6
ATOM      6  C   UNL     1     -18.248 -29.623  19.193  1.00  0.00     0.053 C 
BRANCH   6   7
ATOM      7  C   UNL     1     -18.125 -28.278  18.548  1.00  0.00     0.041 C 
ATOM      8  O   UNL     1     -17.654 -28.173  17.385  1.00  0.00    -0.550 OA
ATOM      9  O   UNL     1     -18.499 -27.136  19.245  1.00  0.00    -0.550 OA
ENDBRANCH   6   7
ENDBRANCH   5   6
ENDBRANCH   4   5
ENDBRANCH   3   4
ENDBRANCH   2   3
ENDBRANCH   1   2
BRANCH   1  10
ATOM     10  C   UNL     1     -16.620 -32.062  21.582  1.00  0.00     0.000 C 
BRANCH  10  11
ATOM     11  C   UNL     1     -15.980 -32.967  20.514  1.00  0.00    -0.000 C 
BRANCH  11  12
ATOM     12  C   UNL     1     -15.704 -32.289  19.156  1.00  0.00    -0.000 C 
BRANCH  12  13
ATOM     13  C   UNL     1     -16.099 -33.116  17.916  1.00  0.00    -0.000 C 
BRANCH  13  14
ATOM     14  C   UNL     1     -17.089 -32.423  16.962  1.00  0.00    -0.000 C 
BRANCH  14  15
ATOM     15  C   UNL     1     -17.101 -32.979  15.526  1.00  0.00    -0.000 C 
BRANCH  15  16
ATOM     16  C   UNL     1     -18.501 -33.000  14.878  1.00  0.00    -0.003 C 
ATOM     17  C   UNL     1     -19.624 -33.118  15.907  1.00  0.00     0.004 C 
ENDBRANCH  15  16
ENDBRANCH  14  15
ENDBRANCH  13  14
ENDBRANCH  12  13
ENDBRANCH  11  12
ENDBRANCH  10  11
ENDBRANCH   1  10
TORSDOF 13
ENDMDL
MODEL 6
REMARK VINA RESULT:    -4.175      2.209      3.985
REMARK INTER + INTRA:          -9.192
REMARK INTER:                  -7.589
REMARK INTRA:                  -1.603
REMARK UNBOUND:                -1.845
REMARK SMILES CCCCCCCCCCCCCCC(=O)[O-]
REMARK SMILES IDX 9 1 10 2 11 3 12 4 13 5 14 6 15 7 16 8 17 9 8 10 7 11 6 12
REMARK SMILES IDX 5 13 4 14 3 15 2 16 1 17
REMARK H PARENT
REMARK Flexibility Score: inf
ROOT
ATOM      1  C   UNL     1     -18.843 -31.824  20.526  1.00  0.00     0.000 C 
ENDROOT
BRANCH   1   2
ATOM      2  C   UNL     1     -20.158 -31.236  19.982  1.00  0.00     0.000 C 
BRANCH   2   3
ATOM      3  C   UNL     1     -19.993 -30.191  18.864  1.00  0.00     0.000 C 
BRANCH   3   4
ATOM      4  C   UNL     1     -18.643 -30.300  18.136  1.00  0.00     0.000 C 
BRANCH   4   5
ATOM      5  C   UNL     1     -18.053 -28.928  17.765  1.00  0.00     0.006 C 
BRANCH   5   6
ATOM      6  C   UNL     1     -18.208 -27.860  18.861  1.00  0.00     0.053 C 
BRANCH   6   7
ATOM      7  C   UNL     1     -17.028 -27.826  19.781  1.00  0.00     0.041 C 
ATOM      8  O   UNL     1     -16.406 -26.748  19.977  1.00  0.00    -0.550 OA
ATOM      9  O   UNL     1     -16.592 -28.992  20.397  1.00  0.00    -0.550 OA
ENDBRANCH   6   7
ENDBRANCH   5   6
ENDBRANCH   4   5
ENDBRANCH   3   4
ENDBRANCH   2   3
ENDBRANCH   1   2
BRANCH   1  10
ATOM     10  C   UNL     1     -18.658 -33.310  20.172  1.00  0.00     0.000 C 
BRANCH  10  11
ATOM     11  C   UNL     1     -17.459 -33.557  19.239  1.00  0.00    -0.000 C 
BRANCH  11  12
ATOM     12  C   UNL     1     -17.817 -34.058  17.825  1.00  0.00    -0.000 C 
BRANCH  12  13
ATOM     13  C   UNL     1     -19.290 -33.866  17.413  1.00  0.00    -0.000 C 
BRANCH  13  14
ATOM     14  C   UNL     1     -19.500 -33.174  16.053  1.00  0.00    -0.000 C 
BRANCH  14  15
ATOM     15  C   UNL     1     -18.206 -32.713  15.355  1.00  0.00    -0.000 C 
BRANCH  15  16
ATOM     16  C   UNL     1     -18.148 -33.070  13.855  1.00  0.00    -0.003 C 
ATOM     17  C   UNL     1     -16.740 -32.942  13.274  1.00  0.00     0.004 C 
ENDBRANCH  15  16
ENDBRANCH  14  15
ENDBRANCH  13  14
ENDBRANCH  12  13
ENDBRANCH  11  12
ENDBRANCH  10  11
ENDBRANCH   1  10
TORSDOF 13
ENDMDL
MODEL 7
REMARK VINA RESULT:    -4.161      3.126      4.951
REMARK INTER + INTRA:          -9.168
REMARK INTER:                  -6.965
REMARK INTRA:                  -2.203
REMARK UNBOUND:                -1.845
REMARK SMILES CCCCCCCCCCCCCCC(=O)[O-]
REMARK SMILES IDX 9 1 10 2 11 3 12 4 13 5 14 6 15 7 16 8 17 9 8 10 7 11 6 12
REMARK SMILES IDX 5 13 4 14 3 15 2 16 1 17
REMARK H PARENT
REMARK Flexibility Score: inf
ROOT
ATOM      1  C   UNL     1     -15.906 -33.063  20.744  1.00  0.00     0.000 C 
ENDROOT
BRANCH   1   2
ATOM      2  C   UNL     1     -15.870 -34.015  19.534  1.00  0.00     0.000 C 
BRANCH   2   3
ATOM      3  C   UNL     1     -15.501 -33.354  18.193  1.00  0.00     0.000 C 
BRANCH   3   4
ATOM      4  C   UNL     1     -16.472 -32.232  17.791  1.00  0.00     0.000 C 
BRANCH   4   5
ATOM      5  C   UNL     1     -17.163 -32.498  16.441  1.00  0.00     0.006 C 
BRANCH   5   6
ATOM      6  C   UNL     1     -18.542 -33.170  16.562  1.00  0.00     0.053 C 
BRANCH   6   7
ATOM      7  C   UNL     1     -19.159 -33.425  15.223  1.00  0.00     0.041 C 
ATOM      8  O   UNL     1     -18.568 -33.063  14.171  1.00  0.00    -0.550 OA
ATOM      9  O   UNL     1     -20.405 -34.034  15.136  1.00  0.00    -0.550 OA
ENDBRANCH   6   7
ENDBRANCH   5   6
ENDBRANCH   4   5
ENDBRANCH   3   4
ENDBRANCH   2   3
ENDBRANCH   1   2
BRANCH   1  10
ATOM     10  C   UNL     1     -17.315 -32.906  21.341  1.00  0.00     0.000 C 
BRANCH  10  11
ATOM     11  C   UNL     1     -18.376 -33.736  20.596  1.00  0.00    -0.000 C 
BRANCH  11  12
ATOM     12  C   UNL     1     -19.566 -32.932  20.033  1.00  0.00    -0.000 C 
BRANCH  12  13
ATOM     13  C   UNL     1     -19.517 -31.413  20.298  1.00  0.00    -0.000 C 
BRANCH  13  14
ATOM     14  C   UNL     1     -19.755 -30.530  19.059  1.00  0.00    -0.000 C 
BRANCH  14  15
ATOM     15  C   UNL     1     -18.688 -29.444  18.824  1.00  0.00    -0.000 C 
BRANCH  15  16
ATOM     16  C   UNL     1     -17.506 -29.509  19.814  1.00  0.00    -0.003 C 
ATOM     17  C   UNL     1     -16.293 -28.712  19.336  1.00  0.00     0.004 C 
ENDBRANCH  15  16
ENDBRANCH  14  15
ENDBRANCH  13  14
ENDBRANCH  12  13
ENDBRANCH  11  12
ENDBRANCH  10  11
ENDBRANCH   1  10
TORSDOF 13
ENDMDL
MODEL 8
REMARK VINA RESULT:    -4.116      2.874      5.218
REMARK INTER + INTRA:          -9.088
REMARK INTER:                  -6.563
REMARK INTRA:                  -2.526
REMARK UNBOUND:                -1.845
REMARK SMILES CCCCCCCCCCCCCCC(=O)[O-]
REMARK SMILES IDX 9 1 10 2 11 3 12 4 13 5 14 6 15 7 16 8 17 9 8 10 7 11 6 12
REMARK SMILES IDX 5 13 4 14 3 15 2 16 1 17
REMARK H PARENT
REMARK Flexibility Score: inf
ROOT
ATOM      1  C   UNL     1     -18.357 -33.729  20.757  1.00  0.00     0.000 C 
ENDROOT
BRANCH   1   2
ATOM      2  C   UNL     1     -17.841 -32.627  21.701  1.00  0.00     0.000 C 
BRANCH   2   3
ATOM      3  C   UNL     1     -16.312 -32.576  21.872  1.00  0.00     0.000 C 
BRANCH   3   4
ATOM      4  C   UNL     1     -15.578 -33.618  21.011  1.00  0.00     0.000 C 
BRANCH   4   5
ATOM      5  C   UNL     1     -14.381 -33.023  20.248  1.00  0.00     0.006 C 
BRANCH   5   6
ATOM      6  C   UNL     1     -13.765 -33.972  19.205  1.00  0.00     0.053 C 
BRANCH   6   7
ATOM      7  C   UNL     1     -12.811 -33.263  18.296  1.00  0.00     0.041 C 
ATOM      8  O   UNL     1     -13.194 -32.267  17.626  1.00  0.00    -0.550 OA
ATOM      9  O   UNL     1     -11.507 -33.722  18.162  1.00  0.00    -0.550 OA
ENDBRANCH   6   7
ENDBRANCH   5   6
ENDBRANCH   4   5
ENDBRANCH   3   4
ENDBRANCH   2   3
ENDBRANCH   1   2
BRANCH   1  10
ATOM     10  C   UNL     1     -19.528 -33.263  19.874  1.00  0.00     0.000 C 
BRANCH  10  11
ATOM     11  C   UNL     1     -19.183 -33.268  18.374  1.00  0.00    -0.000 C 
BRANCH  11  12
ATOM     12  C   UNL     1     -17.793 -33.833  18.019  1.00  0.00    -0.000 C 
BRANCH  12  13
ATOM     13  C   UNL     1     -16.789 -32.806  17.458  1.00  0.00    -0.000 C 
BRANCH  13  14
ATOM     14  C   UNL     1     -17.250 -31.339  17.536  1.00  0.00    -0.000 C 
BRANCH  14  15
ATOM     15  C   UNL     1     -16.540 -30.494  18.612  1.00  0.00    -0.000 C 
BRANCH  15  16
ATOM     16  C   UNL     1     -17.506 -29.807  19.600  1.00  0.00    -0.003 C 
ATOM     17  C   UNL     1     -18.767 -29.277  18.919  1.00  0.00     0.004 C 
ENDBRANCH  15  16
ENDBRANCH  14  15
ENDBRANCH  13  14
ENDBRANCH  12  13
ENDBRANCH  11  12
ENDBRANCH  10  11
ENDBRANCH   1  10
TORSDOF 13
ENDMDL
MODEL 9
REMARK VINA RESULT:    -4.116      2.431      5.239
REMARK INTER + INTRA:          -9.088
REMARK INTER:                  -7.230
REMARK INTRA:                  -1.859
REMARK UNBOUND:                -1.845
REMARK SMILES CCCCCCCCCCCCCCC(=O)[O-]
REMARK SMILES IDX 9 1 10 2 11 3 12 4 13 5 14 6 15 7 16 8 17 9 8 10 7 11 6 12
REMARK SMILES IDX 5 13 4 14 3 15 2 16 1 17
REMARK H PARENT
REMARK Flexibility Score: inf
ROOT
ATOM      1  C   UNL     1     -19.667 -31.408  20.119  1.00  0.00     0.000 C 
ENDROOT
BRANCH   1   2
ATOM      2  C   UNL     1     -19.545 -32.936  19.976  1.00  0.00     0.000 C 
BRANCH   2   3
ATOM      3  C   UNL     1     -18.365 -33.571  20.733  1.00  0.00     0.000 C 
BRANCH   3   4
ATOM      4  C   UNL     1     -17.598 -32.560  21.603  1.00  0.00     0.000 C 
BRANCH   4   5
ATOM      5  C   UNL     1     -16.082 -32.828  21.631  1.00  0.00     0.006 C 
BRANCH   5   6
ATOM      6  C   UNL     1     -15.612 -33.890  20.622  1.00  0.00     0.053 C 
BRANCH   6   7
ATOM      7  C   UNL     1     -14.616 -33.338  19.651  1.00  0.00     0.041 C 
ATOM      8  O   UNL     1     -13.695 -32.577  20.050  1.00  0.00    -0.550 OA
ATOM      9  O   UNL     1     -14.723 -33.638  18.298  1.00  0.00    -0.550 OA
ENDBRANCH   6   7
ENDBRANCH   5   6
ENDBRANCH   4   5
ENDBRANCH   3   4
ENDBRANCH   2   3
ENDBRANCH   1   2
BRANCH   1  10
ATOM     10  C   UNL     1     -19.464 -30.663  18.787  1.00  0.00     0.000 C 
BRANCH  10  11
ATOM     11  C   UNL     1     -18.682 -31.491  17.753  1.00  0.00    -0.000 C 
BRANCH  11  12
ATOM     12  C   UNL     1     -17.245 -31.006  17.471  1.00  0.00    -0.000 C 
BRANCH  12  13
ATOM     13  C   UNL     1     -16.514 -30.381  18.676  1.00  0.00    -0.000 C 
BRANCH  13  14
ATOM     14  C   UNL     1     -15.455 -29.323  18.317  1.00  0.00    -0.000 C 
BRANCH  14  15
ATOM     15  C   UNL     1     -15.886 -27.865  18.565  1.00  0.00    -0.000 C 
BRANCH  15  16
ATOM     16  C   UNL     1     -17.248 -27.503  17.936  1.00  0.00    -0.003 C 
ATOM     17  C   UNL     1     -18.293 -27.111  18.979  1.00  0.00     0.004 C 
ENDBRANCH  15  16
ENDBRANCH  14  15
ENDBRANCH  13  14
ENDBRANCH  12  13
ENDBRANCH  11  12
ENDBRANCH  10  11
ENDBRANCH   1  10
TORSDOF 13
ENDMDL
