MODEL 1
REMARK VINA RESULT:    -1.079      0.000      0.000
REMARK INTER + INTRA:          -0.916
REMARK INTER:                  -1.299
REMARK INTRA:                   0.383
REMARK UNBOUND:                 0.383
REMARK SMILES C=CCc1ccc(O)c(OC)c1
REMARK SMILES IDX 9 1 7 2 6 3 5 4 4 5 12 6 10 7 11 8 8 9 3 11 2 12 1 13
REMARK H PARENT 8 10
REMARK Flexibility Score: inf
ROOT
ATOM      1  C   UNL     1      -4.215  -9.587   5.366  1.00  0.00     0.160 A 
ATOM      2  C   UNL     1      -4.882  -9.771   4.140  1.00  0.00     0.157 A 
ATOM      3  C   UNL     1      -6.264  -9.987   4.121  1.00  0.00     0.050 A 
ATOM      4  C   UNL     1      -6.990 -10.028   5.312  1.00  0.00     0.008 A 
ATOM      5  C   UNL     1      -6.339  -9.859   6.542  1.00  0.00    -0.040 A 
ATOM      6  C   UNL     1      -4.955  -9.630   6.564  1.00  0.00     0.054 A 
ENDROOT
BRANCH   1   7
ATOM      7  O   UNL     1      -2.828  -9.366   5.354  1.00  0.00    -0.493 OA
ATOM      8  C   UNL     1      -1.910 -10.039   4.498  1.00  0.00     0.278 C 
ENDBRANCH   1   7
BRANCH   2   9
ATOM      9  O   UNL     1      -4.190  -9.737   2.930  1.00  0.00    -0.504 OA
ATOM     10  H   UNL     1      -3.538 -10.463   2.660  1.00  0.00     0.293 HD
ENDBRANCH   2   9
BRANCH   5  11
ATOM     11  C   UNL     1      -7.125  -9.873   7.827  1.00  0.00     0.062 C 
BRANCH  11  12
ATOM     12  C   UNL     1      -6.220 -10.121   9.002  1.00  0.00    -0.030 C 
ATOM     13  C   UNL     1      -6.608  -9.858  10.254  1.00  0.00     0.004 C 
ENDBRANCH  11  12
ENDBRANCH   5  11
TORSDOF 4
ENDMDL
MODEL 2
REMARK VINA RESULT:     0.413      1.724      2.289
REMARK INTER + INTRA:           0.881
REMARK INTER:                   1.092
REMARK INTRA:                  -0.211
REMARK UNBOUND:                 0.383
REMARK SMILES C=CCc1ccc(O)c(OC)c1
REMARK SMILES IDX 9 1 7 2 6 3 5 4 4 5 12 6 10 7 11 8 8 9 3 11 2 12 1 13
REMARK H PARENT 8 10
REMARK Flexibility Score: inf
ROOT
ATOM      1  C   UNL     1      -3.011  -8.575   6.170  1.00  0.00     0.160 A 
ATOM      2  C   UNL     1      -2.788  -9.427   5.072  1.00  0.00     0.157 A 
ATOM      3  C   UNL     1      -3.855 -10.125   4.499  1.00  0.00     0.050 A 
ATOM      4  C   UNL     1      -5.146  -9.988   5.011  1.00  0.00     0.008 A 
ATOM      5  C   UNL     1      -5.385  -9.153   6.112  1.00  0.00    -0.040 A 
ATOM      6  C   UNL     1      -4.317  -8.442   6.682  1.00  0.00     0.054 A 
ENDROOT
BRANCH   1   7
ATOM      7  O   UNL     1      -1.922  -7.881   6.721  1.00  0.00    -0.493 OA
ATOM      8  C   UNL     1      -2.035  -6.753   7.583  1.00  0.00     0.278 C 
ENDBRANCH   1   7
BRANCH   2   9
ATOM      9  O   UNL     1      -1.511  -9.589   4.533  1.00  0.00    -0.504 OA
ATOM     10  H   UNL     1      -0.777 -10.085   5.024  1.00  0.00     0.293 HD
ENDBRANCH   2   9
BRANCH   5  11
ATOM     11  C   UNL     1      -6.781  -8.980   6.648  1.00  0.00     0.062 C 
BRANCH  11  12
ATOM     12  C   UNL     1      -7.091 -10.031   7.677  1.00  0.00    -0.030 C 
ATOM     13  C   UNL     1      -6.850  -9.834   8.977  1.00  0.00     0.004 C 
ENDBRANCH  11  12
ENDBRANCH   5  11
TORSDOF 4
ENDMDL
MODEL 3
REMARK VINA RESULT:     1.367      2.396      3.531
REMARK INTER + INTRA:           2.030
REMARK INTER:                   2.266
REMARK INTRA:                  -0.236
REMARK UNBOUND:                 0.383
REMARK SMILES C=CCc1ccc(O)c(OC)c1
REMARK SMILES IDX 9 1 7 2 6 3 5 4 4 5 12 6 10 7 11 8 8 9 3 11 2 12 1 13
REMARK H PARENT 8 10
REMARK Flexibility Score: inf
ROOT
ATOM      1  C   UNL     1      -2.872  -8.837   6.117  1.00  0.00     0.160 A 
ATOM      2  C   UNL     1      -2.215  -9.417   5.015  1.00  0.00     0.157 A 
ATOM      3  C   UNL     1      -2.956 -10.054   4.014  1.00  0.00     0.050 A 
ATOM      4  C   UNL     1      -4.348 -10.125   4.101  1.00  0.00     0.008 A 
ATOM      5  C   UNL     1      -5.016  -9.563   5.198  1.00  0.00    -0.040 A 
ATOM      6  C   UNL     1      -4.276  -8.913   6.198  1.00  0.00     0.054 A 
ENDROOT
BRANCH   1   7
ATOM      7  O   UNL     1      -2.103  -8.199   7.104  1.00  0.00    -0.493 OA
ATOM      8  C   UNL     1      -1.820  -6.803   7.129  1.00  0.00     0.278 C 
ENDBRANCH   1   7
BRANCH   2   9
ATOM      9  O   UNL     1      -0.827  -9.366   4.894  1.00  0.00    -0.504 OA
ATOM     10  H   UNL     1      -0.357  -9.493   4.006  1.00  0.00     0.293 HD
ENDBRANCH   2   9
BRANCH   5  11
ATOM     11  C   UNL     1      -6.519  -9.612   5.280  1.00  0.00     0.062 C 
BRANCH  11  12
ATOM     12  C   UNL     1      -7.120  -8.301   4.856  1.00  0.00    -0.030 C 
ATOM     13  C   UNL     1      -7.122  -7.910   3.577  1.00  0.00     0.004 C 
ENDBRANCH  11  12
ENDBRANCH   5  11
TORSDOF 4
ENDMDL
