MODEL 1
REMARK VINA RESULT:    -5.484      0.000      0.000
REMARK INTER + INTRA:          -6.088
REMARK INTER:                  -5.964
REMARK INTRA:                  -0.124
REMARK UNBOUND:                -0.124
REMARK SMILES Cc1ccc(C(C)C)cc1O
REMARK SMILES IDX 1 1 2 2 10 3 9 4 5 5 4 6 3 7 11 8 6 10 7 11 8 12
REMARK H PARENT 11 9
REMARK Flexibility Score: inf
ROOT
ATOM      1  C   UNL     1     171.408 171.074 175.551  1.00  0.00     0.048 C 
ATOM      2  C   UNL     1     171.879 171.728 176.819  1.00  0.00    -0.009 A 
ATOM      3  C   UNL     1     173.163 171.455 177.323  1.00  0.00     0.118 A 
ATOM      4  C   UNL     1     173.595 172.069 178.507  1.00  0.00     0.050 A 
ATOM      5  C   UNL     1     172.758 172.960 179.201  1.00  0.00    -0.042 A 
ATOM      6  C   UNL     1     171.476 173.227 178.690  1.00  0.00     0.004 A 
ATOM      7  C   UNL     1     171.042 172.617 177.510  1.00  0.00     0.007 A 
ENDROOT
BRANCH   3   8
ATOM      8  O   UNL     1     174.004 170.573 176.646  1.00  0.00    -0.508 OA
ATOM      9  H   UNL     1     174.707 170.903 175.995  1.00  0.00     0.293 HD
ENDBRANCH   3   8
BRANCH   5  10
ATOM     10  C   UNL     1     173.243 173.616 180.480  1.00  0.00     0.013 C 
ATOM     11  C   UNL     1     172.140 173.637 181.544  1.00  0.00     0.012 C 
ATOM     12  C   UNL     1     174.507 172.927 181.009  1.00  0.00     0.012 C 
ENDBRANCH   5  10
TORSDOF 2
ENDMDL
MODEL 2
REMARK VINA RESULT:    -5.481      2.897      3.300
REMARK INTER + INTRA:          -6.085
REMARK INTER:                  -5.958
REMARK INTRA:                  -0.127
REMARK UNBOUND:                -0.124
REMARK SMILES Cc1ccc(C(C)C)cc1O
REMARK SMILES IDX 1 1 2 2 10 3 9 4 5 5 4 6 3 7 11 8 6 10 7 11 8 12
REMARK H PARENT 11 9
REMARK Flexibility Score: inf
ROOT
ATOM      1  C   UNL     1     174.430 176.136 175.295  1.00  0.00     0.048 C 
ATOM      2  C   UNL     1     174.167 175.292 176.510  1.00  0.00    -0.009 A 
ATOM      3  C   UNL     1     175.156 174.418 176.994  1.00  0.00     0.118 A 
ATOM      4  C   UNL     1     174.902 173.633 178.128  1.00  0.00     0.050 A 
ATOM      5  C   UNL     1     173.666 173.710 178.792  1.00  0.00    -0.042 A 
ATOM      6  C   UNL     1     172.682 174.586 178.301  1.00  0.00     0.004 A 
ATOM      7  C   UNL     1     172.931 175.370 177.172  1.00  0.00     0.007 A 
ENDROOT
BRANCH   3   8
ATOM      8  O   UNL     1     176.387 174.331 176.345  1.00  0.00    -0.508 OA
ATOM      9  H   UNL     1     176.466 173.972 175.401  1.00  0.00     0.293 HD
ENDBRANCH   3   8
BRANCH   5  10
ATOM     10  C   UNL     1     173.409 172.853 180.019  1.00  0.00     0.013 C 
ATOM     11  C   UNL     1     174.590 172.917 180.994  1.00  0.00     0.012 C 
ATOM     12  C   UNL     1     172.101 173.255 180.709  1.00  0.00     0.012 C 
ENDBRANCH   5  10
TORSDOF 2
ENDMDL
MODEL 3
REMARK VINA RESULT:    -5.471      2.732      3.524
REMARK INTER + INTRA:          -6.075
REMARK INTER:                  -5.950
REMARK INTRA:                  -0.124
REMARK UNBOUND:                -0.124
REMARK SMILES Cc1ccc(C(C)C)cc1O
REMARK SMILES IDX 1 1 2 2 10 3 9 4 5 5 4 6 3 7 11 8 6 10 7 11 8 12
REMARK H PARENT 11 9
REMARK Flexibility Score: inf
ROOT
ATOM      1  C   UNL     1     174.886 175.290 175.541  1.00  0.00     0.048 C 
ATOM      2  C   UNL     1     174.427 174.631 176.811  1.00  0.00    -0.009 A 
ATOM      3  C   UNL     1     173.135 174.875 177.309  1.00  0.00     0.118 A 
ATOM      4  C   UNL     1     172.714 174.256 178.495  1.00  0.00     0.050 A 
ATOM      5  C   UNL     1     173.571 173.391 179.197  1.00  0.00    -0.042 A 
ATOM      6  C   UNL     1     174.862 173.155 178.692  1.00  0.00     0.004 A 
ATOM      7  C   UNL     1     175.284 173.768 177.511  1.00  0.00     0.007 A 
ENDROOT
BRANCH   3   8
ATOM      8  O   UNL     1     172.273 175.731 176.624  1.00  0.00    -0.508 OA
ATOM      9  H   UNL     1     172.142 175.662 175.621  1.00  0.00     0.293 HD
ENDBRANCH   3   8
BRANCH   5  10
ATOM     10  C   UNL     1     173.098 172.731 180.479  1.00  0.00     0.013 C 
ATOM     11  C   UNL     1     174.217 172.688 181.525  1.00  0.00     0.012 C 
ATOM     12  C   UNL     1     171.851 173.431 181.033  1.00  0.00     0.012 C 
ENDBRANCH   5  10
TORSDOF 2
ENDMDL
MODEL 4
REMARK VINA RESULT:    -5.420      1.457      2.060
REMARK INTER + INTRA:          -6.019
REMARK INTER:                  -5.892
REMARK INTRA:                  -0.127
REMARK UNBOUND:                -0.124
REMARK SMILES Cc1ccc(C(C)C)cc1O
REMARK SMILES IDX 1 1 2 2 10 3 9 4 5 5 4 6 3 7 11 8 6 10 7 11 8 12
REMARK H PARENT 11 9
REMARK Flexibility Score: inf
ROOT
ATOM      1  C   UNL     1     171.875 170.280 175.235  1.00  0.00     0.048 C 
ATOM      2  C   UNL     1     172.156 171.102 176.461  1.00  0.00    -0.009 A 
ATOM      3  C   UNL     1     171.165 171.946 176.991  1.00  0.00     0.118 A 
ATOM      4  C   UNL     1     171.435 172.710 178.136  1.00  0.00     0.050 A 
ATOM      5  C   UNL     1     172.690 172.642 178.765  1.00  0.00    -0.042 A 
ATOM      6  C   UNL     1     173.676 171.795 178.227  1.00  0.00     0.004 A 
ATOM      7  C   UNL     1     173.410 171.032 177.088  1.00  0.00     0.007 A 
ENDROOT
BRANCH   3   8
ATOM      8  O   UNL     1     169.915 172.025 176.378  1.00  0.00    -0.508 OA
ATOM      9  H   UNL     1     169.819 172.048 175.370  1.00  0.00     0.293 HD
ENDBRANCH   3   8
BRANCH   5  10
ATOM     10  C   UNL     1     172.964 173.475 180.003  1.00  0.00     0.013 C 
ATOM     11  C   UNL     1     171.788 173.410 180.984  1.00  0.00     0.012 C 
ATOM     12  C   UNL     1     174.271 173.045 180.680  1.00  0.00     0.012 C 
ENDBRANCH   5  10
TORSDOF 2
ENDMDL
MODEL 5
REMARK VINA RESULT:    -5.407      2.634      4.237
REMARK INTER + INTRA:          -6.005
REMARK INTER:                  -5.880
REMARK INTRA:                  -0.126
REMARK UNBOUND:                -0.124
REMARK SMILES Cc1ccc(C(C)C)cc1O
REMARK SMILES IDX 1 1 2 2 10 3 9 4 5 5 4 6 3 7 11 8 6 10 7 11 8 12
REMARK H PARENT 11 9
REMARK Flexibility Score: inf
ROOT
ATOM      1  C   UNL     1     171.526 173.442 181.189  1.00  0.00     0.048 C 
ATOM      2  C   UNL     1     172.586 173.506 180.125  1.00  0.00    -0.009 A 
ATOM      3  C   UNL     1     173.857 172.952 180.356  1.00  0.00     0.118 A 
ATOM      4  C   UNL     1     174.840 173.016 179.358  1.00  0.00     0.050 A 
ATOM      5  C   UNL     1     174.571 173.630 178.123  1.00  0.00    -0.042 A 
ATOM      6  C   UNL     1     173.297 174.183 177.901  1.00  0.00     0.004 A 
ATOM      7  C   UNL     1     172.315 174.120 178.892  1.00  0.00     0.007 A 
ENDROOT
BRANCH   3   8
ATOM      8  O   UNL     1     174.139 172.339 181.577  1.00  0.00    -0.508 OA
ATOM      9  H   UNL     1     173.737 171.444 181.827  1.00  0.00     0.293 HD
ENDBRANCH   3   8
BRANCH   5  10
ATOM     10  C   UNL     1     175.647 173.690 177.055  1.00  0.00     0.013 C 
ATOM     11  C   UNL     1     175.421 172.618 175.983  1.00  0.00     0.012 C 
ATOM     12  C   UNL     1     175.728 175.087 176.429  1.00  0.00     0.012 C 
ENDBRANCH   5  10
TORSDOF 2
ENDMDL
MODEL 6
REMARK VINA RESULT:    -5.406      2.099      4.574
REMARK INTER + INTRA:          -6.003
REMARK INTER:                  -5.878
REMARK INTRA:                  -0.126
REMARK UNBOUND:                -0.124
REMARK SMILES Cc1ccc(C(C)C)cc1O
REMARK SMILES IDX 1 1 2 2 10 3 9 4 5 5 4 6 3 7 11 8 6 10 7 11 8 12
REMARK H PARENT 11 9
REMARK Flexibility Score: inf
ROOT
ATOM      1  C   UNL     1     174.801 172.935 181.150  1.00  0.00     0.048 C 
ATOM      2  C   UNL     1     173.761 172.880 180.066  1.00  0.00    -0.009 A 
ATOM      3  C   UNL     1     172.477 173.406 180.289  1.00  0.00     0.118 A 
ATOM      4  C   UNL     1     171.512 173.351 179.272  1.00  0.00     0.050 A 
ATOM      5  C   UNL     1     171.814 172.774 178.026  1.00  0.00    -0.042 A 
ATOM      6  C   UNL     1     173.101 172.250 177.813  1.00  0.00     0.004 A 
ATOM      7  C   UNL     1     174.065 172.304 178.823  1.00  0.00     0.007 A 
ENDROOT
BRANCH   3   8
ATOM      8  O   UNL     1     172.162 173.982 181.519  1.00  0.00    -0.508 OA
ATOM      9  H   UNL     1     171.770 173.435 182.276  1.00  0.00     0.293 HD
ENDBRANCH   3   8
BRANCH   5  10
ATOM     10  C   UNL     1     170.758 172.724 176.938  1.00  0.00     0.013 C 
ATOM     11  C   UNL     1     171.015 173.791 175.869  1.00  0.00     0.012 C 
ATOM     12  C   UNL     1     170.674 171.326 176.314  1.00  0.00     0.012 C 
ENDBRANCH   5  10
TORSDOF 2
ENDMDL
MODEL 7
REMARK VINA RESULT:    -5.348      1.593      4.272
REMARK INTER + INTRA:          -5.941
REMARK INTER:                  -5.815
REMARK INTRA:                  -0.126
REMARK UNBOUND:                -0.124
REMARK SMILES Cc1ccc(C(C)C)cc1O
REMARK SMILES IDX 1 1 2 2 10 3 9 4 5 5 4 6 3 7 11 8 6 10 7 11 8 12
REMARK H PARENT 11 9
REMARK Flexibility Score: inf
ROOT
ATOM      1  C   UNL     1     172.806 174.221 181.212  1.00  0.00     0.048 C 
ATOM      2  C   UNL     1     172.753 173.437 179.931  1.00  0.00    -0.009 A 
ATOM      3  C   UNL     1     173.888 172.744 179.477  1.00  0.00     0.118 A 
ATOM      4  C   UNL     1     173.830 172.015 178.280  1.00  0.00     0.050 A 
ATOM      5  C   UNL     1     172.646 171.968 177.524  1.00  0.00    -0.042 A 
ATOM      6  C   UNL     1     171.516 172.665 177.986  1.00  0.00     0.004 A 
ATOM      7  C   UNL     1     171.569 173.392 179.178  1.00  0.00     0.007 A 
ENDROOT
BRANCH   3   8
ATOM      8  O   UNL     1     175.070 172.781 180.216  1.00  0.00    -0.508 OA
ATOM      9  H   UNL     1     175.957 172.502 179.813  1.00  0.00     0.293 HD
ENDBRANCH   3   8
BRANCH   5  10
ATOM     10  C   UNL     1     172.602 171.174 176.232  1.00  0.00     0.013 C 
ATOM     11  C   UNL     1     173.518 169.947 176.306  1.00  0.00     0.012 C 
ATOM     12  C   UNL     1     171.165 170.769 175.881  1.00  0.00     0.012 C 
ENDBRANCH   5  10
TORSDOF 2
ENDMDL
MODEL 8
REMARK VINA RESULT:    -5.297      3.012      4.536
REMARK INTER + INTRA:          -5.885
REMARK INTER:                  -5.759
REMARK INTRA:                  -0.126
REMARK UNBOUND:                -0.124
REMARK SMILES Cc1ccc(C(C)C)cc1O
REMARK SMILES IDX 1 1 2 2 10 3 9 4 5 5 4 6 3 7 11 8 6 10 7 11 8 12
REMARK H PARENT 11 9
REMARK Flexibility Score: inf
ROOT
ATOM      1  C   UNL     1     173.713 172.224 181.429  1.00  0.00     0.048 C 
ATOM      2  C   UNL     1     173.694 172.973 180.126  1.00  0.00    -0.009 A 
ATOM      3  C   UNL     1     172.541 173.670 179.726  1.00  0.00     0.118 A 
ATOM      4  C   UNL     1     172.531 174.367 178.509  1.00  0.00     0.050 A 
ATOM      5  C   UNL     1     173.665 174.378 177.679  1.00  0.00    -0.042 A 
ATOM      6  C   UNL     1     174.814 173.677 178.087  1.00  0.00     0.004 A 
ATOM      7  C   UNL     1     174.828 172.983 179.299  1.00  0.00     0.007 A 
ENDROOT
BRANCH   3   8
ATOM      8  O   UNL     1     171.407 173.668 180.539  1.00  0.00    -0.508 OA
ATOM      9  H   UNL     1     171.477 173.596 181.547  1.00  0.00     0.293 HD
ENDBRANCH   3   8
BRANCH   5  10
ATOM     10  C   UNL     1     173.636 175.137 176.366  1.00  0.00     0.013 C 
ATOM     11  C   UNL     1     172.652 176.310 176.427  1.00  0.00     0.012 C 
ATOM     12  C   UNL     1     175.039 175.614 175.972  1.00  0.00     0.012 C 
ENDBRANCH   5  10
TORSDOF 2
ENDMDL
MODEL 9
REMARK VINA RESULT:    -5.261      1.540      4.157
REMARK INTER + INTRA:          -5.846
REMARK INTER:                  -5.743
REMARK INTRA:                  -0.103
REMARK UNBOUND:                -0.124
REMARK SMILES Cc1ccc(C(C)C)cc1O
REMARK SMILES IDX 1 1 2 2 10 3 9 4 5 5 4 6 3 7 11 8 6 10 7 11 8 12
REMARK H PARENT 11 9
REMARK Flexibility Score: inf
ROOT
ATOM      1  C   UNL     1     174.568 173.172 181.489  1.00  0.00     0.048 C 
ATOM      2  C   UNL     1     173.603 173.188 180.338  1.00  0.00    -0.009 A 
ATOM      3  C   UNL     1     174.073 173.089 179.017  1.00  0.00     0.118 A 
ATOM      4  C   UNL     1     173.165 173.105 177.948  1.00  0.00     0.050 A 
ATOM      5  C   UNL     1     171.783 173.219 178.181  1.00  0.00    -0.042 A 
ATOM      6  C   UNL     1     171.323 173.319 179.506  1.00  0.00     0.004 A 
ATOM      7  C   UNL     1     172.224 173.302 180.573  1.00  0.00     0.007 A 
ENDROOT
BRANCH   3   8
ATOM      8  O   UNL     1     175.441 172.975 178.770  1.00  0.00    -0.508 OA
ATOM      9  H   UNL     1     175.794 172.497 177.950  1.00  0.00     0.293 HD
ENDBRANCH   3   8
BRANCH   5  10
ATOM     10  C   UNL     1     170.816 173.234 177.012  1.00  0.00     0.013 C 
ATOM     11  C   UNL     1     171.381 174.040 175.837  1.00  0.00     0.012 C 
ATOM     12  C   UNL     1     170.451 171.809 176.579  1.00  0.00     0.012 C 
ENDBRANCH   5  10
TORSDOF 2
ENDMDL
