MODEL 1
REMARK VINA RESULT:    -2.218      0.000      0.000
REMARK INTER + INTRA:          -2.218
REMARK INTER:                  -2.218
REMARK INTRA:                   0.000
REMARK UNBOUND:                 0.000
REMARK SMILES O=C1CCCCC1
REMARK SMILES IDX 5 1 4 2 3 3 2 4 1 5 7 6 6 7
REMARK H PARENT
REMARK Flexibility Score: inf
ROOT
ATOM      1  C   UNL     1     133.421 145.246 139.962  1.00  0.00     0.001 C 
ATOM      2  C   UNL     1     133.124 144.404 138.713  1.00  0.00     0.008 C 
ATOM      3  C   UNL     1     131.674 144.584 138.248  1.00  0.00     0.075 C 
ATOM      4  C   UNL     1     131.338 146.044 138.132  1.00  0.00     0.132 C 
ATOM      5  O   UNL     1     130.708 146.458 137.171  1.00  0.00    -0.300 OA
ATOM      6  C   UNL     1     131.703 146.973 139.257  1.00  0.00     0.075 C 
ATOM      7  C   UNL     1     133.153 146.735 139.697  1.00  0.00     0.008 C 
ENDROOT
TORSDOF 0
ENDMDL
MODEL 2
REMARK VINA RESULT:    -2.203     10.945     11.771
REMARK INTER + INTRA:          -2.203
REMARK INTER:                  -2.203
REMARK INTRA:                   0.000
REMARK UNBOUND:                 0.000
REMARK SMILES O=C1CCCCC1
REMARK SMILES IDX 5 1 4 2 3 3 2 4 1 5 7 6 6 7
REMARK H PARENT
REMARK Flexibility Score: inf
ROOT
ATOM      1  C   UNL     1     143.901 144.028 140.131  1.00  0.00     0.001 C 
ATOM      2  C   UNL     1     142.903 143.988 138.964  1.00  0.00     0.008 C 
ATOM      3  C   UNL     1     142.497 145.401 138.526  1.00  0.00     0.075 C 
ATOM      4  C   UNL     1     143.717 146.250 138.298  1.00  0.00     0.132 C 
ATOM      5  O   UNL     1     143.785 146.983 137.323  1.00  0.00    -0.300 OA
ATOM      6  C   UNL     1     144.809 146.257 139.331  1.00  0.00     0.075 C 
ATOM      7  C   UNL     1     145.159 144.824 139.749  1.00  0.00     0.008 C 
ENDROOT
TORSDOF 0
ENDMDL
MODEL 3
REMARK VINA RESULT:    -2.169     11.027     11.985
REMARK INTER + INTRA:          -2.169
REMARK INTER:                  -2.169
REMARK INTRA:                   0.000
REMARK UNBOUND:                 0.000
REMARK SMILES O=C1CCCCC1
REMARK SMILES IDX 5 1 4 2 3 3 2 4 1 5 7 6 6 7
REMARK H PARENT
REMARK Flexibility Score: inf
ROOT
ATOM      1  C   UNL     1     142.056 145.655 138.167  1.00  0.00     0.001 C 
ATOM      2  C   UNL     1     143.285 146.495 137.788  1.00  0.00     0.008 C 
ATOM      3  C   UNL     1     144.316 146.522 138.924  1.00  0.00     0.075 C 
ATOM      4  C   UNL     1     144.613 145.126 139.395  1.00  0.00     0.132 C 
ATOM      5  O   UNL     1     145.764 144.783 139.623  1.00  0.00    -0.300 OA
ATOM      6  C   UNL     1     143.473 144.186 139.673  1.00  0.00     0.075 C 
ATOM      7  C   UNL     1     142.463 144.216 138.518  1.00  0.00     0.008 C 
ENDROOT
TORSDOF 0
ENDMDL
MODEL 4
REMARK VINA RESULT:    -2.163      1.505      2.640
REMARK INTER + INTRA:          -2.163
REMARK INTER:                  -2.163
REMARK INTRA:                   0.000
REMARK UNBOUND:                 0.000
REMARK SMILES O=C1CCCCC1
REMARK SMILES IDX 5 1 4 2 3 3 2 4 1 5 7 6 6 7
REMARK H PARENT
REMARK Flexibility Score: inf
ROOT
ATOM      1  C   UNL     1     131.783 144.174 138.196  1.00  0.00     0.001 C 
ATOM      2  C   UNL     1     131.261 145.543 137.735  1.00  0.00     0.008 C 
ATOM      3  C   UNL     1     131.360 146.587 138.854  1.00  0.00     0.075 C 
ATOM      4  C   UNL     1     132.742 146.593 139.444  1.00  0.00     0.132 C 
ATOM      5  O   UNL     1     133.303 147.650 139.691  1.00  0.00    -0.300 OA
ATOM      6  C   UNL     1     133.389 145.287 139.814  1.00  0.00     0.075 C 
ATOM      7  C   UNL     1     133.241 144.275 138.671  1.00  0.00     0.008 C 
ENDROOT
TORSDOF 0
ENDMDL
MODEL 5
REMARK VINA RESULT:    -2.153      1.672      2.921
REMARK INTER + INTRA:          -2.153
REMARK INTER:                  -2.153
REMARK INTRA:                   0.000
REMARK UNBOUND:                 0.000
REMARK SMILES O=C1CCCCC1
REMARK SMILES IDX 5 1 4 2 3 3 2 4 1 5 7 6 6 7
REMARK H PARENT
REMARK Flexibility Score: inf
ROOT
ATOM      1  C   UNL     1     131.579 146.949 139.273  1.00  0.00     0.001 C 
ATOM      2  C   UNL     1     133.074 146.942 139.623  1.00  0.00     0.008 C 
ATOM      3  C   UNL     1     133.574 145.523 139.920  1.00  0.00     0.075 C 
ATOM      4  C   UNL     1     133.169 144.584 138.818  1.00  0.00     0.132 C 
ATOM      5  O   UNL     1     133.962 143.761 138.385  1.00  0.00    -0.300 OA
ATOM      6  C   UNL     1     131.750 144.604 138.320  1.00  0.00     0.075 C 
ATOM      7  C   UNL     1     131.295 146.046 138.062  1.00  0.00     0.008 C 
ENDROOT
TORSDOF 0
ENDMDL
MODEL 6
REMARK VINA RESULT:    -2.131     10.824     11.675
REMARK INTER + INTRA:          -2.131
REMARK INTER:                  -2.131
REMARK INTRA:                   0.000
REMARK UNBOUND:                 0.000
REMARK SMILES O=C1CCCCC1
REMARK SMILES IDX 5 1 4 2 3 3 2 4 1 5 7 6 6 7
REMARK H PARENT
REMARK Flexibility Score: inf
ROOT
ATOM      1  C   UNL     1     144.745 146.363 139.399  1.00  0.00     0.001 C 
ATOM      2  C   UNL     1     145.190 144.922 139.684  1.00  0.00     0.008 C 
ATOM      3  C   UNL     1     143.990 144.013 139.981  1.00  0.00     0.075 C 
ATOM      4  C   UNL     1     142.944 144.162 138.912  1.00  0.00     0.132 C 
ATOM      5  O   UNL     1     142.381 143.177 138.459  1.00  0.00    -0.300 OA
ATOM      6  C   UNL     1     142.531 145.540 138.475  1.00  0.00     0.075 C 
ATOM      7  C   UNL     1     143.767 146.411 138.215  1.00  0.00     0.008 C 
ENDROOT
TORSDOF 0
ENDMDL
MODEL 7
REMARK VINA RESULT:    -2.124      1.169      2.279
REMARK INTER + INTRA:          -2.124
REMARK INTER:                  -2.124
REMARK INTRA:                   0.000
REMARK UNBOUND:                 0.000
REMARK SMILES O=C1CCCCC1
REMARK SMILES IDX 5 1 4 2 3 3 2 4 1 5 7 6 6 7
REMARK H PARENT
REMARK Flexibility Score: inf
ROOT
ATOM      1  C   UNL     1     133.121 146.958 139.651  1.00  0.00     0.001 C 
ATOM      2  C   UNL     1     131.633 146.982 139.273  1.00  0.00     0.008 C 
ATOM      3  C   UNL     1     131.332 146.014 138.121  1.00  0.00     0.075 C 
ATOM      4  C   UNL     1     131.897 144.654 138.419  1.00  0.00     0.132 C 
ATOM      5  O   UNL     1     131.240 143.649 138.188  1.00  0.00    -0.300 OA
ATOM      6  C   UNL     1     133.311 144.538 138.915  1.00  0.00     0.075 C 
ATOM      7  C   UNL     1     133.564 145.541 140.048  1.00  0.00     0.008 C 
ENDROOT
TORSDOF 0
ENDMDL
MODEL 8
REMARK VINA RESULT:    -2.114     10.564     11.477
REMARK INTER + INTRA:          -2.114
REMARK INTER:                  -2.114
REMARK INTRA:                   0.000
REMARK UNBOUND:                 0.000
REMARK SMILES O=C1CCCCC1
REMARK SMILES IDX 5 1 4 2 3 3 2 4 1 5 7 6 6 7
REMARK H PARENT
REMARK Flexibility Score: inf
ROOT
ATOM      1  C   UNL     1     145.140 144.913 139.648  1.00  0.00     0.001 C 
ATOM      2  C   UNL     1     144.711 146.350 139.317  1.00  0.00     0.008 C 
ATOM      3  C   UNL     1     143.673 146.379 138.189  1.00  0.00     0.075 C 
ATOM      4  C   UNL     1     142.549 145.426 138.487  1.00  0.00     0.132 C 
ATOM      5  O   UNL     1     141.390 145.759 138.290  1.00  0.00    -0.300 OA
ATOM      6  C   UNL     1     142.870 144.029 138.940  1.00  0.00     0.075 C 
ATOM      7  C   UNL     1     143.929 144.058 140.051  1.00  0.00     0.008 C 
ENDROOT
TORSDOF 0
ENDMDL
MODEL 9
REMARK VINA RESULT:    -2.109     17.085     18.228
REMARK INTER + INTRA:          -2.109
REMARK INTER:                  -2.109
REMARK INTRA:                   0.000
REMARK UNBOUND:                 0.000
REMARK SMILES O=C1CCCCC1
REMARK SMILES IDX 5 1 4 2 3 3 2 4 1 5 7 6 6 7
REMARK H PARENT
REMARK Flexibility Score: inf
ROOT
ATOM      1  C   UNL     1     146.957 133.214 139.712  1.00  0.00     0.001 C 
ATOM      2  C   UNL     1     148.122 134.100 139.248  1.00  0.00     0.008 C 
ATOM      3  C   UNL     1     147.708 135.007 138.083  1.00  0.00     0.075 C 
ATOM      4  C   UNL     1     146.438 135.740 138.416  1.00  0.00     0.132 C 
ATOM      5  O   UNL     1     146.323 136.927 138.150  1.00  0.00    -0.300 OA
ATOM      6  C   UNL     1     145.279 134.976 138.994  1.00  0.00     0.075 C 
ATOM      7  C   UNL     1     145.753 134.070 140.137  1.00  0.00     0.008 C 
ENDROOT
TORSDOF 0
ENDMDL
