MODEL 1
REMARK VINA RESULT:    -5.314      0.000      0.000
REMARK INTER + INTRA:          -6.204
REMARK INTER:                  -6.401
REMARK INTRA:                   0.197
REMARK UNBOUND:                 0.197
REMARK SMILES Oc1cc(O)c2c(c1)O[C@@H](c1ccc(O)c(O)c1)[C@@H](O)C2
REMARK SMILES IDX 21 1 19 2 10 3 9 4 7 5 8 6 2 7 3 8 4 9 6 10 20 11 11 13
REMARK SMILES IDX 18 14 12 15 16 16 13 17 14 18 17 19 15 21 5 23 1 25
REMARK H PARENT 20 12 17 20 15 22 5 24 1 26
REMARK Flexibility Score: inf
ROOT
ATOM      1  C   UNL     1      37.386   9.544  23.503  1.00  0.00     0.079 C 
ATOM      2  C   UNL     1      37.355  10.586  22.371  1.00  0.00     0.164 C 
ATOM      3  C   UNL     1      36.307  10.219  21.301  1.00  0.00     0.232 C 
ATOM      4  O   UNL     1      36.513   8.879  20.844  1.00  0.00    -0.482 OA
ATOM      5  C   UNL     1      37.026   7.858  21.656  1.00  0.00     0.131 A 
ATOM      6  C   UNL     1      37.100   6.561  21.142  1.00  0.00     0.093 A 
ATOM      7  C   UNL     1      37.576   5.514  21.933  1.00  0.00     0.122 A 
ATOM      8  C   UNL     1      37.970   5.764  23.253  1.00  0.00     0.092 A 
ATOM      9  C   UNL     1      37.900   7.056  23.786  1.00  0.00     0.126 A 
ATOM     10  C   UNL     1      37.462   8.129  22.972  1.00  0.00     0.039 A 
ENDROOT
BRANCH   2  11
ATOM     11  O   UNL     1      37.092  11.864  22.892  1.00  0.00    -0.389 OA
ATOM     12  H   UNL     1      37.709  12.492  22.432  1.00  0.00     0.211 HD
ENDBRANCH   2  11
BRANCH   3  13
ATOM     13  C   UNL     1      34.879  10.428  21.776  1.00  0.00    -0.001 A 
ATOM     14  C   UNL     1      33.910   9.446  21.498  1.00  0.00     0.057 A 
ATOM     15  C   UNL     1      34.483  11.597  22.451  1.00  0.00     0.012 A 
ATOM     16  C   UNL     1      32.578   9.620  21.898  1.00  0.00     0.157 A 
ATOM     17  C   UNL     1      33.155  11.771  22.850  1.00  0.00     0.050 A 
ATOM     18  C   UNL     1      32.200  10.785  22.576  1.00  0.00     0.157 A 
BRANCH  16  19
ATOM     19  O   UNL     1      31.624   8.641  21.622  1.00  0.00    -0.504 OA
ATOM     20  H   UNL     1      30.684   8.884  21.335  1.00  0.00     0.293 HD
ENDBRANCH  16  19
BRANCH  18  21
ATOM     21  O   UNL     1      30.875  10.956  22.974  1.00  0.00    -0.504 OA
ATOM     22  H   UNL     1      30.239  11.553  22.457  1.00  0.00     0.293 HD
ENDBRANCH  18  21
ENDBRANCH   3  13
BRANCH   9  23
ATOM     23  O   UNL     1      38.257   7.233  25.124  1.00  0.00    -0.507 OA
ATOM     24  H   UNL     1      38.137   8.105  25.621  1.00  0.00     0.293 HD
ENDBRANCH   9  23
BRANCH   7  25
ATOM     25  O   UNL     1      37.646   4.229  21.402  1.00  0.00    -0.508 OA
ATOM     26  H   UNL     1      38.419   3.938  20.816  1.00  0.00     0.293 HD
ENDBRANCH   7  25
TORSDOF 6
ENDMDL
MODEL 2
REMARK VINA RESULT:    -4.985      1.566      2.343
REMARK INTER + INTRA:          -5.807
REMARK INTER:                  -6.008
REMARK INTRA:                   0.200
REMARK UNBOUND:                 0.197
REMARK SMILES Oc1cc(O)c2c(c1)O[C@@H](c1ccc(O)c(O)c1)[C@@H](O)C2
REMARK SMILES IDX 21 1 19 2 10 3 9 4 7 5 8 6 2 7 3 8 4 9 6 10 20 11 11 13
REMARK SMILES IDX 18 14 12 15 16 16 13 17 14 18 17 19 15 21 5 23 1 25
REMARK H PARENT 20 12 17 20 15 22 5 24 1 26
REMARK Flexibility Score: inf
ROOT
ATOM      1  C   UNL     1      37.559  10.568  21.492  1.00  0.00     0.079 C 
ATOM      2  C   UNL     1      36.684   9.976  20.374  1.00  0.00     0.164 C 
ATOM      3  C   UNL     1      35.679   8.948  20.933  1.00  0.00     0.232 C 
ATOM      4  O   UNL     1      36.361   7.962  21.713  1.00  0.00    -0.482 OA
ATOM      5  C   UNL     1      37.523   8.229  22.448  1.00  0.00     0.131 A 
ATOM      6  C   UNL     1      38.059   7.221  23.253  1.00  0.00     0.093 A 
ATOM      7  C   UNL     1      39.198   7.462  24.024  1.00  0.00     0.122 A 
ATOM      8  C   UNL     1      39.799   8.725  23.998  1.00  0.00     0.092 A 
ATOM      9  C   UNL     1      39.275   9.749  23.201  1.00  0.00     0.126 A 
ATOM     10  C   UNL     1      38.147   9.494  22.382  1.00  0.00     0.039 A 
ENDROOT
BRANCH   2  11
ATOM     11  O   UNL     1      36.004  11.000  19.692  1.00  0.00    -0.389 OA
ATOM     12  H   UNL     1      36.642  11.373  19.028  1.00  0.00     0.211 HD
ENDBRANCH   2  11
BRANCH   3  13
ATOM     13  C   UNL     1      34.550   9.593  21.721  1.00  0.00    -0.001 A 
ATOM     14  C   UNL     1      33.239   9.106  21.569  1.00  0.00     0.057 A 
ATOM     15  C   UNL     1      34.770  10.694  22.569  1.00  0.00     0.012 A 
ATOM     16  C   UNL     1      32.171   9.696  22.260  1.00  0.00     0.157 A 
ATOM     17  C   UNL     1      33.706  11.283  23.258  1.00  0.00     0.050 A 
ATOM     18  C   UNL     1      32.405  10.786  23.106  1.00  0.00     0.157 A 
BRANCH  16  19
ATOM     19  O   UNL     1      30.875   9.206  22.108  1.00  0.00    -0.504 OA
ATOM     20  H   UNL     1      30.316   9.430  21.294  1.00  0.00     0.293 HD
ENDBRANCH  16  19
BRANCH  18  21
ATOM     21  O   UNL     1      31.342  11.370  23.793  1.00  0.00    -0.504 OA
ATOM     22  H   UNL     1      31.126  11.116  24.750  1.00  0.00     0.293 HD
ENDBRANCH  18  21
ENDBRANCH   3  13
BRANCH   9  23
ATOM     23  O   UNL     1      39.887  11.003  23.258  1.00  0.00    -0.507 OA
ATOM     24  H   UNL     1      40.376  11.347  24.074  1.00  0.00     0.293 HD
ENDBRANCH   9  23
BRANCH   7  25
ATOM     25  O   UNL     1      39.718   6.443  24.817  1.00  0.00    -0.508 OA
ATOM     26  H   UNL     1      39.124   5.876  25.410  1.00  0.00     0.293 HD
ENDBRANCH   7  25
TORSDOF 6
ENDMDL
MODEL 3
REMARK VINA RESULT:    -4.934      1.735      5.942
REMARK INTER + INTRA:          -5.746
REMARK INTER:                  -5.822
REMARK INTRA:                   0.075
REMARK UNBOUND:                 0.197
REMARK SMILES Oc1cc(O)c2c(c1)O[C@@H](c1ccc(O)c(O)c1)[C@@H](O)C2
REMARK SMILES IDX 21 1 19 2 10 3 9 4 7 5 8 6 2 7 3 8 4 9 6 10 20 11 11 13
REMARK SMILES IDX 18 14 12 15 16 16 13 17 14 18 17 19 15 21 5 23 1 25
REMARK H PARENT 20 12 17 20 15 22 5 24 1 26
REMARK Flexibility Score: inf
ROOT
ATOM      1  C   UNL     1      36.019   9.514  20.683  1.00  0.00     0.079 C 
ATOM      2  C   UNL     1      37.108  10.597  20.767  1.00  0.00     0.164 C 
ATOM      3  C   UNL     1      37.435  10.951  22.233  1.00  0.00     0.232 C 
ATOM      4  O   UNL     1      36.238  11.283  22.941  1.00  0.00    -0.482 OA
ATOM      5  C   UNL     1      34.989  10.717  22.652  1.00  0.00     0.131 A 
ATOM      6  C   UNL     1      33.899  11.037  23.465  1.00  0.00     0.093 A 
ATOM      7  C   UNL     1      32.647  10.467  23.226  1.00  0.00     0.122 A 
ATOM      8  C   UNL     1      32.487   9.561  22.172  1.00  0.00     0.092 A 
ATOM      9  C   UNL     1      33.568   9.225  21.349  1.00  0.00     0.126 A 
ATOM     10  C   UNL     1      34.828   9.837  21.560  1.00  0.00     0.039 A 
ENDROOT
BRANCH   2  11
ATOM     11  O   UNL     1      38.269  10.175  20.098  1.00  0.00    -0.389 OA
ATOM     12  H   UNL     1      38.829   9.700  20.768  1.00  0.00     0.211 HD
ENDBRANCH   2  11
BRANCH   3  13
ATOM     13  C   UNL     1      38.215   9.858  22.945  1.00  0.00    -0.001 A 
ATOM     14  C   UNL     1      37.543   8.694  23.363  1.00  0.00     0.057 A 
ATOM     15  C   UNL     1      39.584   9.991  23.237  1.00  0.00     0.012 A 
ATOM     16  C   UNL     1      38.227   7.679  24.047  1.00  0.00     0.157 A 
ATOM     17  C   UNL     1      40.267   8.979  23.918  1.00  0.00     0.050 A 
ATOM     18  C   UNL     1      39.592   7.822  24.324  1.00  0.00     0.157 A 
BRANCH  16  19
ATOM     19  O   UNL     1      37.556   6.527  24.455  1.00  0.00    -0.504 OA
ATOM     20  H   UNL     1      37.430   6.307  25.436  1.00  0.00     0.293 HD
ENDBRANCH  16  19
BRANCH  18  21
ATOM     21  O   UNL     1      40.269   6.810  25.002  1.00  0.00    -0.504 OA
ATOM     22  H   UNL     1      41.253   6.629  24.838  1.00  0.00     0.293 HD
ENDBRANCH  18  21
ENDBRANCH   3  13
BRANCH   9  23
ATOM     23  O   UNL     1      33.359   8.274  20.348  1.00  0.00    -0.507 OA
ATOM     24  H   UNL     1      32.516   7.720  20.274  1.00  0.00     0.293 HD
ENDBRANCH   9  23
BRANCH   7  25
ATOM     25  O   UNL     1      31.572  10.801  24.045  1.00  0.00    -0.508 OA
ATOM     26  H   UNL     1      30.920  11.534  23.792  1.00  0.00     0.293 HD
ENDBRANCH   7  25
TORSDOF 6
ENDMDL
MODEL 4
REMARK VINA RESULT:    -4.903      2.011      6.278
REMARK INTER + INTRA:          -5.709
REMARK INTER:                  -5.665
REMARK INTRA:                  -0.044
REMARK UNBOUND:                 0.197
REMARK SMILES Oc1cc(O)c2c(c1)O[C@@H](c1ccc(O)c(O)c1)[C@@H](O)C2
REMARK SMILES IDX 21 1 19 2 10 3 9 4 7 5 8 6 2 7 3 8 4 9 6 10 20 11 11 13
REMARK SMILES IDX 18 14 12 15 16 16 13 17 14 18 17 19 15 21 5 23 1 25
REMARK H PARENT 20 12 17 20 15 22 5 24 1 26
REMARK Flexibility Score: inf
ROOT
ATOM      1  C   UNL     1      36.050   9.697  20.668  1.00  0.00     0.079 C 
ATOM      2  C   UNL     1      37.117  10.802  20.761  1.00  0.00     0.164 C 
ATOM      3  C   UNL     1      37.433  11.153  22.229  1.00  0.00     0.232 C 
ATOM      4  O   UNL     1      36.227  11.455  22.937  1.00  0.00    -0.482 OA
ATOM      5  C   UNL     1      34.991  10.865  22.642  1.00  0.00     0.131 A 
ATOM      6  C   UNL     1      33.893  11.156  23.454  1.00  0.00     0.093 A 
ATOM      7  C   UNL     1      32.654  10.561  23.208  1.00  0.00     0.122 A 
ATOM      8  C   UNL     1      32.515   9.658  22.149  1.00  0.00     0.092 A 
ATOM      9  C   UNL     1      33.605   9.350  21.326  1.00  0.00     0.126 A 
ATOM     10  C   UNL     1      34.852   9.988  21.543  1.00  0.00     0.039 A 
ENDROOT
BRANCH   2  11
ATOM     11  O   UNL     1      38.288  10.409  20.092  1.00  0.00    -0.389 OA
ATOM     12  H   UNL     1      39.009  11.020  20.395  1.00  0.00     0.211 HD
ENDBRANCH   2  11
BRANCH   3  13
ATOM     13  C   UNL     1      38.234  10.073  22.936  1.00  0.00    -0.001 A 
ATOM     14  C   UNL     1      39.619  10.247  23.112  1.00  0.00     0.057 A 
ATOM     15  C   UNL     1      37.639   8.880  23.385  1.00  0.00     0.012 A 
ATOM     16  C   UNL     1      40.391   9.257  23.736  1.00  0.00     0.157 A 
ATOM     17  C   UNL     1      38.409   7.893  24.007  1.00  0.00     0.050 A 
ATOM     18  C   UNL     1      39.785   8.078  24.185  1.00  0.00     0.157 A 
BRANCH  16  19
ATOM     19  O   UNL     1      41.763   9.438  23.910  1.00  0.00    -0.504 OA
ATOM     20  H   UNL     1      42.132   9.982  24.681  1.00  0.00     0.293 HD
ENDBRANCH  16  19
BRANCH  18  21
ATOM     21  O   UNL     1      40.555   7.096  24.805  1.00  0.00    -0.504 OA
ATOM     22  H   UNL     1      40.478   6.119  24.547  1.00  0.00     0.293 HD
ENDBRANCH  18  21
ENDBRANCH   3  13
BRANCH   9  23
ATOM     23  O   UNL     1      33.419   8.402  20.318  1.00  0.00    -0.507 OA
ATOM     24  H   UNL     1      33.619   8.580  19.343  1.00  0.00     0.293 HD
ENDBRANCH   9  23
BRANCH   7  25
ATOM     25  O   UNL     1      31.570  10.867  24.027  1.00  0.00    -0.508 OA
ATOM     26  H   UNL     1      30.791  10.229  24.137  1.00  0.00     0.293 HD
ENDBRANCH   7  25
TORSDOF 6
ENDMDL
MODEL 5
REMARK VINA RESULT:    -4.844      2.770      3.751
REMARK INTER + INTRA:          -5.638
REMARK INTER:                  -5.633
REMARK INTRA:                  -0.005
REMARK UNBOUND:                 0.197
REMARK SMILES Oc1cc(O)c2c(c1)O[C@@H](c1ccc(O)c(O)c1)[C@@H](O)C2
REMARK SMILES IDX 21 1 19 2 10 3 9 4 7 5 8 6 2 7 3 8 4 9 6 10 20 11 11 13
REMARK SMILES IDX 18 14 12 15 16 16 13 17 14 18 17 19 15 21 5 23 1 25
REMARK H PARENT 20 12 17 20 15 22 5 24 1 26
REMARK Flexibility Score: inf
ROOT
ATOM      1  C   UNL     1      35.747   6.610  21.315  1.00  0.00     0.079 C 
ATOM      2  C   UNL     1      36.463   7.940  21.022  1.00  0.00     0.164 C 
ATOM      3  C   UNL     1      35.499   8.970  20.398  1.00  0.00     0.232 C 
ATOM      4  O   UNL     1      34.842   8.407  19.259  1.00  0.00    -0.482 OA
ATOM      5  C   UNL     1      34.532   7.045  19.143  1.00  0.00     0.131 A 
ATOM      6  C   UNL     1      33.804   6.611  18.032  1.00  0.00     0.093 A 
ATOM      7  C   UNL     1      33.451   5.267  17.900  1.00  0.00     0.122 A 
ATOM      8  C   UNL     1      33.819   4.351  18.892  1.00  0.00     0.092 A 
ATOM      9  C   UNL     1      34.545   4.768  20.013  1.00  0.00     0.126 A 
ATOM     10  C   UNL     1      34.946   6.121  20.128  1.00  0.00     0.039 A 
ENDROOT
BRANCH   2  11
ATOM     11  O   UNL     1      37.033   8.457  22.197  1.00  0.00    -0.389 OA
ATOM     12  H   UNL     1      37.832   8.979  21.921  1.00  0.00     0.211 HD
ENDBRANCH   2  11
BRANCH   3  13
ATOM     13  C   UNL     1      34.498   9.523  21.398  1.00  0.00    -0.001 A 
ATOM     14  C   UNL     1      33.156   9.104  21.333  1.00  0.00     0.057 A 
ATOM     15  C   UNL     1      34.863  10.478  22.364  1.00  0.00     0.012 A 
ATOM     16  C   UNL     1      32.202   9.616  22.223  1.00  0.00     0.157 A 
ATOM     17  C   UNL     1      33.912  10.989  23.252  1.00  0.00     0.050 A 
ATOM     18  C   UNL     1      32.581  10.560  23.185  1.00  0.00     0.157 A 
BRANCH  16  19
ATOM     19  O   UNL     1      30.875   9.193  22.155  1.00  0.00    -0.504 OA
ATOM     20  H   UNL     1      30.635   8.231  21.949  1.00  0.00     0.293 HD
ENDBRANCH  16  19
BRANCH  18  21
ATOM     21  O   UNL     1      31.630  11.067  24.069  1.00  0.00    -0.504 OA
ATOM     22  H   UNL     1      31.343  12.038  24.039  1.00  0.00     0.293 HD
ENDBRANCH  18  21
ENDBRANCH   3  13
BRANCH   9  23
ATOM     23  O   UNL     1      34.837   3.818  20.994  1.00  0.00    -0.507 OA
ATOM     24  H   UNL     1      35.204   4.055  21.907  1.00  0.00     0.293 HD
ENDBRANCH   9  23
BRANCH   7  25
ATOM     25  O   UNL     1      32.727   4.854  16.784  1.00  0.00    -0.508 OA
ATOM     26  H   UNL     1      32.623   5.447  15.970  1.00  0.00     0.293 HD
ENDBRANCH   7  25
TORSDOF 6
ENDMDL
MODEL 6
REMARK VINA RESULT:    -4.757      1.228      1.615
REMARK INTER + INTRA:          -5.533
REMARK INTER:                  -5.546
REMARK INTRA:                   0.013
REMARK UNBOUND:                 0.197
REMARK SMILES Oc1cc(O)c2c(c1)O[C@@H](c1ccc(O)c(O)c1)[C@@H](O)C2
REMARK SMILES IDX 21 1 19 2 10 3 9 4 7 5 8 6 2 7 3 8 4 9 6 10 20 11 11 13
REMARK SMILES IDX 18 14 12 15 16 16 13 17 14 18 17 19 15 21 5 23 1 25
REMARK H PARENT 20 12 17 20 15 22 5 24 1 26
REMARK Flexibility Score: inf
ROOT
ATOM      1  C   UNL     1      37.129   8.281  22.672  1.00  0.00     0.079 C 
ATOM      2  C   UNL     1      37.283   9.724  22.162  1.00  0.00     0.164 C 
ATOM      3  C   UNL     1      36.251  10.042  21.061  1.00  0.00     0.232 C 
ATOM      4  O   UNL     1      36.311   9.057  20.026  1.00  0.00    -0.482 OA
ATOM      5  C   UNL     1      36.652   7.718  20.256  1.00  0.00     0.131 A 
ATOM      6  C   UNL     1      36.589   6.813  19.193  1.00  0.00     0.093 A 
ATOM      7  C   UNL     1      36.892   5.465  19.393  1.00  0.00     0.122 A 
ATOM      8  C   UNL     1      37.249   5.015  20.669  1.00  0.00     0.092 A 
ATOM      9  C   UNL     1      37.314   5.906  21.747  1.00  0.00     0.126 A 
ATOM     10  C   UNL     1      37.054   7.282  21.538  1.00  0.00     0.039 A 
ENDROOT
BRANCH   2  11
ATOM     11  O   UNL     1      37.156  10.634  23.225  1.00  0.00    -0.389 OA
ATOM     12  H   UNL     1      38.078  10.860  23.519  1.00  0.00     0.211 HD
ENDBRANCH   2  11
BRANCH   3  13
ATOM     13  C   UNL     1      34.838  10.193  21.601  1.00  0.00    -0.001 A 
ATOM     14  C   UNL     1      33.865   9.236  21.261  1.00  0.00     0.057 A 
ATOM     15  C   UNL     1      34.461  11.288  22.399  1.00  0.00     0.012 A 
ATOM     16  C   UNL     1      32.547   9.360  21.720  1.00  0.00     0.157 A 
ATOM     17  C   UNL     1      33.146  11.413  22.857  1.00  0.00     0.050 A 
ATOM     18  C   UNL     1      32.186  10.451  22.520  1.00  0.00     0.157 A 
BRANCH  16  19
ATOM     19  O   UNL     1      31.588   8.405  21.382  1.00  0.00    -0.504 OA
ATOM     20  H   UNL     1      30.929   8.560  20.628  1.00  0.00     0.293 HD
ENDBRANCH  16  19
BRANCH  18  21
ATOM     21  O   UNL     1      30.875  10.572  22.976  1.00  0.00    -0.504 OA
ATOM     22  H   UNL     1      30.590  10.200  23.874  1.00  0.00     0.293 HD
ENDBRANCH  18  21
ENDBRANCH   3  13
BRANCH   9  23
ATOM     23  O   UNL     1      37.625   5.388  23.006  1.00  0.00    -0.507 OA
ATOM     24  H   UNL     1      37.995   4.458  23.150  1.00  0.00     0.293 HD
ENDBRANCH   9  23
BRANCH   7  25
ATOM     25  O   UNL     1      36.826   4.580  18.320  1.00  0.00    -0.508 OA
ATOM     26  H   UNL     1      36.632   3.595  18.456  1.00  0.00     0.293 HD
ENDBRANCH   7  25
TORSDOF 6
ENDMDL
MODEL 7
REMARK VINA RESULT:    -4.642      1.489      6.210
REMARK INTER + INTRA:          -5.395
REMARK INTER:                  -5.378
REMARK INTRA:                  -0.017
REMARK UNBOUND:                 0.197
REMARK SMILES Oc1cc(O)c2c(c1)O[C@@H](c1ccc(O)c(O)c1)[C@@H](O)C2
REMARK SMILES IDX 21 1 19 2 10 3 9 4 7 5 8 6 2 7 3 8 4 9 6 10 20 11 11 13
REMARK SMILES IDX 18 14 12 15 16 16 13 17 14 18 17 19 15 21 5 23 1 25
REMARK H PARENT 20 12 17 20 15 22 5 24 1 26
REMARK Flexibility Score: inf
ROOT
ATOM      1  C   UNL     1      36.357  10.790  20.744  1.00  0.00     0.079 C 
ATOM      2  C   UNL     1      37.448  11.008  21.807  1.00  0.00     0.164 C 
ATOM      3  C   UNL     1      37.168  10.179  23.077  1.00  0.00     0.232 C 
ATOM      4  O   UNL     1      35.842  10.432  23.552  1.00  0.00    -0.482 OA
ATOM      5  C   UNL     1      34.769  10.748  22.709  1.00  0.00     0.131 A 
ATOM      6  C   UNL     1      33.493  10.884  23.263  1.00  0.00     0.093 A 
ATOM      7  C   UNL     1      32.396  11.168  22.448  1.00  0.00     0.122 A 
ATOM      8  C   UNL     1      32.572  11.305  21.067  1.00  0.00     0.092 A 
ATOM      9  C   UNL     1      33.842  11.168  20.493  1.00  0.00     0.126 A 
ATOM     10  C   UNL     1      34.965  10.928  21.321  1.00  0.00     0.039 A 
ENDROOT
BRANCH   2  11
ATOM     11  O   UNL     1      38.711  10.685  21.284  1.00  0.00    -0.389 OA
ATOM     12  H   UNL     1      38.648   9.756  20.938  1.00  0.00     0.211 HD
ENDBRANCH   2  11
BRANCH   3  13
ATOM     13  C   UNL     1      37.409   8.692  22.876  1.00  0.00    -0.001 A 
ATOM     14  C   UNL     1      38.469   8.068  23.560  1.00  0.00     0.057 A 
ATOM     15  C   UNL     1      36.628   7.924  21.993  1.00  0.00     0.012 A 
ATOM     16  C   UNL     1      38.735   6.704  23.376  1.00  0.00     0.157 A 
ATOM     17  C   UNL     1      36.893   6.564  21.809  1.00  0.00     0.050 A 
ATOM     18  C   UNL     1      37.946   5.950  22.499  1.00  0.00     0.157 A 
BRANCH  16  19
ATOM     19  O   UNL     1      39.785   6.091  24.059  1.00  0.00    -0.504 OA
ATOM     20  H   UNL     1      40.518   6.634  24.501  1.00  0.00     0.293 HD
ENDBRANCH  16  19
BRANCH  18  21
ATOM     21  O   UNL     1      38.212   4.594  22.320  1.00  0.00    -0.504 OA
ATOM     22  H   UNL     1      37.949   4.110  21.469  1.00  0.00     0.293 HD
ENDBRANCH  18  21
ENDBRANCH   3  13
BRANCH   9  23
ATOM     23  O   UNL     1      33.947  11.263  19.104  1.00  0.00    -0.507 OA
ATOM     24  H   UNL     1      33.540  10.590  18.468  1.00  0.00     0.293 HD
ENDBRANCH   9  23
BRANCH   7  25
ATOM     25  O   UNL     1      31.133  11.303  23.020  1.00  0.00    -0.508 OA
ATOM     26  H   UNL     1      30.581  12.143  22.895  1.00  0.00     0.293 HD
ENDBRANCH   7  25
TORSDOF 6
ENDMDL
MODEL 8
REMARK VINA RESULT:    -4.634      1.186      6.035
REMARK INTER + INTRA:          -5.385
REMARK INTER:                  -6.033
REMARK INTRA:                   0.648
REMARK UNBOUND:                 0.197
REMARK SMILES Oc1cc(O)c2c(c1)O[C@@H](c1ccc(O)c(O)c1)[C@@H](O)C2
REMARK SMILES IDX 21 1 19 2 10 3 9 4 7 5 8 6 2 7 3 8 4 9 6 10 20 11 11 13
REMARK SMILES IDX 18 14 12 15 16 16 13 17 14 18 17 19 15 21 5 23 1 25
REMARK H PARENT 20 12 17 20 15 22 5 24 1 26
REMARK Flexibility Score: inf
ROOT
ATOM      1  C   UNL     1      35.191   8.733  20.523  1.00  0.00     0.079 C 
ATOM      2  C   UNL     1      36.561   9.433  20.557  1.00  0.00     0.164 C 
ATOM      3  C   UNL     1      37.025   9.686  22.006  1.00  0.00     0.232 C 
ATOM      4  O   UNL     1      36.008  10.375  22.740  1.00  0.00    -0.482 OA
ATOM      5  C   UNL     1      34.638  10.213  22.495  1.00  0.00     0.131 A 
ATOM      6  C   UNL     1      33.723  10.859  23.330  1.00  0.00     0.093 A 
ATOM      7  C   UNL     1      32.350  10.695  23.134  1.00  0.00     0.122 A 
ATOM      8  C   UNL     1      31.889   9.869  22.104  1.00  0.00     0.092 A 
ATOM      9  C   UNL     1      32.791   9.211  21.259  1.00  0.00     0.126 A 
ATOM     10  C   UNL     1      34.183   9.412  21.424  1.00  0.00     0.039 A 
ENDROOT
BRANCH   2  11
ATOM     11  O   UNL     1      37.517   8.670  19.866  1.00  0.00    -0.389 OA
ATOM     12  H   UNL     1      37.557   7.786  20.318  1.00  0.00     0.211 HD
ENDBRANCH   2  11
BRANCH   3  13
ATOM     13  C   UNL     1      37.457   8.415  22.719  1.00  0.00    -0.001 A 
ATOM     14  C   UNL     1      37.285   7.174  22.078  1.00  0.00     0.057 A 
ATOM     15  C   UNL     1      37.987   8.437  24.022  1.00  0.00     0.012 A 
ATOM     16  C   UNL     1      37.648   5.981  22.719  1.00  0.00     0.157 A 
ATOM     17  C   UNL     1      38.349   7.248  24.660  1.00  0.00     0.050 A 
ATOM     18  C   UNL     1      38.181   6.018  24.012  1.00  0.00     0.157 A 
BRANCH  16  19
ATOM     19  O   UNL     1      37.478   4.755  22.076  1.00  0.00    -0.504 OA
ATOM     20  H   UNL     1      37.101   3.950  22.562  1.00  0.00     0.293 HD
ENDBRANCH  16  19
BRANCH  18  21
ATOM     21  O   UNL     1      38.542   4.831  24.646  1.00  0.00    -0.504 OA
ATOM     22  H   UNL     1      38.573   3.950  24.145  1.00  0.00     0.293 HD
ENDBRANCH  18  21
ENDBRANCH   3  13
BRANCH   9  23
ATOM     23  O   UNL     1      32.271   8.359  20.283  1.00  0.00    -0.507 OA
ATOM     24  H   UNL     1      32.572   7.401  20.162  1.00  0.00     0.293 HD
ENDBRANCH   9  23
BRANCH   7  25
ATOM     25  O   UNL     1      31.454  11.350  23.975  1.00  0.00    -0.508 OA
ATOM     26  H   UNL     1      30.479  11.077  24.027  1.00  0.00     0.293 HD
ENDBRANCH   7  25
TORSDOF 6
ENDMDL
MODEL 9
REMARK VINA RESULT:    -4.510      3.253      4.711
REMARK INTER + INTRA:          -5.235
REMARK INTER:                  -5.671
REMARK INTRA:                   0.435
REMARK UNBOUND:                 0.197
REMARK SMILES Oc1cc(O)c2c(c1)O[C@@H](c1ccc(O)c(O)c1)[C@@H](O)C2
REMARK SMILES IDX 21 1 19 2 10 3 9 4 7 5 8 6 2 7 3 8 4 9 6 10 20 11 11 13
REMARK SMILES IDX 18 14 12 15 16 16 13 17 14 18 17 19 15 21 5 23 1 25
REMARK H PARENT 20 12 17 20 15 22 5 24 1 26
REMARK Flexibility Score: inf
ROOT
ATOM      1  C   UNL     1      34.803   6.356  19.774  1.00  0.00     0.079 C 
ATOM      2  C   UNL     1      34.150   7.461  18.925  1.00  0.00     0.164 C 
ATOM      3  C   UNL     1      32.946   8.091  19.656  1.00  0.00     0.232 C 
ATOM      4  O   UNL     1      32.034   7.073  20.077  1.00  0.00    -0.482 OA
ATOM      5  C   UNL     1      32.435   5.781  20.441  1.00  0.00     0.131 A 
ATOM      6  C   UNL     1      31.476   4.890  20.929  1.00  0.00     0.093 A 
ATOM      7  C   UNL     1      31.846   3.605  21.330  1.00  0.00     0.122 A 
ATOM      8  C   UNL     1      33.186   3.211  21.254  1.00  0.00     0.092 A 
ATOM      9  C   UNL     1      34.161   4.092  20.771  1.00  0.00     0.126 A 
ATOM     10  C   UNL     1      33.784   5.380  20.319  1.00  0.00     0.039 A 
ENDROOT
BRANCH   2  11
ATOM     11  O   UNL     1      35.094   8.449  18.600  1.00  0.00    -0.389 OA
ATOM     12  H   UNL     1      34.639   9.089  17.991  1.00  0.00     0.211 HD
ENDBRANCH   2  11
BRANCH   3  13
ATOM     13  C   UNL     1      33.360   8.980  20.817  1.00  0.00    -0.001 A 
ATOM     14  C   UNL     1      32.398   9.355  21.773  1.00  0.00     0.057 A 
ATOM     15  C   UNL     1      34.670   9.475  20.945  1.00  0.00     0.012 A 
ATOM     16  C   UNL     1      32.740  10.196  22.841  1.00  0.00     0.157 A 
ATOM     17  C   UNL     1      35.012  10.313  22.010  1.00  0.00     0.050 A 
ATOM     18  C   UNL     1      34.050  10.675  22.961  1.00  0.00     0.157 A 
BRANCH  16  19
ATOM     19  O   UNL     1      31.782  10.561  23.787  1.00  0.00    -0.504 OA
ATOM     20  H   UNL     1      31.885  10.320  24.765  1.00  0.00     0.293 HD
ENDBRANCH  16  19
BRANCH  18  21
ATOM     21  O   UNL     1      34.387  11.510  24.024  1.00  0.00    -0.504 OA
ATOM     22  H   UNL     1      35.319  11.896  24.121  1.00  0.00     0.293 HD
ENDBRANCH  18  21
ENDBRANCH   3  13
BRANCH   9  23
ATOM     23  O   UNL     1      35.490   3.661  20.768  1.00  0.00    -0.507 OA
ATOM     24  H   UNL     1      36.090   3.702  21.581  1.00  0.00     0.293 HD
ENDBRANCH   9  23
BRANCH   7  25
ATOM     25  O   UNL     1      30.875   2.730  21.811  1.00  0.00    -0.508 OA
ATOM     26  H   UNL     1      30.282   2.199  21.184  1.00  0.00     0.293 HD
ENDBRANCH   7  25
TORSDOF 6
ENDMDL
