MODEL 1
REMARK VINA RESULT:    -5.128      0.000      0.000
REMARK INTER + INTRA:         -18.447
REMARK INTER:                 -13.521
REMARK INTRA:                  -4.926
REMARK UNBOUND:                -4.926
REMARK SMILES CCCCCCCCCCCCCCCCCCCCCCCCCCCCCC(=O)[O-]
REMARK SMILES IDX 16 1 17 2 18 3 19 4 20 5 21 6 22 7 23 8 24 9 25 10 26 11
REMARK SMILES IDX 27 12 28 13 29 14 30 15 31 16 32 17 15 18 14 19 13 20 12 21
REMARK SMILES IDX 11 22 10 23 9 24 8 25 7 26 6 27 5 28 4 29 3 30 2 31 1 32
REMARK H PARENT
REMARK Flexibility Score: inf
ROOT
ATOM      1  C   UNL     1       9.662  15.843   4.861  1.00  0.00     0.000 C 
ENDROOT
BRANCH   1   2
ATOM      2  C   UNL     1       9.244  15.747   3.385  1.00  0.00     0.000 C 
BRANCH   2   3
ATOM      3  C   UNL     1      10.284  15.008   2.522  1.00  0.00     0.000 C 
BRANCH   3   4
ATOM      4  C   UNL     1      10.741  15.823   1.303  1.00  0.00     0.000 C 
BRANCH   4   5
ATOM      5  C   UNL     1      11.978  15.219   0.612  1.00  0.00     0.000 C 
BRANCH   5   6
ATOM      6  C   UNL     1      12.745  14.264   1.542  1.00  0.00     0.000 C 
BRANCH   6   7
ATOM      7  C   UNL     1      14.099  13.836   0.945  1.00  0.00     0.000 C 
BRANCH   7   8
ATOM      8  C   UNL     1      15.117  13.434   2.026  1.00  0.00     0.000 C 
BRANCH   8   9
ATOM      9  C   UNL     1      15.384  14.580   3.018  1.00  0.00     0.000 C 
BRANCH   9  10
ATOM     10  C   UNL     1      16.879  14.774   3.330  1.00  0.00     0.000 C 
BRANCH  10  11
ATOM     11  C   UNL     1      17.539  15.999   2.666  1.00  0.00     0.000 C 
BRANCH  11  12
ATOM     12  C   UNL     1      16.530  17.102   2.303  1.00  0.00     0.000 C 
BRANCH  12  13
ATOM     13  C   UNL     1      16.350  17.267   0.785  1.00  0.00     0.006 C 
BRANCH  13  14
ATOM     14  C   UNL     1      14.877  17.329   0.361  1.00  0.00     0.053 C 
BRANCH  14  15
ATOM     15  C   UNL     1      14.770  17.555  -1.115  1.00  0.00     0.041 C 
ATOM     16  O   UNL     1      14.648  16.576  -1.897  1.00  0.00    -0.550 OA
ATOM     17  O   UNL     1      14.740  18.848  -1.621  1.00  0.00    -0.550 OA
ENDBRANCH  14  15
ENDBRANCH  13  14
ENDBRANCH  12  13
ENDBRANCH  11  12
ENDBRANCH  10  11
ENDBRANCH   9  10
ENDBRANCH   8   9
ENDBRANCH   7   8
ENDBRANCH   6   7
ENDBRANCH   5   6
ENDBRANCH   4   5
ENDBRANCH   3   4
ENDBRANCH   2   3
ENDBRANCH   1   2
BRANCH   1  18
ATOM     18  C   UNL     1       9.964  14.473   5.486  1.00  0.00     0.000 C 
BRANCH  18  19
ATOM     19  C   UNL     1      11.014  14.593   6.596  1.00  0.00     0.000 C 
BRANCH  19  20
ATOM     20  C   UNL     1      12.011  13.426   6.539  1.00  0.00     0.000 C 
BRANCH  20  21
ATOM     21  C   UNL     1      12.799  13.376   5.219  1.00  0.00     0.000 C 
BRANCH  21  22
ATOM     22  C   UNL     1      12.787  12.008   4.507  1.00  0.00     0.000 C 
BRANCH  22  23
ATOM     23  C   UNL     1      11.469  11.650   3.793  1.00  0.00     0.000 C 
BRANCH  23  24
ATOM     24  C   UNL     1      10.715  10.443   4.381  1.00  0.00    -0.000 C 
BRANCH  24  25
ATOM     25  C   UNL     1       9.455  10.847   5.162  1.00  0.00    -0.000 C 
BRANCH  25  26
ATOM     26  C   UNL     1       9.666  10.664   6.673  1.00  0.00    -0.000 C 
BRANCH  26  27
ATOM     27  C   UNL     1       8.491  11.202   7.509  1.00  0.00    -0.000 C 
BRANCH  27  28
ATOM     28  C   UNL     1       7.532  12.147   6.757  1.00  0.00    -0.000 C 
BRANCH  28  29
ATOM     29  C   UNL     1       6.695  13.082   7.655  1.00  0.00    -0.000 C 
BRANCH  29  30
ATOM     30  C   UNL     1       6.975  14.584   7.465  1.00  0.00    -0.000 C 
BRANCH  30  31
ATOM     31  C   UNL     1       7.465  15.264   8.752  1.00  0.00    -0.003 C 
ATOM     32  C   UNL     1       7.412  14.302   9.937  1.00  0.00     0.004 C 
ENDBRANCH  30  31
ENDBRANCH  29  30
ENDBRANCH  28  29
ENDBRANCH  27  28
ENDBRANCH  26  27
ENDBRANCH  25  26
ENDBRANCH  24  25
ENDBRANCH  23  24
ENDBRANCH  22  23
ENDBRANCH  21  22
ENDBRANCH  20  21
ENDBRANCH  19  20
ENDBRANCH  18  19
ENDBRANCH   1  18
TORSDOF 28
ENDMDL
MODEL 2
REMARK VINA RESULT:    -5.087      2.264      5.268
REMARK INTER + INTRA:         -18.339
REMARK INTER:                 -12.920
REMARK INTRA:                  -5.419
REMARK UNBOUND:                -4.926
REMARK SMILES CCCCCCCCCCCCCCCCCCCCCCCCCCCCCC(=O)[O-]
REMARK SMILES IDX 16 1 17 2 18 3 19 4 20 5 21 6 22 7 23 8 24 9 25 10 26 11
REMARK SMILES IDX 27 12 28 13 29 14 30 15 31 16 32 17 15 18 14 19 13 20 12 21
REMARK SMILES IDX 11 22 10 23 9 24 8 25 7 26 6 27 5 28 4 29 3 30 2 31 1 32
REMARK H PARENT
REMARK Flexibility Score: inf
ROOT
ATOM      1  C   UNL     1      13.021  11.647   3.962  1.00  0.00     0.000 C 
ENDROOT
BRANCH   1   2
ATOM      2  C   UNL     1      13.634  12.441   5.126  1.00  0.00     0.000 C 
BRANCH   2   3
ATOM      3  C   UNL     1      12.919  13.783   5.369  1.00  0.00     0.000 C 
BRANCH   3   4
ATOM      4  C   UNL     1      12.216  13.851   6.733  1.00  0.00     0.000 C 
BRANCH   4   5
ATOM      5  C   UNL     1      10.709  14.144   6.613  1.00  0.00     0.000 C 
BRANCH   5   6
ATOM      6  C   UNL     1      10.435  15.631   6.333  1.00  0.00     0.000 C 
BRANCH   6   7
ATOM      7  C   UNL     1       9.344  15.828   5.263  1.00  0.00     0.000 C 
BRANCH   7   8
ATOM      8  C   UNL     1       9.237  14.628   4.306  1.00  0.00     0.000 C 
BRANCH   8   9
ATOM      9  C   UNL     1       9.717  14.981   2.887  1.00  0.00     0.000 C 
BRANCH   9  10
ATOM     10  C   UNL     1      11.246  15.145   2.789  1.00  0.00     0.000 C 
BRANCH  10  11
ATOM     11  C   UNL     1      11.819  15.150   1.358  1.00  0.00     0.000 C 
BRANCH  11  12
ATOM     12  C   UNL     1      12.738  13.949   1.075  1.00  0.00     0.000 C 
BRANCH  12  13
ATOM     13  C   UNL     1      14.229  14.324   1.099  1.00  0.00     0.006 C 
BRANCH  13  14
ATOM     14  C   UNL     1      14.676  14.912   2.445  1.00  0.00     0.053 C 
BRANCH  14  15
ATOM     15  C   UNL     1      16.093  14.526   2.735  1.00  0.00     0.041 C 
ATOM     16  O   UNL     1      16.960  15.414   2.943  1.00  0.00    -0.550 OA
ATOM     17  O   UNL     1      16.441  13.186   2.842  1.00  0.00    -0.550 OA
ENDBRANCH  14  15
ENDBRANCH  13  14
ENDBRANCH  12  13
ENDBRANCH  11  12
ENDBRANCH  10  11
ENDBRANCH   9  10
ENDBRANCH   8   9
ENDBRANCH   7   8
ENDBRANCH   6   7
ENDBRANCH   5   6
ENDBRANCH   4   5
ENDBRANCH   3   4
ENDBRANCH   2   3
ENDBRANCH   1   2
BRANCH   1  18
ATOM     18  C   UNL     1      11.490  11.747   3.912  1.00  0.00     0.000 C 
BRANCH  18  19
ATOM     19  C   UNL     1      10.836  10.448   4.396  1.00  0.00     0.000 C 
BRANCH  19  20
ATOM     20  C   UNL     1      10.122  10.658   5.740  1.00  0.00     0.000 C 
BRANCH  20  21
ATOM     21  C   UNL     1       8.671  11.144   5.577  1.00  0.00     0.000 C 
BRANCH  21  22
ATOM     22  C   UNL     1       7.986  11.594   6.883  1.00  0.00     0.000 C 
BRANCH  22  23
ATOM     23  C   UNL     1       7.076  12.831   6.755  1.00  0.00     0.000 C 
BRANCH  23  24
ATOM     24  C   UNL     1       7.244  13.882   7.869  1.00  0.00    -0.000 C 
BRANCH  24  25
ATOM     25  C   UNL     1       8.068  13.367   9.059  1.00  0.00    -0.000 C 
BRANCH  25  26
ATOM     26  C   UNL     1       7.379  13.711  10.389  1.00  0.00    -0.000 C 
BRANCH  26  27
ATOM     27  C   UNL     1       6.769  12.478  11.081  1.00  0.00    -0.000 C 
BRANCH  27  28
ATOM     28  C   UNL     1       6.783  11.184  10.242  1.00  0.00    -0.000 C 
BRANCH  28  29
ATOM     29  C   UNL     1       7.694  10.063  10.782  1.00  0.00    -0.000 C 
BRANCH  29  30
ATOM     30  C   UNL     1       9.199  10.278  10.542  1.00  0.00    -0.000 C 
BRANCH  30  31
ATOM     31  C   UNL     1      10.003  10.360  11.848  1.00  0.00    -0.003 C 
ATOM     32  C   UNL     1      10.289  11.810  12.229  1.00  0.00     0.004 C 
ENDBRANCH  30  31
ENDBRANCH  29  30
ENDBRANCH  28  29
ENDBRANCH  27  28
ENDBRANCH  26  27
ENDBRANCH  25  26
ENDBRANCH  24  25
ENDBRANCH  23  24
ENDBRANCH  22  23
ENDBRANCH  21  22
ENDBRANCH  20  21
ENDBRANCH  19  20
ENDBRANCH  18  19
ENDBRANCH   1  18
TORSDOF 28
ENDMDL
MODEL 3
REMARK VINA RESULT:    -5.081      2.083      3.905
REMARK INTER + INTRA:         -18.325
REMARK INTER:                 -12.350
REMARK INTRA:                  -5.975
REMARK UNBOUND:                -4.926
REMARK SMILES CCCCCCCCCCCCCCCCCCCCCCCCCCCCCC(=O)[O-]
REMARK SMILES IDX 16 1 17 2 18 3 19 4 20 5 21 6 22 7 23 8 24 9 25 10 26 11
REMARK SMILES IDX 27 12 28 13 29 14 30 15 31 16 32 17 15 18 14 19 13 20 12 21
REMARK SMILES IDX 11 22 10 23 9 24 8 25 7 26 6 27 5 28 4 29 3 30 2 31 1 32
REMARK H PARENT
REMARK Flexibility Score: inf
ROOT
ATOM      1  C   UNL     1      12.795  13.820   6.537  1.00  0.00     0.000 C 
ENDROOT
BRANCH   1   2
ATOM      2  C   UNL     1      13.108  12.781   5.449  1.00  0.00     0.000 C 
BRANCH   2   3
ATOM      3  C   UNL     1      14.484  13.005   4.794  1.00  0.00     0.000 C 
BRANCH   3   4
ATOM      4  C   UNL     1      14.400  13.204   3.274  1.00  0.00     0.000 C 
BRANCH   4   5
ATOM      5  C   UNL     1      12.991  12.936   2.714  1.00  0.00     0.000 C 
BRANCH   5   6
ATOM      6  C   UNL     1      12.837  13.460   1.276  1.00  0.00     0.000 C 
BRANCH   6   7
ATOM      7  C   UNL     1      14.040  14.318   0.839  1.00  0.00     0.000 C 
BRANCH   7   8
ATOM      8  C   UNL     1      13.619  15.527  -0.014  1.00  0.00     0.000 C 
BRANCH   8   9
ATOM      9  C   UNL     1      14.829  16.209  -0.677  1.00  0.00     0.000 C 
BRANCH   9  10
ATOM     10  C   UNL     1      14.924  17.714  -0.361  1.00  0.00     0.000 C 
BRANCH  10  11
ATOM     11  C   UNL     1      13.977  18.217   0.746  1.00  0.00     0.000 C 
BRANCH  11  12
ATOM     12  C   UNL     1      14.676  18.374   2.108  1.00  0.00     0.000 C 
BRANCH  12  13
ATOM     13  C   UNL     1      16.065  17.717   2.142  1.00  0.00     0.006 C 
BRANCH  13  14
ATOM     14  C   UNL     1      16.110  16.460   3.021  1.00  0.00     0.053 C 
BRANCH  14  15
ATOM     15  C   UNL     1      17.467  15.829   2.955  1.00  0.00     0.041 C 
ATOM     16  O   UNL     1      18.480  16.533   2.703  1.00  0.00    -0.550 OA
ATOM     17  O   UNL     1      17.621  14.479   3.239  1.00  0.00    -0.550 OA
ENDBRANCH  14  15
ENDBRANCH  13  14
ENDBRANCH  12  13
ENDBRANCH  11  12
ENDBRANCH  10  11
ENDBRANCH   9  10
ENDBRANCH   8   9
ENDBRANCH   7   8
ENDBRANCH   6   7
ENDBRANCH   5   6
ENDBRANCH   4   5
ENDBRANCH   3   4
ENDBRANCH   2   3
ENDBRANCH   1   2
BRANCH   1  18
ATOM     18  C   UNL     1      11.662  14.778   6.140  1.00  0.00     0.000 C 
BRANCH  18  19
ATOM     19  C   UNL     1      12.016  16.227   6.493  1.00  0.00     0.000 C 
BRANCH  19  20
ATOM     20  C   UNL     1      12.026  17.112   5.238  1.00  0.00     0.000 C 
BRANCH  20  21
ATOM     21  C   UNL     1      12.422  16.343   3.966  1.00  0.00     0.000 C 
BRANCH  21  22
ATOM     22  C   UNL     1      11.446  16.498   2.782  1.00  0.00     0.000 C 
BRANCH  22  23
ATOM     23  C   UNL     1       9.991  16.082   3.072  1.00  0.00     0.000 C 
BRANCH  23  24
ATOM     24  C   UNL     1       9.694  14.581   2.893  1.00  0.00    -0.000 C 
BRANCH  24  25
ATOM     25  C   UNL     1       8.741  14.028   3.964  1.00  0.00    -0.000 C 
BRANCH  25  26
ATOM     26  C   UNL     1       8.579  12.507   3.818  1.00  0.00    -0.000 C 
BRANCH  26  27
ATOM     27  C   UNL     1       9.775  11.722   4.387  1.00  0.00    -0.000 C 
BRANCH  27  28
ATOM     28  C   UNL     1       9.460  10.857   5.625  1.00  0.00    -0.000 C 
BRANCH  28  29
ATOM     29  C   UNL     1       9.250  11.641   6.936  1.00  0.00    -0.000 C 
BRANCH  29  30
ATOM     30  C   UNL     1       7.825  11.570   7.514  1.00  0.00    -0.000 C 
BRANCH  30  31
ATOM     31  C   UNL     1       7.183  12.954   7.683  1.00  0.00    -0.003 C 
ATOM     32  C   UNL     1       8.222  14.064   7.537  1.00  0.00     0.004 C 
ENDBRANCH  30  31
ENDBRANCH  29  30
ENDBRANCH  28  29
ENDBRANCH  27  28
ENDBRANCH  26  27
ENDBRANCH  25  26
ENDBRANCH  24  25
ENDBRANCH  23  24
ENDBRANCH  22  23
ENDBRANCH  21  22
ENDBRANCH  20  21
ENDBRANCH  19  20
ENDBRANCH  18  19
ENDBRANCH   1  18
TORSDOF 28
ENDMDL
MODEL 4
REMARK VINA RESULT:    -5.034      3.508      8.303
REMARK INTER + INTRA:         -18.200
REMARK INTER:                 -12.461
REMARK INTRA:                  -5.738
REMARK UNBOUND:                -4.926
REMARK SMILES CCCCCCCCCCCCCCCCCCCCCCCCCCCCCC(=O)[O-]
REMARK SMILES IDX 16 1 17 2 18 3 19 4 20 5 21 6 22 7 23 8 24 9 25 10 26 11
REMARK SMILES IDX 27 12 28 13 29 14 30 15 31 16 32 17 15 18 14 19 13 20 12 21
REMARK SMILES IDX 11 22 10 23 9 24 8 25 7 26 6 27 5 28 4 29 3 30 2 31 1 32
REMARK H PARENT
REMARK Flexibility Score: inf
ROOT
ATOM      1  C   UNL     1      12.367  16.073   6.062  1.00  0.00     0.000 C 
ENDROOT
BRANCH   1   2
ATOM      2  C   UNL     1      11.208  15.065   6.002  1.00  0.00     0.000 C 
BRANCH   2   3
ATOM      3  C   UNL     1       9.843  15.714   6.293  1.00  0.00     0.000 C 
BRANCH   3   4
ATOM      4  C   UNL     1       9.177  16.301   5.040  1.00  0.00     0.000 C 
BRANCH   4   5
ATOM      5  C   UNL     1       9.051  15.278   3.897  1.00  0.00     0.000 C 
BRANCH   5   6
ATOM      6  C   UNL     1       8.326  13.999   4.350  1.00  0.00     0.000 C 
BRANCH   6   7
ATOM      7  C   UNL     1       8.839  12.749   3.610  1.00  0.00     0.000 C 
BRANCH   7   8
ATOM      8  C   UNL     1      10.372  12.629   3.653  1.00  0.00     0.000 C 
BRANCH   8   9
ATOM      9  C   UNL     1      10.826  11.233   4.117  1.00  0.00     0.000 C 
BRANCH   9  10
ATOM     10  C   UNL     1       9.739  10.473   4.899  1.00  0.00     0.000 C 
BRANCH  10  11
ATOM     11  C   UNL     1       9.926  10.441   6.429  1.00  0.00     0.000 C 
BRANCH  11  12
ATOM     12  C   UNL     1       9.778  11.826   7.081  1.00  0.00     0.000 C 
BRANCH  12  13
ATOM     13  C   UNL     1       8.872  11.805   8.323  1.00  0.00     0.006 C 
BRANCH  13  14
ATOM     14  C   UNL     1       8.085  13.109   8.511  1.00  0.00     0.053 C 
BRANCH  14  15
ATOM     15  C   UNL     1       6.969  13.190   7.516  1.00  0.00     0.041 C 
ATOM     16  O   UNL     1       6.488  12.138   7.018  1.00  0.00    -0.550 OA
ATOM     17  O   UNL     1       6.415  14.421   7.191  1.00  0.00    -0.550 OA
ENDBRANCH  14  15
ENDBRANCH  13  14
ENDBRANCH  12  13
ENDBRANCH  11  12
ENDBRANCH  10  11
ENDBRANCH   9  10
ENDBRANCH   8   9
ENDBRANCH   7   8
ENDBRANCH   6   7
ENDBRANCH   5   6
ENDBRANCH   4   5
ENDBRANCH   3   4
ENDBRANCH   2   3
ENDBRANCH   1   2
BRANCH   1  18
ATOM     18  C   UNL     1      13.125  16.193   4.733  1.00  0.00     0.000 C 
BRANCH  18  19
ATOM     19  C   UNL     1      12.662  17.422   3.943  1.00  0.00     0.000 C 
BRANCH  19  20
ATOM     20  C   UNL     1      12.113  17.018   2.566  1.00  0.00     0.000 C 
BRANCH  20  21
ATOM     21  C   UNL     1      12.239  15.510   2.292  1.00  0.00     0.000 C 
BRANCH  21  22
ATOM     22  C   UNL     1      12.427  15.134   0.808  1.00  0.00     0.000 C 
BRANCH  22  23
ATOM     23  C   UNL     1      12.985  16.256  -0.089  1.00  0.00     0.000 C 
BRANCH  23  24
ATOM     24  C   UNL     1      14.454  16.081  -0.516  1.00  0.00    -0.000 C 
BRANCH  24  25
ATOM     25  C   UNL     1      15.337  17.276  -0.128  1.00  0.00    -0.000 C 
BRANCH  25  26
ATOM     26  C   UNL     1      15.844  17.134   1.316  1.00  0.00    -0.000 C 
BRANCH  26  27
ATOM     27  C   UNL     1      15.793  15.684   1.827  1.00  0.00    -0.000 C 
BRANCH  27  28
ATOM     28  C   UNL     1      16.457  15.450   3.200  1.00  0.00    -0.000 C 
BRANCH  28  29
ATOM     29  C   UNL     1      16.370  14.006   3.733  1.00  0.00    -0.000 C 
BRANCH  29  30
ATOM     30  C   UNL     1      15.467  13.065   2.915  1.00  0.00    -0.000 C 
BRANCH  30  31
ATOM     31  C   UNL     1      14.130  12.773   3.612  1.00  0.00    -0.003 C 
ATOM     32  C   UNL     1      14.301  12.710   5.127  1.00  0.00     0.004 C 
ENDBRANCH  30  31
ENDBRANCH  29  30
ENDBRANCH  28  29
ENDBRANCH  27  28
ENDBRANCH  26  27
ENDBRANCH  25  26
ENDBRANCH  24  25
ENDBRANCH  23  24
ENDBRANCH  22  23
ENDBRANCH  21  22
ENDBRANCH  20  21
ENDBRANCH  19  20
ENDBRANCH  18  19
ENDBRANCH   1  18
TORSDOF 28
ENDMDL
MODEL 5
REMARK VINA RESULT:    -5.027      2.934      8.386
REMARK INTER + INTRA:         -18.182
REMARK INTER:                 -12.565
REMARK INTRA:                  -5.617
REMARK UNBOUND:                -4.926
REMARK SMILES CCCCCCCCCCCCCCCCCCCCCCCCCCCCCC(=O)[O-]
REMARK SMILES IDX 16 1 17 2 18 3 19 4 20 5 21 6 22 7 23 8 24 9 25 10 26 11
REMARK SMILES IDX 27 12 28 13 29 14 30 15 31 16 32 17 15 18 14 19 13 20 12 21
REMARK SMILES IDX 11 22 10 23 9 24 8 25 7 26 6 27 5 28 4 29 3 30 2 31 1 32
REMARK H PARENT
REMARK Flexibility Score: inf
ROOT
ATOM      1  C   UNL     1      14.593  14.152   1.737  1.00  0.00     0.000 C 
ENDROOT
BRANCH   1   2
ATOM      2  C   UNL     1      15.396  13.195   2.632  1.00  0.00     0.000 C 
BRANCH   2   3
ATOM      3  C   UNL     1      15.442  13.656   4.100  1.00  0.00     0.000 C 
BRANCH   3   4
ATOM      4  C   UNL     1      14.736  12.685   5.057  1.00  0.00     0.000 C 
BRANCH   4   5
ATOM      5  C   UNL     1      13.204  12.848   5.049  1.00  0.00     0.000 C 
BRANCH   5   6
ATOM      6  C   UNL     1      12.512  11.718   4.268  1.00  0.00     0.000 C 
BRANCH   6   7
ATOM      7  C   UNL     1      11.157  12.161   3.684  1.00  0.00     0.000 C 
BRANCH   7   8
ATOM      8  C   UNL     1      10.056  11.106   3.891  1.00  0.00     0.000 C 
BRANCH   8   9
ATOM      9  C   UNL     1      10.471  10.037   4.918  1.00  0.00     0.000 C 
BRANCH   9  10
ATOM     10  C   UNL     1       9.843  10.256   6.307  1.00  0.00     0.000 C 
BRANCH  10  11
ATOM     11  C   UNL     1       8.670  11.256   6.351  1.00  0.00     0.000 C 
BRANCH  11  12
ATOM     12  C   UNL     1       8.902  12.411   7.341  1.00  0.00     0.000 C 
BRANCH  12  13
ATOM     13  C   UNL     1       9.639  13.600   6.704  1.00  0.00     0.006 C 
BRANCH  13  14
ATOM     14  C   UNL     1       8.902  14.933   6.896  1.00  0.00     0.053 C 
BRANCH  14  15
ATOM     15  C   UNL     1       8.217  15.335   5.627  1.00  0.00     0.041 C 
ATOM     16  O   UNL     1       8.012  14.484   4.722  1.00  0.00    -0.550 OA
ATOM     17  O   UNL     1       7.746  16.632   5.471  1.00  0.00    -0.550 OA
ENDBRANCH  14  15
ENDBRANCH  13  14
ENDBRANCH  12  13
ENDBRANCH  11  12
ENDBRANCH  10  11
ENDBRANCH   9  10
ENDBRANCH   8   9
ENDBRANCH   7   8
ENDBRANCH   6   7
ENDBRANCH   5   6
ENDBRANCH   4   5
ENDBRANCH   3   4
ENDBRANCH   2   3
ENDBRANCH   1   2
BRANCH   1  18
ATOM     18  C   UNL     1      13.312  13.515   1.179  1.00  0.00     0.000 C 
BRANCH  18  19
ATOM     19  C   UNL     1      12.444  14.557   0.463  1.00  0.00     0.000 C 
BRANCH  19  20
ATOM     20  C   UNL     1      12.443  15.890   1.226  1.00  0.00     0.000 C 
BRANCH  20  21
ATOM     21  C   UNL     1      11.027  16.445   1.457  1.00  0.00     0.000 C 
BRANCH  21  22
ATOM     22  C   UNL     1      10.695  16.785   2.924  1.00  0.00     0.000 C 
BRANCH  22  23
ATOM     23  C   UNL     1      11.242  15.793   3.968  1.00  0.00     0.000 C 
BRANCH  23  24
ATOM     24  C   UNL     1      12.103  16.423   5.079  1.00  0.00    -0.000 C 
BRANCH  24  25
ATOM     25  C   UNL     1      13.585  16.543   4.691  1.00  0.00    -0.000 C 
BRANCH  25  26
ATOM     26  C   UNL     1      14.134  17.932   5.055  1.00  0.00    -0.000 C 
BRANCH  26  27
ATOM     27  C   UNL     1      15.161  18.454   4.035  1.00  0.00    -0.000 C 
BRANCH  27  28
ATOM     28  C   UNL     1      15.101  17.786   2.646  1.00  0.00    -0.000 C 
BRANCH  28  29
ATOM     29  C   UNL     1      15.800  18.565   1.513  1.00  0.00    -0.000 C 
BRANCH  29  30
ATOM     30  C   UNL     1      15.263  18.275   0.100  1.00  0.00    -0.000 C 
BRANCH  30  31
ATOM     31  C   UNL     1      15.699  16.901  -0.429  1.00  0.00    -0.003 C 
ATOM     32  C   UNL     1      14.756  16.407  -1.523  1.00  0.00     0.004 C 
ENDBRANCH  30  31
ENDBRANCH  29  30
ENDBRANCH  28  29
ENDBRANCH  27  28
ENDBRANCH  26  27
ENDBRANCH  25  26
ENDBRANCH  24  25
ENDBRANCH  23  24
ENDBRANCH  22  23
ENDBRANCH  21  22
ENDBRANCH  20  21
ENDBRANCH  19  20
ENDBRANCH  18  19
ENDBRANCH   1  18
TORSDOF 28
ENDMDL
MODEL 6
REMARK VINA RESULT:    -5.005      3.106      8.341
REMARK INTER + INTRA:         -18.124
REMARK INTER:                 -12.438
REMARK INTRA:                  -5.686
REMARK UNBOUND:                -4.926
REMARK SMILES CCCCCCCCCCCCCCCCCCCCCCCCCCCCCC(=O)[O-]
REMARK SMILES IDX 16 1 17 2 18 3 19 4 20 5 21 6 22 7 23 8 24 9 25 10 26 11
REMARK SMILES IDX 27 12 28 13 29 14 30 15 31 16 32 17 15 18 14 19 13 20 12 21
REMARK SMILES IDX 11 22 10 23 9 24 8 25 7 26 6 27 5 28 4 29 3 30 2 31 1 32
REMARK H PARENT
REMARK Flexibility Score: inf
ROOT
ATOM      1  C   UNL     1      11.700  17.347   3.459  1.00  0.00     0.000 C 
ENDROOT
BRANCH   1   2
ATOM      2  C   UNL     1      11.948  16.771   4.862  1.00  0.00     0.000 C 
BRANCH   2   3
ATOM      3  C   UNL     1      12.298  15.272   4.832  1.00  0.00     0.000 C 
BRANCH   3   4
ATOM      4  C   UNL     1      12.382  14.647   6.233  1.00  0.00     0.000 C 
BRANCH   4   5
ATOM      5  C   UNL     1      12.261  13.112   6.209  1.00  0.00     0.000 C 
BRANCH   5   6
ATOM      6  C   UNL     1      13.017  12.496   5.020  1.00  0.00     0.000 C 
BRANCH   6   7
ATOM      7  C   UNL     1      12.132  11.533   4.205  1.00  0.00     0.000 C 
BRANCH   7   8
ATOM      8  C   UNL     1      10.787  12.166   3.809  1.00  0.00     0.000 C 
BRANCH   8   9
ATOM      9  C   UNL     1       9.612  11.195   4.022  1.00  0.00     0.000 C 
BRANCH   9  10
ATOM     10  C   UNL     1       9.660  10.477   5.384  1.00  0.00     0.000 C 
BRANCH  10  11
ATOM     11  C   UNL     1       8.996  11.231   6.553  1.00  0.00     0.000 C 
BRANCH  11  12
ATOM     12  C   UNL     1       7.592  11.756   6.207  1.00  0.00     0.000 C 
BRANCH  12  13
ATOM     13  C   UNL     1       7.401  13.235   6.585  1.00  0.00     0.006 C 
BRANCH  13  14
ATOM     14  C   UNL     1       8.694  14.053   6.467  1.00  0.00     0.053 C 
BRANCH  14  15
ATOM     15  C   UNL     1       8.584  15.316   7.264  1.00  0.00     0.041 C 
ATOM     16  O   UNL     1       9.201  16.350   6.898  1.00  0.00    -0.550 OA
ATOM     17  O   UNL     1       7.747  15.369   8.371  1.00  0.00    -0.550 OA
ENDBRANCH  14  15
ENDBRANCH  13  14
ENDBRANCH  12  13
ENDBRANCH  11  12
ENDBRANCH  10  11
ENDBRANCH   9  10
ENDBRANCH   8   9
ENDBRANCH   7   8
ENDBRANCH   6   7
ENDBRANCH   5   6
ENDBRANCH   4   5
ENDBRANCH   3   4
ENDBRANCH   2   3
ENDBRANCH   1   2
BRANCH   1  18
ATOM     18  C   UNL     1      10.297  17.032   2.923  1.00  0.00     0.000 C 
BRANCH  18  19
ATOM     19  C   UNL     1      10.360  16.024   1.770  1.00  0.00     0.000 C 
BRANCH  19  20
ATOM     20  C   UNL     1      11.719  16.085   1.058  1.00  0.00     0.000 C 
BRANCH  20  21
ATOM     21  C   UNL     1      12.167  14.722   0.504  1.00  0.00     0.000 C 
BRANCH  21  22
ATOM     22  C   UNL     1      12.980  13.856   1.488  1.00  0.00     0.000 C 
BRANCH  22  23
ATOM     23  C   UNL     1      14.506  13.884   1.280  1.00  0.00     0.000 C 
BRANCH  23  24
ATOM     24  C   UNL     1      15.331  13.259   2.421  1.00  0.00    -0.000 C 
BRANCH  24  25
ATOM     25  C   UNL     1      15.839  14.299   3.431  1.00  0.00    -0.000 C 
BRANCH  25  26
ATOM     26  C   UNL     1      16.974  15.140   2.825  1.00  0.00    -0.000 C 
BRANCH  26  27
ATOM     27  C   UNL     1      16.849  16.638   3.156  1.00  0.00    -0.000 C 
BRANCH  27  28
ATOM     28  C   UNL     1      15.404  17.170   3.245  1.00  0.00    -0.000 C 
BRANCH  28  29
ATOM     29  C   UNL     1      14.807  17.670   1.914  1.00  0.00    -0.000 C 
BRANCH  29  30
ATOM     30  C   UNL     1      15.826  18.283   0.935  1.00  0.00    -0.000 C 
BRANCH  30  31
ATOM     31  C   UNL     1      16.158  17.348  -0.237  1.00  0.00    -0.003 C 
ATOM     32  C   UNL     1      14.889  16.773  -0.860  1.00  0.00     0.004 C 
ENDBRANCH  30  31
ENDBRANCH  29  30
ENDBRANCH  28  29
ENDBRANCH  27  28
ENDBRANCH  26  27
ENDBRANCH  25  26
ENDBRANCH  24  25
ENDBRANCH  23  24
ENDBRANCH  22  23
ENDBRANCH  21  22
ENDBRANCH  20  21
ENDBRANCH  19  20
ENDBRANCH  18  19
ENDBRANCH   1  18
TORSDOF 28
ENDMDL
MODEL 7
REMARK VINA RESULT:    -4.987      3.465      8.605
REMARK INTER + INTRA:         -18.077
REMARK INTER:                 -12.351
REMARK INTRA:                  -5.726
REMARK UNBOUND:                -4.926
REMARK SMILES CCCCCCCCCCCCCCCCCCCCCCCCCCCCCC(=O)[O-]
REMARK SMILES IDX 16 1 17 2 18 3 19 4 20 5 21 6 22 7 23 8 24 9 25 10 26 11
REMARK SMILES IDX 27 12 28 13 29 14 30 15 31 16 32 17 15 18 14 19 13 20 12 21
REMARK SMILES IDX 11 22 10 23 9 24 8 25 7 26 6 27 5 28 4 29 3 30 2 31 1 32
REMARK H PARENT
REMARK Flexibility Score: inf
ROOT
ATOM      1  C   UNL     1      12.254  15.581   0.977  1.00  0.00     0.000 C 
ENDROOT
BRANCH   1   2
ATOM      2  C   UNL     1      12.725  14.123   1.097  1.00  0.00     0.000 C 
BRANCH   2   3
ATOM      3  C   UNL     1      14.235  14.009   1.379  1.00  0.00     0.000 C 
BRANCH   3   4
ATOM      4  C   UNL     1      14.563  13.009   2.497  1.00  0.00     0.000 C 
BRANCH   4   5
ATOM      5  C   UNL     1      14.133  13.507   3.889  1.00  0.00     0.000 C 
BRANCH   5   6
ATOM      6  C   UNL     1      13.477  12.390   4.719  1.00  0.00     0.000 C 
BRANCH   6   7
ATOM      7  C   UNL     1      12.367  11.662   3.937  1.00  0.00     0.000 C 
BRANCH   7   8
ATOM      8  C   UNL     1      11.113  11.412   4.793  1.00  0.00     0.000 C 
BRANCH   8   9
ATOM      9  C   UNL     1       9.848  11.262   3.928  1.00  0.00     0.000 C 
BRANCH   9  10
ATOM     10  C   UNL     1       8.579  11.804   4.613  1.00  0.00     0.000 C 
BRANCH  10  11
ATOM     11  C   UNL     1       8.664  11.941   6.146  1.00  0.00     0.000 C 
BRANCH  11  12
ATOM     12  C   UNL     1       7.312  11.714   6.845  1.00  0.00     0.000 C 
BRANCH  12  13
ATOM     13  C   UNL     1       7.122  12.613   8.078  1.00  0.00     0.006 C 
BRANCH  13  14
ATOM     14  C   UNL     1       8.199  13.700   8.196  1.00  0.00     0.053 C 
BRANCH  14  15
ATOM     15  C   UNL     1       7.572  15.059   8.151  1.00  0.00     0.041 C 
ATOM     16  O   UNL     1       6.780  15.359   7.220  1.00  0.00    -0.550 OA
ATOM     17  O   UNL     1       7.809  15.969   9.172  1.00  0.00    -0.550 OA
ENDBRANCH  14  15
ENDBRANCH  13  14
ENDBRANCH  12  13
ENDBRANCH  11  12
ENDBRANCH  10  11
ENDBRANCH   9  10
ENDBRANCH   8   9
ENDBRANCH   7   8
ENDBRANCH   6   7
ENDBRANCH   5   6
ENDBRANCH   4   5
ENDBRANCH   3   4
ENDBRANCH   2   3
ENDBRANCH   1   2
BRANCH   1  18
ATOM     18  C   UNL     1      10.996  15.872   1.807  1.00  0.00     0.000 C 
BRANCH  18  19
ATOM     19  C   UNL     1      10.741  14.760   2.831  1.00  0.00     0.000 C 
BRANCH  19  20
ATOM     20  C   UNL     1       9.477  15.049   3.655  1.00  0.00     0.000 C 
BRANCH  20  21
ATOM     21  C   UNL     1       9.783  15.723   5.003  1.00  0.00     0.000 C 
BRANCH  21  22
ATOM     22  C   UNL     1      10.851  15.011   5.857  1.00  0.00     0.000 C 
BRANCH  22  23
ATOM     23  C   UNL     1      12.199  15.750   5.974  1.00  0.00     0.000 C 
BRANCH  23  24
ATOM     24  C   UNL     1      12.093  17.281   6.108  1.00  0.00    -0.000 C 
BRANCH  24  25
ATOM     25  C   UNL     1      13.106  18.030   5.228  1.00  0.00    -0.000 C 
BRANCH  25  26
ATOM     26  C   UNL     1      13.533  17.167   4.031  1.00  0.00    -0.000 C 
BRANCH  26  27
ATOM     27  C   UNL     1      15.052  16.920   3.984  1.00  0.00    -0.000 C 
BRANCH  27  28
ATOM     28  C   UNL     1      15.808  17.702   2.890  1.00  0.00    -0.000 C 
BRANCH  28  29
ATOM     29  C   UNL     1      16.099  16.908   1.601  1.00  0.00    -0.000 C 
BRANCH  29  30
ATOM     30  C   UNL     1      16.117  17.749   0.311  1.00  0.00    -0.000 C 
BRANCH  30  31
ATOM     31  C   UNL     1      14.845  17.572  -0.530  1.00  0.00    -0.003 C 
ATOM     32  C   UNL     1      14.938  16.333  -1.416  1.00  0.00     0.004 C 
ENDBRANCH  30  31
ENDBRANCH  29  30
ENDBRANCH  28  29
ENDBRANCH  27  28
ENDBRANCH  26  27
ENDBRANCH  25  26
ENDBRANCH  24  25
ENDBRANCH  23  24
ENDBRANCH  22  23
ENDBRANCH  21  22
ENDBRANCH  20  21
ENDBRANCH  19  20
ENDBRANCH  18  19
ENDBRANCH   1  18
TORSDOF 28
ENDMDL
MODEL 8
REMARK VINA RESULT:    -4.953      2.570      7.669
REMARK INTER + INTRA:         -17.985
REMARK INTER:                 -12.741
REMARK INTRA:                  -5.244
REMARK UNBOUND:                -4.926
REMARK SMILES CCCCCCCCCCCCCCCCCCCCCCCCCCCCCC(=O)[O-]
REMARK SMILES IDX 16 1 17 2 18 3 19 4 20 5 21 6 22 7 23 8 24 9 25 10 26 11
REMARK SMILES IDX 27 12 28 13 29 14 30 15 31 16 32 17 15 18 14 19 13 20 12 21
REMARK SMILES IDX 11 22 10 23 9 24 8 25 7 26 6 27 5 28 4 29 3 30 2 31 1 32
REMARK H PARENT
REMARK Flexibility Score: inf
ROOT
ATOM      1  C   UNL     1      10.858  15.075   2.661  1.00  0.00     0.000 C 
ENDROOT
BRANCH   1   2
ATOM      2  C   UNL     1      10.392  13.965   3.616  1.00  0.00     0.000 C 
BRANCH   2   3
ATOM      3  C   UNL     1       8.904  13.613   3.432  1.00  0.00     0.000 C 
BRANCH   3   4
ATOM      4  C   UNL     1       8.575  12.167   3.830  1.00  0.00     0.000 C 
BRANCH   4   5
ATOM      5  C   UNL     1       9.832  11.290   3.980  1.00  0.00     0.000 C 
BRANCH   5   6
ATOM      6  C   UNL     1       9.809  10.475   5.285  1.00  0.00     0.000 C 
BRANCH   6   7
ATOM      7  C   UNL     1       9.959  11.370   6.530  1.00  0.00     0.000 C 
BRANCH   7   8
ATOM      8  C   UNL     1       8.749  11.269   7.475  1.00  0.00     0.000 C 
BRANCH   8   9
ATOM      9  C   UNL     1       8.220  12.657   7.879  1.00  0.00     0.000 C 
BRANCH   9  10
ATOM     10  C   UNL     1       8.966  13.814   7.188  1.00  0.00     0.000 C 
BRANCH  10  11
ATOM     11  C   UNL     1       8.071  14.946   6.647  1.00  0.00     0.000 C 
BRANCH  11  12
ATOM     12  C   UNL     1       8.876  16.125   6.072  1.00  0.00     0.000 C 
BRANCH  12  13
ATOM     13  C   UNL     1      10.133  16.444   6.898  1.00  0.00     0.006 C 
BRANCH  13  14
ATOM     14  C   UNL     1      10.860  17.707   6.416  1.00  0.00     0.053 C 
BRANCH  14  15
ATOM     15  C   UNL     1      12.343  17.502   6.463  1.00  0.00     0.041 C 
ATOM     16  O   UNL     1      12.981  17.255   5.406  1.00  0.00    -0.550 OA
ATOM     17  O   UNL     1      13.028  17.649   7.662  1.00  0.00    -0.550 OA
ENDBRANCH  14  15
ENDBRANCH  13  14
ENDBRANCH  12  13
ENDBRANCH  11  12
ENDBRANCH  10  11
ENDBRANCH   9  10
ENDBRANCH   8   9
ENDBRANCH   7   8
ENDBRANCH   6   7
ENDBRANCH   5   6
ENDBRANCH   4   5
ENDBRANCH   3   4
ENDBRANCH   2   3
ENDBRANCH   1   2
BRANCH   1  18
ATOM     18  C   UNL     1      12.320  14.910   2.221  1.00  0.00     0.000 C 
BRANCH  18  19
ATOM     19  C   UNL     1      12.468  15.117   0.709  1.00  0.00     0.000 C 
BRANCH  19  20
ATOM     20  C   UNL     1      13.911  14.848   0.256  1.00  0.00     0.000 C 
BRANCH  20  21
ATOM     21  C   UNL     1      14.489  15.985  -0.604  1.00  0.00     0.000 C 
BRANCH  21  22
ATOM     22  C   UNL     1      14.772  17.295   0.158  1.00  0.00     0.000 C 
BRANCH  22  23
ATOM     23  C   UNL     1      16.263  17.658   0.311  1.00  0.00     0.000 C 
BRANCH  23  24
ATOM     24  C   UNL     1      16.846  17.439   1.719  1.00  0.00    -0.000 C 
BRANCH  24  25
ATOM     25  C   UNL     1      15.779  17.485   2.823  1.00  0.00    -0.000 C 
BRANCH  25  26
ATOM     26  C   UNL     1      15.532  16.083   3.403  1.00  0.00    -0.000 C 
BRANCH  26  27
ATOM     27  C   UNL     1      16.639  15.080   3.032  1.00  0.00    -0.000 C 
BRANCH  27  28
ATOM     28  C   UNL     1      16.251  13.594   3.178  1.00  0.00    -0.000 C 
BRANCH  28  29
ATOM     29  C   UNL     1      15.320  13.274   4.365  1.00  0.00    -0.000 C 
BRANCH  29  30
ATOM     30  C   UNL     1      14.045  12.494   3.998  1.00  0.00    -0.000 C 
BRANCH  30  31
ATOM     31  C   UNL     1      13.069  12.364   5.176  1.00  0.00    -0.003 C 
ATOM     32  C   UNL     1      13.124  13.596   6.075  1.00  0.00     0.004 C 
ENDBRANCH  30  31
ENDBRANCH  29  30
ENDBRANCH  28  29
ENDBRANCH  27  28
ENDBRANCH  26  27
ENDBRANCH  25  26
ENDBRANCH  24  25
ENDBRANCH  23  24
ENDBRANCH  22  23
ENDBRANCH  21  22
ENDBRANCH  20  21
ENDBRANCH  19  20
ENDBRANCH  18  19
ENDBRANCH   1  18
TORSDOF 28
ENDMDL
MODEL 9
REMARK VINA RESULT:    -4.950      2.271      5.048
REMARK INTER + INTRA:         -17.978
REMARK INTER:                 -11.956
REMARK INTRA:                  -6.022
REMARK UNBOUND:                -4.926
REMARK SMILES CCCCCCCCCCCCCCCCCCCCCCCCCCCCCC(=O)[O-]
REMARK SMILES IDX 16 1 17 2 18 3 19 4 20 5 21 6 22 7 23 8 24 9 25 10 26 11
REMARK SMILES IDX 27 12 28 13 29 14 30 15 31 16 32 17 15 18 14 19 13 20 12 21
REMARK SMILES IDX 11 22 10 23 9 24 8 25 7 26 6 27 5 28 4 29 3 30 2 31 1 32
REMARK H PARENT
REMARK Flexibility Score: inf
ROOT
ATOM      1  C   UNL     1       7.312  12.416   7.171  1.00  0.00     0.000 C 
ENDROOT
BRANCH   1   2
ATOM      2  C   UNL     1       7.216  13.783   7.867  1.00  0.00     0.000 C 
BRANCH   2   3
ATOM      3  C   UNL     1       8.241  14.796   7.325  1.00  0.00     0.000 C 
BRANCH   3   4
ATOM      4  C   UNL     1       7.828  15.405   5.977  1.00  0.00     0.000 C 
BRANCH   4   5
ATOM      5  C   UNL     1       8.802  15.049   4.838  1.00  0.00     0.000 C 
BRANCH   5   6
ATOM      6  C   UNL     1       8.447  15.780   3.532  1.00  0.00     0.000 C 
BRANCH   6   7
ATOM      7  C   UNL     1       9.627  15.804   2.542  1.00  0.00     0.000 C 
BRANCH   7   8
ATOM      8  C   UNL     1      10.649  14.688   2.819  1.00  0.00     0.000 C 
BRANCH   8   9
ATOM      9  C   UNL     1      12.007  14.975   2.152  1.00  0.00     0.000 C 
BRANCH   9  10
ATOM     10  C   UNL     1      12.104  16.395   1.564  1.00  0.00     0.000 C 
BRANCH  10  11
ATOM     11  C   UNL     1      13.445  17.117   1.801  1.00  0.00     0.000 C 
BRANCH  11  12
ATOM     12  C   UNL     1      14.665  16.212   1.561  1.00  0.00     0.000 C 
BRANCH  12  13
ATOM     13  C   UNL     1      15.626  16.179   2.761  1.00  0.00     0.006 C 
BRANCH  13  14
ATOM     14  C   UNL     1      15.470  14.915   3.617  1.00  0.00     0.053 C 
BRANCH  14  15
ATOM     15  C   UNL     1      16.404  13.846   3.140  1.00  0.00     0.041 C 
ATOM     16  O   UNL     1      17.565  13.763   3.618  1.00  0.00    -0.550 OA
ATOM     17  O   UNL     1      15.969  12.903   2.219  1.00  0.00    -0.550 OA
ENDBRANCH  14  15
ENDBRANCH  13  14
ENDBRANCH  12  13
ENDBRANCH  11  12
ENDBRANCH  10  11
ENDBRANCH   9  10
ENDBRANCH   8   9
ENDBRANCH   7   8
ENDBRANCH   6   7
ENDBRANCH   5   6
ENDBRANCH   4   5
ENDBRANCH   3   4
ENDBRANCH   2   3
ENDBRANCH   1   2
BRANCH   1  18
ATOM     18  C   UNL     1       8.543  11.609   7.606  1.00  0.00     0.000 C 
BRANCH  18  19
ATOM     19  C   UNL     1       9.177  10.884   6.414  1.00  0.00     0.000 C 
BRANCH  19  20
ATOM     20  C   UNL     1       8.674  11.466   5.084  1.00  0.00     0.000 C 
BRANCH  20  21
ATOM     21  C   UNL     1       9.664  11.255   3.926  1.00  0.00     0.000 C 
BRANCH  21  22
ATOM     22  C   UNL     1      11.068  10.779   4.351  1.00  0.00     0.000 C 
BRANCH  22  23
ATOM     23  C   UNL     1      12.230  11.697   3.923  1.00  0.00     0.000 C 
BRANCH  23  24
ATOM     24  C   UNL     1      12.935  12.437   5.076  1.00  0.00    -0.000 C 
BRANCH  24  25
ATOM     25  C   UNL     1      11.961  13.218   5.970  1.00  0.00    -0.000 C 
BRANCH  25  26
ATOM     26  C   UNL     1      12.661  14.422   6.620  1.00  0.00    -0.000 C 
BRANCH  26  27
ATOM     27  C   UNL     1      12.460  15.728   5.830  1.00  0.00    -0.000 C 
BRANCH  27  28
ATOM     28  C   UNL     1      11.463  16.724   6.457  1.00  0.00    -0.000 C 
BRANCH  28  29
ATOM     29  C   UNL     1      11.655  18.195   6.036  1.00  0.00    -0.000 C 
BRANCH  29  30
ATOM     30  C   UNL     1      11.367  18.489   4.553  1.00  0.00    -0.000 C 
BRANCH  30  31
ATOM     31  C   UNL     1      10.331  19.607   4.360  1.00  0.00    -0.003 C 
ATOM     32  C   UNL     1       8.937  19.143   4.772  1.00  0.00     0.004 C 
ENDBRANCH  30  31
ENDBRANCH  29  30
ENDBRANCH  28  29
ENDBRANCH  27  28
ENDBRANCH  26  27
ENDBRANCH  25  26
ENDBRANCH  24  25
ENDBRANCH  23  24
ENDBRANCH  22  23
ENDBRANCH  21  22
ENDBRANCH  20  21
ENDBRANCH  19  20
ENDBRANCH  18  19
ENDBRANCH   1  18
TORSDOF 28
ENDMDL
