MODEL 1
REMARK VINA RESULT:    -3.902      0.000      0.000
REMARK INTER + INTRA:          -4.325
REMARK INTER:                  -4.130
REMARK INTRA:                  -0.196
REMARK UNBOUND:                -0.196
REMARK SMILES C=C(C)[C@H]1CC=C(C)C(=O)C1
REMARK SMILES IDX 8 1 7 2 6 3 5 4 4 5 11 6 9 7 10 8 2 9 1 10 3 11
REMARK H PARENT
REMARK Flexibility Score: inf
ROOT
ATOM      1  C   UNL     1      -1.965  12.838  -0.967  1.00  0.00     0.048 C 
ATOM      2  C   UNL     1      -1.962  13.350   0.447  1.00  0.00    -0.012 C 
ATOM      3  C   UNL     1      -1.768  14.657   0.680  1.00  0.00    -0.019 C 
ATOM      4  C   UNL     1      -1.785  15.242   2.066  1.00  0.00     0.036 C 
ATOM      5  C   UNL     1      -1.331  14.254   3.160  1.00  0.00     0.025 C 
ATOM      6  C   UNL     1      -2.006  12.875   3.000  1.00  0.00     0.089 C 
ATOM      7  C   UNL     1      -2.021  12.394   1.577  1.00  0.00     0.158 C 
ATOM      8  O   UNL     1      -2.122  11.158   1.352  1.00  0.00    -0.295 OA
ENDROOT
BRANCH   5   9
ATOM      9  C   UNL     1       0.191  14.165   3.286  1.00  0.00    -0.077 C 
ATOM     10  C   UNL     1       0.826  13.002   3.513  1.00  0.00     0.008 C 
ATOM     11  C   UNL     1       1.027  15.414   3.156  1.00  0.00     0.039 C 
ENDBRANCH   5   9
TORSDOF 1
ENDMDL
MODEL 2
REMARK VINA RESULT:    -3.619      9.301     11.223
REMARK INTER + INTRA:          -4.026
REMARK INTER:                  -3.813
REMARK INTRA:                  -0.213
REMARK UNBOUND:                -0.196
REMARK SMILES C=C(C)[C@H]1CC=C(C)C(=O)C1
REMARK SMILES IDX 8 1 7 2 6 3 5 4 4 5 11 6 9 7 10 8 2 9 1 10 3 11
REMARK H PARENT
REMARK Flexibility Score: inf
ROOT
ATOM      1  C   UNL     1      -5.832   8.389   8.221  1.00  0.00     0.048 C 
ATOM      2  C   UNL     1      -7.238   8.211   7.718  1.00  0.00    -0.012 C 
ATOM      3  C   UNL     1      -8.060   7.348   8.336  1.00  0.00    -0.019 C 
ATOM      4  C   UNL     1      -9.488   7.144   7.907  1.00  0.00     0.036 C 
ATOM      5  C   UNL     1      -9.722   7.391   6.403  1.00  0.00     0.025 C 
ATOM      6  C   UNL     1      -9.054   8.698   5.927  1.00  0.00     0.089 C 
ATOM      7  C   UNL     1      -7.660   8.869   6.460  1.00  0.00     0.158 C 
ATOM      8  O   UNL     1      -6.856   9.615   5.839  1.00  0.00    -0.295 OA
ENDROOT
BRANCH   5   9
ATOM      9  C   UNL     1      -9.358   6.183   5.538  1.00  0.00    -0.077 C 
ATOM     10  C   UNL     1      -9.059   6.297   4.233  1.00  0.00     0.008 C 
ATOM     11  C   UNL     1      -9.328   4.804   6.152  1.00  0.00     0.039 C 
ENDBRANCH   5   9
TORSDOF 1
ENDMDL
MODEL 3
REMARK VINA RESULT:    -3.563      7.853      9.361
REMARK INTER + INTRA:          -3.967
REMARK INTER:                  -3.755
REMARK INTRA:                  -0.212
REMARK UNBOUND:                -0.196
REMARK SMILES C=C(C)[C@H]1CC=C(C)C(=O)C1
REMARK SMILES IDX 8 1 7 2 6 3 5 4 4 5 11 6 9 7 10 8 2 9 1 10 3 11
REMARK H PARENT
REMARK Flexibility Score: inf
ROOT
ATOM      1  C   UNL     1      -0.511   4.933  -1.193  1.00  0.00     0.048 C 
ATOM      2  C   UNL     1      -0.043   5.483  -2.512  1.00  0.00    -0.012 C 
ATOM      3  C   UNL     1       1.271   5.631  -2.742  1.00  0.00    -0.019 C 
ATOM      4  C   UNL     1       1.810   6.145  -4.049  1.00  0.00     0.036 C 
ATOM      5  C   UNL     1       0.852   7.111  -4.775  1.00  0.00     0.025 C 
ATOM      6  C   UNL     1      -0.592   6.568  -4.808  1.00  0.00     0.089 C 
ATOM      7  C   UNL     1      -1.031   5.999  -3.488  1.00  0.00     0.158 C 
ATOM      8  O   UNL     1      -2.264   5.932  -3.233  1.00  0.00    -0.295 OA
ENDROOT
BRANCH   5   9
ATOM      9  C   UNL     1       0.941   8.544  -4.249  1.00  0.00    -0.077 C 
ATOM     10  C   UNL     1      -0.130   9.354  -4.186  1.00  0.00     0.008 C 
ATOM     11  C   UNL     1       2.268   9.090  -3.782  1.00  0.00     0.039 C 
ENDBRANCH   5   9
TORSDOF 1
ENDMDL
MODEL 4
REMARK VINA RESULT:    -3.521     14.732     16.421
REMARK INTER + INTRA:          -3.922
REMARK INTER:                  -3.712
REMARK INTRA:                  -0.210
REMARK UNBOUND:                -0.196
REMARK SMILES C=C(C)[C@H]1CC=C(C)C(=O)C1
REMARK SMILES IDX 8 1 7 2 6 3 5 4 4 5 11 6 9 7 10 8 2 9 1 10 3 11
REMARK H PARENT
REMARK Flexibility Score: inf
ROOT
ATOM      1  C   UNL     1      -7.720   2.716   7.359  1.00  0.00     0.048 C 
ATOM      2  C   UNL     1      -8.247   1.334   7.081  1.00  0.00    -0.012 C 
ATOM      3  C   UNL     1      -7.394   0.300   7.012  1.00  0.00    -0.019 C 
ATOM      4  C   UNL     1      -7.854  -1.112   6.769  1.00  0.00     0.036 C 
ATOM      5  C   UNL     1      -9.148  -1.205   5.935  1.00  0.00     0.025 C 
ATOM      6  C   UNL     1     -10.225  -0.221   6.438  1.00  0.00     0.089 C 
ATOM      7  C   UNL     1      -9.674   1.146   6.735  1.00  0.00     0.158 C 
ATOM      8  O   UNL     1     -10.456   2.135   6.721  1.00  0.00    -0.295 OA
ENDROOT
BRANCH   5   9
ATOM      9  C   UNL     1      -8.895  -1.097   4.431  1.00  0.00    -0.077 C 
ATOM     10  C   UNL     1      -9.758  -0.491   3.598  1.00  0.00     0.008 C 
ATOM     11  C   UNL     1      -7.638  -1.688   3.839  1.00  0.00     0.039 C 
ENDBRANCH   5   9
TORSDOF 1
ENDMDL
MODEL 5
REMARK VINA RESULT:    -3.463      1.893      3.602
REMARK INTER + INTRA:          -3.861
REMARK INTER:                  -3.645
REMARK INTRA:                  -0.216
REMARK UNBOUND:                -0.196
REMARK SMILES C=C(C)[C@H]1CC=C(C)C(=O)C1
REMARK SMILES IDX 8 1 7 2 6 3 5 4 4 5 11 6 9 7 10 8 2 9 1 10 3 11
REMARK H PARENT
REMARK Flexibility Score: inf
ROOT
ATOM      1  C   UNL     1      -4.323  14.356   5.131  1.00  0.00     0.048 C 
ATOM      2  C   UNL     1      -3.068  14.300   4.304  1.00  0.00    -0.012 C 
ATOM      3  C   UNL     1      -2.746  15.336   3.514  1.00  0.00    -0.019 C 
ATOM      4  C   UNL     1      -1.490  15.362   2.685  1.00  0.00     0.036 C 
ATOM      5  C   UNL     1      -1.011  13.962   2.247  1.00  0.00     0.025 C 
ATOM      6  C   UNL     1      -1.026  12.959   3.419  1.00  0.00     0.089 C 
ATOM      7  C   UNL     1      -2.277  13.048   4.248  1.00  0.00     0.158 C 
ATOM      8  O   UNL     1      -2.629  12.049   4.930  1.00  0.00    -0.295 OA
ENDROOT
BRANCH   5   9
ATOM      9  C   UNL     1      -1.742  13.446   1.007  1.00  0.00    -0.077 C 
ATOM     10  C   UNL     1      -1.999  12.141   0.816  1.00  0.00     0.008 C 
ATOM     11  C   UNL     1      -2.197  14.419  -0.054  1.00  0.00     0.039 C 
ENDBRANCH   5   9
TORSDOF 1
ENDMDL
MODEL 6
REMARK VINA RESULT:    -3.438      8.162      9.692
REMARK INTER + INTRA:          -3.834
REMARK INTER:                  -3.615
REMARK INTRA:                  -0.219
REMARK UNBOUND:                -0.196
REMARK SMILES C=C(C)[C@H]1CC=C(C)C(=O)C1
REMARK SMILES IDX 8 1 7 2 6 3 5 4 4 5 11 6 9 7 10 8 2 9 1 10 3 11
REMARK H PARENT
REMARK Flexibility Score: inf
ROOT
ATOM      1  C   UNL     1      -0.175   4.018  -5.044  1.00  0.00     0.048 C 
ATOM      2  C   UNL     1      -0.591   5.464  -5.035  1.00  0.00    -0.012 C 
ATOM      3  C   UNL     1      -0.717   6.126  -6.196  1.00  0.00    -0.019 C 
ATOM      4  C   UNL     1      -1.160   7.563  -6.262  1.00  0.00     0.036 C 
ATOM      5  C   UNL     1      -0.777   8.385  -5.015  1.00  0.00     0.025 C 
ATOM      6  C   UNL     1      -1.113   7.635  -3.710  1.00  0.00     0.089 C 
ATOM      7  C   UNL     1      -0.713   6.187  -3.749  1.00  0.00     0.158 C 
ATOM      8  O   UNL     1      -0.514   5.580  -2.662  1.00  0.00    -0.295 OA
ENDROOT
BRANCH   5   9
ATOM      9  C   UNL     1       0.664   8.896  -5.059  1.00  0.00    -0.077 C 
ATOM     10  C   UNL     1       1.402   9.060  -3.949  1.00  0.00     0.008 C 
ATOM     11  C   UNL     1       1.298   9.235  -6.386  1.00  0.00     0.039 C 
ENDBRANCH   5   9
TORSDOF 1
ENDMDL
MODEL 7
REMARK VINA RESULT:    -3.426      9.257     10.890
REMARK INTER + INTRA:          -3.822
REMARK INTER:                  -3.635
REMARK INTRA:                  -0.187
REMARK UNBOUND:                -0.196
REMARK SMILES C=C(C)[C@H]1CC=C(C)C(=O)C1
REMARK SMILES IDX 8 1 7 2 6 3 5 4 4 5 11 6 9 7 10 8 2 9 1 10 3 11
REMARK H PARENT
REMARK Flexibility Score: inf
ROOT
ATOM      1  C   UNL     1      -1.028   6.597  -6.608  1.00  0.00     0.048 C 
ATOM      2  C   UNL     1      -0.465   5.993  -5.351  1.00  0.00    -0.012 C 
ATOM      3  C   UNL     1       0.345   4.925  -5.431  1.00  0.00    -0.019 C 
ATOM      4  C   UNL     1       0.969   4.291  -4.218  1.00  0.00     0.036 C 
ATOM      5  C   UNL     1       0.122   4.442  -2.937  1.00  0.00     0.025 C 
ATOM      6  C   UNL     1      -0.389   5.887  -2.757  1.00  0.00     0.089 C 
ATOM      7  C   UNL     1      -0.923   6.481  -4.029  1.00  0.00     0.158 C 
ATOM      8  O   UNL     1      -1.747   7.432  -3.960  1.00  0.00    -0.295 OA
ENDROOT
BRANCH   5   9
ATOM      9  C   UNL     1      -0.989   3.397  -2.833  1.00  0.00    -0.077 C 
ATOM     10  C   UNL     1      -2.033   3.538  -1.998  1.00  0.00     0.008 C 
ATOM     11  C   UNL     1      -0.931   2.153  -3.686  1.00  0.00     0.039 C 
ENDBRANCH   5   9
TORSDOF 1
ENDMDL
MODEL 8
REMARK VINA RESULT:    -3.402      8.025     10.203
REMARK INTER + INTRA:          -3.796
REMARK INTER:                  -3.574
REMARK INTRA:                  -0.222
REMARK UNBOUND:                -0.196
REMARK SMILES C=C(C)[C@H]1CC=C(C)C(=O)C1
REMARK SMILES IDX 8 1 7 2 6 3 5 4 4 5 11 6 9 7 10 8 2 9 1 10 3 11
REMARK H PARENT
REMARK Flexibility Score: inf
ROOT
ATOM      1  C   UNL     1       2.489   9.097  -3.671  1.00  0.00     0.048 C 
ATOM      2  C   UNL     1       1.365   8.132  -3.929  1.00  0.00    -0.012 C 
ATOM      3  C   UNL     1       1.635   6.829  -4.105  1.00  0.00    -0.019 C 
ATOM      4  C   UNL     1       0.557   5.805  -4.335  1.00  0.00     0.036 C 
ATOM      5  C   UNL     1      -0.692   6.370  -5.041  1.00  0.00     0.025 C 
ATOM      6  C   UNL     1      -1.151   7.702  -4.412  1.00  0.00     0.089 C 
ATOM      7  C   UNL     1      -0.010   8.642  -4.139  1.00  0.00     0.158 C 
ATOM      8  O   UNL     1      -0.245   9.877  -4.052  1.00  0.00    -0.295 OA
ENDROOT
BRANCH   5   9
ATOM      9  C   UNL     1      -0.532   6.448  -6.560  1.00  0.00    -0.077 C 
ATOM     10  C   UNL     1      -1.177   7.363  -7.304  1.00  0.00     0.008 C 
ATOM     11  C   UNL     1       0.375   5.473  -7.269  1.00  0.00     0.039 C 
ENDBRANCH   5   9
TORSDOF 1
ENDMDL
MODEL 9
REMARK VINA RESULT:    -3.398      1.997      4.070
REMARK INTER + INTRA:          -3.792
REMARK INTER:                  -3.588
REMARK INTRA:                  -0.204
REMARK UNBOUND:                -0.196
REMARK SMILES C=C(C)[C@H]1CC=C(C)C(=O)C1
REMARK SMILES IDX 8 1 7 2 6 3 5 4 4 5 11 6 9 7 10 8 2 9 1 10 3 11
REMARK H PARENT
REMARK Flexibility Score: inf
ROOT
ATOM      1  C   UNL     1       1.586  14.117   4.158  1.00  0.00     0.048 C 
ATOM      2  C   UNL     1       0.153  14.166   3.704  1.00  0.00    -0.012 C 
ATOM      3  C   UNL     1      -0.672  13.148   3.997  1.00  0.00    -0.019 C 
ATOM      4  C   UNL     1      -2.124  13.146   3.603  1.00  0.00     0.036 C 
ATOM      5  C   UNL     1      -2.416  13.946   2.317  1.00  0.00     0.025 C 
ATOM      6  C   UNL     1      -1.723  15.324   2.331  1.00  0.00     0.089 C 
ATOM      7  C   UNL     1      -0.301  15.258   2.812  1.00  0.00     0.158 C 
ATOM      8  O   UNL     1       0.501  16.169   2.474  1.00  0.00    -0.295 OA
ENDROOT
BRANCH   5   9
ATOM      9  C   UNL     1      -2.136  13.148   1.043  1.00  0.00    -0.077 C 
ATOM     10  C   UNL     1      -2.114  11.804   1.028  1.00  0.00     0.008 C 
ATOM     11  C   UNL     1      -1.870  13.874  -0.253  1.00  0.00     0.039 C 
ENDBRANCH   5   9
TORSDOF 1
ENDMDL
