MODEL 1
REMARK VINA RESULT:    -3.428      0.000      0.000
REMARK INTER + INTRA:          -3.528
REMARK INTER:                  -3.528
REMARK INTRA:                   0.000
REMARK UNBOUND:                 0.000
REMARK SMILES CC1(C)[C@H]2CC[C@]1(C)[C@H](O)C2
REMARK SMILES IDX 1 1 2 2 4 3 5 4 6 5 7 6 9 7 11 8 8 9 3 10 10 11
REMARK H PARENT 10 12
REMARK Flexibility Score: inf
ROOT
ATOM      1  C   UNL     1     143.457 148.971 137.401  1.00  0.00     0.012 C 
ATOM      2  C   UNL     1     142.453 149.394 138.518  1.00  0.00    -0.025 C 
ATOM      3  C   UNL     1     143.015 149.250 139.942  1.00  0.00    -0.002 C 
ATOM      4  C   UNL     1     141.802 149.595 140.840  1.00  0.00     0.005 C 
ATOM      5  C   UNL     1     140.613 149.016 140.048  1.00  0.00     0.010 C 
ATOM      6  C   UNL     1     141.307 148.395 138.802  1.00  0.00    -0.001 C 
ATOM      7  C   UNL     1     142.072 147.120 139.279  1.00  0.00     0.121 C 
ATOM      8  C   UNL     1     143.241 147.725 140.089  1.00  0.00     0.036 C 
ATOM      9  C   UNL     1     140.346 148.137 137.634  1.00  0.00     0.015 C 
ATOM     10  C   UNL     1     142.009 150.848 138.161  1.00  0.00     0.012 C 
ENDROOT
BRANCH   7  11
ATOM     11  O   UNL     1     141.288 146.281 140.088  1.00  0.00    -0.393 OA
ATOM     12  H   UNL     1     141.833 146.075 140.892  1.00  0.00     0.210 HD
ENDBRANCH   7  11
TORSDOF 1
ENDMDL
MODEL 2
REMARK VINA RESULT:    -3.422     14.316     16.017
REMARK INTER + INTRA:          -3.522
REMARK INTER:                  -3.522
REMARK INTRA:                   0.000
REMARK UNBOUND:                 0.000
REMARK SMILES CC1(C)[C@H]2CC[C@]1(C)[C@H](O)C2
REMARK SMILES IDX 1 1 2 2 4 3 5 4 6 5 7 6 9 7 11 8 8 9 3 10 10 11
REMARK H PARENT 10 12
REMARK Flexibility Score: inf
ROOT
ATOM      1  C   UNL     1     138.315 132.862 137.158  1.00  0.00     0.012 C 
ATOM      2  C   UNL     1     139.193 132.340 138.337  1.00  0.00    -0.025 C 
ATOM      3  C   UNL     1     138.517 132.457 139.713  1.00  0.00    -0.002 C 
ATOM      4  C   UNL     1     139.627 132.010 140.694  1.00  0.00     0.005 C 
ATOM      5  C   UNL     1     140.909 132.554 140.034  1.00  0.00     0.010 C 
ATOM      6  C   UNL     1     140.360 133.262 138.763  1.00  0.00    -0.001 C 
ATOM      7  C   UNL     1     139.622 134.557 139.228  1.00  0.00     0.121 C 
ATOM      8  C   UNL     1     138.357 133.986 139.908  1.00  0.00     0.036 C 
ATOM      9  C   UNL     1     141.432 133.513 137.694  1.00  0.00     0.015 C 
ATOM     10  C   UNL     1     139.592 130.879 137.955  1.00  0.00     0.012 C 
ENDROOT
BRANCH   7  11
ATOM     11  O   UNL     1     140.374 135.318 140.139  1.00  0.00    -0.393 OA
ATOM     12  H   UNL     1     141.252 134.864 140.230  1.00  0.00     0.210 HD
ENDBRANCH   7  11
TORSDOF 1
ENDMDL
MODEL 3
REMARK VINA RESULT:    -3.421      9.998     11.465
REMARK INTER + INTRA:          -3.521
REMARK INTER:                  -3.521
REMARK INTRA:                   0.000
REMARK UNBOUND:                 0.000
REMARK SMILES CC1(C)[C@H]2CC[C@]1(C)[C@H](O)C2
REMARK SMILES IDX 1 1 2 2 4 3 5 4 6 5 7 6 9 7 11 8 8 9 3 10 10 11
REMARK H PARENT 10 12
REMARK Flexibility Score: inf
ROOT
ATOM      1  C   UNL     1     148.956 138.041 137.419  1.00  0.00     0.012 C 
ATOM      2  C   UNL     1     149.416 139.062 138.505  1.00  0.00    -0.025 C 
ATOM      3  C   UNL     1     149.311 138.528 139.942  1.00  0.00    -0.002 C 
ATOM      4  C   UNL     1     149.688 139.755 140.807  1.00  0.00     0.005 C 
ATOM      5  C   UNL     1     149.093 140.933 140.011  1.00  0.00     0.010 C 
ATOM      6  C   UNL     1     148.432 140.220 138.797  1.00  0.00    -0.001 C 
ATOM      7  C   UNL     1     147.168 139.470 139.324  1.00  0.00     0.121 C 
ATOM      8  C   UNL     1     147.789 138.313 140.138  1.00  0.00     0.036 C 
ATOM      9  C   UNL     1     148.145 141.160 137.620  1.00  0.00     0.015 C 
ATOM     10  C   UNL     1     150.861 139.492 138.098  1.00  0.00     0.012 C 
ENDROOT
BRANCH   7  11
ATOM     11  O   UNL     1     146.357 140.273 140.143  1.00  0.00    -0.393 OA
ATOM     12  H   UNL     1     145.425 140.159 139.818  1.00  0.00     0.210 HD
ENDBRANCH   7  11
TORSDOF 1
ENDMDL
MODEL 4
REMARK VINA RESULT:    -3.402      7.440      8.946
REMARK INTER + INTRA:          -3.501
REMARK INTER:                  -3.501
REMARK INTRA:                   0.000
REMARK UNBOUND:                 0.000
REMARK SMILES CC1(C)[C@H]2CC[C@]1(C)[C@H](O)C2
REMARK SMILES IDX 1 1 2 2 4 3 5 4 6 5 7 6 9 7 11 8 8 9 3 10 10 11
REMARK H PARENT 10 12
REMARK Flexibility Score: inf
ROOT
ATOM      1  C   UNL     1     142.144 142.327 140.646  1.00  0.00     0.012 C 
ATOM      2  C   UNL     1     142.137 141.279 141.802  1.00  0.00    -0.025 C 
ATOM      3  C   UNL     1     143.332 140.311 141.769  1.00  0.00    -0.002 C 
ATOM      4  C   UNL     1     143.016 139.316 142.911  1.00  0.00     0.005 C 
ATOM      5  C   UNL     1     141.481 139.192 142.845  1.00  0.00     0.010 C 
ATOM      6  C   UNL     1     141.118 140.123 141.653  1.00  0.00    -0.001 C 
ATOM      7  C   UNL     1     141.590 139.416 140.344  1.00  0.00     0.121 C 
ATOM      8  C   UNL     1     143.128 139.530 140.447  1.00  0.00     0.036 C 
ATOM      9  C   UNL     1     139.642 140.539 141.632  1.00  0.00     0.015 C 
ATOM     10  C   UNL     1     142.033 142.104 143.123  1.00  0.00     0.012 C 
ENDROOT
BRANCH   7  11
ATOM     11  O   UNL     1     141.196 138.069 140.276  1.00  0.00    -0.393 OA
ATOM     12  H   UNL     1     142.020 137.541 140.110  1.00  0.00     0.210 HD
ENDBRANCH   7  11
TORSDOF 1
ENDMDL
MODEL 5
REMARK VINA RESULT:    -3.399      7.007      8.592
REMARK INTER + INTRA:          -3.498
REMARK INTER:                  -3.498
REMARK INTRA:                   0.000
REMARK UNBOUND:                 0.000
REMARK SMILES CC1(C)[C@H]2CC[C@]1(C)[C@H](O)C2
REMARK SMILES IDX 1 1 2 2 4 3 5 4 6 5 7 6 9 7 11 8 8 9 3 10 10 11
REMARK H PARENT 10 12
REMARK Flexibility Score: inf
ROOT
ATOM      1  C   UNL     1     139.511 139.266 140.642  1.00  0.00     0.012 C 
ATOM      2  C   UNL     1     139.543 140.289 141.820  1.00  0.00    -0.025 C 
ATOM      3  C   UNL     1     138.362 141.274 141.816  1.00  0.00    -0.002 C 
ATOM      4  C   UNL     1     138.702 142.240 142.977  1.00  0.00     0.005 C 
ATOM      5  C   UNL     1     140.238 142.342 142.902  1.00  0.00     0.010 C 
ATOM      6  C   UNL     1     140.578 141.431 141.688  1.00  0.00    -0.001 C 
ATOM      7  C   UNL     1     140.107 142.174 140.398  1.00  0.00     0.121 C 
ATOM      8  C   UNL     1     138.569 142.081 140.509  1.00  0.00     0.036 C 
ATOM      9  C   UNL     1     142.047 140.994 141.646  1.00  0.00     0.015 C 
ATOM     10  C   UNL     1     139.644 139.434 143.122  1.00  0.00     0.012 C 
ENDROOT
BRANCH   7  11
ATOM     11  O   UNL     1     140.522 143.516 140.356  1.00  0.00    -0.393 OA
ATOM     12  H   UNL     1     140.355 143.834 139.430  1.00  0.00     0.210 HD
ENDBRANCH   7  11
TORSDOF 1
ENDMDL
MODEL 6
REMARK VINA RESULT:    -3.393      9.792     11.276
REMARK INTER + INTRA:          -3.492
REMARK INTER:                  -3.492
REMARK INTRA:                   0.000
REMARK UNBOUND:                 0.000
REMARK SMILES CC1(C)[C@H]2CC[C@]1(C)[C@H](O)C2
REMARK SMILES IDX 1 1 2 2 4 3 5 4 6 5 7 6 9 7 11 8 8 9 3 10 10 11
REMARK H PARENT 10 12
REMARK Flexibility Score: inf
ROOT
ATOM      1  C   UNL     1     132.813 143.414 137.231  1.00  0.00     0.012 C 
ATOM      2  C   UNL     1     132.329 142.488 138.390  1.00  0.00    -0.025 C 
ATOM      3  C   UNL     1     132.439 143.129 139.783  1.00  0.00    -0.002 C 
ATOM      4  C   UNL     1     132.036 141.978 140.737  1.00  0.00     0.005 C 
ATOM      5  C   UNL     1     132.613 140.732 140.036  1.00  0.00     0.010 C 
ATOM      6  C   UNL     1     133.291 141.338 138.774  1.00  0.00    -0.001 C 
ATOM      7  C   UNL     1     134.567 142.102 139.249  1.00  0.00     0.121 C 
ATOM      8  C   UNL     1     133.964 143.330 139.969  1.00  0.00     0.036 C 
ATOM      9  C   UNL     1     133.565 140.305 137.674  1.00  0.00     0.015 C 
ATOM     10  C   UNL     1     130.879 142.055 138.010  1.00  0.00     0.012 C 
ENDROOT
BRANCH   7  11
ATOM     11  O   UNL     1     135.360 141.349 140.131  1.00  0.00    -0.393 OA
ATOM     12  H   UNL     1     136.304 141.505 139.866  1.00  0.00     0.210 HD
ENDBRANCH   7  11
TORSDOF 1
ENDMDL
MODEL 7
REMARK VINA RESULT:    -3.386      9.220     10.841
REMARK INTER + INTRA:          -3.485
REMARK INTER:                  -3.485
REMARK INTRA:                   0.000
REMARK UNBOUND:                 0.000
REMARK SMILES CC1(C)[C@H]2CC[C@]1(C)[C@H](O)C2
REMARK SMILES IDX 1 1 2 2 4 3 5 4 6 5 7 6 9 7 11 8 8 9 3 10 10 11
REMARK H PARENT 10 12
REMARK Flexibility Score: inf
ROOT
ATOM      1  C   UNL     1     133.852 140.431 137.684  1.00  0.00     0.012 C 
ATOM      2  C   UNL     1     133.409 141.318 138.888  1.00  0.00    -0.025 C 
ATOM      3  C   UNL     1     132.292 142.318 138.544  1.00  0.00    -0.002 C 
ATOM      4  C   UNL     1     132.142 143.145 139.843  1.00  0.00     0.005 C 
ATOM      5  C   UNL     1     133.590 143.230 140.366  1.00  0.00     0.010 C 
ATOM      6  C   UNL     1     134.387 142.451 139.281  1.00  0.00    -0.001 C 
ATOM      7  C   UNL     1     134.420 143.338 137.997  1.00  0.00     0.121 C 
ATOM      8  C   UNL     1     132.956 143.258 137.507  1.00  0.00     0.036 C 
ATOM      9  C   UNL     1     135.774 141.997 139.753  1.00  0.00     0.015 C 
ATOM     10  C   UNL     1     133.032 140.325 140.032  1.00  0.00     0.012 C 
ENDROOT
BRANCH   7  11
ATOM     11  O   UNL     1     134.784 144.669 138.259  1.00  0.00    -0.393 OA
ATOM     12  H   UNL     1     135.032 144.710 139.219  1.00  0.00     0.210 HD
ENDBRANCH   7  11
TORSDOF 1
ENDMDL
MODEL 8
REMARK VINA RESULT:    -3.378      8.039      9.684
REMARK INTER + INTRA:          -3.477
REMARK INTER:                  -3.477
REMARK INTRA:                   0.000
REMARK UNBOUND:                 0.000
REMARK SMILES CC1(C)[C@H]2CC[C@]1(C)[C@H](O)C2
REMARK SMILES IDX 1 1 2 2 4 3 5 4 6 5 7 6 9 7 11 8 8 9 3 10 10 11
REMARK H PARENT 10 12
REMARK Flexibility Score: inf
ROOT
ATOM      1  C   UNL     1     142.526 139.487 140.657  1.00  0.00     0.012 C 
ATOM      2  C   UNL     1     141.452 139.509 141.788  1.00  0.00    -0.025 C 
ATOM      3  C   UNL     1     140.501 138.300 141.764  1.00  0.00    -0.002 C 
ATOM      4  C   UNL     1     139.476 138.632 142.875  1.00  0.00     0.005 C 
ATOM      5  C   UNL     1     139.333 140.163 142.766  1.00  0.00     0.010 C 
ATOM      6  C   UNL     1     140.287 140.508 141.586  1.00  0.00    -0.001 C 
ATOM      7  C   UNL     1     139.616 139.993 140.274  1.00  0.00     0.121 C 
ATOM      8  C   UNL     1     139.748 138.460 140.419  1.00  0.00     0.036 C 
ATOM      9  C   UNL     1     140.684 141.989 141.536  1.00  0.00     0.015 C 
ATOM     10  C   UNL     1     142.245 139.658 143.124  1.00  0.00     0.012 C 
ENDROOT
BRANCH   7  11
ATOM     11  O   UNL     1     138.266 140.367 140.166  1.00  0.00    -0.393 OA
ATOM     12  H   UNL     1     137.749 139.527 140.050  1.00  0.00     0.210 HD
ENDBRANCH   7  11
TORSDOF 1
ENDMDL
MODEL 9
REMARK VINA RESULT:    -3.349      6.015      7.621
REMARK INTER + INTRA:          -3.447
REMARK INTER:                  -3.447
REMARK INTRA:                   0.000
REMARK UNBOUND:                 0.000
REMARK SMILES CC1(C)[C@H]2CC[C@]1(C)[C@H](O)C2
REMARK SMILES IDX 1 1 2 2 4 3 5 4 6 5 7 6 9 7 11 8 8 9 3 10 10 11
REMARK H PARENT 10 12
REMARK Flexibility Score: inf
ROOT
ATOM      1  C   UNL     1     139.201 142.182 140.666  1.00  0.00     0.012 C 
ATOM      2  C   UNL     1     140.315 142.135 141.757  1.00  0.00    -0.025 C 
ATOM      3  C   UNL     1     141.282 143.330 141.707  1.00  0.00    -0.002 C 
ATOM      4  C   UNL     1     142.342 142.975 142.777  1.00  0.00     0.005 C 
ATOM      5  C   UNL     1     142.458 141.443 142.651  1.00  0.00     0.010 C 
ATOM      6  C   UNL     1     141.457 141.122 141.505  1.00  0.00    -0.001 C 
ATOM      7  C   UNL     1     142.088 141.638 140.173  1.00  0.00     0.121 C 
ATOM      8  C   UNL     1     141.983 143.171 140.335  1.00  0.00     0.036 C 
ATOM      9  C   UNL     1     141.038 139.647 141.458  1.00  0.00     0.015 C 
ATOM     10  C   UNL     1     139.569 141.986 143.120  1.00  0.00     0.012 C 
ENDROOT
BRANCH   7  11
ATOM     11  O   UNL     1     143.427 141.246 140.012  1.00  0.00    -0.393 OA
ATOM     12  H   UNL     1     143.411 140.289 139.748  1.00  0.00     0.210 HD
ENDBRANCH   7  11
TORSDOF 1
ENDMDL
